MODEL 1
REMARK minimizedAffinity -2.39537239
REMARK minimizedRMSD -1
REMARK  0 active torsions:
REMARK  status: ('A' for Active; 'I' for Inactive)
ROOT
ATOM      1  O1  BZF d   1       0.487  -0.436  -1.008  0.00  0.00    -0.204 OA
ATOM      2  C2  BZF d   1      -0.730   0.175  -0.779  0.00  0.00     0.174 A 
ATOM      3  C3  BZF d   1      -1.101   0.036   0.510  0.00  0.00    -0.012 A 
ATOM      4  C3A BZF d   1      -0.006  -0.629   1.146  0.00  0.00    -0.107 A 
ATOM      5  C4  BZF d   1       0.230  -1.033   2.430  0.00  0.00     0.055 A 
ATOM      6  C5  BZF d   1       1.368  -1.721   2.707  0.00  0.00    -0.016 A 
ATOM      7  C6  BZF d   1       2.289  -2.027   1.726  0.00  0.00     0.022 A 
ATOM      8  C7  BZF d   1       2.101  -1.643   0.440  0.00  0.00     0.029 A 
ATOM      9  C7A BZF d   1       0.968  -0.919   0.163  0.00  0.00     0.058 A 
ENDROOT
TORSDOF 0
ENDMDL
