MODEL 1
REMARK minimizedAffinity -3.34861994
REMARK minimizedRMSD -1
REMARK  1 active torsions:
REMARK  status: ('A' for Active; 'I' for Inactive)
REMARK    1  A    between atoms: C3_4  and  O_7 
ROOT
ATOM      1  C   UNL d   1       0.080   0.910  -0.559  0.00  0.00    -0.033 A 
ATOM      2  C1  UNL d   1      -0.399   0.087   0.462  0.00  0.00     0.039 A 
ATOM      3  C2  UNL d   1       0.362  -0.997   0.904  0.00  0.00    -0.080 A 
ATOM      4  C3  UNL d   1       1.600  -1.247   0.317  0.00  0.00     0.150 A 
ATOM      5  C4  UNL d   1       2.085  -0.429  -0.699  0.00  0.00    -0.007 A 
ATOM      6  C5  UNL d   1       1.323   0.652  -1.139  0.00  0.00     0.039 A 
ENDROOT
BRANCH   4   7
ATOM      7  O   UNL d   1       2.376  -2.296   0.711  0.00  0.00    -0.526 OA
ATOM      8  H5  UNL d   1       1.900  -2.789   1.399  0.00  0.00     0.418 HD
ENDBRANCH   4   7
TORSDOF 1
ENDMDL
