MODEL 1
REMARK minimizedAffinity -5.27630138
REMARK minimizedRMSD -1
REMARK  1 active torsions:
REMARK  status: ('A' for Active; 'I' for Inactive)
REMARK    1  A    between atoms: C3_4  and  O_7 
ROOT
ATOM      1  C   UNL d   1      -0.540  -1.352   2.563  0.00  0.00    -0.033 A 
ATOM      2  C1  UNL d   1      -0.200  -0.777   1.336  0.00  0.00     0.039 A 
ATOM      3  C2  UNL d   1       0.713  -1.414   0.494  0.00  0.00    -0.080 A 
ATOM      4  C3  UNL d   1       1.278  -2.623   0.888  0.00  0.00     0.150 A 
ATOM      5  C4  UNL d   1       0.941  -3.204   2.107  0.00  0.00    -0.007 A 
ATOM      6  C5  UNL d   1       0.030  -2.566   2.947  0.00  0.00     0.039 A 
ENDROOT
BRANCH   4   7
ATOM      7  O   UNL d   1       2.177  -3.280   0.101  0.00  0.00    -0.526 OA
ATOM      8  H5  UNL d   1       2.335  -2.747  -0.696  0.00  0.00     0.418 HD
ENDBRANCH   4   7
TORSDOF 1
ENDMDL
