MODEL 1
REMARK minimizedAffinity -4.72988415
REMARK minimizedRMSD -1
REMARK  1 active torsions:
REMARK  status: ('A' for Active; 'I' for Inactive)
REMARK    1  A    between atoms: C3_4  and  O_7 
ROOT
ATOM      1  C   UNL d   1       1.232  -2.617   1.903  0.00  0.00    -0.033 A 
ATOM      2  C1  UNL d   1       0.040  -2.014   2.312  0.00  0.00     0.039 A 
ATOM      3  C2  UNL d   1      -0.527  -0.994   1.545  0.00  0.00    -0.080 A 
ATOM      4  C3  UNL d   1       0.107  -0.587   0.374  0.00  0.00     0.150 A 
ATOM      5  C4  UNL d   1       1.292  -1.185  -0.040  0.00  0.00    -0.007 A 
ATOM      6  C5  UNL d   1       1.857  -2.203   0.727  0.00  0.00     0.039 A 
ENDROOT
BRANCH   4   7
ATOM      7  O   UNL d   1      -0.406   0.408  -0.404  0.00  0.00    -0.526 OA
ATOM      8  H5  UNL d   1      -1.211   0.748   0.021  0.00  0.00     0.418 HD
ENDBRANCH   4   7
TORSDOF 1
ENDMDL
