MODEL 1
REMARK minimizedAffinity -1.73541355
REMARK minimizedRMSD -1
REMARK  1 active torsions:
REMARK  status: ('A' for Active; 'I' for Inactive)
REMARK    1  A    between atoms: C3_4  and  O_7 
ROOT
ATOM      1  C   UNL d   1      -2.973  -0.065  -2.724  0.00  0.00    -0.033 A 
ATOM      2  C1  UNL d   1      -1.612   0.054  -2.434  0.00  0.00     0.039 A 
ATOM      3  C2  UNL d   1      -0.880   1.129  -2.943  0.00  0.00    -0.080 A 
ATOM      4  C3  UNL d   1      -1.520   2.076  -3.738  0.00  0.00     0.150 A 
ATOM      5  C4  UNL d   1      -2.876   1.965  -4.028  0.00  0.00    -0.007 A 
ATOM      6  C5  UNL d   1      -3.605   0.891  -3.520  0.00  0.00     0.039 A 
ENDROOT
BRANCH   4   7
ATOM      7  O   UNL d   1      -0.846   3.140  -4.261  0.00  0.00    -0.526 OA
ATOM      8  H5  UNL d   1       0.088   3.071  -4.001  0.00  0.00     0.418 HD
ENDBRANCH   4   7
TORSDOF 1
ENDMDL
