MODEL 1
REMARK minimizedAffinity -3.79889417
REMARK minimizedRMSD -1
REMARK  1 active torsions:
REMARK  status: ('A' for Active; 'I' for Inactive)
REMARK    1  A    between atoms: C3_4  and  O_7 
ROOT
ATOM      1  C   UNL d   1       1.259  -0.331   0.140  0.00  0.00    -0.033 A 
ATOM      2  C1  UNL d   1       0.077  -0.787   0.728  0.00  0.00     0.039 A 
ATOM      3  C2  UNL d   1       0.083  -1.953   1.496  0.00  0.00    -0.080 A 
ATOM      4  C3  UNL d   1       1.274  -2.652   1.669  0.00  0.00     0.150 A 
ATOM      5  C4  UNL d   1       2.455  -2.201   1.090  0.00  0.00    -0.007 A 
ATOM      6  C5  UNL d   1       2.448  -1.037   0.322  0.00  0.00     0.039 A 
ENDROOT
BRANCH   4   7
ATOM      7  O   UNL d   1       1.328  -3.797   2.406  0.00  0.00    -0.526 OA
ATOM      8  H5  UNL d   1       0.432  -4.003   2.721  0.00  0.00     0.418 HD
ENDBRANCH   4   7
TORSDOF 1
ENDMDL
