MODEL 1
REMARK minimizedAffinity -4.22860909
REMARK minimizedRMSD -1
REMARK  1 active torsions:
REMARK  status: ('A' for Active; 'I' for Inactive)
REMARK    1  A    between atoms: C3_4  and  O_7 
ROOT
ATOM      1  C   UNL d   1      -0.073   0.323   0.485  0.00  0.00    -0.033 A 
ATOM      2  C1  UNL d   1      -0.770  -0.679   1.162  0.00  0.00     0.039 A 
ATOM      3  C2  UNL d   1      -0.170  -1.919   1.388  0.00  0.00    -0.080 A 
ATOM      4  C3  UNL d   1       1.126  -2.144   0.933  0.00  0.00     0.150 A 
ATOM      5  C4  UNL d   1       1.828  -1.149   0.261  0.00  0.00    -0.007 A 
ATOM      6  C5  UNL d   1       1.227   0.089   0.035  0.00  0.00     0.039 A 
ENDROOT
BRANCH   4   7
ATOM      7  O   UNL d   1       1.752  -3.340   1.126  0.00  0.00    -0.526 OA
ATOM      8  H5  UNL d   1       1.136  -3.940   1.579  0.00  0.00     0.418 HD
ENDBRANCH   4   7
TORSDOF 1
ENDMDL
