MODEL 1
REMARK minimizedAffinity -5.15191317
REMARK minimizedRMSD -1
REMARK  1 active torsions:
REMARK  status: ('A' for Active; 'I' for Inactive)
REMARK    1  A    between atoms: C3_4  and  O_7 
ROOT
ATOM      1  C   UNL d   1       0.339   0.304  -0.452  0.00  0.00    -0.033 A 
ATOM      2  C1  UNL d   1       1.723   0.126  -0.405  0.00  0.00     0.039 A 
ATOM      3  C2  UNL d   1       2.264  -0.992   0.233  0.00  0.00    -0.080 A 
ATOM      4  C3  UNL d   1       1.411  -1.923   0.819  0.00  0.00     0.150 A 
ATOM      5  C4  UNL d   1       0.031  -1.755   0.772  0.00  0.00    -0.007 A 
ATOM      6  C5  UNL d   1      -0.507  -0.637   0.136  0.00  0.00     0.039 A 
ENDROOT
BRANCH   4   7
ATOM      7  O   UNL d   1       1.892  -3.028   1.457  0.00  0.00    -0.526 OA
ATOM      8  H5  UNL d   1       2.863  -2.997   1.435  0.00  0.00     0.418 HD
ENDBRANCH   4   7
TORSDOF 1
ENDMDL
