MODEL 1
REMARK minimizedAffinity -4.96033669
REMARK minimizedRMSD -1
REMARK  1 active torsions:
REMARK  status: ('A' for Active; 'I' for Inactive)
REMARK    1  A    between atoms: C3_4  and  O_7 
ROOT
ATOM      1  C   UNL d   1       0.859  -2.985   1.942  0.00  0.00    -0.033 A 
ATOM      2  C1  UNL d   1      -0.429  -2.485   2.140  0.00  0.00     0.039 A 
ATOM      3  C2  UNL d   1      -0.880  -1.396   1.391  0.00  0.00    -0.080 A 
ATOM      4  C3  UNL d   1      -0.034  -0.818   0.449  0.00  0.00     0.150 A 
ATOM      5  C4  UNL d   1       1.249  -1.314   0.243  0.00  0.00    -0.007 A 
ATOM      6  C5  UNL d   1       1.698  -2.401   0.992  0.00  0.00     0.039 A 
ENDROOT
BRANCH   4   7
ATOM      7  O   UNL d   1      -0.428   0.250  -0.302  0.00  0.00    -0.526 OA
ATOM      8  H5  UNL d   1      -1.327   0.501  -0.032  0.00  0.00     0.418 HD
ENDBRANCH   4   7
TORSDOF 1
ENDMDL
