MODEL 1
REMARK minimizedAffinity -2.60998845
REMARK minimizedRMSD -1
REMARK  1 active torsions:
REMARK  status: ('A' for Active; 'I' for Inactive)
REMARK    1  A    between atoms: C3_4  and  O_7 
ROOT
ATOM      1  C   UNL d   1      -0.384   0.534   0.012  0.00  0.00    -0.033 A 
ATOM      2  C1  UNL d   1       0.047  -0.436  -0.896  0.00  0.00     0.039 A 
ATOM      3  C2  UNL d   1      -0.537  -0.518  -2.162  0.00  0.00    -0.080 A 
ATOM      4  C3  UNL d   1      -1.547   0.375  -2.507  0.00  0.00     0.150 A 
ATOM      5  C4  UNL d   1      -1.978   1.347  -1.609  0.00  0.00    -0.007 A 
ATOM      6  C5  UNL d   1      -1.395   1.426  -0.345  0.00  0.00     0.039 A 
ENDROOT
BRANCH   4   7
ATOM      7  O   UNL d   1      -2.149   0.332  -3.729  0.00  0.00    -0.526 OA
ATOM      8  H5  UNL d   1      -1.770  -0.407  -4.233  0.00  0.00     0.418 HD
ENDBRANCH   4   7
TORSDOF 1
ENDMDL
