MODEL 1
REMARK minimizedAffinity -1.64376271
REMARK minimizedRMSD -1
REMARK  1 active torsions:
REMARK  status: ('A' for Active; 'I' for Inactive)
REMARK    1  A    between atoms: C3_4  and  O_7 
ROOT
ATOM      1  C   UNL d   1      -0.734   1.442  -0.328  0.00  0.00    -0.033 A 
ATOM      2  C1  UNL d   1      -0.313   0.345  -1.082  0.00  0.00     0.039 A 
ATOM      3  C2  UNL d   1      -0.880   0.096  -2.333  0.00  0.00    -0.080 A 
ATOM      4  C3  UNL d   1      -1.867   0.950  -2.818  0.00  0.00     0.150 A 
ATOM      5  C4  UNL d   1      -2.289   2.047  -2.075  0.00  0.00    -0.007 A 
ATOM      6  C5  UNL d   1      -1.722   2.294  -0.825  0.00  0.00     0.039 A 
ENDROOT
BRANCH   4   7
ATOM      7  O   UNL d   1      -2.454   0.744  -4.032  0.00  0.00    -0.526 OA
ATOM      8  H5  UNL d   1      -2.083  -0.066  -4.419  0.00  0.00     0.418 HD
ENDBRANCH   4   7
TORSDOF 1
ENDMDL
