MODEL 1
REMARK minimizedAffinity 4.86114311
REMARK minimizedRMSD -1
REMARK  2 active torsions:
REMARK  status: ('A' for Active; 'I' for Inactive)
REMARK    1  A    between atoms: C1_2  and  C2_3 
REMARK    2  A    between atoms: C2_3  and  C3_4 
ROOT
ATOM      1  C3  UNL d   1       0.105  -1.325   0.336  0.00  0.00    -0.075 A 
ATOM      2  C4  UNL d   1       1.168  -0.436   0.119  0.00  0.00     0.002 A 
ATOM      3  C5  UNL d   1       1.393   0.626   0.996  0.00  0.00     0.002 A 
ATOM      4  C6  UNL d   1       0.555   0.818   2.092  0.00  0.00    -0.004 A 
ATOM      5  C7  UNL d   1      -0.513  -0.050   2.308  0.00  0.00     0.002 A 
ATOM      6  C8  UNL d   1      -0.738  -1.116   1.435  0.00  0.00     0.002 A 
ENDROOT
BRANCH   1   7
ATOM      7  C2  UNL d   1      -0.126  -2.493  -0.593  0.00  0.00     0.056 C 
BRANCH   7   8
ATOM      8  C1  UNL d   1       1.020  -3.511  -0.613  0.00  0.00     0.007 C 
ATOM      9  C   UNL d   1       0.601  -4.896  -0.140  0.00  0.00     0.009 C 
ENDBRANCH   7   8
ENDBRANCH   1   7
TORSDOF 2
ENDMDL
