MODEL 1
REMARK minimizedAffinity -2.65880466
REMARK minimizedRMSD -1
REMARK  2 active torsions:
REMARK  status: ('A' for Active; 'I' for Inactive)
REMARK    1  A    between atoms: C1_2  and  C2_3 
REMARK    2  A    between atoms: C2_3  and  C3_4 
ROOT
ATOM      1  C3  UNL d   1       0.244  -0.096  -0.415  0.00  0.00    -0.075 A 
ATOM      2  C4  UNL d   1       0.469  -0.360   0.944  0.00  0.00     0.002 A 
ATOM      3  C5  UNL d   1       0.175   0.602   1.910  0.00  0.00     0.002 A 
ATOM      4  C6  UNL d   1      -0.337   1.841   1.532  0.00  0.00    -0.004 A 
ATOM      5  C7  UNL d   1      -0.549   2.121   0.183  0.00  0.00     0.002 A 
ATOM      6  C8  UNL d   1      -0.260   1.158  -0.786  0.00  0.00     0.002 A 
ENDROOT
BRANCH   1   7
ATOM      7  C2  UNL d   1       0.532  -1.143  -1.464  0.00  0.00     0.056 C 
BRANCH   7   8
ATOM      8  C1  UNL d   1       0.561  -2.576  -0.922  0.00  0.00     0.007 C 
ATOM      9  C   UNL d   1      -0.545  -3.456  -1.491  0.00  0.00     0.009 C 
ENDBRANCH   7   8
ENDBRANCH   1   7
TORSDOF 2
ENDMDL
