MODEL 1
REMARK minimizedAffinity 3.80271411
REMARK minimizedRMSD -1
REMARK  2 active torsions:
REMARK  status: ('A' for Active; 'I' for Inactive)
REMARK    1  A    between atoms: C1_2  and  C2_3 
REMARK    2  A    between atoms: C2_3  and  C3_4 
ROOT
ATOM      1  C3  UNL d   1       3.125  -5.760   0.415  0.00  0.00    -0.075 A 
ATOM      2  C4  UNL d   1       3.911  -5.798  -0.746  0.00  0.00     0.002 A 
ATOM      3  C5  UNL d   1       5.298  -5.923  -0.658  0.00  0.00     0.002 A 
ATOM      4  C6  UNL d   1       5.916  -6.000   0.588  0.00  0.00    -0.004 A 
ATOM      5  C7  UNL d   1       5.146  -5.946   1.748  0.00  0.00     0.002 A 
ATOM      6  C8  UNL d   1       3.758  -5.826   1.663  0.00  0.00     0.002 A 
ENDROOT
BRANCH   1   7
ATOM      7  C2  UNL d   1       1.621  -5.655   0.326  0.00  0.00     0.056 C 
BRANCH   7   8
ATOM      8  C1  UNL d   1       1.127  -4.611  -0.681  0.00  0.00     0.007 C 
ATOM      9  C   UNL d   1      -0.389  -4.583  -0.821  0.00  0.00     0.009 C 
ENDBRANCH   7   8
ENDBRANCH   1   7
TORSDOF 2
ENDMDL
