MODEL 1
REMARK minimizedAffinity -1.40154159
REMARK minimizedRMSD -1
REMARK  2 active torsions:
REMARK  status: ('A' for Active; 'I' for Inactive)
REMARK    1  A    between atoms: C1_2  and  C2_3 
REMARK    2  A    between atoms: C2_3  and  C3_4 
ROOT
ATOM      1  C3  UNL d   1      -0.407  -1.560  -0.766  0.00  0.00    -0.075 A 
ATOM      2  C4  UNL d   1      -1.634  -1.840  -1.384  0.00  0.00     0.002 A 
ATOM      3  C5  UNL d   1      -2.033  -3.159  -1.602  0.00  0.00     0.002 A 
ATOM      4  C6  UNL d   1      -1.208  -4.213  -1.214  0.00  0.00    -0.004 A 
ATOM      5  C7  UNL d   1       0.020  -3.946  -0.614  0.00  0.00     0.002 A 
ATOM      6  C8  UNL d   1       0.420  -2.628  -0.391  0.00  0.00     0.002 A 
ENDROOT
BRANCH   1   7
ATOM      7  C2  UNL d   1       0.018  -0.136  -0.500  0.00  0.00     0.056 C 
BRANCH   7   8
ATOM      8  C1  UNL d   1       0.683   0.073   0.864  0.00  0.00     0.007 C 
ATOM      9  C   UNL d   1      -0.298   0.484   1.954  0.00  0.00     0.009 C 
ENDBRANCH   7   8
ENDBRANCH   1   7
TORSDOF 2
ENDMDL
