MODEL 1
REMARK minimizedAffinity -2.72546315
REMARK minimizedRMSD -1
REMARK  2 active torsions:
REMARK  status: ('A' for Active; 'I' for Inactive)
REMARK    1  A    between atoms: C1_2  and  C2_3 
REMARK    2  A    between atoms: C2_3  and  C3_4 
ROOT
ATOM      1  C3  UNL d   1      -0.312  -2.032  -1.128  0.00  0.00    -0.075 A 
ATOM      2  C4  UNL d   1      -1.443  -2.302  -1.912  0.00  0.00     0.002 A 
ATOM      3  C5  UNL d   1      -1.793  -3.616  -2.221  0.00  0.00     0.002 A 
ATOM      4  C6  UNL d   1      -1.014  -4.675  -1.760  0.00  0.00    -0.004 A 
ATOM      5  C7  UNL d   1       0.121  -4.417  -0.994  0.00  0.00     0.002 A 
ATOM      6  C8  UNL d   1       0.472  -3.103  -0.680  0.00  0.00     0.002 A 
ENDROOT
BRANCH   1   7
ATOM      7  C2  UNL d   1       0.055  -0.613  -0.765  0.00  0.00     0.056 C 
BRANCH   7   8
ATOM      8  C1  UNL d   1       0.852  -0.488   0.538  0.00  0.00     0.007 C 
ATOM      9  C   UNL d   1       0.278   0.548   1.495  0.00  0.00     0.009 C 
ENDBRANCH   7   8
ENDBRANCH   1   7
TORSDOF 2
ENDMDL
