MODEL 1
REMARK minimizedAffinity -5.81156635
REMARK minimizedRMSD -1
REMARK  2 active torsions:
REMARK  status: ('A' for Active; 'I' for Inactive)
REMARK    1  A    between atoms: C1_2  and  C2_3 
REMARK    2  A    between atoms: C2_3  and  C3_4 
ROOT
ATOM      1  C3  UNL d   1      -0.595   0.714   0.385  0.00  0.00    -0.075 A 
ATOM      2  C4  UNL d   1      -0.135   1.155   1.634  0.00  0.00     0.002 A 
ATOM      3  C5  UNL d   1      -0.106   2.516   1.937  0.00  0.00     0.002 A 
ATOM      4  C6  UNL d   1      -0.526   3.452   0.995  0.00  0.00    -0.004 A 
ATOM      5  C7  UNL d   1      -0.970   3.026  -0.255  0.00  0.00     0.002 A 
ATOM      6  C8  UNL d   1      -1.004   1.664  -0.560  0.00  0.00     0.002 A 
ENDROOT
BRANCH   1   7
ATOM      7  C2  UNL d   1      -0.656  -0.760   0.060  0.00  0.00     0.056 C 
BRANCH   7   8
ATOM      8  C1  UNL d   1       0.503  -1.256  -0.810  0.00  0.00     0.007 C 
ATOM      9  C   UNL d   1       0.177  -2.532  -1.574  0.00  0.00     0.009 C 
ENDBRANCH   7   8
ENDBRANCH   1   7
TORSDOF 2
ENDMDL
