MODEL 1
REMARK minimizedAffinity -3.70739317
REMARK minimizedRMSD -1
REMARK  2 active torsions:
REMARK  status: ('A' for Active; 'I' for Inactive)
REMARK    1  A    between atoms: C1_2  and  C2_3 
REMARK    2  A    between atoms: C2_3  and  C3_4 
ROOT
ATOM      1  C3  UNL d   1      -0.327   0.695   0.902  0.00  0.00    -0.075 A 
ATOM      2  C4  UNL d   1       0.809   0.053   1.415  0.00  0.00     0.002 A 
ATOM      3  C5  UNL d   1       1.662  -0.660   0.572  0.00  0.00     0.002 A 
ATOM      4  C6  UNL d   1       1.384  -0.749  -0.790  0.00  0.00    -0.004 A 
ATOM      5  C7  UNL d   1       0.250  -0.129  -1.309  0.00  0.00     0.002 A 
ATOM      6  C8  UNL d   1      -0.603   0.589  -0.468  0.00  0.00     0.002 A 
ENDROOT
BRANCH   1   7
ATOM      7  C2  UNL d   1      -1.237   1.494   1.804  0.00  0.00     0.056 C 
BRANCH   7   8
ATOM      8  C1  UNL d   1      -0.719   2.899   2.128  0.00  0.00     0.007 C 
ATOM      9  C   UNL d   1      -1.017   3.916   1.035  0.00  0.00     0.009 C 
ENDBRANCH   7   8
ENDBRANCH   1   7
TORSDOF 2
ENDMDL
