MODEL 1
REMARK minimizedAffinity 10.0034981
REMARK minimizedRMSD -1
REMARK  1 active torsions:
REMARK  status: ('A' for Active; 'I' for Inactive)
REMARK    1  A    between atoms: C1_2  and  C2_3 
ROOT
ATOM      1  C2  UNL d   1       3.747  -5.240  -4.768  0.00  0.00    -0.073 A 
ATOM      2  C3  UNL d   1       3.168  -5.760  -5.931  0.00  0.00    -0.002 A 
ATOM      3  C4  UNL d   1       1.791  -5.976  -5.998  0.00  0.00     0.004 A 
ATOM      4  C5  UNL d   1       0.979  -5.668  -4.907  0.00  0.00    -0.004 A 
ATOM      5  C6  UNL d   1       1.536  -5.136  -3.740  0.00  0.00    -0.075 A 
ATOM      6  C7  UNL d   1       0.677  -4.802  -2.556  0.00  0.00     0.076 C 
ATOM      7  C8  UNL d   1       2.921  -4.925  -3.679  0.00  0.00     0.001 A 
ENDROOT
BRANCH   1   8
ATOM      8  C1  UNL d   1       5.232  -4.999  -4.693  0.00  0.00     0.053 C 
ATOM      9  C   UNL d   1       5.996  -5.832  -5.710  0.00  0.00     0.018 C 
ENDBRANCH   1   8
TORSDOF 1
ENDMDL
