MODEL 1
REMARK minimizedAffinity 9.75251961
REMARK minimizedRMSD -1
REMARK  1 active torsions:
REMARK  status: ('A' for Active; 'I' for Inactive)
REMARK    1  A    between atoms: C1_2  and  C2_3 
ROOT
ATOM      1  C2  UNL d   1       0.179   2.711   1.285  0.00  0.00    -0.073 A 
ATOM      2  C3  UNL d   1       0.452   2.352   2.610  0.00  0.00    -0.002 A 
ATOM      3  C4  UNL d   1       1.749   2.009   2.994  0.00  0.00     0.004 A 
ATOM      4  C5  UNL d   1       2.786   2.026   2.062  0.00  0.00    -0.004 A 
ATOM      5  C6  UNL d   1       2.535   2.393   0.735  0.00  0.00    -0.075 A 
ATOM      6  C7  UNL d   1       3.639   2.415  -0.281  0.00  0.00     0.076 C 
ATOM      7  C8  UNL d   1       1.230   2.734   0.356  0.00  0.00     0.001 A 
ENDROOT
BRANCH   1   8
ATOM      8  C1  UNL d   1      -1.218   3.089   0.867  0.00  0.00     0.053 C 
ATOM      9  C   UNL d   1      -1.232   3.853  -0.448  0.00  0.00     0.018 C 
ENDBRANCH   1   8
TORSDOF 1
ENDMDL
