MODEL 1
REMARK minimizedAffinity 8.6752224
REMARK minimizedRMSD -1
REMARK  1 active torsions:
REMARK  status: ('A' for Active; 'I' for Inactive)
REMARK    1  A    between atoms: C1_2  and  C2_3 
ROOT
ATOM      1  C2  UNL d   1      -0.487  -0.031   1.149  0.00  0.00    -0.073 A 
ATOM      2  C3  UNL d   1      -1.256   1.084   0.798  0.00  0.00    -0.002 A 
ATOM      3  C4  UNL d   1      -0.657   2.335   0.651  0.00  0.00     0.004 A 
ATOM      4  C5  UNL d   1       0.716   2.484   0.845  0.00  0.00    -0.004 A 
ATOM      5  C6  UNL d   1       1.504   1.379   1.185  0.00  0.00    -0.075 A 
ATOM      6  C7  UNL d   1       2.982   1.522   1.401  0.00  0.00     0.076 C 
ATOM      7  C8  UNL d   1       0.894   0.126   1.334  0.00  0.00     0.001 A 
ENDROOT
BRANCH   1   8
ATOM      8  C1  UNL d   1      -1.128  -1.386   1.303  0.00  0.00     0.053 C 
ATOM      9  C   UNL d   1      -1.803  -1.847   0.021  0.00  0.00     0.018 C 
ENDBRANCH   1   8
TORSDOF 1
ENDMDL
