MODEL 1
REMARK minimizedAffinity 2.88856792
REMARK minimizedRMSD -1
REMARK  1 active torsions:
REMARK  status: ('A' for Active; 'I' for Inactive)
REMARK    1  A    between atoms: C1_2  and  C2_3 
ROOT
ATOM      1  C2  UNL d   1       3.965  -5.252  -4.830  0.00  0.00    -0.073 A 
ATOM      2  C3  UNL d   1       3.349  -5.750  -5.984  0.00  0.00    -0.002 A 
ATOM      3  C4  UNL d   1       1.976  -6.000  -5.998  0.00  0.00     0.004 A 
ATOM      4  C5  UNL d   1       1.205  -5.747  -4.864  0.00  0.00    -0.004 A 
ATOM      5  C6  UNL d   1       1.800  -5.238  -3.705  0.00  0.00    -0.075 A 
ATOM      6  C7  UNL d   1       0.984  -4.963  -2.476  0.00  0.00     0.076 C 
ATOM      7  C8  UNL d   1       3.179  -4.993  -3.697  0.00  0.00     0.001 A 
ENDROOT
BRANCH   1   8
ATOM      8  C1  UNL d   1       5.446  -4.976  -4.811  0.00  0.00     0.053 C 
ATOM      9  C   UNL d   1       5.748  -3.486  -4.858  0.00  0.00     0.018 C 
ENDBRANCH   1   8
TORSDOF 1
ENDMDL
