MODEL 1
REMARK minimizedAffinity 2.69723058
REMARK minimizedRMSD -1
REMARK  1 active torsions:
REMARK  status: ('A' for Active; 'I' for Inactive)
REMARK    1  A    between atoms: C1_2  and  C2_3 
ROOT
ATOM      1  C2  UNL d   1       3.198   3.050   0.738  0.00  0.00    -0.073 A 
ATOM      2  C3  UNL d   1       3.933   2.211  -0.107  0.00  0.00    -0.002 A 
ATOM      3  C4  UNL d   1       5.327   2.269  -0.119  0.00  0.00     0.004 A 
ATOM      4  C5  UNL d   1       6.000   3.160   0.717  0.00  0.00    -0.004 A 
ATOM      5  C6  UNL d   1       5.283   3.999   1.577  0.00  0.00    -0.075 A 
ATOM      6  C7  UNL d   1       5.992   4.965   2.480  0.00  0.00     0.076 C 
ATOM      7  C8  UNL d   1       3.883   3.936   1.581  0.00  0.00     0.001 A 
ENDROOT
BRANCH   1   8
ATOM      8  C1  UNL d   1       1.692   2.986   0.760  0.00  0.00     0.053 C 
ATOM      9  C   UNL d   1       1.182   1.847   1.627  0.00  0.00     0.018 C 
ENDBRANCH   1   8
TORSDOF 1
ENDMDL
