MODEL 1
REMARK minimizedAffinity 2.04192543
REMARK minimizedRMSD -1
REMARK  1 active torsions:
REMARK  status: ('A' for Active; 'I' for Inactive)
REMARK    1  A    between atoms: C1_2  and  C2_3 
ROOT
ATOM      1  C2  UNL d   1       4.853   3.089   4.820  0.00  0.00    -0.073 A 
ATOM      2  C3  UNL d   1       5.254   3.726   6.000  0.00  0.00    -0.002 A 
ATOM      3  C4  UNL d   1       5.548   5.090   6.000  0.00  0.00     0.004 A 
ATOM      4  C5  UNL d   1       5.439   5.832   4.824  0.00  0.00    -0.004 A 
ATOM      5  C6  UNL d   1       5.028   5.216   3.637  0.00  0.00    -0.075 A 
ATOM      6  C7  UNL d   1       4.907   6.000   2.363  0.00  0.00     0.076 C 
ATOM      7  C8  UNL d   1       4.736   3.845   3.644  0.00  0.00     0.001 A 
ENDROOT
BRANCH   1   8
ATOM      8  C1  UNL d   1       4.527   1.618   4.816  0.00  0.00     0.053 C 
ATOM      9  C   UNL d   1       3.489   1.266   3.762  0.00  0.00     0.018 C 
ENDBRANCH   1   8
TORSDOF 1
ENDMDL
