MODEL 1
REMARK minimizedAffinity 8.07793713
REMARK minimizedRMSD -1
REMARK  1 active torsions:
REMARK  status: ('A' for Active; 'I' for Inactive)
REMARK    1  A    between atoms: C1_2  and  C2_3 
ROOT
ATOM      1  C2  UNL d   1       3.137   1.164   0.328  0.00  0.00    -0.073 A 
ATOM      2  C3  UNL d   1       1.810   1.335   0.738  0.00  0.00    -0.002 A 
ATOM      3  C4  UNL d   1       1.509   1.530   2.087  0.00  0.00     0.004 A 
ATOM      4  C5  UNL d   1       2.529   1.562   3.037  0.00  0.00    -0.004 A 
ATOM      5  C6  UNL d   1       3.863   1.404   2.645  0.00  0.00    -0.075 A 
ATOM      6  C7  UNL d   1       4.972   1.433   3.655  0.00  0.00     0.076 C 
ATOM      7  C8  UNL d   1       4.157   1.206   1.290  0.00  0.00     0.001 A 
ENDROOT
BRANCH   1   8
ATOM      8  C1  UNL d   1       3.468   0.960  -1.128  0.00  0.00     0.053 C 
ATOM      9  C   UNL d   1       2.474   1.658  -2.042  0.00  0.00     0.018 C 
ENDBRANCH   1   8
TORSDOF 1
ENDMDL
