MODEL 1
REMARK minimizedAffinity 8.75181198
REMARK minimizedRMSD -1
REMARK  1 active torsions:
REMARK  status: ('A' for Active; 'I' for Inactive)
REMARK    1  A    between atoms: C1_2  and  C2_3 
ROOT
ATOM      1  C2  UNL d   1       2.976   4.539   1.765  0.00  0.00    -0.073 A 
ATOM      2  C3  UNL d   1       3.757   3.378   1.819  0.00  0.00    -0.002 A 
ATOM      3  C4  UNL d   1       3.196   2.137   1.518  0.00  0.00     0.004 A 
ATOM      4  C5  UNL d   1       1.853   2.043   1.154  0.00  0.00    -0.004 A 
ATOM      5  C6  UNL d   1       1.059   3.192   1.083  0.00  0.00    -0.075 A 
ATOM      6  C7  UNL d   1      -0.388   3.108   0.695  0.00  0.00     0.076 C 
ATOM      7  C8  UNL d   1       1.629   4.435   1.389  0.00  0.00     0.001 A 
ENDROOT
BRANCH   1   8
ATOM      8  C1  UNL d   1       3.579   5.883   2.083  0.00  0.00     0.053 C 
ATOM      9  C   UNL d   1       5.043   5.960   1.679  0.00  0.00     0.018 C 
ENDBRANCH   1   8
TORSDOF 1
ENDMDL
