MODEL 1
REMARK minimizedAffinity 7.30435085
REMARK minimizedRMSD -1
REMARK  1 active torsions:
REMARK  status: ('A' for Active; 'I' for Inactive)
REMARK    1  A    between atoms: C1_2  and  C2_3 
ROOT
ATOM      1  C2  UNL d   1      -3.680   4.023  -5.607  0.00  0.00    -0.073 A 
ATOM      2  C3  UNL d   1      -3.118   5.251  -5.973  0.00  0.00    -0.002 A 
ATOM      3  C4  UNL d   1      -1.804   5.559  -5.619  0.00  0.00     0.004 A 
ATOM      4  C5  UNL d   1      -1.037   4.641  -4.903  0.00  0.00    -0.004 A 
ATOM      5  C6  UNL d   1      -1.576   3.403  -4.538  0.00  0.00    -0.075 A 
ATOM      6  C7  UNL d   1      -0.764   2.405  -3.766  0.00  0.00     0.076 C 
ATOM      7  C8  UNL d   1      -2.897   3.102  -4.895  0.00  0.00     0.001 A 
ENDROOT
BRANCH   1   8
ATOM      8  C1  UNL d   1      -5.096   3.683  -5.993  0.00  0.00     0.053 C 
ATOM      9  C   UNL d   1      -5.995   4.909  -5.997  0.00  0.00     0.018 C 
ENDBRANCH   1   8
TORSDOF 1
ENDMDL
