MODEL 1
REMARK minimizedAffinity 9.58139706
REMARK minimizedRMSD -1
REMARK  0 active torsions:
REMARK  status: ('A' for Active; 'I' for Inactive)
ROOT
ATOM      1  O1  BZF d   1      -0.895  -0.892   1.724  0.00  0.00    -0.204 OA
ATOM      2  C2  BZF d   1      -1.484   0.331   1.466  0.00  0.00     0.174 A 
ATOM      3  C3  BZF d   1      -0.628   1.145   0.816  0.00  0.00    -0.012 A 
ATOM      4  C3A BZF d   1       0.538   0.352   0.576  0.00  0.00    -0.107 A 
ATOM      5  C4  BZF d   1       1.730   0.598  -0.045  0.00  0.00     0.055 A 
ATOM      6  C5  BZF d   1       2.686  -0.367  -0.044  0.00  0.00    -0.016 A 
ATOM      7  C6  BZF d   1       2.488  -1.586   0.572  0.00  0.00     0.022 A 
ATOM      8  C7  BZF d   1       1.321  -1.878   1.196  0.00  0.00     0.029 A 
ATOM      9  C7A BZF d   1       0.340  -0.917   1.168  0.00  0.00     0.058 A 
ENDROOT
TORSDOF 0
ENDMDL
