MODEL 1
REMARK minimizedAffinity 9.16010475
REMARK minimizedRMSD -1
REMARK  0 active torsions:
REMARK  status: ('A' for Active; 'I' for Inactive)
ROOT
ATOM      1  O1  BZF d   1      -1.059  -0.952   1.558  0.00  0.00    -0.204 OA
ATOM      2  C2  BZF d   1      -1.459   0.294   1.115  0.00  0.00     0.174 A 
ATOM      3  C3  BZF d   1      -0.425   0.961   0.562  0.00  0.00    -0.012 A 
ATOM      4  C3A BZF d   1       0.670   0.040   0.583  0.00  0.00    -0.107 A 
ATOM      5  C4  BZF d   1       1.966   0.113   0.158  0.00  0.00     0.055 A 
ATOM      6  C5  BZF d   1       2.797  -0.936   0.392  0.00  0.00    -0.016 A 
ATOM      7  C6  BZF d   1       2.369  -2.070   1.052  0.00  0.00     0.022 A 
ATOM      8  C7  BZF d   1       1.091  -2.190   1.487  0.00  0.00     0.029 A 
ATOM      9  C7A BZF d   1       0.239  -1.145   1.223  0.00  0.00     0.058 A 
ENDROOT
TORSDOF 0
ENDMDL
