MODEL 1
REMARK minimizedAffinity 4.31909752
REMARK minimizedRMSD -1
REMARK  0 active torsions:
REMARK  status: ('A' for Active; 'I' for Inactive)
ROOT
ATOM      1  O1  BZF d   1      -1.480   0.896   3.345  0.00  0.00    -0.204 OA
ATOM      2  C2  BZF d   1      -1.205   2.166   3.812  0.00  0.00     0.174 A 
ATOM      3  C3  BZF d   1      -1.233   3.063   2.805  0.00  0.00    -0.012 A 
ATOM      4  C3A BZF d   1      -1.635   2.319   1.650  0.00  0.00    -0.107 A 
ATOM      5  C4  BZF d   1      -1.858   2.658   0.346  0.00  0.00     0.055 A 
ATOM      6  C5  BZF d   1      -2.170   1.681  -0.546  0.00  0.00    -0.016 A 
ATOM      7  C6  BZF d   1      -2.262   0.357  -0.170  0.00  0.00     0.022 A 
ATOM      8  C7  BZF d   1      -2.054  -0.027   1.113  0.00  0.00     0.029 A 
ATOM      9  C7A BZF d   1      -1.771   0.962   2.023  0.00  0.00     0.058 A 
ENDROOT
TORSDOF 0
ENDMDL
