MODEL 1
REMARK minimizedAffinity -4.58005619
REMARK minimizedRMSD -1
REMARK  0 active torsions:
REMARK  status: ('A' for Active; 'I' for Inactive)
ROOT
ATOM      1  O1  BZF d   1       1.183   0.756   0.765  0.00  0.00    -0.204 OA
ATOM      2  C2  BZF d   1       1.837   1.871   1.252  0.00  0.00     0.174 A 
ATOM      3  C3  BZF d   1       0.967   2.879   1.468  0.00  0.00    -0.012 A 
ATOM      4  C3A BZF d   1      -0.323   2.332   1.179  0.00  0.00    -0.107 A 
ATOM      5  C4  BZF d   1      -1.590   2.840   1.223  0.00  0.00     0.055 A 
ATOM      6  C5  BZF d   1      -2.627   2.066   0.808  0.00  0.00    -0.016 A 
ATOM      7  C6  BZF d   1      -2.433   0.783   0.339  0.00  0.00     0.022 A 
ATOM      8  C7  BZF d   1      -1.195   0.234   0.282  0.00  0.00     0.029 A 
ATOM      9  C7A BZF d   1      -0.149   1.002   0.732  0.00  0.00     0.058 A 
ENDROOT
TORSDOF 0
ENDMDL
