MODEL 1
REMARK minimizedAffinity 4.51076651
REMARK minimizedRMSD -1
REMARK  0 active torsions:
REMARK  status: ('A' for Active; 'I' for Inactive)
ROOT
ATOM      1  O1  BZF d   1      -0.042   0.371  -4.867  0.00  0.00    -0.204 OA
ATOM      2  C2  BZF d   1      -0.577   1.328  -5.709  0.00  0.00     0.174 A 
ATOM      3  C3  BZF d   1       0.337   2.278  -5.995  0.00  0.00    -0.012 A 
ATOM      4  C3A BZF d   1       1.544   1.842  -5.362  0.00  0.00    -0.107 A 
ATOM      5  C4  BZF d   1       2.808   2.355  -5.297  0.00  0.00     0.055 A 
ATOM      6  C5  BZF d   1       3.739   1.721  -4.536  0.00  0.00    -0.016 A 
ATOM      7  C6  BZF d   1       3.440   0.578  -3.824  0.00  0.00     0.022 A 
ATOM      8  C7  BZF d   1       2.201   0.029  -3.862  0.00  0.00     0.029 A 
ATOM      9  C7A BZF d   1       1.267   0.648  -4.656  0.00  0.00     0.058 A 
ENDROOT
TORSDOF 0
ENDMDL
