MODEL 1
REMARK minimizedAffinity 14.313983
REMARK minimizedRMSD -1
REMARK  0 active torsions:
REMARK  status: ('A' for Active; 'I' for Inactive)
ROOT
ATOM      1  O1  BZF d   1      -3.738   1.743  -5.955  0.00  0.00    -0.204 OA
ATOM      2  C2  BZF d   1      -2.471   1.193  -5.940  0.00  0.00     0.174 A 
ATOM      3  C3  BZF d   1      -1.530   2.158  -5.989  0.00  0.00    -0.012 A 
ATOM      4  C3A BZF d   1      -2.253   3.392  -5.944  0.00  0.00    -0.107 A 
ATOM      5  C4  BZF d   1      -1.873   4.703  -5.946  0.00  0.00     0.055 A 
ATOM      6  C5  BZF d   1      -2.830   5.668  -5.969  0.00  0.00    -0.016 A 
ATOM      7  C6  BZF d   1      -4.174   5.358  -5.997  0.00  0.00     0.022 A 
ATOM      8  C7  BZF d   1      -4.599   4.071  -5.991  0.00  0.00     0.029 A 
ATOM      9  C7A BZF d   1      -3.635   3.094  -5.934  0.00  0.00     0.058 A 
ENDROOT
TORSDOF 0
ENDMDL
