MODEL 1
REMARK minimizedAffinity 5.77300215
REMARK minimizedRMSD -1
REMARK  0 active torsions:
REMARK  status: ('A' for Active; 'I' for Inactive)
ROOT
ATOM      1  O1  BZF d   1      -2.176   4.480  -5.947  0.00  0.00    -0.204 OA
ATOM      2  C2  BZF d   1      -1.510   3.270  -5.925  0.00  0.00     0.174 A 
ATOM      3  C3  BZF d   1      -2.384   2.244  -5.879  0.00  0.00    -0.012 A 
ATOM      4  C3A BZF d   1      -3.678   2.848  -5.964  0.00  0.00    -0.107 A 
ATOM      5  C4  BZF d   1      -4.948   2.347  -5.983  0.00  0.00     0.055 A 
ATOM      6  C5  BZF d   1      -5.998   3.210  -5.999  0.00  0.00    -0.016 A 
ATOM      7  C6  BZF d   1      -5.815   4.577  -5.992  0.00  0.00     0.022 A 
ATOM      8  C7  BZF d   1      -4.573   5.121  -5.978  0.00  0.00     0.029 A 
ATOM      9  C7A BZF d   1      -3.510   4.252  -5.995  0.00  0.00     0.058 A 
ENDROOT
TORSDOF 0
ENDMDL
