MODEL 1
REMARK minimizedAffinity -3.90539598
REMARK minimizedRMSD -1
REMARK  0 active torsions:
REMARK  status: ('A' for Active; 'I' for Inactive)
ROOT
ATOM      1  O1  BZF d   1      -0.454   0.905   0.592  0.00  0.00    -0.204 OA
ATOM      2  C2  BZF d   1      -1.662   1.540   0.381  0.00  0.00     0.174 A 
ATOM      3  C3  BZF d   1      -1.483   2.865   0.208  0.00  0.00    -0.012 A 
ATOM      4  C3A BZF d   1      -0.065   3.059   0.226  0.00  0.00    -0.107 A 
ATOM      5  C4  BZF d   1       0.735   4.157   0.089  0.00  0.00     0.055 A 
ATOM      6  C5  BZF d   1       2.079   4.017   0.230  0.00  0.00    -0.016 A 
ATOM      7  C6  BZF d   1       2.656   2.796   0.513  0.00  0.00     0.022 A 
ATOM      8  C7  BZF d   1       1.904   1.678   0.653  0.00  0.00     0.029 A 
ATOM      9  C7A BZF d   1       0.548   1.810   0.479  0.00  0.00     0.058 A 
ENDROOT
TORSDOF 0
ENDMDL
