MODEL 1
REMARK minimizedAffinity -2.99126172
REMARK minimizedRMSD -1
REMARK  0 active torsions:
REMARK  status: ('A' for Active; 'I' for Inactive)
ROOT
ATOM      1  O1  BZF d   1       1.053  -0.580   0.283  0.00  0.00    -0.204 OA
ATOM      2  C2  BZF d   1      -0.303  -0.775   0.104  0.00  0.00     0.174 A 
ATOM      3  C3  BZF d   1      -0.980   0.376   0.292  0.00  0.00    -0.012 A 
ATOM      4  C3A BZF d   1       0.023   1.371   0.516  0.00  0.00    -0.107 A 
ATOM      5  C4  BZF d   1      -0.024   2.716   0.749  0.00  0.00     0.055 A 
ATOM      6  C5  BZF d   1       1.132   3.384   1.000  0.00  0.00    -0.016 A 
ATOM      7  C6  BZF d   1       2.351   2.739   1.030  0.00  0.00     0.022 A 
ATOM      8  C7  BZF d   1       2.449   1.407   0.800  0.00  0.00     0.029 A 
ATOM      9  C7A BZF d   1       1.286   0.735   0.514  0.00  0.00     0.058 A 
ENDROOT
TORSDOF 0
ENDMDL
