MODEL 1
REMARK minimizedAffinity -4.90877581
REMARK minimizedRMSD -1
REMARK  0 active torsions:
REMARK  status: ('A' for Active; 'I' for Inactive)
ROOT
ATOM      1  O1  BZF d   1      -0.366  -1.925   0.854  0.00  0.00    -0.204 OA
ATOM      2  C2  BZF d   1       0.570  -1.059   0.322  0.00  0.00     0.174 A 
ATOM      3  C3  BZF d   1       0.865  -1.396  -0.950  0.00  0.00    -0.012 A 
ATOM      4  C3A BZF d   1      -0.005  -2.489  -1.261  0.00  0.00    -0.107 A 
ATOM      5  C4  BZF d   1      -0.197  -3.247  -2.381  0.00  0.00     0.055 A 
ATOM      6  C5  BZF d   1      -1.072  -4.285  -2.334  0.00  0.00    -0.016 A 
ATOM      7  C6  BZF d   1      -1.768  -4.596  -1.184  0.00  0.00     0.022 A 
ATOM      8  C7  BZF d   1      -1.615  -3.870  -0.050  0.00  0.00     0.029 A 
ATOM      9  C7A BZF d   1      -0.756  -2.800  -0.104  0.00  0.00     0.058 A 
ENDROOT
TORSDOF 0
ENDMDL
