MODEL 1
REMARK minimizedAffinity -4.23100996
REMARK minimizedRMSD -1
REMARK  0 active torsions:
REMARK  status: ('A' for Active; 'I' for Inactive)
ROOT
ATOM      1  O1  BZF d   1       1.176  -1.123   0.597  0.00  0.00    -0.204 OA
ATOM      2  C2  BZF d   1      -0.043  -1.665   0.238  0.00  0.00     0.174 A 
ATOM      3  C3  BZF d   1      -0.990  -0.708   0.169  0.00  0.00    -0.012 A 
ATOM      4  C3A BZF d   1      -0.301   0.522   0.416  0.00  0.00    -0.107 A 
ATOM      5  C4  BZF d   1      -0.699   1.827   0.464  0.00  0.00     0.055 A 
ATOM      6  C5  BZF d   1       0.207   2.782   0.803  0.00  0.00    -0.016 A 
ATOM      7  C6  BZF d   1       1.516   2.466   1.103  0.00  0.00     0.022 A 
ATOM      8  C7  BZF d   1       1.959   1.185   1.064  0.00  0.00     0.029 A 
ATOM      9  C7A BZF d   1       1.053   0.223   0.690  0.00  0.00     0.058 A 
ENDROOT
TORSDOF 0
ENDMDL
