MODEL 1
REMARK minimizedAffinity -4.63851786
REMARK minimizedRMSD -1
REMARK  0 active torsions:
REMARK  status: ('A' for Active; 'I' for Inactive)
ROOT
ATOM      1  O1  BZF d   1      -2.212  -1.833  -1.802  0.00  0.00    -0.204 OA
ATOM      2  C2  BZF d   1      -1.371  -2.917  -1.643  0.00  0.00     0.174 A 
ATOM      3  C3  BZF d   1      -0.267  -2.569  -0.951  0.00  0.00    -0.012 A 
ATOM      4  C3A BZF d   1      -0.471  -1.202  -0.580  0.00  0.00    -0.107 A 
ATOM      5  C4  BZF d   1       0.269  -0.303   0.134  0.00  0.00     0.055 A 
ATOM      6  C5  BZF d   1      -0.180   0.974   0.253  0.00  0.00    -0.016 A 
ATOM      7  C6  BZF d   1      -1.360   1.387  -0.331  0.00  0.00     0.022 A 
ATOM      8  C7  BZF d   1      -2.130   0.529  -1.044  0.00  0.00     0.029 A 
ATOM      9  C7A BZF d   1      -1.696  -0.770  -1.139  0.00  0.00     0.058 A 
ENDROOT
TORSDOF 0
ENDMDL
