MODEL 1
REMARK minimizedAffinity 7.48887491
REMARK minimizedRMSD -1
REMARK  0 active torsions:
REMARK  status: ('A' for Active; 'I' for Inactive)
ROOT
ATOM      1  O1  BZF d   1       1.401   1.387   1.040  0.00  0.00    -0.204 OA
ATOM      2  C2  BZF d   1       2.070   0.355   0.411  0.00  0.00     0.174 A 
ATOM      3  C3  BZF d   1       1.201  -0.478  -0.197  0.00  0.00    -0.012 A 
ATOM      4  C3A BZF d   1      -0.086   0.119  -0.010  0.00  0.00    -0.107 A 
ATOM      5  C4  BZF d   1      -1.348  -0.229  -0.398  0.00  0.00     0.055 A 
ATOM      6  C5  BZF d   1      -2.398   0.531   0.010  0.00  0.00    -0.016 A 
ATOM      7  C6  BZF d   1      -2.223   1.641   0.810  0.00  0.00     0.022 A 
ATOM      8  C7  BZF d   1      -0.990   2.029   1.217  0.00  0.00     0.029 A 
ATOM      9  C7A BZF d   1       0.076   1.282   0.779  0.00  0.00     0.058 A 
ENDROOT
TORSDOF 0
ENDMDL
