MODEL 1
REMARK minimizedAffinity 9.80280495
REMARK minimizedRMSD -1
REMARK  0 active torsions:
REMARK  status: ('A' for Active; 'I' for Inactive)
ROOT
ATOM      1  O1  BZF d   1      -0.444   2.804   2.179  0.00  0.00    -0.204 OA
ATOM      2  C2  BZF d   1      -1.572   2.168   1.698  0.00  0.00     0.174 A 
ATOM      3  C3  BZF d   1      -1.238   1.076   0.981  0.00  0.00    -0.012 A 
ATOM      4  C3A BZF d   1       0.185   0.974   1.093  0.00  0.00    -0.107 A 
ATOM      5  C4  BZF d   1       1.103   0.085   0.611  0.00  0.00     0.055 A 
ATOM      6  C5  BZF d   1       2.424   0.310   0.841  0.00  0.00    -0.016 A 
ATOM      7  C6  BZF d   1       2.861   1.415   1.543  0.00  0.00     0.022 A 
ATOM      8  C7  BZF d   1       1.987   2.321   2.045  0.00  0.00     0.029 A 
ATOM      9  C7A BZF d   1       0.650   2.079   1.843  0.00  0.00     0.058 A 
ENDROOT
TORSDOF 0
ENDMDL
