MODEL 1
REMARK minimizedAffinity -2.10242891
REMARK minimizedRMSD -1
REMARK  0 active torsions:
REMARK  status: ('A' for Active; 'I' for Inactive)
ROOT
ATOM      1  O1  BZF d   1      -4.964   4.125  -2.823  0.00  0.00    -0.204 OA
ATOM      2  C2  BZF d   1      -3.988   3.529  -3.599  0.00  0.00     0.174 A 
ATOM      3  C3  BZF d   1      -3.462   2.459  -2.967  0.00  0.00    -0.012 A 
ATOM      4  C3A BZF d   1      -4.216   2.328  -1.758  0.00  0.00    -0.107 A 
ATOM      5  C4  BZF d   1      -4.178   1.442  -0.719  0.00  0.00     0.055 A 
ATOM      6  C5  BZF d   1      -5.002   1.635   0.344  0.00  0.00    -0.016 A 
ATOM      7  C6  BZF d   1      -5.873   2.703   0.403  0.00  0.00     0.022 A 
ATOM      8  C7  BZF d   1      -5.951   3.605  -0.606  0.00  0.00     0.029 A 
ATOM      9  C7A BZF d   1      -5.142   3.394  -1.696  0.00  0.00     0.058 A 
ENDROOT
TORSDOF 0
ENDMDL
