MODEL 1
REMARK minimizedAffinity -0.219604582
REMARK minimizedRMSD -1
REMARK  0 active torsions:
REMARK  status: ('A' for Active; 'I' for Inactive)
ROOT
ATOM      1  O1  BZF d   1      -4.406   3.794  -3.408  0.00  0.00    -0.204 OA
ATOM      2  C2  BZF d   1      -3.307   3.298  -4.082  0.00  0.00     0.174 A 
ATOM      3  C3  BZF d   1      -2.605   2.455  -3.298  0.00  0.00    -0.012 A 
ATOM      4  C3A BZF d   1      -3.360   2.350  -2.087  0.00  0.00    -0.107 A 
ATOM      5  C4  BZF d   1      -3.186   1.648  -0.929  0.00  0.00     0.055 A 
ATOM      6  C5  BZF d   1      -4.068   1.823   0.090  0.00  0.00    -0.016 A 
ATOM      7  C6  BZF d   1      -5.131   2.696  -0.013  0.00  0.00     0.022 A 
ATOM      8  C7  BZF d   1      -5.348   3.411  -1.144  0.00  0.00     0.029 A 
ATOM      9  C7A BZF d   1      -4.477   3.211  -2.187  0.00  0.00     0.058 A 
ENDROOT
TORSDOF 0
ENDMDL
