MODEL 1
REMARK minimizedAffinity 0.617300451
REMARK minimizedRMSD -1
REMARK  0 active torsions:
REMARK  status: ('A' for Active; 'I' for Inactive)
ROOT
ATOM      1  O1  BZF d   1       1.064   4.938   0.787  0.00  0.00    -0.204 OA
ATOM      2  C2  BZF d   1       1.438   5.537  -0.400  0.00  0.00     0.174 A 
ATOM      3  C3  BZF d   1       2.146   4.681  -1.165  0.00  0.00    -0.012 A 
ATOM      4  C3A BZF d   1       2.140   3.442  -0.448  0.00  0.00    -0.107 A 
ATOM      5  C4  BZF d   1       2.664   2.207  -0.703  0.00  0.00     0.055 A 
ATOM      6  C5  BZF d   1       2.542   1.232   0.235  0.00  0.00    -0.016 A 
ATOM      7  C6  BZF d   1       1.908   1.458   1.439  0.00  0.00     0.022 A 
ATOM      8  C7  BZF d   1       1.368   2.665   1.735  0.00  0.00     0.029 A 
ATOM      9  C7A BZF d   1       1.461   3.643   0.776  0.00  0.00     0.058 A 
ENDROOT
TORSDOF 0
ENDMDL
