MODEL 1
REMARK minimizedAffinity 0.539155781
REMARK minimizedRMSD -1
REMARK  0 active torsions:
REMARK  status: ('A' for Active; 'I' for Inactive)
ROOT
ATOM      1  O1  BZF d   1       1.407   5.215   0.432  0.00  0.00    -0.204 OA
ATOM      2  C2  BZF d   1       1.670   5.726  -0.824  0.00  0.00     0.174 A 
ATOM      3  C3  BZF d   1       2.114   4.758  -1.651  0.00  0.00    -0.012 A 
ATOM      4  C3A BZF d   1       2.042   3.550  -0.889  0.00  0.00    -0.107 A 
ATOM      5  C4  BZF d   1       2.333   2.245  -1.168  0.00  0.00     0.055 A 
ATOM      6  C5  BZF d   1       2.222   1.318  -0.181  0.00  0.00    -0.016 A 
ATOM      7  C6  BZF d   1       1.828   1.660   1.096  0.00  0.00     0.022 A 
ATOM      8  C7  BZF d   1       1.524   2.941   1.419  0.00  0.00     0.029 A 
ATOM      9  C7A BZF d   1       1.604   3.875   0.415  0.00  0.00     0.058 A 
ENDROOT
TORSDOF 0
ENDMDL
