MODEL 1
REMARK minimizedAffinity 1.56790996
REMARK minimizedRMSD -1
REMARK  0 active torsions:
REMARK  status: ('A' for Active; 'I' for Inactive)
ROOT
ATOM      1  N1  IND d   1       1.688  -2.293  -0.270  0.00  0.00    -0.196 N 
ATOM      2  C2  IND d   1       2.269  -3.315   0.427  0.00  0.00     0.054 A 
ATOM      3  C3  IND d   1       1.785  -3.358   1.689  0.00  0.00    -0.031 A 
ATOM      4  C4  IND d   1      -0.037  -1.913   2.793  0.00  0.00     0.051 A 
ATOM      5  C5  IND d   1      -0.835  -0.827   2.566  0.00  0.00    -0.031 A 
ATOM      6  C6  IND d   1      -0.835  -0.162   1.357  0.00  0.00     0.015 A 
ATOM      7  C7  IND d   1      -0.041  -0.568   0.321  0.00  0.00    -0.016 A 
ATOM      8  C8  IND d   1       0.776  -1.666   0.550  0.00  0.00    -0.047 A 
ATOM      9  C9  IND d   1       0.811  -2.318   1.789  0.00  0.00    -0.096 A 
ATOM     10  HN1 IND d   1       1.863  -2.077  -1.084  0.00  0.00     0.298 HD
ENDROOT
TORSDOF 0
ENDMDL
