MODEL 1
REMARK minimizedAffinity 7.08694315
REMARK minimizedRMSD -1
REMARK  0 active torsions:
REMARK  status: ('A' for Active; 'I' for Inactive)
ROOT
ATOM      1  N1  IND d   1      -2.226  -3.254  -5.749  0.00  0.00    -0.196 N 
ATOM      2  C2  IND d   1      -1.479  -2.109  -5.761  0.00  0.00     0.054 A 
ATOM      3  C3  IND d   1      -2.280  -1.026  -5.871  0.00  0.00    -0.031 A 
ATOM      4  C4  IND d   1      -4.850  -0.894  -5.945  0.00  0.00     0.051 A 
ATOM      5  C5  IND d   1      -5.968  -1.678  -6.000  0.00  0.00    -0.031 A 
ATOM      6  C6  IND d   1      -5.895  -3.056  -5.970  0.00  0.00     0.015 A 
ATOM      7  C7  IND d   1      -4.695  -3.703  -5.873  0.00  0.00    -0.016 A 
ATOM      8  C8  IND d   1      -3.558  -2.910  -5.825  0.00  0.00    -0.047 A 
ATOM      9  C9  IND d   1      -3.623  -1.512  -5.897  0.00  0.00    -0.096 A 
ATOM     10  HN1 IND d   1      -1.916  -4.055  -5.703  0.00  0.00     0.298 HD
ENDROOT
TORSDOF 0
ENDMDL
