MODEL 1
REMARK minimizedAffinity -3.01967764
REMARK minimizedRMSD -1
REMARK  0 active torsions:
REMARK  status: ('A' for Active; 'I' for Inactive)
ROOT
ATOM      1  N1  IND d   1       2.798  -3.527   3.005  0.00  0.00    -0.196 N 
ATOM      2  C2  IND d   1       3.720  -3.722   2.015  0.00  0.00     0.054 A 
ATOM      3  C3  IND d   1       3.437  -2.942   0.948  0.00  0.00    -0.031 A 
ATOM      4  C4  IND d   1       1.569  -1.196   0.648  0.00  0.00     0.051 A 
ATOM      5  C5  IND d   1       0.459  -0.690   1.263  0.00  0.00    -0.031 A 
ATOM      6  C6  IND d   1       0.065  -1.110   2.518  0.00  0.00     0.015 A 
ATOM      7  C7  IND d   1       0.777  -2.048   3.211  0.00  0.00    -0.016 A 
ATOM      8  C8  IND d   1       1.901  -2.569   2.586  0.00  0.00    -0.047 A 
ATOM      9  C9  IND d   1       2.281  -2.178   1.295  0.00  0.00    -0.096 A 
ATOM     10  HN1 IND d   1       2.781  -3.934   3.762  0.00  0.00     0.298 HD
ENDROOT
TORSDOF 0
ENDMDL
