MODEL 1
REMARK minimizedAffinity 7.51058674
REMARK minimizedRMSD -1
REMARK  0 active torsions:
REMARK  status: ('A' for Active; 'I' for Inactive)
ROOT
ATOM      1  N1  IND d   1      -0.305   0.064   1.470  0.00  0.00    -0.196 N 
ATOM      2  C2  IND d   1      -1.465   0.769   1.632  0.00  0.00     0.054 A 
ATOM      3  C3  IND d   1      -2.333   0.075   2.402  0.00  0.00    -0.031 A 
ATOM      4  C4  IND d   1      -2.021  -2.189   3.586  0.00  0.00     0.051 A 
ATOM      5  C5  IND d   1      -1.143  -3.230   3.705  0.00  0.00    -0.031 A 
ATOM      6  C6  IND d   1       0.085  -3.224   3.076  0.00  0.00     0.015 A 
ATOM      7  C7  IND d   1       0.487  -2.168   2.308  0.00  0.00    -0.016 A 
ATOM      8  C8  IND d   1      -0.405  -1.113   2.179  0.00  0.00    -0.047 A 
ATOM      9  C9  IND d   1      -1.669  -1.131   2.781  0.00  0.00    -0.096 A 
ATOM     10  HN1 IND d   1       0.373   0.314   1.004  0.00  0.00     0.298 HD
ENDROOT
TORSDOF 0
ENDMDL
