MODEL 1
REMARK minimizedAffinity 4.70278358
REMARK minimizedRMSD -1
REMARK  0 active torsions:
REMARK  status: ('A' for Active; 'I' for Inactive)
ROOT
ATOM      1  N1  IND d   1       1.401  -0.425  -0.427  0.00  0.00    -0.196 N 
ATOM      2  C2  IND d   1       0.272   0.263  -0.776  0.00  0.00     0.054 A 
ATOM      3  C3  IND d   1       0.548   1.579  -0.915  0.00  0.00    -0.031 A 
ATOM      4  C4  IND d   1       2.801   2.808  -0.716  0.00  0.00     0.051 A 
ATOM      5  C5  IND d   1       4.110   2.609  -0.378  0.00  0.00    -0.031 A 
ATOM      6  C6  IND d   1       4.594   1.363  -0.036  0.00  0.00     0.015 A 
ATOM      7  C7  IND d   1       3.785   0.263  -0.029  0.00  0.00    -0.016 A 
ATOM      8  C8  IND d   1       2.453   0.462  -0.364  0.00  0.00    -0.047 A 
ATOM      9  C9  IND d   1       1.947   1.732  -0.671  0.00  0.00    -0.096 A 
ATOM     10  HN1 IND d   1       1.446  -1.270  -0.273  0.00  0.00     0.298 HD
ENDROOT
TORSDOF 0
ENDMDL
