MODEL 1
REMARK minimizedAffinity 3.16725302
REMARK minimizedRMSD -1
REMARK  0 active torsions:
REMARK  status: ('A' for Active; 'I' for Inactive)
ROOT
ATOM      1  N1  IND d   1       0.976  -0.971  -0.199  0.00  0.00    -0.196 N 
ATOM      2  C2  IND d   1      -0.008  -0.047   0.014  0.00  0.00     0.054 A 
ATOM      3  C3  IND d   1      -0.721  -0.364   1.118  0.00  0.00    -0.031 A 
ATOM      4  C4  IND d   1      -0.381  -2.297   2.784  0.00  0.00     0.051 A 
ATOM      5  C5  IND d   1       0.367  -3.422   2.991  0.00  0.00    -0.031 A 
ATOM      6  C6  IND d   1       1.378  -3.794   2.129  0.00  0.00     0.015 A 
ATOM      7  C7  IND d   1       1.688  -3.045   1.030  0.00  0.00    -0.016 A 
ATOM      8  C8  IND d   1       0.926  -1.905   0.813  0.00  0.00    -0.047 A 
ATOM      9  C9  IND d   1      -0.129  -1.546   1.661  0.00  0.00    -0.096 A 
ATOM     10  HN1 IND d   1       1.533  -0.970  -0.854  0.00  0.00     0.298 HD
ENDROOT
TORSDOF 0
ENDMDL
