MODEL 1
REMARK minimizedAffinity 6.0908823
REMARK minimizedRMSD -1
REMARK  0 active torsions:
REMARK  status: ('A' for Active; 'I' for Inactive)
ROOT
ATOM      1  N1  IND d   1       0.231  -0.444  -0.474  0.00  0.00    -0.196 N 
ATOM      2  C2  IND d   1      -0.842   0.363  -0.217  0.00  0.00     0.054 A 
ATOM      3  C3  IND d   1      -1.374   0.068   0.990  0.00  0.00    -0.031 A 
ATOM      4  C4  IND d   1      -0.583  -1.630   2.756  0.00  0.00     0.051 A 
ATOM      5  C5  IND d   1       0.333  -2.623   2.960  0.00  0.00    -0.031 A 
ATOM      6  C6  IND d   1       1.283  -2.946   2.012  0.00  0.00     0.015 A 
ATOM      7  C7  IND d   1       1.359  -2.276   0.824  0.00  0.00    -0.016 A 
ATOM      8  C8  IND d   1       0.426  -1.272   0.610  0.00  0.00    -0.047 A 
ATOM      9  C9  IND d   1      -0.566  -0.968   1.551  0.00  0.00    -0.096 A 
ATOM     10  HN1 IND d   1       0.704  -0.436  -1.192  0.00  0.00     0.298 HD
ENDROOT
TORSDOF 0
ENDMDL
