MODEL 1
REMARK minimizedAffinity 15.2735853
REMARK minimizedRMSD -1
REMARK  0 active torsions:
REMARK  status: ('A' for Active; 'I' for Inactive)
ROOT
ATOM      1  N1  IND d   1       5.983  -2.252   4.748  0.00  0.00    -0.196 N 
ATOM      2  C2  IND d   1       5.511  -2.534   5.999  0.00  0.00     0.054 A 
ATOM      3  C3  IND d   1       4.764  -3.660   5.978  0.00  0.00    -0.031 A 
ATOM      4  C4  IND d   1       4.269  -5.257   4.020  0.00  0.00     0.051 A 
ATOM      5  C5  IND d   1       4.453  -5.399   2.673  0.00  0.00    -0.031 A 
ATOM      6  C6  IND d   1       5.173  -4.483   1.935  0.00  0.00     0.015 A 
ATOM      7  C7  IND d   1       5.749  -3.391   2.520  0.00  0.00    -0.016 A 
ATOM      8  C8  IND d   1       5.558  -3.239   3.886  0.00  0.00    -0.047 A 
ATOM      9  C9  IND d   1       4.792  -4.143   4.633  0.00  0.00    -0.096 A 
ATOM     10  HN1 IND d   1       6.465  -1.573   4.535  0.00  0.00     0.298 HD
ENDROOT
TORSDOF 0
ENDMDL
