MODEL 1
REMARK minimizedAffinity -2.75528383
REMARK minimizedRMSD -1
REMARK  0 active torsions:
REMARK  status: ('A' for Active; 'I' for Inactive)
ROOT
ATOM      1  N1  IND d   1       2.591  -2.327  -0.197  0.00  0.00    -0.196 N 
ATOM      2  C2  IND d   1       1.584  -1.728   0.508  0.00  0.00     0.054 A 
ATOM      3  C3  IND d   1       1.718  -1.984   1.829  0.00  0.00    -0.031 A 
ATOM      4  C4  IND d   1       3.572  -3.274   3.065  0.00  0.00     0.051 A 
ATOM      5  C5  IND d   1       4.687  -4.033   2.845  0.00  0.00    -0.031 A 
ATOM      6  C6  IND d   1       5.171  -4.264   1.574  0.00  0.00     0.015 A 
ATOM      7  C7  IND d   1       4.563  -3.733   0.472  0.00  0.00    -0.016 A 
ATOM      8  C8  IND d   1       3.426  -2.968   0.691  0.00  0.00    -0.047 A 
ATOM      9  C9  IND d   1       2.905  -2.765   1.976  0.00  0.00    -0.096 A 
ATOM     10  HN1 IND d   1       2.686  -2.306  -1.051  0.00  0.00     0.298 HD
ENDROOT
TORSDOF 0
ENDMDL
