MODEL 1
REMARK minimizedAffinity -0.609576702
REMARK minimizedRMSD -1
REMARK  0 active torsions:
REMARK  status: ('A' for Active; 'I' for Inactive)
ROOT
ATOM      1  N1  IND d   1      -0.590  -0.531   1.784  0.00  0.00    -0.196 N 
ATOM      2  C2  IND d   1      -1.907  -0.340   2.096  0.00  0.00     0.054 A 
ATOM      3  C3  IND d   1      -2.627  -0.103   0.976  0.00  0.00    -0.031 A 
ATOM      4  C4  IND d   1      -1.866  -0.086  -1.484  0.00  0.00     0.051 A 
ATOM      5  C5  IND d   1      -0.749  -0.174  -2.266  0.00  0.00    -0.031 A 
ATOM      6  C6  IND d   1       0.503  -0.392  -1.728  0.00  0.00     0.015 A 
ATOM      7  C7  IND d   1       0.684  -0.543  -0.382  0.00  0.00    -0.016 A 
ATOM      8  C8  IND d   1      -0.447  -0.448   0.416  0.00  0.00    -0.047 A 
ATOM      9  C9  IND d   1      -1.714  -0.184  -0.121  0.00  0.00    -0.096 A 
ATOM     10  HN1 IND d   1       0.042  -0.679   2.347  0.00  0.00     0.298 HD
ENDROOT
TORSDOF 0
ENDMDL
