MODEL 1
REMARK minimizedAffinity -0.479644835
REMARK minimizedRMSD -1
REMARK  0 active torsions:
REMARK  status: ('A' for Active; 'I' for Inactive)
ROOT
ATOM      1  N1  IND d   1       2.206  -3.143   0.405  0.00  0.00    -0.196 N 
ATOM      2  C2  IND d   1       2.538  -4.223   1.174  0.00  0.00     0.054 A 
ATOM      3  C3  IND d   1       1.834  -4.212   2.328  0.00  0.00    -0.031 A 
ATOM      4  C4  IND d   1       0.010  -2.576   3.117  0.00  0.00     0.051 A 
ATOM      5  C5  IND d   1      -0.612  -1.409   2.772  0.00  0.00    -0.031 A 
ATOM      6  C6  IND d   1      -0.323  -0.748   1.596  0.00  0.00     0.015 A 
ATOM      7  C7  IND d   1       0.595  -1.238   0.711  0.00  0.00    -0.016 A 
ATOM      8  C8  IND d   1       1.234  -2.419   1.061  0.00  0.00    -0.047 A 
ATOM      9  C9  IND d   1       0.976  -3.072   2.273  0.00  0.00    -0.096 A 
ATOM     10  HN1 IND d   1       2.547  -2.948  -0.360  0.00  0.00     0.298 HD
ENDROOT
TORSDOF 0
ENDMDL
