MODEL 1
REMARK minimizedAffinity -3.40565729
REMARK minimizedRMSD -1
REMARK  0 active torsions:
REMARK  status: ('A' for Active; 'I' for Inactive)
ROOT
ATOM      1  N1  IND d   1       0.402   0.223  -0.426  0.00  0.00    -0.196 N 
ATOM      2  C2  IND d   1      -0.626   0.939   0.121  0.00  0.00     0.054 A 
ATOM      3  C3  IND d   1      -1.034   0.368   1.277  0.00  0.00    -0.031 A 
ATOM      4  C4  IND d   1      -0.090  -1.686   2.509  0.00  0.00     0.051 A 
ATOM      5  C5  IND d   1       0.827  -2.691   2.381  0.00  0.00    -0.031 A 
ATOM      6  C6  IND d   1       1.667  -2.777   1.290  0.00  0.00     0.015 A 
ATOM      7  C7  IND d   1       1.630  -1.850   0.287  0.00  0.00    -0.016 A 
ATOM      8  C8  IND d   1       0.696  -0.831   0.410  0.00  0.00    -0.047 A 
ATOM      9  C9  IND d   1      -0.189  -0.763   1.494  0.00  0.00    -0.096 A 
ATOM     10  HN1 IND d   1       0.798   0.401  -1.169  0.00  0.00     0.298 HD
ENDROOT
TORSDOF 0
ENDMDL
