MODEL 1
REMARK minimizedAffinity 1.05167353
REMARK minimizedRMSD -1
REMARK  0 active torsions:
REMARK  status: ('A' for Active; 'I' for Inactive)
ROOT
ATOM      1  C   UNL d   1      -2.599   0.066  -5.992  0.00  0.00     0.124 A 
ATOM      2  C1  UNL d   1      -3.986   0.099  -5.995  0.00  0.00     0.062 A 
ATOM      3  C2  UNL d   1      -4.658   1.318  -5.991  0.00  0.00     0.162 A 
ATOM      4  C3  UNL d   1      -3.943   2.516  -5.986  0.00  0.00    -0.034 A 
ATOM      5  C4  UNL d   1      -2.547   2.475  -5.983  0.00  0.00     0.162 A 
ATOM      6  C5  UNL d   1      -1.881   1.254  -5.987  0.00  0.00     0.062 A 
ATOM      7  F   UNL d   1      -0.540   1.224  -5.984  0.00  0.00    -0.097 F 
ATOM      8  F1  UNL d   1      -1.828   3.607  -5.979  0.00  0.00    -0.096 F 
ATOM      9  I   UNL d   1      -4.943   4.341  -5.981  0.00  0.00    -0.060 I 
ATOM     10  F2  UNL d   1      -5.999   1.320  -5.994  0.00  0.00    -0.096 F 
ATOM     11  F3  UNL d   1      -4.682  -1.047  -5.999  0.00  0.00    -0.097 F 
ATOM     12  F4  UNL d   1      -1.955  -1.108  -5.995  0.00  0.00    -0.092 F 
ENDROOT
TORSDOF 0
ENDMDL
