MODEL 1
REMARK minimizedAffinity 5.47808218
REMARK minimizedRMSD -1
REMARK  0 active torsions:
REMARK  status: ('A' for Active; 'I' for Inactive)
ROOT
ATOM      1  C   UNL d   1       0.794   0.136  -2.126  0.00  0.00     0.124 A 
ATOM      2  C1  UNL d   1       1.327   1.017  -1.196  0.00  0.00     0.062 A 
ATOM      3  C2  UNL d   1       0.884   0.996   0.123  0.00  0.00     0.162 A 
ATOM      4  C3  UNL d   1      -0.097   0.088   0.521  0.00  0.00    -0.034 A 
ATOM      5  C4  UNL d   1      -0.630  -0.795  -0.420  0.00  0.00     0.162 A 
ATOM      6  C5  UNL d   1      -0.183  -0.769  -1.738  0.00  0.00     0.062 A 
ATOM      7  F   UNL d   1      -0.700  -1.622  -2.635  0.00  0.00    -0.097 F 
ATOM      8  F1  UNL d   1      -1.575  -1.681  -0.072  0.00  0.00    -0.096 F 
ATOM      9  I   UNL d   1      -0.763   0.052   2.493  0.00  0.00    -0.060 I 
ATOM     10  F2  UNL d   1       1.417   1.859   1.001  0.00  0.00    -0.096 F 
ATOM     11  F3  UNL d   1       2.271   1.894  -1.569  0.00  0.00    -0.097 F 
ATOM     12  F4  UNL d   1       1.222   0.160  -3.395  0.00  0.00    -0.092 F 
ENDROOT
TORSDOF 0
ENDMDL
