MODEL 1
REMARK minimizedAffinity 2.81651735
REMARK minimizedRMSD -1
REMARK  0 active torsions:
REMARK  status: ('A' for Active; 'I' for Inactive)
ROOT
ATOM      1  C   UNL d   1      -1.987   3.938  -5.972  0.00  0.00     0.124 A 
ATOM      2  C1  UNL d   1      -3.361   4.137  -5.981  0.00  0.00     0.062 A 
ATOM      3  C2  UNL d   1      -4.226   3.046  -5.989  0.00  0.00     0.162 A 
ATOM      4  C3  UNL d   1      -3.720   1.746  -5.987  0.00  0.00    -0.034 A 
ATOM      5  C4  UNL d   1      -2.337   1.554  -5.979  0.00  0.00     0.162 A 
ATOM      6  C5  UNL d   1      -1.477   2.647  -5.971  0.00  0.00     0.062 A 
ATOM      7  F   UNL d   1      -0.150   2.453  -5.962  0.00  0.00    -0.097 F 
ATOM      8  F1  UNL d   1      -1.817   0.318  -5.976  0.00  0.00    -0.096 F 
ATOM      9  I   UNL d   1      -5.010   0.114  -5.998  0.00  0.00    -0.060 I 
ATOM     10  F2  UNL d   1      -5.549   3.268  -5.997  0.00  0.00    -0.096 F 
ATOM     11  F3  UNL d   1      -3.856   5.382  -5.983  0.00  0.00    -0.097 F 
ATOM     12  F4  UNL d   1      -1.157   4.989  -5.965  0.00  0.00    -0.092 F 
ENDROOT
TORSDOF 0
ENDMDL
