MODEL 1
REMARK minimizedAffinity 7.33696079
REMARK minimizedRMSD -1
REMARK  0 active torsions:
REMARK  status: ('A' for Active; 'I' for Inactive)
ROOT
ATOM      1  C   UNL d   1      -3.561   3.616  -5.984  0.00  0.00     0.124 A 
ATOM      2  C1  UNL d   1      -4.775   2.942  -5.987  0.00  0.00     0.062 A 
ATOM      3  C2  UNL d   1      -4.803   1.550  -5.986  0.00  0.00     0.162 A 
ATOM      4  C3  UNL d   1      -3.613   0.823  -5.981  0.00  0.00    -0.034 A 
ATOM      5  C4  UNL d   1      -2.396   1.507  -5.980  0.00  0.00     0.162 A 
ATOM      6  C5  UNL d   1      -2.373   2.898  -5.981  0.00  0.00     0.062 A 
ATOM      7  F   UNL d   1      -1.200   3.547  -5.978  0.00  0.00    -0.097 F 
ATOM      8  F1  UNL d   1      -1.233   0.839  -5.975  0.00  0.00    -0.096 F 
ATOM      9  I   UNL d   1      -3.650  -1.258  -5.980  0.00  0.00    -0.060 I 
ATOM     10  F2  UNL d   1      -5.990   0.926  -5.988  0.00  0.00    -0.096 F 
ATOM     11  F3  UNL d   1      -5.924   3.633  -5.991  0.00  0.00    -0.097 F 
ATOM     12  F4  UNL d   1      -3.537   4.955  -5.986  0.00  0.00    -0.092 F 
ENDROOT
TORSDOF 0
ENDMDL
