MODEL 1
REMARK minimizedAffinity 8.86236763
REMARK minimizedRMSD -1
REMARK  0 active torsions:
REMARK  status: ('A' for Active; 'I' for Inactive)
ROOT
ATOM      1  C   UNL d   1      -0.457  -1.164  -1.861  0.00  0.00     0.124 A 
ATOM      2  C1  UNL d   1      -0.330  -1.072  -0.482  0.00  0.00     0.062 A 
ATOM      3  C2  UNL d   1       0.563  -0.164   0.080  0.00  0.00     0.162 A 
ATOM      4  C3  UNL d   1       1.335   0.661  -0.738  0.00  0.00    -0.034 A 
ATOM      5  C4  UNL d   1       1.202   0.562  -2.124  0.00  0.00     0.162 A 
ATOM      6  C5  UNL d   1       0.309  -0.347  -2.681  0.00  0.00     0.062 A 
ATOM      7  F   UNL d   1       0.187  -0.435  -4.013  0.00  0.00    -0.097 F 
ATOM      8  F1  UNL d   1       1.929   1.341  -2.940  0.00  0.00    -0.096 F 
ATOM      9  I   UNL d   1       2.670   2.021   0.098  0.00  0.00    -0.060 I 
ATOM     10  F2  UNL d   1       0.665  -0.096   1.415  0.00  0.00    -0.096 F 
ATOM     11  F3  UNL d   1      -1.068  -1.861   0.312  0.00  0.00    -0.097 F 
ATOM     12  F4  UNL d   1      -1.316  -2.040  -2.399  0.00  0.00    -0.092 F 
ENDROOT
TORSDOF 0
ENDMDL
