MODEL 1
REMARK minimizedAffinity 2.09298992
REMARK minimizedRMSD -1
REMARK  0 active torsions:
REMARK  status: ('A' for Active; 'I' for Inactive)
ROOT
ATOM      1  C   UNL d   1      -2.781  -0.023  -5.970  0.00  0.00     0.124 A 
ATOM      2  C1  UNL d   1      -4.153   0.193  -5.982  0.00  0.00     0.062 A 
ATOM      3  C2  UNL d   1      -4.657   1.490  -5.988  0.00  0.00     0.162 A 
ATOM      4  C3  UNL d   1      -3.790   2.583  -5.982  0.00  0.00    -0.034 A 
ATOM      5  C4  UNL d   1      -2.412   2.358  -5.969  0.00  0.00     0.162 A 
ATOM      6  C5  UNL d   1      -1.913   1.059  -5.964  0.00  0.00     0.062 A 
ATOM      7  F   UNL d   1      -0.588   0.853  -5.952  0.00  0.00    -0.097 F 
ATOM      8  F1  UNL d   1      -1.550   3.385  -5.963  0.00  0.00    -0.096 F 
ATOM      9  I   UNL d   1      -4.540   4.524  -5.990  0.00  0.00    -0.060 I 
ATOM     10  F2  UNL d   1      -5.986   1.669  -5.999  0.00  0.00    -0.096 F 
ATOM     11  F3  UNL d   1      -4.994  -0.851  -5.988  0.00  0.00    -0.097 F 
ATOM     12  F4  UNL d   1      -2.299  -1.272  -5.964  0.00  0.00    -0.092 F 
ENDROOT
TORSDOF 0
ENDMDL
