MODEL 1
REMARK minimizedAffinity 13.5278559
REMARK minimizedRMSD -1
REMARK  0 active torsions:
REMARK  status: ('A' for Active; 'I' for Inactive)
ROOT
ATOM      1  C   UNL d   1       1.531  -0.266  -0.845  0.00  0.00     0.124 A 
ATOM      2  C1  UNL d   1       2.310   0.783  -1.313  0.00  0.00     0.062 A 
ATOM      3  C2  UNL d   1       2.601   1.863  -0.484  0.00  0.00     0.162 A 
ATOM      4  C3  UNL d   1       2.113   1.898   0.823  0.00  0.00    -0.034 A 
ATOM      5  C4  UNL d   1       1.330   0.839   1.286  0.00  0.00     0.162 A 
ATOM      6  C5  UNL d   1       1.042  -0.237   0.453  0.00  0.00     0.062 A 
ATOM      7  F   UNL d   1       0.289  -1.250   0.906  0.00  0.00    -0.097 F 
ATOM      8  F1  UNL d   1       0.845   0.841   2.536  0.00  0.00    -0.096 F 
ATOM      9  I   UNL d   1       2.546   3.510   2.066  0.00  0.00    -0.060 I 
ATOM     10  F2  UNL d   1       3.356   2.863  -0.962  0.00  0.00    -0.096 F 
ATOM     11  F3  UNL d   1       2.784   0.758  -2.567  0.00  0.00    -0.097 F 
ATOM     12  F4  UNL d   1       1.252  -1.303  -1.646  0.00  0.00    -0.092 F 
ENDROOT
TORSDOF 0
ENDMDL
