MODEL 1
REMARK minimizedAffinity 5.16353941
REMARK minimizedRMSD -1
REMARK  0 active torsions:
REMARK  status: ('A' for Active; 'I' for Inactive)
ROOT
ATOM      1  C   UNL d   1       1.240  -0.634  -1.600  0.00  0.00     0.124 A 
ATOM      2  C1  UNL d   1       2.294   0.236  -1.845  0.00  0.00     0.062 A 
ATOM      3  C2  UNL d   1       2.630   1.210  -0.908  0.00  0.00     0.162 A 
ATOM      4  C3  UNL d   1       1.912   1.318   0.283  0.00  0.00    -0.034 A 
ATOM      5  C4  UNL d   1       0.853   0.440   0.521  0.00  0.00     0.162 A 
ATOM      6  C5  UNL d   1       0.521  -0.531  -0.418  0.00  0.00     0.062 A 
ATOM      7  F   UNL d   1      -0.497  -1.370  -0.180  0.00  0.00    -0.097 F 
ATOM      8  F1  UNL d   1       0.142   0.517   1.656  0.00  0.00    -0.096 F 
ATOM      9  I   UNL d   1       2.411   2.772   1.685  0.00  0.00    -0.060 I 
ATOM     10  F2  UNL d   1       3.653   2.037  -1.171  0.00  0.00    -0.096 F 
ATOM     11  F3  UNL d   1       2.990   0.140  -2.987  0.00  0.00    -0.097 F 
ATOM     12  F4  UNL d   1       0.918  -1.569  -2.503  0.00  0.00    -0.092 F 
ENDROOT
TORSDOF 0
ENDMDL
