MODEL 1
REMARK minimizedAffinity 3.42803478
REMARK minimizedRMSD -1
REMARK  0 active torsions:
REMARK  status: ('A' for Active; 'I' for Inactive)
ROOT
ATOM      1  C   UNL d   1      -2.980   0.852  -5.994  0.00  0.00     0.124 A 
ATOM      2  C1  UNL d   1      -1.864   1.678  -5.993  0.00  0.00     0.062 A 
ATOM      3  C2  UNL d   1      -2.017   3.061  -5.994  0.00  0.00     0.162 A 
ATOM      4  C3  UNL d   1      -3.292   3.628  -5.996  0.00  0.00    -0.034 A 
ATOM      5  C4  UNL d   1      -4.409   2.791  -5.998  0.00  0.00     0.162 A 
ATOM      6  C5  UNL d   1      -4.251   1.409  -5.997  0.00  0.00     0.062 A 
ATOM      7  F   UNL d   1      -5.330   0.613  -5.998  0.00  0.00    -0.097 F 
ATOM      8  F1  UNL d   1      -5.649   3.303  -6.000  0.00  0.00    -0.096 F 
ATOM      9  I   UNL d   1      -3.525   5.696  -5.998  0.00  0.00    -0.060 I 
ATOM     10  F2  UNL d   1      -0.922   3.835  -5.993  0.00  0.00    -0.096 F 
ATOM     11  F3  UNL d   1      -0.635   1.142  -5.992  0.00  0.00    -0.097 F 
ATOM     12  F4  UNL d   1      -2.830  -0.479  -5.994  0.00  0.00    -0.092 F 
ENDROOT
TORSDOF 0
ENDMDL
