MODEL 1
REMARK minimizedAffinity -2.28144121
REMARK minimizedRMSD -1
REMARK  0 active torsions:
REMARK  status: ('A' for Active; 'I' for Inactive)
ROOT
ATOM      1  C   UNL d   1      -3.604   3.364  -5.717  0.00  0.00     0.124 A 
ATOM      2  C1  UNL d   1      -2.361   2.748  -5.694  0.00  0.00     0.062 A 
ATOM      3  C2  UNL d   1      -2.265   1.362  -5.775  0.00  0.00     0.162 A 
ATOM      4  C3  UNL d   1      -3.417   0.582  -5.879  0.00  0.00    -0.034 A 
ATOM      5  C4  UNL d   1      -4.664   1.209  -5.900  0.00  0.00     0.162 A 
ATOM      6  C5  UNL d   1      -4.754   2.594  -5.820  0.00  0.00     0.062 A 
ATOM      7  F   UNL d   1      -5.956   3.188  -5.842  0.00  0.00    -0.097 F 
ATOM      8  F1  UNL d   1      -5.791   0.489  -6.000  0.00  0.00    -0.096 F 
ATOM      9  I   UNL d   1      -3.278  -1.492  -5.999  0.00  0.00    -0.060 I 
ATOM     10  F2  UNL d   1      -1.051   0.793  -5.751  0.00  0.00    -0.096 F 
ATOM     11  F3  UNL d   1      -1.248   3.489  -5.594  0.00  0.00    -0.097 F 
ATOM     12  F4  UNL d   1      -3.693   4.698  -5.639  0.00  0.00    -0.092 F 
ENDROOT
TORSDOF 0
ENDMDL
