MODEL 1
REMARK minimizedAffinity 17.0690536
REMARK minimizedRMSD -1
REMARK  0 active torsions:
REMARK  status: ('A' for Active; 'I' for Inactive)
ROOT
ATOM      1  C   UNL d   1      -0.246   1.248  -0.521  0.00  0.00     0.124 A 
ATOM      2  C1  UNL d   1       0.416   2.460  -0.381  0.00  0.00     0.062 A 
ATOM      3  C2  UNL d   1       1.807   2.504  -0.402  0.00  0.00     0.162 A 
ATOM      4  C3  UNL d   1       2.546   1.333  -0.565  0.00  0.00    -0.034 A 
ATOM      5  C4  UNL d   1       1.873   0.117  -0.704  0.00  0.00     0.162 A 
ATOM      6  C5  UNL d   1       0.483   0.078  -0.682  0.00  0.00     0.062 A 
ATOM      7  F   UNL d   1      -0.155  -1.094  -0.817  0.00  0.00    -0.097 F 
ATOM      8  F1  UNL d   1       2.553  -1.028  -0.862  0.00  0.00    -0.096 F 
ATOM      9  I   UNL d   1       4.626   1.395  -0.598  0.00  0.00    -0.060 I 
ATOM     10  F2  UNL d   1       2.420   3.690  -0.265  0.00  0.00    -0.096 F 
ATOM     11  F3  UNL d   1      -0.287   3.591  -0.224  0.00  0.00    -0.097 F 
ATOM     12  F4  UNL d   1      -1.585   1.208  -0.499  0.00  0.00    -0.092 F 
ENDROOT
TORSDOF 0
ENDMDL
