MODEL 1
REMARK minimizedAffinity -0.257769614
REMARK minimizedRMSD -1
REMARK  0 active torsions:
REMARK  status: ('A' for Active; 'I' for Inactive)
ROOT
ATOM      1  C   UNL d   1      -3.012   0.259  -5.976  0.00  0.00     0.124 A 
ATOM      2  C1  UNL d   1      -2.022   1.232  -5.973  0.00  0.00     0.062 A 
ATOM      3  C2  UNL d   1      -2.366   2.581  -5.979  0.00  0.00     0.162 A 
ATOM      4  C3  UNL d   1      -3.708   2.965  -5.987  0.00  0.00    -0.034 A 
ATOM      5  C4  UNL d   1      -4.697   1.980  -5.991  0.00  0.00     0.162 A 
ATOM      6  C5  UNL d   1      -4.348   0.634  -5.985  0.00  0.00     0.062 A 
ATOM      7  F   UNL d   1      -5.305  -0.305  -5.988  0.00  0.00    -0.097 F 
ATOM      8  F1  UNL d   1      -5.996   2.314  -5.999  0.00  0.00    -0.096 F 
ATOM      9  I   UNL d   1      -4.227   4.980  -5.996  0.00  0.00    -0.060 I 
ATOM     10  F2  UNL d   1      -1.389   3.500  -5.976  0.00  0.00    -0.096 F 
ATOM     11  F3  UNL d   1      -0.730   0.873  -5.965  0.00  0.00    -0.097 F 
ATOM     12  F4  UNL d   1      -2.678  -1.038  -5.972  0.00  0.00    -0.092 F 
ENDROOT
TORSDOF 0
ENDMDL
