MODEL 1
REMARK minimizedAffinity 6.78069496
REMARK minimizedRMSD -1
REMARK  0 active torsions:
REMARK  status: ('A' for Active; 'I' for Inactive)
ROOT
ATOM      1  C   UNL d   1      -2.294   4.718  -5.878  0.00  0.00     0.124 A 
ATOM      2  C1  UNL d   1      -1.676   3.475  -5.875  0.00  0.00     0.062 A 
ATOM      3  C2  UNL d   1      -2.441   2.313  -5.910  0.00  0.00     0.162 A 
ATOM      4  C3  UNL d   1      -3.834   2.387  -5.948  0.00  0.00    -0.034 A 
ATOM      5  C4  UNL d   1      -4.448   3.641  -5.949  0.00  0.00     0.162 A 
ATOM      6  C5  UNL d   1      -3.679   4.800  -5.914  0.00  0.00     0.062 A 
ATOM      7  F   UNL d   1      -4.278   5.999  -5.917  0.00  0.00    -0.097 F 
ATOM      8  F1  UNL d   1      -5.785   3.749  -5.985  0.00  0.00    -0.096 F 
ATOM      9  I   UNL d   1      -4.981   0.652  -6.000  0.00  0.00    -0.060 I 
ATOM     10  F2  UNL d   1      -1.817   1.125  -5.907  0.00  0.00    -0.096 F 
ATOM     11  F3  UNL d   1      -0.338   3.393  -5.839  0.00  0.00    -0.097 F 
ATOM     12  F4  UNL d   1      -1.556   5.834  -5.843  0.00  0.00    -0.092 F 
ENDROOT
TORSDOF 0
ENDMDL
