MODEL 1
REMARK minimizedAffinity 10.8545742
REMARK minimizedRMSD -1
REMARK  0 active torsions:
REMARK  status: ('A' for Active; 'I' for Inactive)
ROOT
ATOM      1  C   UNL d   1      -0.057  -1.215  -1.049  0.00  0.00     0.124 A 
ATOM      2  C1  UNL d   1      -0.877  -0.590  -0.121  0.00  0.00     0.062 A 
ATOM      3  C2  UNL d   1      -0.444   0.559   0.534  0.00  0.00     0.162 A 
ATOM      4  C3  UNL d   1       0.816   1.091   0.263  0.00  0.00    -0.034 A 
ATOM      5  C4  UNL d   1       1.636   0.456  -0.672  0.00  0.00     0.162 A 
ATOM      6  C5  UNL d   1       1.199  -0.692  -1.324  0.00  0.00     0.062 A 
ATOM      7  F   UNL d   1       1.993  -1.295  -2.221  0.00  0.00    -0.097 F 
ATOM      8  F1  UNL d   1       2.854   0.941  -0.957  0.00  0.00    -0.096 F 
ATOM      9  I   UNL d   1       1.468   2.809   1.240  0.00  0.00    -0.060 I 
ATOM     10  F2  UNL d   1      -1.258   1.143   1.427  0.00  0.00    -0.096 F 
ATOM     11  F3  UNL d   1      -2.090  -1.094   0.147  0.00  0.00    -0.097 F 
ATOM     12  F4  UNL d   1      -0.476  -2.321  -1.678  0.00  0.00    -0.092 F 
ENDROOT
TORSDOF 0
ENDMDL
