MODEL 1
REMARK minimizedAffinity 1.76893842
REMARK minimizedRMSD -1
REMARK  0 active torsions:
REMARK  status: ('A' for Active; 'I' for Inactive)
ROOT
ATOM      1  C   UNL d   1      -3.443   4.599  -5.608  0.00  0.00     0.124 A 
ATOM      2  C1  UNL d   1      -4.673   3.986  -5.800  0.00  0.00     0.062 A 
ATOM      3  C2  UNL d   1      -4.772   2.598  -5.796  0.00  0.00     0.162 A 
ATOM      4  C3  UNL d   1      -3.636   1.812  -5.598  0.00  0.00    -0.034 A 
ATOM      5  C4  UNL d   1      -2.402   2.436  -5.406  0.00  0.00     0.162 A 
ATOM      6  C5  UNL d   1      -2.309   3.823  -5.411  0.00  0.00     0.062 A 
ATOM      7  F   UNL d   1      -1.119   4.414  -5.225  0.00  0.00    -0.097 F 
ATOM      8  F1  UNL d   1      -1.290   1.710  -5.212  0.00  0.00    -0.096 F 
ATOM      9  I   UNL d   1      -3.780  -0.264  -5.591  0.00  0.00    -0.060 I 
ATOM     10  F2  UNL d   1      -5.973   2.032  -5.984  0.00  0.00    -0.096 F 
ATOM     11  F3  UNL d   1      -5.770   4.733  -5.991  0.00  0.00    -0.097 F 
ATOM     12  F4  UNL d   1      -3.350   5.935  -5.613  0.00  0.00    -0.092 F 
ENDROOT
TORSDOF 0
ENDMDL
