MODEL 1
REMARK minimizedAffinity 9.02042198
REMARK minimizedRMSD -1
REMARK  0 active torsions:
REMARK  status: ('A' for Active; 'I' for Inactive)
ROOT
ATOM      1  C   UNL d   1       0.755  -0.439  -1.889  0.00  0.00     0.124 A 
ATOM      2  C1  UNL d   1       1.996   0.181  -1.850  0.00  0.00     0.062 A 
ATOM      3  C2  UNL d   1       2.270   1.137  -0.877  0.00  0.00     0.162 A 
ATOM      4  C3  UNL d   1       1.302   1.478   0.067  0.00  0.00    -0.034 A 
ATOM      5  C4  UNL d   1       0.056   0.851   0.022  0.00  0.00     0.162 A 
ATOM      6  C5  UNL d   1      -0.214  -0.104  -0.953  0.00  0.00     0.062 A 
ATOM      7  F   UNL d   1      -1.413  -0.703  -0.989  0.00  0.00    -0.097 F 
ATOM      8  F1  UNL d   1      -0.898   1.155   0.915  0.00  0.00    -0.096 F 
ATOM      9  I   UNL d   1       1.708   2.908   1.525  0.00  0.00    -0.060 I 
ATOM     10  F2  UNL d   1       3.478   1.721  -0.864  0.00  0.00    -0.096 F 
ATOM     11  F3  UNL d   1       2.933  -0.140  -2.754  0.00  0.00    -0.097 F 
ATOM     12  F4  UNL d   1       0.493  -1.358  -2.827  0.00  0.00    -0.092 F 
ENDROOT
TORSDOF 0
ENDMDL
