MODEL 1
REMARK minimizedAffinity 6.62797499
REMARK minimizedRMSD -1
REMARK  0 active torsions:
REMARK  status: ('A' for Active; 'I' for Inactive)
ROOT
ATOM      1  C   UNL d   1      -2.317   4.160  -5.998  0.00  0.00     0.124 A 
ATOM      2  C1  UNL d   1      -1.582   2.983  -5.999  0.00  0.00     0.062 A 
ATOM      3  C2  UNL d   1      -2.231   1.751  -5.999  0.00  0.00     0.162 A 
ATOM      4  C3  UNL d   1      -3.624   1.691  -5.999  0.00  0.00    -0.034 A 
ATOM      5  C4  UNL d   1      -4.358   2.879  -5.998  0.00  0.00     0.162 A 
ATOM      6  C5  UNL d   1      -3.704   4.107  -5.998  0.00  0.00     0.062 A 
ATOM      7  F   UNL d   1      -4.416   5.243  -5.997  0.00  0.00    -0.097 F 
ATOM      8  F1  UNL d   1      -5.699   2.857  -5.998  0.00  0.00    -0.096 F 
ATOM      9  I   UNL d   1      -4.599  -0.148  -6.000  0.00  0.00    -0.060 I 
ATOM     10  F2  UNL d   1      -1.495   0.630  -6.000  0.00  0.00    -0.096 F 
ATOM     11  F3  UNL d   1      -0.242   3.031  -5.999  0.00  0.00    -0.097 F 
ATOM     12  F4  UNL d   1      -1.690   5.343  -5.997  0.00  0.00    -0.092 F 
ENDROOT
TORSDOF 0
ENDMDL
