MODEL 1
REMARK minimizedAffinity 10.6179504
REMARK minimizedRMSD -1
REMARK  0 active torsions:
REMARK  status: ('A' for Active; 'I' for Inactive)
ROOT
ATOM      1  C   UNL d   1       1.734   0.150  -1.579  0.00  0.00     0.124 A 
ATOM      2  C1  UNL d   1       1.401   0.434  -0.261  0.00  0.00     0.062 A 
ATOM      3  C2  UNL d   1       0.246  -0.104   0.300  0.00  0.00     0.162 A 
ATOM      4  C3  UNL d   1      -0.585  -0.931  -0.456  0.00  0.00    -0.034 A 
ATOM      5  C4  UNL d   1      -0.243  -1.211  -1.781  0.00  0.00     0.162 A 
ATOM      6  C5  UNL d   1       0.912  -0.671  -2.337  0.00  0.00     0.062 A 
ATOM      7  F   UNL d   1       1.232  -0.946  -3.610  0.00  0.00    -0.097 F 
ATOM      8  F1  UNL d   1      -1.019  -2.002  -2.536  0.00  0.00    -0.096 F 
ATOM      9  I   UNL d   1      -2.312  -1.736   0.379  0.00  0.00    -0.060 I 
ATOM     10  F2  UNL d   1      -0.051   0.187   1.575  0.00  0.00    -0.096 F 
ATOM     11  F3  UNL d   1       2.193   1.228   0.473  0.00  0.00    -0.097 F 
ATOM     12  F4  UNL d   1       2.845   0.669  -2.116  0.00  0.00    -0.092 F 
ENDROOT
TORSDOF 0
ENDMDL
