MODEL 1
REMARK minimizedAffinity -2.91877866
REMARK minimizedRMSD -1
REMARK  1 active torsions:
REMARK  status: ('A' for Active; 'I' for Inactive)
REMARK    1  A    between atoms: C1_2  and  C2_3 
ROOT
ATOM      1  C2  UNL d   1       0.515  -0.279   0.550  0.00  0.00    -0.073 A 
ATOM      2  C3  UNL d   1       0.603   1.101   0.340  0.00  0.00    -0.002 A 
ATOM      3  C4  UNL d   1       1.440   1.611  -0.654  0.00  0.00     0.004 A 
ATOM      4  C5  UNL d   1       2.190   0.747  -1.451  0.00  0.00    -0.004 A 
ATOM      5  C6  UNL d   1       2.106  -0.637  -1.264  0.00  0.00    -0.075 A 
ATOM      6  C7  UNL d   1       2.909  -1.580  -2.111  0.00  0.00     0.076 C 
ATOM      7  C8  UNL d   1       1.266  -1.141  -0.262  0.00  0.00     0.001 A 
ENDROOT
BRANCH   1   8
ATOM      8  C1  UNL d   1      -0.393  -0.835   1.618  0.00  0.00     0.053 C 
ATOM      9  C   UNL d   1      -1.677  -0.031   1.749  0.00  0.00     0.018 C 
ENDBRANCH   1   8
TORSDOF 1
ENDMDL
