MODEL 1
REMARK minimizedAffinity -4.22419596
REMARK minimizedRMSD -1
REMARK  1 active torsions:
REMARK  status: ('A' for Active; 'I' for Inactive)
REMARK    1  A    between atoms: C1_2  and  C2_3 
ROOT
ATOM      1  C2  UNL d   1       0.830  -1.245  -0.673  0.00  0.00    -0.073 A 
ATOM      2  C3  UNL d   1       1.566  -0.176  -1.197  0.00  0.00    -0.002 A 
ATOM      3  C4  UNL d   1       1.194   1.140  -0.917  0.00  0.00     0.004 A 
ATOM      4  C5  UNL d   1       0.090   1.400  -0.107  0.00  0.00    -0.004 A 
ATOM      5  C6  UNL d   1      -0.651   0.345   0.436  0.00  0.00    -0.075 A 
ATOM      6  C7  UNL d   1      -1.844   0.607   1.308  0.00  0.00     0.076 C 
ATOM      7  C8  UNL d   1      -0.274  -0.974   0.148  0.00  0.00     0.001 A 
ENDROOT
BRANCH   1   8
ATOM      8  C1  UNL d   1       1.232  -2.668  -0.968  0.00  0.00     0.053 C 
ATOM      9  C   UNL d   1       2.638  -2.757  -1.539  0.00  0.00     0.018 C 
ENDBRANCH   1   8
TORSDOF 1
ENDMDL
