MODEL 1
REMARK minimizedAffinity -3.76433849
REMARK minimizedRMSD -1
REMARK  1 active torsions:
REMARK  status: ('A' for Active; 'I' for Inactive)
REMARK    1  A    between atoms: C1_2  and  C2_3 
ROOT
ATOM      1  C2  UNL d   1      -0.029   1.167  -0.188  0.00  0.00    -0.073 A 
ATOM      2  C3  UNL d   1       0.383   0.509   0.977  0.00  0.00    -0.002 A 
ATOM      3  C4  UNL d   1      -0.558   0.079   1.913  0.00  0.00     0.004 A 
ATOM      4  C5  UNL d   1      -1.918   0.295   1.692  0.00  0.00    -0.004 A 
ATOM      5  C6  UNL d   1      -2.350   0.939   0.529  0.00  0.00    -0.075 A 
ATOM      6  C7  UNL d   1      -3.810   1.181   0.277  0.00  0.00     0.076 C 
ATOM      7  C8  UNL d   1      -1.399   1.371  -0.406  0.00  0.00     0.001 A 
ENDROOT
BRANCH   1   8
ATOM      8  C1  UNL d   1       0.982   1.628  -1.205  0.00  0.00     0.053 C 
ATOM      9  C   UNL d   1       2.035   0.567  -1.483  0.00  0.00     0.018 C 
ENDBRANCH   1   8
TORSDOF 1
ENDMDL
