MODEL 1
REMARK minimizedAffinity -0.260160029
REMARK minimizedRMSD -1
REMARK  1 active torsions:
REMARK  status: ('A' for Active; 'I' for Inactive)
REMARK    1  A    between atoms: C1_2  and  C2_3 
ROOT
ATOM      1  C2  UNL d   1      -1.877   0.089   1.610  0.00  0.00    -0.073 A 
ATOM      2  C3  UNL d   1      -2.997  -0.620   1.163  0.00  0.00    -0.002 A 
ATOM      3  C4  UNL d   1      -4.283  -0.180   1.481  0.00  0.00     0.004 A 
ATOM      4  C5  UNL d   1      -4.461   0.976   2.242  0.00  0.00    -0.004 A 
ATOM      5  C6  UNL d   1      -3.354   1.704   2.688  0.00  0.00    -0.075 A 
ATOM      6  C7  UNL d   1      -3.529   2.948   3.509  0.00  0.00     0.076 C 
ATOM      7  C8  UNL d   1      -2.066   1.255   2.366  0.00  0.00     0.001 A 
ENDROOT
BRANCH   1   8
ATOM      8  C1  UNL d   1      -0.487  -0.378   1.263  0.00  0.00     0.053 C 
ATOM      9  C   UNL d   1       0.328   0.710   0.582  0.00  0.00     0.018 C 
ENDBRANCH   1   8
TORSDOF 1
ENDMDL
