MODEL 1
REMARK minimizedAffinity -2.36690044
REMARK minimizedRMSD -1
REMARK  1 active torsions:
REMARK  status: ('A' for Active; 'I' for Inactive)
REMARK    1  A    between atoms: C1_2  and  C2_3 
ROOT
ATOM      1  C2  UNL d   1      -0.653   0.618   0.953  0.00  0.00    -0.073 A 
ATOM      2  C3  UNL d   1      -0.762  -0.758   0.724  0.00  0.00    -0.002 A 
ATOM      3  C4  UNL d   1      -1.982  -1.410   0.916  0.00  0.00     0.004 A 
ATOM      4  C5  UNL d   1      -3.104  -0.692   1.330  0.00  0.00    -0.004 A 
ATOM      5  C6  UNL d   1      -3.017   0.686   1.552  0.00  0.00    -0.075 A 
ATOM      6  C7  UNL d   1      -4.214   1.472   2.000  0.00  0.00     0.076 C 
ATOM      7  C8  UNL d   1      -1.788   1.333   1.360  0.00  0.00     0.001 A 
ENDROOT
BRANCH   1   8
ATOM      8  C1  UNL d   1       0.660   1.327   0.741  0.00  0.00     0.053 C 
ATOM      9  C   UNL d   1       1.039   1.396  -0.730  0.00  0.00     0.018 C 
ENDBRANCH   1   8
TORSDOF 1
ENDMDL
