MODEL 1
REMARK minimizedAffinity -1.9219842
REMARK minimizedRMSD -1
REMARK  1 active torsions:
REMARK  status: ('A' for Active; 'I' for Inactive)
REMARK    1  A    between atoms: C1_2  and  C2_3 
ROOT
ATOM      1  C2  UNL d   1      -0.534   0.339   0.307  0.00  0.00    -0.073 A 
ATOM      2  C3  UNL d   1       0.356   1.222  -0.314  0.00  0.00    -0.002 A 
ATOM      3  C4  UNL d   1       1.392   0.734  -1.112  0.00  0.00     0.004 A 
ATOM      4  C5  UNL d   1       1.544  -0.640  -1.302  0.00  0.00    -0.004 A 
ATOM      5  C6  UNL d   1       0.657  -1.538  -0.699  0.00  0.00    -0.075 A 
ATOM      6  C7  UNL d   1       0.807  -3.018  -0.892  0.00  0.00     0.076 C 
ATOM      7  C8  UNL d   1      -0.379  -1.039   0.103  0.00  0.00     0.001 A 
ENDROOT
BRANCH   1   8
ATOM      8  C1  UNL d   1      -1.658   0.863   1.164  0.00  0.00     0.053 C 
ATOM      9  C   UNL d   1      -2.991   0.225   0.808  0.00  0.00     0.018 C 
ENDBRANCH   1   8
TORSDOF 1
ENDMDL
