MODEL 1
REMARK minimizedAffinity -3.23598337
REMARK minimizedRMSD -1
REMARK  1 active torsions:
REMARK  status: ('A' for Active; 'I' for Inactive)
REMARK    1  A    between atoms: C1_2  and  C2_3 
ROOT
ATOM      1  C2  UNL d   1      -0.209   0.797   0.201  0.00  0.00    -0.073 A 
ATOM      2  C3  UNL d   1       0.216  -0.383   0.821  0.00  0.00    -0.002 A 
ATOM      3  C4  UNL d   1      -0.628  -1.060   1.702  0.00  0.00     0.004 A 
ATOM      4  C5  UNL d   1      -1.906  -0.569   1.967  0.00  0.00    -0.004 A 
ATOM      5  C6  UNL d   1      -2.354   0.603   1.348  0.00  0.00    -0.075 A 
ATOM      6  C7  UNL d   1      -3.725   1.146   1.623  0.00  0.00     0.076 C 
ATOM      7  C8  UNL d   1      -1.499   1.279   0.466  0.00  0.00     0.001 A 
ENDROOT
BRANCH   1   8
ATOM      8  C1  UNL d   1       0.697   1.528  -0.756  0.00  0.00     0.053 C 
ATOM      9  C   UNL d   1       1.914   0.699  -1.136  0.00  0.00     0.018 C 
ENDBRANCH   1   8
TORSDOF 1
ENDMDL
