MODEL 1
REMARK minimizedAffinity -4.02153349
REMARK minimizedRMSD -1
REMARK  1 active torsions:
REMARK  status: ('A' for Active; 'I' for Inactive)
REMARK    1  A    between atoms: C1_2  and  C2_3 
ROOT
ATOM      1  C2  UNL d   1       1.230  -1.527  -1.321  0.00  0.00    -0.073 A 
ATOM      2  C3  UNL d   1       1.806  -1.314  -2.579  0.00  0.00    -0.002 A 
ATOM      3  C4  UNL d   1       2.088  -0.019  -3.015  0.00  0.00     0.004 A 
ATOM      4  C5  UNL d   1       1.803   1.075  -2.198  0.00  0.00    -0.004 A 
ATOM      5  C6  UNL d   1       1.238   0.882  -0.933  0.00  0.00    -0.075 A 
ATOM      6  C7  UNL d   1       0.924   2.048  -0.042  0.00  0.00     0.076 C 
ATOM      7  C8  UNL d   1       0.956  -0.422  -0.503  0.00  0.00     0.001 A 
ENDROOT
BRANCH   1   8
ATOM      8  C1  UNL d   1       0.931  -2.924  -0.843  0.00  0.00     0.053 C 
ATOM      9  C   UNL d   1       0.357  -2.934   0.565  0.00  0.00     0.018 C 
ENDBRANCH   1   8
TORSDOF 1
ENDMDL
