MODEL 1
REMARK minimizedAffinity -1.56167948
REMARK minimizedRMSD -1
REMARK  1 active torsions:
REMARK  status: ('A' for Active; 'I' for Inactive)
REMARK    1  A    between atoms: C1_2  and  C2_3 
ROOT
ATOM      1  C2  UNL d   1       0.875   0.688   0.331  0.00  0.00    -0.073 A 
ATOM      2  C3  UNL d   1       1.706   0.951  -0.764  0.00  0.00    -0.002 A 
ATOM      3  C4  UNL d   1       2.091  -0.081  -1.621  0.00  0.00     0.004 A 
ATOM      4  C5  UNL d   1       1.643  -1.383  -1.398  0.00  0.00    -0.004 A 
ATOM      5  C6  UNL d   1       0.801  -1.663  -0.316  0.00  0.00    -0.075 A 
ATOM      6  C7  UNL d   1       0.312  -3.059  -0.061  0.00  0.00     0.076 C 
ATOM      7  C8  UNL d   1       0.422  -0.622   0.542  0.00  0.00     0.001 A 
ENDROOT
BRANCH   1   8
ATOM      8  C1  UNL d   1       0.452   1.800   1.255  0.00  0.00     0.053 C 
ATOM      9  C   UNL d   1       1.340   3.026   1.116  0.00  0.00     0.018 C 
ENDBRANCH   1   8
TORSDOF 1
ENDMDL
