MODEL 1
REMARK minimizedAffinity -3.75943065
REMARK minimizedRMSD -1
REMARK  1 active torsions:
REMARK  status: ('A' for Active; 'I' for Inactive)
REMARK    1  A    between atoms: C1_2  and  C2_3 
ROOT
ATOM      1  C2  UNL d   1      -0.674  -0.051   1.385  0.00  0.00    -0.073 A 
ATOM      2  C3  UNL d   1      -0.423  -1.427   1.338  0.00  0.00    -0.002 A 
ATOM      3  C4  UNL d   1       0.378  -1.963   0.328  0.00  0.00     0.004 A 
ATOM      4  C5  UNL d   1       0.939  -1.129  -0.639  0.00  0.00    -0.004 A 
ATOM      5  C6  UNL d   1       0.709   0.250  -0.602  0.00  0.00    -0.075 A 
ATOM      6  C7  UNL d   1       1.305   1.160  -1.636  0.00  0.00     0.076 C 
ATOM      7  C8  UNL d   1      -0.098   0.780   0.414  0.00  0.00     0.001 A 
ENDROOT
BRANCH   1   8
ATOM      8  C1  UNL d   1      -1.533   0.533   2.477  0.00  0.00     0.053 C 
ATOM      9  C   UNL d   1      -3.015   0.343   2.200  0.00  0.00     0.018 C 
ENDBRANCH   1   8
TORSDOF 1
ENDMDL
