MODEL 1
REMARK minimizedAffinity 13.1753588
REMARK minimizedRMSD -1
REMARK  3 active torsions:
REMARK  status: ('A' for Active; 'I' for Inactive)
REMARK    1  A    between atoms: C3'_2  and  C2'_3 
REMARK    2  A    between atoms: C2'_3  and  C1'_4 
REMARK    3  A    between atoms: C1'_4  and  C1_5 
ROOT
ATOM      1  C1  N4B d   1       3.486  -1.345  -1.502  0.00  0.00    -0.075 A 
ATOM      2  C2  N4B d   1       3.409  -1.738  -2.857  0.00  0.00     0.002 A 
ATOM      3  C3  N4B d   1       2.892  -2.967  -3.187  0.00  0.00     0.002 A 
ATOM      4  C4  N4B d   1       2.465  -3.823  -2.183  0.00  0.00    -0.004 A 
ATOM      5  C5  N4B d   1       2.519  -3.426  -0.879  0.00  0.00     0.002 A 
ATOM      6  C6  N4B d   1       3.032  -2.192  -0.533  0.00  0.00     0.002 A 
ENDROOT
BRANCH   1   7
ATOM      7  C1' N4B d   1       4.123  -0.047  -1.087  0.00  0.00     0.057 C 
BRANCH   7   8
ATOM      8  C2' N4B d   1       4.577  -0.154   0.366  0.00  0.00     0.009 C 
BRANCH   8   9
ATOM      9  C3' N4B d   1       5.958  -0.776   0.485  0.00  0.00     0.004 C 
ATOM     10  C4' N4B d   1       6.000  -1.913   1.462  0.00  0.00     0.003 C 
ENDBRANCH   8   9
ENDBRANCH   7   8
ENDBRANCH   1   7
TORSDOF 3
ENDMDL
