MODEL 1
REMARK minimizedAffinity 6.20751143
REMARK minimizedRMSD -1
REMARK  3 active torsions:
REMARK  status: ('A' for Active; 'I' for Inactive)
REMARK    1  A    between atoms: C3'_2  and  C2'_3 
REMARK    2  A    between atoms: C2'_3  and  C1'_4 
REMARK    3  A    between atoms: C1'_4  and  C1_5 
ROOT
ATOM      1  C1  N4B d   1       5.594   3.283  -0.541  0.00  0.00    -0.075 A 
ATOM      2  C2  N4B d   1       5.617   3.853  -1.833  0.00  0.00     0.002 A 
ATOM      3  C3  N4B d   1       5.828   5.201  -1.985  0.00  0.00     0.002 A 
ATOM      4  C4  N4B d   1       5.998   6.000  -0.864  0.00  0.00    -0.004 A 
ATOM      5  C5  N4B d   1       5.999   5.438   0.379  0.00  0.00     0.002 A 
ATOM      6  C6  N4B d   1       5.792   4.084   0.547  0.00  0.00     0.002 A 
ENDROOT
BRANCH   1   7
ATOM      7  C1' N4B d   1       5.281   1.829  -0.320  0.00  0.00     0.057 C 
BRANCH   7   8
ATOM      8  C2' N4B d   1       4.485   1.301  -1.510  0.00  0.00     0.009 C 
BRANCH   8   9
ATOM      9  C3' N4B d   1       3.334   0.411  -1.073  0.00  0.00     0.004 C 
ATOM     10  C4' N4B d   1       3.684  -0.459   0.097  0.00  0.00     0.003 C 
ENDBRANCH   8   9
ENDBRANCH   7   8
ENDBRANCH   1   7
TORSDOF 3
ENDMDL
