MODEL 1
REMARK minimizedAffinity 7.24397421
REMARK minimizedRMSD -1
REMARK  3 active torsions:
REMARK  status: ('A' for Active; 'I' for Inactive)
REMARK    1  A    between atoms: C3'_2  and  C2'_3 
REMARK    2  A    between atoms: C2'_3  and  C1'_4 
REMARK    3  A    between atoms: C1'_4  and  C1_5 
ROOT
ATOM      1  C1  N4B d   1       2.620  -2.284  -0.707  0.00  0.00    -0.075 A 
ATOM      2  C2  N4B d   1       1.768  -2.991   0.171  0.00  0.00     0.002 A 
ATOM      3  C3  N4B d   1       0.733  -3.740  -0.333  0.00  0.00     0.002 A 
ATOM      4  C4  N4B d   1       0.519  -3.781  -1.702  0.00  0.00    -0.004 A 
ATOM      5  C5  N4B d   1       1.361  -3.116  -2.544  0.00  0.00     0.002 A 
ATOM      6  C6  N4B d   1       2.408  -2.363  -2.053  0.00  0.00     0.002 A 
ENDROOT
BRANCH   1   7
ATOM      7  C1' N4B d   1       3.712  -1.383  -0.199  0.00  0.00     0.057 C 
BRANCH   7   8
ATOM      8  C2' N4B d   1       3.558  -0.003  -0.831  0.00  0.00     0.009 C 
BRANCH   8   9
ATOM      9  C3' N4B d   1       4.887   0.725  -0.938  0.00  0.00     0.004 C 
ATOM     10  C4' N4B d   1       5.999   0.011  -0.229  0.00  0.00     0.003 C 
ENDBRANCH   8   9
ENDBRANCH   7   8
ENDBRANCH   1   7
TORSDOF 3
ENDMDL
