MODEL 1
REMARK minimizedAffinity 6.63050604
REMARK minimizedRMSD -1
REMARK  3 active torsions:
REMARK  status: ('A' for Active; 'I' for Inactive)
REMARK    1  A    between atoms: C3'_2  and  C2'_3 
REMARK    2  A    between atoms: C2'_3  and  C1'_4 
REMARK    3  A    between atoms: C1'_4  and  C1_5 
ROOT
ATOM      1  C1  N4B d   1       5.885   3.343  -1.376  0.00  0.00    -0.075 A 
ATOM      2  C2  N4B d   1       5.934   4.456  -2.244  0.00  0.00     0.002 A 
ATOM      3  C3  N4B d   1       6.000   5.727  -1.726  0.00  0.00     0.002 A 
ATOM      4  C4  N4B d   1       6.000   5.908  -0.351  0.00  0.00    -0.004 A 
ATOM      5  C5  N4B d   1       5.979   4.826   0.479  0.00  0.00     0.002 A 
ATOM      6  C6  N4B d   1       5.916   3.544  -0.027  0.00  0.00     0.002 A 
ENDROOT
BRANCH   1   7
ATOM      7  C1' N4B d   1       5.726   1.939  -1.894  0.00  0.00     0.057 C 
BRANCH   7   8
ATOM      8  C2' N4B d   1       4.327   1.435  -1.551  0.00  0.00     0.009 C 
BRANCH   8   9
ATOM      9  C3' N4B d   1       4.331   0.542  -0.322  0.00  0.00     0.004 C 
ATOM     10  C4' N4B d   1       3.014  -0.138  -0.094  0.00  0.00     0.003 C 
ENDBRANCH   8   9
ENDBRANCH   7   8
ENDBRANCH   1   7
TORSDOF 3
ENDMDL
