MODEL 1
REMARK minimizedAffinity 14.9339266
REMARK minimizedRMSD -1
REMARK  3 active torsions:
REMARK  status: ('A' for Active; 'I' for Inactive)
REMARK    1  A    between atoms: C3'_2  and  C2'_3 
REMARK    2  A    between atoms: C2'_3  and  C1'_4 
REMARK    3  A    between atoms: C1'_4  and  C1_5 
ROOT
ATOM      1  C1  N4B d   1       1.397  -3.736   3.959  0.00  0.00    -0.075 A 
ATOM      2  C2  N4B d   1       2.469  -4.394   4.601  0.00  0.00     0.002 A 
ATOM      3  C3  N4B d   1       2.217  -5.311   5.592  0.00  0.00     0.002 A 
ATOM      4  C4  N4B d   1       0.908  -5.571   5.969  0.00  0.00    -0.004 A 
ATOM      5  C5  N4B d   1      -0.123  -4.950   5.326  0.00  0.00     0.002 A 
ATOM      6  C6  N4B d   1       0.115  -4.029   4.325  0.00  0.00     0.002 A 
ENDROOT
BRANCH   1   7
ATOM      7  C1' N4B d   1       1.626  -2.663   2.929  0.00  0.00     0.057 C 
BRANCH   7   8
ATOM      8  C2' N4B d   1       0.849  -1.412   3.329  0.00  0.00     0.009 C 
BRANCH   8   9
ATOM      9  C3' N4B d   1       1.627  -0.141   3.034  0.00  0.00     0.004 C 
ATOM     10  C4' N4B d   1       0.948   0.734   2.023  0.00  0.00     0.003 C 
ENDBRANCH   8   9
ENDBRANCH   7   8
ENDBRANCH   1   7
TORSDOF 3
ENDMDL
