MODEL 1
REMARK minimizedAffinity 11.7645044
REMARK minimizedRMSD -1
REMARK  0 active torsions:
REMARK  status: ('A' for Active; 'I' for Inactive)
ROOT
ATOM      1  O1  BZF d   1       0.580  -4.604   1.146  0.00  0.00    -0.204 OA
ATOM      2  C2  BZF d   1       0.929  -4.939  -0.148  0.00  0.00     0.174 A 
ATOM      3  C3  BZF d   1       1.380  -3.859  -0.818  0.00  0.00    -0.012 A 
ATOM      4  C3A BZF d   1       1.395  -2.800   0.144  0.00  0.00    -0.107 A 
ATOM      5  C4  BZF d   1       1.760  -1.485   0.087  0.00  0.00     0.055 A 
ATOM      6  C5  BZF d   1       1.584  -0.703   1.185  0.00  0.00    -0.016 A 
ATOM      7  C6  BZF d   1       1.043  -1.200   2.352  0.00  0.00     0.022 A 
ATOM      8  C7  BZF d   1       0.671  -2.499   2.458  0.00  0.00     0.029 A 
ATOM      9  C7A BZF d   1       0.878  -3.300   1.361  0.00  0.00     0.058 A 
ENDROOT
TORSDOF 0
ENDMDL
