MODEL 1
REMARK minimizedAffinity 5.79987144
REMARK minimizedRMSD -1
REMARK  0 active torsions:
REMARK  status: ('A' for Active; 'I' for Inactive)
ROOT
ATOM      1  O1  BZF d   1       1.737  -0.958   3.753  0.00  0.00    -0.204 OA
ATOM      2  C2  BZF d   1       1.476  -0.875   2.399  0.00  0.00     0.174 A 
ATOM      3  C3  BZF d   1       1.677  -2.066   1.798  0.00  0.00    -0.012 A 
ATOM      4  C3A BZF d   1       2.001  -2.971   2.858  0.00  0.00    -0.107 A 
ATOM      5  C4  BZF d   1       2.292  -4.305   2.897  0.00  0.00     0.055 A 
ATOM      6  C5  BZF d   1       2.636  -4.872   4.083  0.00  0.00    -0.016 A 
ATOM      7  C6  BZF d   1       2.704  -4.134   5.247  0.00  0.00     0.022 A 
ATOM      8  C7  BZF d   1       2.420  -2.809   5.259  0.00  0.00     0.029 A 
ATOM      9  C7A BZF d   1       2.040  -2.241   4.068  0.00  0.00     0.058 A 
ENDROOT
TORSDOF 0
ENDMDL
