MODEL 1
REMARK minimizedAffinity 10.2522593
REMARK minimizedRMSD -1
REMARK  0 active torsions:
REMARK  status: ('A' for Active; 'I' for Inactive)
ROOT
ATOM      1  O1  BZF d   1       0.480   0.259   4.539  0.00  0.00    -0.204 OA
ATOM      2  C2  BZF d   1       0.614   1.368   3.726  0.00  0.00     0.174 A 
ATOM      3  C3  BZF d   1       1.072   1.015   2.508  0.00  0.00    -0.012 A 
ATOM      4  C3A BZF d   1       1.146  -0.413   2.532  0.00  0.00    -0.107 A 
ATOM      5  C4  BZF d   1       1.515  -1.350   1.610  0.00  0.00     0.055 A 
ATOM      6  C5  BZF d   1       1.545  -2.659   1.974  0.00  0.00    -0.016 A 
ATOM      7  C6  BZF d   1       1.218  -3.066   3.251  0.00  0.00     0.022 A 
ATOM      8  C7  BZF d   1       0.840  -2.173   4.199  0.00  0.00     0.029 A 
ATOM      9  C7A BZF d   1       0.777  -0.853   3.825  0.00  0.00     0.058 A 
ENDROOT
TORSDOF 0
ENDMDL
