MODEL 1
REMARK minimizedAffinity 2.64748836
REMARK minimizedRMSD -1
REMARK  0 active torsions:
REMARK  status: ('A' for Active; 'I' for Inactive)
ROOT
ATOM      1  O1  BZF d   1      -2.848   2.151   1.518  0.00  0.00    -0.204 OA
ATOM      2  C2  BZF d   1      -2.102   2.066   0.359  0.00  0.00     0.174 A 
ATOM      3  C3  BZF d   1      -2.722   2.699  -0.657  0.00  0.00    -0.012 A 
ATOM      4  C3A BZF d   1      -3.888   3.291  -0.076  0.00  0.00    -0.107 A 
ATOM      5  C4  BZF d   1      -4.898   4.063  -0.576  0.00  0.00     0.055 A 
ATOM      6  C5  BZF d   1      -5.926   4.416   0.240  0.00  0.00    -0.016 A 
ATOM      7  C6  BZF d   1      -5.978   4.011   1.558  0.00  0.00     0.022 A 
ATOM      8  C7  BZF d   1      -4.997   3.249   2.100  0.00  0.00     0.029 A 
ATOM      9  C7A BZF d   1      -3.941   2.919   1.287  0.00  0.00     0.058 A 
ENDROOT
TORSDOF 0
ENDMDL
