MODEL 1
REMARK minimizedAffinity -1.59866834
REMARK minimizedRMSD -1
REMARK  0 active torsions:
REMARK  status: ('A' for Active; 'I' for Inactive)
ROOT
ATOM      1  O1  BZF d   1       2.145  -5.752   5.345  0.00  0.00    -0.204 OA
ATOM      2  C2  BZF d   1       0.890  -5.999   5.867  0.00  0.00     0.174 A 
ATOM      3  C3  BZF d   1       0.018  -5.042   5.488  0.00  0.00    -0.012 A 
ATOM      4  C3A BZF d   1       0.753  -4.191   4.603  0.00  0.00    -0.107 A 
ATOM      5  C4  BZF d   1       0.428  -3.073   3.890  0.00  0.00     0.055 A 
ATOM      6  C5  BZF d   1       1.397  -2.438   3.180  0.00  0.00    -0.016 A 
ATOM      7  C6  BZF d   1       2.701  -2.889   3.165  0.00  0.00     0.022 A 
ATOM      8  C7  BZF d   1       3.070  -3.997   3.853  0.00  0.00     0.029 A 
ATOM      9  C7A BZF d   1       2.086  -4.660   4.545  0.00  0.00     0.058 A 
ENDROOT
TORSDOF 0
ENDMDL
