MODEL 1
REMARK minimizedAffinity 6.41644287
REMARK minimizedRMSD -1
REMARK  0 active torsions:
REMARK  status: ('A' for Active; 'I' for Inactive)
ROOT
ATOM      1  O1  BZF d   1       0.802  -2.419   3.739  0.00  0.00    -0.204 OA
ATOM      2  C2  BZF d   1       0.511  -1.856   2.511  0.00  0.00     0.174 A 
ATOM      3  C3  BZF d   1       1.632  -1.698   1.779  0.00  0.00    -0.012 A 
ATOM      4  C3A BZF d   1       2.678  -2.280   2.563  0.00  0.00    -0.107 A 
ATOM      5  C4  BZF d   1       4.019  -2.445   2.365  0.00  0.00     0.055 A 
ATOM      6  C5  BZF d   1       4.772  -2.987   3.358  0.00  0.00    -0.016 A 
ATOM      7  C6  BZF d   1       4.219  -3.369   4.562  0.00  0.00     0.022 A 
ATOM      8  C7  BZF d   1       2.892  -3.229   4.804  0.00  0.00     0.029 A 
ATOM      9  C7A BZF d   1       2.123  -2.713   3.789  0.00  0.00     0.058 A 
ENDROOT
TORSDOF 0
ENDMDL
