MODEL 1
REMARK minimizedAffinity -3.16257071
REMARK minimizedRMSD -1
REMARK  1 active torsions:
REMARK  status: ('A' for Active; 'I' for Inactive)
REMARK    1  A    between atoms: N_2  and  C1_3 
ROOT
ATOM      1  C1  UNL d   1       0.678  -0.837  -0.138  0.00  0.00     0.143 A 
ATOM      2  C2  UNL d   1      -0.094   0.206  -0.662  0.00  0.00    -0.057 A 
ATOM      3  C3  UNL d   1      -0.963   0.944   0.150  0.00  0.00     0.033 A 
ATOM      4  C4  UNL d   1      -1.100   0.631   1.499  0.00  0.00    -0.042 A 
ATOM      5  C5  UNL d   1      -0.362  -0.418   2.035  0.00  0.00     0.033 A 
ATOM      6  C6  UNL d   1       0.510  -1.147   1.221  0.00  0.00    -0.057 A 
ENDROOT
BRANCH   1   7
ATOM      7  N   UNL d   1       1.487  -1.671  -0.914  0.00  0.00    -0.732 N 
ATOM      8  C   UNL d   1       0.936  -2.848  -1.551  0.00  0.00     0.284 C 
ATOM      9  H3  UNL d   1       2.137  -1.149  -1.497  0.00  0.00     0.395 HD
ENDBRANCH   1   7
TORSDOF 1
ENDMDL
