MODEL 1
REMARK minimizedAffinity -3.5353446
REMARK minimizedRMSD -1
REMARK  1 active torsions:
REMARK  status: ('A' for Active; 'I' for Inactive)
REMARK    1  A    between atoms: N_2  and  C1_3 
ROOT
ATOM      1  C1  UNL d   1       0.127  -0.378   0.073  0.00  0.00     0.143 A 
ATOM      2  C2  UNL d   1       0.086  -0.462   1.469  0.00  0.00    -0.057 A 
ATOM      3  C3  UNL d   1      -0.694   0.421   2.226  0.00  0.00     0.033 A 
ATOM      4  C4  UNL d   1      -1.425   1.425   1.600  0.00  0.00    -0.042 A 
ATOM      5  C5  UNL d   1      -1.378   1.543   0.215  0.00  0.00     0.033 A 
ATOM      6  C6  UNL d   1      -0.604   0.654  -0.536  0.00  0.00    -0.057 A 
ENDROOT
BRANCH   1   7
ATOM      7  N   UNL d   1       0.959  -1.164  -0.729  0.00  0.00    -0.732 N 
ATOM      8  C   UNL d   1       0.477  -1.708  -1.980  0.00  0.00     0.284 C 
ATOM      9  H3  UNL d   1       1.910  -0.804  -0.771  0.00  0.00     0.395 HD
ENDBRANCH   1   7
TORSDOF 1
ENDMDL
