MODEL 1
REMARK minimizedAffinity -0.870007396
REMARK minimizedRMSD -1
REMARK  1 active torsions:
REMARK  status: ('A' for Active; 'I' for Inactive)
REMARK    1  A    between atoms: N_2  and  C1_3 
ROOT
ATOM      1  C1  UNL d   1      -0.086   0.117  -0.244  0.00  0.00     0.143 A 
ATOM      2  C2  UNL d   1      -1.381   0.524   0.094  0.00  0.00    -0.057 A 
ATOM      3  C3  UNL d   1      -1.934   1.697  -0.434  0.00  0.00     0.033 A 
ATOM      4  C4  UNL d   1      -1.188   2.502  -1.289  0.00  0.00    -0.042 A 
ATOM      5  C5  UNL d   1       0.110   2.129  -1.619  0.00  0.00     0.033 A 
ATOM      6  C6  UNL d   1       0.654   0.953  -1.094  0.00  0.00    -0.057 A 
ENDROOT
BRANCH   1   7
ATOM      7  N   UNL d   1       0.555  -0.987   0.324  0.00  0.00    -0.732 N 
ATOM      8  C   UNL d   1       1.100  -0.914   1.663  0.00  0.00     0.284 C 
ATOM      9  H3  UNL d   1       0.080  -1.862   0.116  0.00  0.00     0.395 HD
ENDBRANCH   1   7
TORSDOF 1
ENDMDL
