MODEL 1
REMARK minimizedAffinity -5.01774168
REMARK minimizedRMSD -1
REMARK  1 active torsions:
REMARK  status: ('A' for Active; 'I' for Inactive)
REMARK    1  A    between atoms: N_2  and  C1_3 
ROOT
ATOM      1  C1  UNL d   1       0.200   0.946  -0.419  0.00  0.00     0.143 A 
ATOM      2  C2  UNL d   1      -0.561   0.500   0.667  0.00  0.00    -0.057 A 
ATOM      3  C3  UNL d   1      -1.480   1.342   1.304  0.00  0.00     0.033 A 
ATOM      4  C4  UNL d   1      -1.633   2.659   0.884  0.00  0.00    -0.042 A 
ATOM      5  C5  UNL d   1      -0.869   3.131  -0.177  0.00  0.00     0.033 A 
ATOM      6  C6  UNL d   1       0.042   2.284  -0.814  0.00  0.00    -0.057 A 
ENDROOT
BRANCH   1   7
ATOM      7  N   UNL d   1       1.201   0.188  -1.031  0.00  0.00    -0.732 N 
ATOM      8  C   UNL d   1       1.275  -1.242  -0.822  0.00  0.00     0.284 C 
ATOM      9  H3  UNL d   1       1.375   0.477  -1.991  0.00  0.00     0.395 HD
ENDBRANCH   1   7
TORSDOF 1
ENDMDL
