MODEL 1
REMARK minimizedAffinity -3.87102437
REMARK minimizedRMSD -1
REMARK  1 active torsions:
REMARK  status: ('A' for Active; 'I' for Inactive)
REMARK    1  A    between atoms: N_2  and  C1_3 
ROOT
ATOM      1  C1  UNL d   1       0.948  -0.493  -0.072  0.00  0.00     0.143 A 
ATOM      2  C2  UNL d   1       0.807   0.609  -0.922  0.00  0.00    -0.057 A 
ATOM      3  C3  UNL d   1      -0.042   1.673  -0.595  0.00  0.00     0.033 A 
ATOM      4  C4  UNL d   1      -0.790   1.640   0.577  0.00  0.00    -0.042 A 
ATOM      5  C5  UNL d   1      -0.684   0.543   1.425  0.00  0.00     0.033 A 
ATOM      6  C6  UNL d   1       0.171  -0.514   1.096  0.00  0.00    -0.057 A 
ENDROOT
BRANCH   1   7
ATOM      7  N   UNL d   1       1.701  -1.627  -0.388  0.00  0.00    -0.732 N 
ATOM      8  C   UNL d   1       1.246  -2.555  -1.401  0.00  0.00     0.284 C 
ATOM      9  H3  UNL d   1       2.700  -1.434  -0.418  0.00  0.00     0.395 HD
ENDBRANCH   1   7
TORSDOF 1
ENDMDL
