MODEL 1
REMARK minimizedAffinity -4.1834774
REMARK minimizedRMSD -1
REMARK  1 active torsions:
REMARK  status: ('A' for Active; 'I' for Inactive)
REMARK    1  A    between atoms: N_2  and  C1_3 
ROOT
ATOM      1  C1  UNL d   1      -0.473  -0.333   0.497  0.00  0.00     0.143 A 
ATOM      2  C2  UNL d   1      -0.139  -0.369   1.855  0.00  0.00    -0.057 A 
ATOM      3  C3  UNL d   1      -0.459   0.693   2.710  0.00  0.00     0.033 A 
ATOM      4  C4  UNL d   1      -1.094   1.826   2.213  0.00  0.00    -0.042 A 
ATOM      5  C5  UNL d   1      -1.412   1.895   0.861  0.00  0.00     0.033 A 
ATOM      6  C6  UNL d   1      -1.096   0.828   0.014  0.00  0.00    -0.057 A 
ENDROOT
BRANCH   1   7
ATOM      7  N   UNL d   1      -0.095  -1.314  -0.423  0.00  0.00    -0.732 N 
ATOM      8  C   UNL d   1       1.198  -1.258  -1.072  0.00  0.00     0.284 C 
ATOM      9  H3  UNL d   1      -0.373  -2.248  -0.131  0.00  0.00     0.395 HD
ENDBRANCH   1   7
TORSDOF 1
ENDMDL
