MODEL 1
REMARK minimizedAffinity -3.54490948
REMARK minimizedRMSD -1
REMARK  1 active torsions:
REMARK  status: ('A' for Active; 'I' for Inactive)
REMARK    1  A    between atoms: N_2  and  C1_3 
ROOT
ATOM      1  C1  UNL d   1       0.208  -0.209   0.053  0.00  0.00     0.143 A 
ATOM      2  C2  UNL d   1       0.478   0.030   1.405  0.00  0.00    -0.057 A 
ATOM      3  C3  UNL d   1      -0.282   0.942   2.146  0.00  0.00     0.033 A 
ATOM      4  C4  UNL d   1      -1.311   1.656   1.539  0.00  0.00    -0.042 A 
ATOM      5  C5  UNL d   1      -1.580   1.452   0.191  0.00  0.00     0.033 A 
ATOM      6  C6  UNL d   1      -0.822   0.535  -0.543  0.00  0.00    -0.057 A 
ENDROOT
BRANCH   1   7
ATOM      7  N   UNL d   1       0.990  -1.030  -0.763  0.00  0.00    -0.732 N 
ATOM      8  C   UNL d   1       0.372  -1.973  -1.669  0.00  0.00     0.284 C 
ATOM      9  H3  UNL d   1       1.790  -0.539  -1.157  0.00  0.00     0.395 HD
ENDBRANCH   1   7
TORSDOF 1
ENDMDL
