MODEL 1
REMARK minimizedAffinity -3.94202995
REMARK minimizedRMSD -1
REMARK  1 active torsions:
REMARK  status: ('A' for Active; 'I' for Inactive)
REMARK    1  A    between atoms: N_2  and  C1_3 
ROOT
ATOM      1  C1  UNL d   1      -0.345   0.408   0.144  0.00  0.00     0.143 A 
ATOM      2  C2  UNL d   1      -0.133   0.647   1.506  0.00  0.00    -0.057 A 
ATOM      3  C3  UNL d   1      -0.888   1.599   2.202  0.00  0.00     0.033 A 
ATOM      4  C4  UNL d   1      -1.853   2.350   1.540  0.00  0.00    -0.042 A 
ATOM      5  C5  UNL d   1      -2.064   2.147   0.181  0.00  0.00     0.033 A 
ATOM      6  C6  UNL d   1      -1.311   1.190  -0.508  0.00  0.00    -0.057 A 
ENDROOT
BRANCH   1   7
ATOM      7  N   UNL d   1       0.439  -0.454  -0.626  0.00  0.00    -0.732 N 
ATOM      8  C   UNL d   1       1.863  -0.565  -0.389  0.00  0.00     0.284 C 
ATOM      9  H3  UNL d   1      -0.022  -1.343  -0.807  0.00  0.00     0.395 HD
ENDBRANCH   1   7
TORSDOF 1
ENDMDL
