MODEL 1
REMARK minimizedAffinity -3.40641904
REMARK minimizedRMSD -1
REMARK  1 active torsions:
REMARK  status: ('A' for Active; 'I' for Inactive)
REMARK    1  A    between atoms: N_2  and  C1_3 
ROOT
ATOM      1  C1  UNL d   1       0.242   0.263   0.206  0.00  0.00     0.143 A 
ATOM      2  C2  UNL d   1       0.101  -0.120   1.544  0.00  0.00    -0.057 A 
ATOM      3  C3  UNL d   1      -0.781   0.549   2.402  0.00  0.00     0.033 A 
ATOM      4  C4  UNL d   1      -1.518   1.635   1.942  0.00  0.00    -0.042 A 
ATOM      5  C5  UNL d   1      -1.376   2.049   0.623  0.00  0.00     0.033 A 
ATOM      6  C6  UNL d   1      -0.498   1.373  -0.231  0.00  0.00    -0.057 A 
ENDROOT
BRANCH   1   7
ATOM      7  N   UNL d   1       1.174  -0.298  -0.670  0.00  0.00    -0.732 N 
ATOM      8  C   UNL d   1       0.871  -1.519  -1.385  0.00  0.00     0.284 C 
ATOM      9  H3  UNL d   1       1.653   0.403  -1.230  0.00  0.00     0.395 HD
ENDBRANCH   1   7
TORSDOF 1
ENDMDL
