MODEL 1
REMARK minimizedAffinity -4.58042049
REMARK minimizedRMSD -1
REMARK  1 active torsions:
REMARK  status: ('A' for Active; 'I' for Inactive)
REMARK    1  A    between atoms: C1_2  and  C2_3 
ROOT
ATOM      1  C2  UNL d   1       4.511   3.012   4.117  0.00  0.00    -0.073 A 
ATOM      2  C3  UNL d   1       4.420   1.784   4.783  0.00  0.00    -0.002 A 
ATOM      3  C4  UNL d   1       3.412   1.564   5.722  0.00  0.00     0.004 A 
ATOM      4  C5  UNL d   1       2.481   2.565   6.000  0.00  0.00    -0.004 A 
ATOM      5  C6  UNL d   1       2.548   3.795   5.336  0.00  0.00    -0.075 A 
ATOM      6  C7  UNL d   1       1.556   4.882   5.625  0.00  0.00     0.076 C 
ATOM      7  C8  UNL d   1       3.565   4.009   4.397  0.00  0.00     0.001 A 
ENDROOT
BRANCH   1   8
ATOM      8  C1  UNL d   1       5.595   3.251   3.098  0.00  0.00     0.053 C 
ATOM      9  C   UNL d   1       5.105   3.010   1.679  0.00  0.00     0.018 C 
ENDBRANCH   1   8
TORSDOF 1
ENDMDL
