MODEL 1
REMARK minimizedAffinity 2.85230565
REMARK minimizedRMSD -1
REMARK  1 active torsions:
REMARK  status: ('A' for Active; 'I' for Inactive)
REMARK    1  A    between atoms: C1_2  and  C2_3 
ROOT
ATOM      1  C2  UNL d   1       3.233  -0.083  -0.605  0.00  0.00    -0.073 A 
ATOM      2  C3  UNL d   1       2.941  -0.709   0.612  0.00  0.00    -0.002 A 
ATOM      3  C4  UNL d   1       2.415  -2.001   0.632  0.00  0.00     0.004 A 
ATOM      4  C5  UNL d   1       2.183  -2.683  -0.562  0.00  0.00    -0.004 A 
ATOM      5  C6  UNL d   1       2.479  -2.079  -1.788  0.00  0.00    -0.075 A 
ATOM      6  C7  UNL d   1       2.233  -2.798  -3.082  0.00  0.00     0.076 C 
ATOM      7  C8  UNL d   1       3.005  -0.780  -1.800  0.00  0.00     0.001 A 
ENDROOT
BRANCH   1   8
ATOM      8  C1  UNL d   1       3.807   1.310  -0.631  0.00  0.00     0.053 C 
ATOM      9  C   UNL d   1       5.055   1.429   0.229  0.00  0.00     0.018 C 
ENDBRANCH   1   8
TORSDOF 1
ENDMDL
