MODEL 1
REMARK minimizedAffinity 6.89976597
REMARK minimizedRMSD -1
REMARK  1 active torsions:
REMARK  status: ('A' for Active; 'I' for Inactive)
REMARK    1  A    between atoms: C1_2  and  C2_3 
ROOT
ATOM      1  C2  UNL d   1       0.359  -3.484   5.058  0.00  0.00    -0.073 A 
ATOM      2  C3  UNL d   1      -0.026  -2.169   5.343  0.00  0.00    -0.002 A 
ATOM      3  C4  UNL d   1       0.300  -1.134   4.466  0.00  0.00     0.004 A 
ATOM      4  C5  UNL d   1       1.007  -1.403   3.294  0.00  0.00    -0.004 A 
ATOM      5  C6  UNL d   1       1.389  -2.713   2.986  0.00  0.00    -0.075 A 
ATOM      6  C7  UNL d   1       2.151  -3.019   1.730  0.00  0.00     0.076 C 
ATOM      7  C8  UNL d   1       1.061  -3.746   3.873  0.00  0.00     0.001 A 
ENDROOT
BRANCH   1   8
ATOM      8  C1  UNL d   1       0.003  -4.606   6.000  0.00  0.00     0.053 C 
ATOM      9  C   UNL d   1       0.030  -5.960   5.308  0.00  0.00     0.018 C 
ENDBRANCH   1   8
TORSDOF 1
ENDMDL
