MODEL 1
REMARK minimizedAffinity 5.75828791
REMARK minimizedRMSD -1
REMARK  1 active torsions:
REMARK  status: ('A' for Active; 'I' for Inactive)
REMARK    1  A    between atoms: C1_2  and  C2_3 
ROOT
ATOM      1  C2  UNL d   1      -3.068   0.354  -0.107  0.00  0.00    -0.073 A 
ATOM      2  C3  UNL d   1      -4.295  -0.132  -0.572  0.00  0.00    -0.002 A 
ATOM      3  C4  UNL d   1      -5.492   0.364  -0.054  0.00  0.00     0.004 A 
ATOM      4  C5  UNL d   1      -5.475   1.354   0.927  0.00  0.00    -0.004 A 
ATOM      5  C6  UNL d   1      -4.259   1.862   1.397  0.00  0.00    -0.075 A 
ATOM      6  C7  UNL d   1      -4.224   2.926   2.454  0.00  0.00     0.076 C 
ATOM      7  C8  UNL d   1      -3.061   1.357   0.874  0.00  0.00     0.001 A 
ENDROOT
BRANCH   1   8
ATOM      8  C1  UNL d   1      -1.773  -0.174  -0.668  0.00  0.00     0.053 C 
ATOM      9  C   UNL d   1      -1.831  -0.339  -2.178  0.00  0.00     0.018 C 
ENDBRANCH   1   8
TORSDOF 1
ENDMDL
