MODEL 1
REMARK minimizedAffinity 3.23233032
REMARK minimizedRMSD -1
REMARK  1 active torsions:
REMARK  status: ('A' for Active; 'I' for Inactive)
REMARK    1  A    between atoms: C1_2  and  C2_3 
ROOT
ATOM      1  C2  UNL d   1      -3.316   0.328   1.229  0.00  0.00    -0.076 A 
ATOM      2  C3  UNL d   1      -3.265   1.314   2.230  0.00  0.00     0.004 A 
ATOM      3  C4  UNL d   1      -2.191   1.382   3.116  0.00  0.00    -0.003 A 
ATOM      4  C5  UNL d   1      -1.150   0.465   3.015  0.00  0.00     0.000 A 
ATOM      5  C6  UNL d   1      -1.176  -0.509   2.018  0.00  0.00     0.000 A 
ATOM      6  C7  UNL d   1      -2.243  -0.581   1.106  0.00  0.00    -0.073 A 
ATOM      7  C8  UNL d   1      -2.222  -1.656   0.054  0.00  0.00     0.078 C 
ENDROOT
BRANCH   1   8
ATOM      8  C1  UNL d   1      -4.519   0.286   0.314  0.00  0.00     0.053 C 
ATOM      9  C   UNL d   1      -5.535   1.370   0.638  0.00  0.00     0.018 C 
ENDBRANCH   1   8
TORSDOF 1
ENDMDL
