MODEL 1
REMARK minimizedAffinity -2.19655561
REMARK minimizedRMSD -1
REMARK  0 active torsions:
REMARK  status: ('A' for Active; 'I' for Inactive)
ROOT
ATOM      1  C   UNL d   1       3.384  -5.933  -1.731  0.00  0.00     0.078 C 
ATOM      2  C1  UNL d   1       3.584  -5.943  -3.217  0.00  0.00    -0.077 A 
ATOM      3  C2  UNL d   1       4.869  -6.000  -3.771  0.00  0.00    -0.001 A 
ATOM      4  C3  UNL d   1       5.040  -5.998  -5.157  0.00  0.00     0.003 A 
ATOM      5  C4  UNL d   1       3.932  -5.939  -5.999  0.00  0.00    -0.005 A 
ATOM      6  C5  UNL d   1       2.650  -5.880  -5.456  0.00  0.00     0.003 A 
ATOM      7  C6  UNL d   1       2.476  -5.881  -4.071  0.00  0.00    -0.001 A 
ENDROOT
TORSDOF 0
ENDMDL
