MODEL 1
REMARK minimizedAffinity -3.24472404
REMARK minimizedRMSD -1
REMARK  0 active torsions:
REMARK  status: ('A' for Active; 'I' for Inactive)
ROOT
ATOM      1  C   UNL d   1       2.644  -5.721  -5.388  0.00  0.00     0.078 C 
ATOM      2  C1  UNL d   1       3.689  -5.755  -4.313  0.00  0.00    -0.077 A 
ATOM      3  C2  UNL d   1       5.039  -5.960  -4.626  0.00  0.00    -0.001 A 
ATOM      4  C3  UNL d   1       6.000  -6.000  -3.614  0.00  0.00     0.003 A 
ATOM      5  C4  UNL d   1       5.621  -5.837  -2.283  0.00  0.00    -0.005 A 
ATOM      6  C5  UNL d   1       4.281  -5.635  -1.962  0.00  0.00     0.003 A 
ATOM      7  C6  UNL d   1       3.318  -5.595  -2.972  0.00  0.00    -0.001 A 
ENDROOT
TORSDOF 0
ENDMDL
