MODEL 1
REMARK minimizedAffinity -2.82838297
REMARK minimizedRMSD -1
REMARK  0 active torsions:
REMARK  status: ('A' for Active; 'I' for Inactive)
ROOT
ATOM      1  C   UNL d   1       2.622  -5.130  -2.234  0.00  0.00     0.078 C 
ATOM      2  C1  UNL d   1       3.357  -5.186  -3.540  0.00  0.00    -0.077 A 
ATOM      3  C2  UNL d   1       4.549  -4.476  -3.728  0.00  0.00    -0.001 A 
ATOM      4  C3  UNL d   1       5.217  -4.529  -4.952  0.00  0.00     0.003 A 
ATOM      5  C4  UNL d   1       4.701  -5.290  -5.999  0.00  0.00    -0.005 A 
ATOM      6  C5  UNL d   1       3.514  -5.999  -5.822  0.00  0.00     0.003 A 
ATOM      7  C6  UNL d   1       2.845  -5.947  -4.598  0.00  0.00    -0.001 A 
ENDROOT
TORSDOF 0
ENDMDL
