MODEL 1
REMARK minimizedAffinity -2.89923882
REMARK minimizedRMSD -1
REMARK  0 active torsions:
REMARK  status: ('A' for Active; 'I' for Inactive)
ROOT
ATOM      1  C   UNL d   1       3.312  -4.966  -1.944  0.00  0.00     0.078 C 
ATOM      2  C1  UNL d   1       3.677  -5.327  -3.353  0.00  0.00    -0.077 A 
ATOM      3  C2  UNL d   1       5.011  -5.314  -3.778  0.00  0.00    -0.001 A 
ATOM      4  C3  UNL d   1       5.336  -5.643  -5.095  0.00  0.00     0.003 A 
ATOM      5  C4  UNL d   1       4.331  -5.986  -5.998  0.00  0.00    -0.005 A 
ATOM      6  C5  UNL d   1       3.001  -5.999  -5.585  0.00  0.00     0.003 A 
ATOM      7  C6  UNL d   1       2.675  -5.671  -4.268  0.00  0.00    -0.001 A 
ENDROOT
TORSDOF 0
ENDMDL
