MODEL 1
REMARK minimizedAffinity -3.81467223
REMARK minimizedRMSD -1
REMARK  0 active torsions:
REMARK  status: ('A' for Active; 'I' for Inactive)
ROOT
ATOM      1  C   UNL d   1       1.881  -6.000  -5.076  0.00  0.00     0.078 C 
ATOM      2  C1  UNL d   1       3.093  -5.567  -4.306  0.00  0.00    -0.077 A 
ATOM      3  C2  UNL d   1       4.358  -5.544  -4.906  0.00  0.00    -0.001 A 
ATOM      4  C3  UNL d   1       5.479  -5.148  -4.174  0.00  0.00     0.003 A 
ATOM      5  C4  UNL d   1       5.346  -4.775  -2.838  0.00  0.00    -0.005 A 
ATOM      6  C5  UNL d   1       4.091  -4.797  -2.232  0.00  0.00     0.003 A 
ATOM      7  C6  UNL d   1       2.970  -5.192  -2.962  0.00  0.00    -0.001 A 
ENDROOT
TORSDOF 0
ENDMDL
