MODEL 1
REMARK minimizedAffinity -3.86140013
REMARK minimizedRMSD -1
REMARK  0 active torsions:
REMARK  status: ('A' for Active; 'I' for Inactive)
ROOT
ATOM      1  C   UNL d   1       5.998  -5.609  -5.997  0.00  0.00     0.078 C 
ATOM      2  C1  UNL d   1       4.867  -5.555  -5.014  0.00  0.00    -0.077 A 
ATOM      3  C2  UNL d   1       5.065  -5.081  -3.712  0.00  0.00    -0.001 A 
ATOM      4  C3  UNL d   1       4.005  -5.045  -2.804  0.00  0.00     0.003 A 
ATOM      5  C4  UNL d   1       2.740  -5.483  -3.189  0.00  0.00    -0.005 A 
ATOM      6  C5  UNL d   1       2.533  -5.958  -4.483  0.00  0.00     0.003 A 
ATOM      7  C6  UNL d   1       3.592  -5.995  -5.392  0.00  0.00    -0.001 A 
ENDROOT
TORSDOF 0
ENDMDL
