MODEL 1
REMARK minimizedAffinity -4.41839743
REMARK minimizedRMSD -1
REMARK  0 active torsions:
REMARK  status: ('A' for Active; 'I' for Inactive)
ROOT
ATOM      1  C   UNL d   1       1.993   2.864   1.527  0.00  0.00     0.078 C 
ATOM      2  C1  UNL d   1       3.363   3.093   2.093  0.00  0.00    -0.077 A 
ATOM      3  C2  UNL d   1       3.774   4.371   2.490  0.00  0.00    -0.001 A 
ATOM      4  C3  UNL d   1       5.055   4.571   3.006  0.00  0.00     0.003 A 
ATOM      5  C4  UNL d   1       5.936   3.498   3.128  0.00  0.00    -0.005 A 
ATOM      6  C5  UNL d   1       5.536   2.223   2.732  0.00  0.00     0.003 A 
ATOM      7  C6  UNL d   1       4.255   2.021   2.216  0.00  0.00    -0.001 A 
ENDROOT
TORSDOF 0
ENDMDL
