MODEL 1
REMARK minimizedAffinity -3.35541606
REMARK minimizedRMSD -1
REMARK  0 active torsions:
REMARK  status: ('A' for Active; 'I' for Inactive)
ROOT
ATOM      1  C   UNL d   1       2.302  -5.646  -2.207  0.00  0.00     0.078 C 
ATOM      2  C1  UNL d   1       3.584  -5.635  -2.985  0.00  0.00    -0.077 A 
ATOM      3  C2  UNL d   1       3.611  -6.000  -4.337  0.00  0.00    -0.001 A 
ATOM      4  C3  UNL d   1       4.813  -5.995  -5.046  0.00  0.00     0.003 A 
ATOM      5  C4  UNL d   1       5.998  -5.627  -4.412  0.00  0.00    -0.005 A 
ATOM      6  C5  UNL d   1       5.982  -5.264  -3.066  0.00  0.00     0.003 A 
ATOM      7  C6  UNL d   1       4.781  -5.269  -2.356  0.00  0.00    -0.001 A 
ENDROOT
TORSDOF 0
ENDMDL
