MODEL 1
REMARK minimizedAffinity -2.18503904
REMARK minimizedRMSD -1
REMARK  0 active torsions:
REMARK  status: ('A' for Active; 'I' for Inactive)
ROOT
ATOM      1  C   UNL d   1       3.150  -5.995  -1.740  0.00  0.00     0.078 C 
ATOM      2  C1  UNL d   1       3.350  -5.955  -3.225  0.00  0.00    -0.077 A 
ATOM      3  C2  UNL d   1       2.257  -5.886  -4.098  0.00  0.00    -0.001 A 
ATOM      4  C3  UNL d   1       2.457  -5.859  -5.479  0.00  0.00     0.003 A 
ATOM      5  C4  UNL d   1       3.749  -5.901  -6.000  0.00  0.00    -0.005 A 
ATOM      6  C5  UNL d   1       4.842  -5.972  -5.139  0.00  0.00     0.003 A 
ATOM      7  C6  UNL d   1       4.644  -5.999  -3.758  0.00  0.00    -0.001 A 
ENDROOT
TORSDOF 0
ENDMDL
