MODEL 1
REMARK minimizedAffinity -4.16758871
REMARK minimizedRMSD -1
REMARK  0 active torsions:
REMARK  status: ('A' for Active; 'I' for Inactive)
ROOT
ATOM      1  C   UNL d   1       6.000  -4.837  -2.274  0.00  0.00     0.078 C 
ATOM      2  C1  UNL d   1       5.138  -5.245  -3.432  0.00  0.00    -0.077 A 
ATOM      3  C2  UNL d   1       5.638  -5.240  -4.740  0.00  0.00    -0.001 A 
ATOM      4  C3  UNL d   1       4.821  -5.613  -5.808  0.00  0.00     0.003 A 
ATOM      5  C4  UNL d   1       3.500  -5.993  -5.580  0.00  0.00    -0.005 A 
ATOM      6  C5  UNL d   1       2.994  -6.000  -4.282  0.00  0.00     0.003 A 
ATOM      7  C6  UNL d   1       3.809  -5.627  -3.212  0.00  0.00    -0.001 A 
ENDROOT
TORSDOF 0
ENDMDL
