MODEL 1
REMARK minimizedAffinity -3.52316332
REMARK minimizedRMSD -1
REMARK  0 active torsions:
REMARK  status: ('A' for Active; 'I' for Inactive)
ROOT
ATOM      1  C   UNL d   1       3.375  -5.675  -2.315  0.00  0.00     0.078 C 
ATOM      2  C1  UNL d   1       4.046  -5.274  -3.595  0.00  0.00    -0.077 A 
ATOM      3  C2  UNL d   1       5.385  -4.865  -3.610  0.00  0.00    -0.001 A 
ATOM      4  C3  UNL d   1       5.994  -4.486  -4.808  0.00  0.00     0.003 A 
ATOM      5  C4  UNL d   1       5.271  -4.510  -5.999  0.00  0.00    -0.005 A 
ATOM      6  C5  UNL d   1       3.937  -4.913  -5.993  0.00  0.00     0.003 A 
ATOM      7  C6  UNL d   1       3.326  -5.293  -4.797  0.00  0.00    -0.001 A 
ENDROOT
TORSDOF 0
ENDMDL
