MODEL 1
REMARK minimizedAffinity -3.83039427
REMARK minimizedRMSD -1
REMARK  0 active torsions:
REMARK  status: ('A' for Active; 'I' for Inactive)
ROOT
ATOM      1  C   UNL d   1       3.001  -4.839  -1.986  0.00  0.00     0.078 C 
ATOM      2  C1  UNL d   1       3.896  -5.049  -3.170  0.00  0.00    -0.077 A 
ATOM      3  C2  UNL d   1       5.180  -4.491  -3.211  0.00  0.00    -0.001 A 
ATOM      4  C3  UNL d   1       5.999  -4.686  -4.324  0.00  0.00     0.003 A 
ATOM      5  C4  UNL d   1       5.544  -5.439  -5.405  0.00  0.00    -0.005 A 
ATOM      6  C5  UNL d   1       4.267  -5.997  -5.373  0.00  0.00     0.003 A 
ATOM      7  C6  UNL d   1       3.447  -5.803  -4.261  0.00  0.00    -0.001 A 
ENDROOT
TORSDOF 0
ENDMDL
