MODEL 1
REMARK minimizedAffinity -4.51008749
REMARK minimizedRMSD -1
REMARK  0 active torsions:
REMARK  status: ('A' for Active; 'I' for Inactive)
ROOT
ATOM      1  C   UNL d   1       1.741   2.367   1.202  0.00  0.00     0.078 C 
ATOM      2  C1  UNL d   1       3.153   2.459   1.697  0.00  0.00    -0.077 A 
ATOM      3  C2  UNL d   1       3.863   1.311   2.070  0.00  0.00    -0.001 A 
ATOM      4  C3  UNL d   1       5.174   1.412   2.538  0.00  0.00     0.003 A 
ATOM      5  C4  UNL d   1       5.786   2.660   2.638  0.00  0.00    -0.005 A 
ATOM      6  C5  UNL d   1       5.088   3.808   2.271  0.00  0.00     0.003 A 
ATOM      7  C6  UNL d   1       3.777   3.709   1.803  0.00  0.00    -0.001 A 
ENDROOT
TORSDOF 0
ENDMDL
