MODEL 1
REMARK minimizedAffinity -3.95748997
REMARK minimizedRMSD -1
REMARK  0 active torsions:
REMARK  status: ('A' for Active; 'I' for Inactive)
ROOT
ATOM      1  C   UNL d   1       5.999  -5.262  -5.984  0.00  0.00     0.078 C 
ATOM      2  C1  UNL d   1       4.953  -5.232  -4.909  0.00  0.00    -0.077 A 
ATOM      3  C2  UNL d   1       5.176  -4.555  -3.704  0.00  0.00    -0.001 A 
ATOM      4  C3  UNL d   1       4.198  -4.544  -2.709  0.00  0.00     0.003 A 
ATOM      5  C4  UNL d   1       2.990  -5.209  -2.908  0.00  0.00    -0.005 A 
ATOM      6  C5  UNL d   1       2.759  -5.888  -4.103  0.00  0.00     0.003 A 
ATOM      7  C6  UNL d   1       3.737  -5.900  -5.100  0.00  0.00    -0.001 A 
ENDROOT
TORSDOF 0
ENDMDL
