MODEL 1
REMARK minimizedAffinity 5.21612215
REMARK minimizedRMSD -1
REMARK  0 active torsions:
REMARK  status: ('A' for Active; 'I' for Inactive)
ROOT
ATOM      1  C   UNL d   1       3.118   1.056   4.333  0.00  0.00     0.023 A 
ATOM      2  C1  UNL d   1       2.432  -0.157   4.261  0.00  0.00     0.003 A 
ATOM      3  C2  UNL d   1       1.670  -0.464   3.132  0.00  0.00     0.048 A 
ATOM      4  C3  UNL d   1       1.599   0.446   2.077  0.00  0.00     0.023 A 
ATOM      5  C4  UNL d   1       2.285   1.660   2.145  0.00  0.00     0.048 A 
ATOM      6  C5  UNL d   1       3.044   1.963   3.276  0.00  0.00     0.003 A 
ATOM      7  I   UNL d   1       0.466  -0.009   0.395  0.00  0.00    -0.146 I 
ENDROOT
TORSDOF 0
ENDMDL
