MODEL 1
REMARK minimizedAffinity -3.38118386
REMARK minimizedRMSD -1
REMARK  0 active torsions:
REMARK  status: ('A' for Active; 'I' for Inactive)
ROOT
ATOM      1  C   UNL d   1       1.057   0.640   0.166  0.00  0.00     0.023 A 
ATOM      2  C1  UNL d   1       1.345   0.625  -1.199  0.00  0.00     0.003 A 
ATOM      3  C2  UNL d   1       0.339   0.337  -2.123  0.00  0.00     0.048 A 
ATOM      4  C3  UNL d   1      -0.954   0.066  -1.676  0.00  0.00     0.023 A 
ATOM      5  C4  UNL d   1      -1.247   0.081  -0.311  0.00  0.00     0.048 A 
ATOM      6  C5  UNL d   1      -0.238   0.369   0.609  0.00  0.00     0.003 A 
ATOM      7  I   UNL d   1      -2.453  -0.362  -3.050  0.00  0.00    -0.146 I 
ENDROOT
TORSDOF 0
ENDMDL
