MODEL 1
REMARK minimizedAffinity -1.241611
REMARK minimizedRMSD -1
REMARK  0 active torsions:
REMARK  status: ('A' for Active; 'I' for Inactive)
ROOT
ATOM      1  C   UNL d   1       2.910   0.095   1.089  0.00  0.00     0.023 A 
ATOM      2  C1  UNL d   1       1.987   1.140   1.101  0.00  0.00     0.003 A 
ATOM      3  C2  UNL d   1       0.738   0.977   0.497  0.00  0.00     0.048 A 
ATOM      4  C3  UNL d   1       0.419  -0.235  -0.116  0.00  0.00     0.023 A 
ATOM      5  C4  UNL d   1       1.340  -1.284  -0.129  0.00  0.00     0.048 A 
ATOM      6  C5  UNL d   1       2.588  -1.115   0.474  0.00  0.00     0.003 A 
ATOM      7  I   UNL d   1      -1.439  -0.480  -1.014  0.00  0.00    -0.146 I 
ENDROOT
TORSDOF 0
ENDMDL
