MODEL 1
REMARK minimizedAffinity -0.53578645
REMARK minimizedRMSD -1
REMARK  0 active torsions:
REMARK  status: ('A' for Active; 'I' for Inactive)
ROOT
ATOM      1  C   UNL d   1      -0.644  -0.045   0.964  0.00  0.00     0.023 A 
ATOM      2  C1  UNL d   1      -0.062   0.399  -0.224  0.00  0.00     0.003 A 
ATOM      3  C2  UNL d   1      -0.768   0.309  -1.425  0.00  0.00     0.048 A 
ATOM      4  C3  UNL d   1      -2.056  -0.225  -1.432  0.00  0.00     0.023 A 
ATOM      5  C4  UNL d   1      -2.643  -0.670  -0.246  0.00  0.00     0.048 A 
ATOM      6  C5  UNL d   1      -1.933  -0.579   0.952  0.00  0.00     0.003 A 
ATOM      7  I   UNL d   1      -3.109  -0.359  -3.219  0.00  0.00    -0.146 I 
ENDROOT
TORSDOF 0
ENDMDL
