MODEL 1
REMARK minimizedAffinity 13.1199799
REMARK minimizedRMSD -1
REMARK  0 active torsions:
REMARK  status: ('A' for Active; 'I' for Inactive)
ROOT
ATOM      1  C   UNL d   1      -5.735   4.874  -1.163  0.00  0.00     0.023 A 
ATOM      2  C1  UNL d   1      -6.000   3.515  -0.994  0.00  0.00     0.003 A 
ATOM      3  C2  UNL d   1      -5.149   2.562  -1.556  0.00  0.00     0.048 A 
ATOM      4  C3  UNL d   1      -4.034   2.974  -2.285  0.00  0.00     0.023 A 
ATOM      5  C4  UNL d   1      -3.764   4.333  -2.456  0.00  0.00     0.048 A 
ATOM      6  C5  UNL d   1      -4.619   5.283  -1.893  0.00  0.00     0.003 A 
ATOM      7  I   UNL d   1      -2.765   1.556  -3.122  0.00  0.00    -0.146 I 
ENDROOT
TORSDOF 0
ENDMDL
