MODEL 1
REMARK minimizedAffinity -2.72586298
REMARK minimizedRMSD -1
REMARK  0 active torsions:
REMARK  status: ('A' for Active; 'I' for Inactive)
ROOT
ATOM      1  C   UNL d   1       2.840  -0.611   0.820  0.00  0.00     0.023 A 
ATOM      2  C1  UNL d   1       2.672   0.713   0.414  0.00  0.00     0.003 A 
ATOM      3  C2  UNL d   1       1.471   1.117  -0.174  0.00  0.00     0.048 A 
ATOM      4  C3  UNL d   1       0.443   0.192  -0.352  0.00  0.00     0.023 A 
ATOM      5  C4  UNL d   1       0.606  -1.133   0.054  0.00  0.00     0.048 A 
ATOM      6  C5  UNL d   1       1.809  -1.533   0.640  0.00  0.00     0.003 A 
ATOM      7  I   UNL d   1      -1.345   0.791  -1.226  0.00  0.00    -0.146 I 
ENDROOT
TORSDOF 0
ENDMDL
