MODEL 1
REMARK minimizedAffinity -2.79083204
REMARK minimizedRMSD -1
REMARK  0 active torsions:
REMARK  status: ('A' for Active; 'I' for Inactive)
ROOT
ATOM      1  C   UNL d   1       3.123   0.215   1.082  0.00  0.00     0.023 A 
ATOM      2  C1  UNL d   1       2.404   1.370   0.772  0.00  0.00     0.003 A 
ATOM      3  C2  UNL d   1       1.092   1.272   0.303  0.00  0.00     0.048 A 
ATOM      4  C3  UNL d   1       0.506   0.017   0.146  0.00  0.00     0.023 A 
ATOM      5  C4  UNL d   1       1.221  -1.141   0.455  0.00  0.00     0.048 A 
ATOM      6  C5  UNL d   1       2.533  -1.038   0.923  0.00  0.00     0.003 A 
ATOM      7  I   UNL d   1      -1.446  -0.132  -0.553  0.00  0.00    -0.146 I 
ENDROOT
TORSDOF 0
ENDMDL
