MODEL 1
REMARK minimizedAffinity -1.99296415
REMARK minimizedRMSD -1
REMARK  0 active torsions:
REMARK  status: ('A' for Active; 'I' for Inactive)
ROOT
ATOM      1  C   UNL d   1       1.313  -1.833   0.481  0.00  0.00     0.023 A 
ATOM      2  C1  UNL d   1       0.018  -2.057   0.948  0.00  0.00     0.003 A 
ATOM      3  C2  UNL d   1      -1.065  -1.419   0.339  0.00  0.00     0.048 A 
ATOM      4  C3  UNL d   1      -0.845  -0.559  -0.737  0.00  0.00     0.023 A 
ATOM      5  C4  UNL d   1       0.450  -0.333  -1.207  0.00  0.00     0.048 A 
ATOM      6  C5  UNL d   1       1.529  -0.972  -0.595  0.00  0.00     0.003 A 
ATOM      7  I   UNL d   1      -2.455   0.391  -1.645  0.00  0.00    -0.146 I 
ENDROOT
TORSDOF 0
ENDMDL
