MODEL 1
REMARK minimizedAffinity 3.8569572
REMARK minimizedRMSD -1
REMARK  0 active torsions:
REMARK  status: ('A' for Active; 'I' for Inactive)
ROOT
ATOM      1  C4' PXY d   1       5.259   3.654  -5.998  0.00  0.00     0.077 C 
ATOM      2  C1' PXY d   1       5.381   6.000  -0.717  0.00  0.00     0.077 C 
ATOM      3  C1  PXY d   1       5.338   5.390  -2.104  0.00  0.00    -0.082 A 
ATOM      4  C2  PXY d   1       5.999   4.271  -2.348  0.00  0.00     0.003 A 
ATOM      5  C3  PXY d   1       5.997   3.723  -3.605  0.00  0.00     0.003 A 
ATOM      6  C4  PXY d   1       5.267   4.299  -4.610  0.00  0.00    -0.082 A 
ATOM      7  C5  PXY d   1       4.580   5.436  -4.367  0.00  0.00     0.003 A 
ATOM      8  C6  PXY d   1       4.629   5.998  -3.094  0.00  0.00     0.003 A 
ENDROOT
TORSDOF 0
ENDMDL
