MODEL 1
REMARK minimizedAffinity 6.73869085
REMARK minimizedRMSD -1
REMARK  0 active torsions:
REMARK  status: ('A' for Active; 'I' for Inactive)
ROOT
ATOM      1  C4' PXY d   1       3.113  -0.662   4.207  0.00  0.00     0.077 C 
ATOM      2  C1' PXY d   1       4.678  -5.930   6.000  0.00  0.00     0.077 C 
ATOM      3  C1  PXY d   1       4.263  -4.554   5.519  0.00  0.00    -0.082 A 
ATOM      4  C2  PXY d   1       4.873  -3.482   5.997  0.00  0.00     0.003 A 
ATOM      5  C3  PXY d   1       4.489  -2.228   5.597  0.00  0.00     0.003 A 
ATOM      6  C4  PXY d   1       3.505  -2.072   4.657  0.00  0.00    -0.082 A 
ATOM      7  C5  PXY d   1       2.885  -3.161   4.156  0.00  0.00     0.003 A 
ATOM      8  C6  PXY d   1       3.262  -4.423   4.606  0.00  0.00     0.003 A 
ENDROOT
TORSDOF 0
ENDMDL
