MODEL 1
REMARK minimizedAffinity 3.30385709
REMARK minimizedRMSD -1
REMARK  0 active torsions:
REMARK  status: ('A' for Active; 'I' for Inactive)
ROOT
ATOM      1  C4' PXY d   1       3.206  -1.175  -2.626  0.00  0.00     0.077 C 
ATOM      2  C1' PXY d   1      -1.614  -4.146  -3.791  0.00  0.00     0.077 C 
ATOM      3  C1  PXY d   1      -0.357  -3.358  -3.479  0.00  0.00    -0.082 A 
ATOM      4  C2  PXY d   1       0.712  -3.502  -4.245  0.00  0.00     0.003 A 
ATOM      5  C3  PXY d   1       1.867  -2.821  -3.958  0.00  0.00     0.003 A 
ATOM      6  C4  PXY d   1       1.912  -1.943  -2.908  0.00  0.00    -0.082 A 
ATOM      7  C5  PXY d   1       0.822  -1.783  -2.129  0.00  0.00     0.003 A 
ATOM      8  C6  PXY d   1      -0.328  -2.514  -2.412  0.00  0.00     0.003 A 
ENDROOT
TORSDOF 0
ENDMDL
