MODEL 1
REMARK minimizedAffinity 2.39071274
REMARK minimizedRMSD -1
REMARK  0 active torsions:
REMARK  status: ('A' for Active; 'I' for Inactive)
ROOT
ATOM      1  C4' PXY d   1       4.936  -1.983   5.999  0.00  0.00     0.077 C 
ATOM      2  C1' PXY d   1       5.418  -2.273   0.246  0.00  0.00     0.077 C 
ATOM      3  C1  PXY d   1       5.294  -2.210   1.755  0.00  0.00    -0.082 A 
ATOM      4  C2  PXY d   1       4.592  -1.237   2.314  0.00  0.00     0.003 A 
ATOM      5  C3  PXY d   1       4.496  -1.146   3.679  0.00  0.00     0.003 A 
ATOM      6  C4  PXY d   1       5.081  -2.092   4.479  0.00  0.00    -0.082 A 
ATOM      7  C5  PXY d   1       5.790  -3.093   3.916  0.00  0.00     0.003 A 
ATOM      8  C6  PXY d   1       5.909  -3.144   2.530  0.00  0.00     0.003 A 
ENDROOT
TORSDOF 0
ENDMDL
