MODEL 1
REMARK minimizedAffinity -0.901858151
REMARK minimizedRMSD -1
REMARK  0 active torsions:
REMARK  status: ('A' for Active; 'I' for Inactive)
ROOT
ATOM      1  C4' PXY d   1       3.332  -0.511   5.468  0.00  0.00     0.077 C 
ATOM      2  C1' PXY d   1       5.998  -5.633   5.732  0.00  0.00     0.077 C 
ATOM      3  C1  PXY d   1       5.307  -4.285   5.671  0.00  0.00    -0.082 A 
ATOM      4  C2  PXY d   1       4.042  -4.214   5.290  0.00  0.00     0.003 A 
ATOM      5  C3  PXY d   1       3.412  -3.000   5.199  0.00  0.00     0.003 A 
ATOM      6  C4  PXY d   1       4.067  -1.851   5.553  0.00  0.00    -0.082 A 
ATOM      7  C5  PXY d   1       5.354  -1.916   5.954  0.00  0.00     0.003 A 
ATOM      8  C6  PXY d   1       5.989  -3.154   6.000  0.00  0.00     0.003 A 
ENDROOT
TORSDOF 0
ENDMDL
