MODEL 1
REMARK minimizedAffinity 0.169716775
REMARK minimizedRMSD -1
REMARK  0 active torsions:
REMARK  status: ('A' for Active; 'I' for Inactive)
ROOT
ATOM      1  C4' PXY d   1       5.919   5.982  -0.815  0.00  0.00     0.077 C 
ATOM      2  C1' PXY d   1       5.198   3.525  -5.998  0.00  0.00     0.077 C 
ATOM      3  C1  PXY d   1       5.378   4.161  -4.634  0.00  0.00    -0.082 A 
ATOM      4  C2  PXY d   1       5.793   5.415  -4.546  0.00  0.00     0.003 A 
ATOM      5  C3  PXY d   1       5.992   5.995  -3.320  0.00  0.00     0.003 A 
ATOM      6  C4  PXY d   1       5.713   5.302  -2.172  0.00  0.00    -0.082 A 
ATOM      7  C5  PXY d   1       5.280   4.026  -2.253  0.00  0.00     0.003 A 
ATOM      8  C6  PXY d   1       5.124   3.442  -3.507  0.00  0.00     0.003 A 
ENDROOT
TORSDOF 0
ENDMDL
