MODEL 1
REMARK minimizedAffinity 2.26923299
REMARK minimizedRMSD -1
REMARK  0 active torsions:
REMARK  status: ('A' for Active; 'I' for Inactive)
ROOT
ATOM      1  C4' PXY d   1       5.714   5.151  -5.795  0.00  0.00     0.077 C 
ATOM      2  C1' PXY d   1       5.999   4.429  -0.066  0.00  0.00     0.077 C 
ATOM      3  C1  PXY d   1       5.930   4.607  -1.570  0.00  0.00    -0.082 A 
ATOM      4  C2  PXY d   1       5.829   5.823  -2.081  0.00  0.00     0.003 A 
ATOM      5  C3  PXY d   1       5.733   6.000  -3.438  0.00  0.00     0.003 A 
ATOM      6  C4  PXY d   1       5.796   4.924  -4.283  0.00  0.00    -0.082 A 
ATOM      7  C5  PXY d   1       5.910   3.681  -3.769  0.00  0.00     0.003 A 
ATOM      8  C6  PXY d   1       5.964   3.520  -2.388  0.00  0.00     0.003 A 
ENDROOT
TORSDOF 0
ENDMDL
