MODEL 1
REMARK minimizedAffinity 2.81118679
REMARK minimizedRMSD -1
REMARK  0 active torsions:
REMARK  status: ('A' for Active; 'I' for Inactive)
ROOT
ATOM      1  C4' PXY d   1      -0.181  -6.000  -1.973  0.00  0.00     0.077 C 
ATOM      2  C1' PXY d   1       0.560  -1.322  -5.288  0.00  0.00     0.077 C 
ATOM      3  C1  PXY d   1       0.355  -2.552  -4.425  0.00  0.00    -0.082 A 
ATOM      4  C2  PXY d   1       0.879  -2.594  -3.211  0.00  0.00     0.003 A 
ATOM      5  C3  PXY d   1       0.730  -3.711  -2.430  0.00  0.00     0.003 A 
ATOM      6  C4  PXY d   1      -0.008  -4.775  -2.875  0.00  0.00    -0.082 A 
ATOM      7  C5  PXY d   1      -0.554  -4.736  -4.109  0.00  0.00     0.003 A 
ATOM      8  C6  PXY d   1      -0.357  -3.609  -4.902  0.00  0.00     0.003 A 
ENDROOT
TORSDOF 0
ENDMDL
