MODEL 1
REMARK minimizedAffinity 5.62886572
REMARK minimizedRMSD -1
REMARK  0 active torsions:
REMARK  status: ('A' for Active; 'I' for Inactive)
ROOT
ATOM      1  C4' PXY d   1      -3.693  -2.614   0.390  0.00  0.00     0.077 C 
ATOM      2  C1' PXY d   1       1.249  -2.499  -2.607  0.00  0.00     0.077 C 
ATOM      3  C1  PXY d   1      -0.041  -2.533  -1.810  0.00  0.00    -0.082 A 
ATOM      4  C2  PXY d   1      -1.196  -2.668  -2.441  0.00  0.00     0.003 A 
ATOM      5  C3  PXY d   1      -2.374  -2.668  -1.739  0.00  0.00     0.003 A 
ATOM      6  C4  PXY d   1      -2.366  -2.584  -0.373  0.00  0.00    -0.082 A 
ATOM      7  C5  PXY d   1      -1.190  -2.457   0.279  0.00  0.00     0.003 A 
ATOM      8  C6  PXY d   1      -0.009  -2.417  -0.455  0.00  0.00     0.003 A 
ENDROOT
TORSDOF 0
ENDMDL
