MODEL 1
REMARK minimizedAffinity -0.0455688834
REMARK minimizedRMSD -1
REMARK  0 active torsions:
REMARK  status: ('A' for Active; 'I' for Inactive)
ROOT
ATOM      1  C4' PXY d   1       5.239  -1.851   5.994  0.00  0.00     0.077 C 
ATOM      2  C1' PXY d   1       5.215  -2.238   0.226  0.00  0.00     0.077 C 
ATOM      3  C1  PXY d   1       5.225  -2.149   1.740  0.00  0.00    -0.082 A 
ATOM      4  C2  PXY d   1       4.487  -1.233   2.346  0.00  0.00     0.003 A 
ATOM      5  C3  PXY d   1       4.509  -1.118   3.712  0.00  0.00     0.003 A 
ATOM      6  C4  PXY d   1       5.253  -1.983   4.468  0.00  0.00    -0.082 A 
ATOM      7  C5  PXY d   1       6.000  -2.928   3.858  0.00  0.00     0.003 A 
ATOM      8  C6  PXY d   1       5.996  -3.002   2.468  0.00  0.00     0.003 A 
ENDROOT
TORSDOF 0
ENDMDL
