MODEL 1
REMARK minimizedAffinity 3.00803781
REMARK minimizedRMSD -1
REMARK  0 active torsions:
REMARK  status: ('A' for Active; 'I' for Inactive)
ROOT
ATOM      1  C4' PXY d   1       2.851  -1.851  -3.506  0.00  0.00     0.077 C 
ATOM      2  C1' PXY d   1      -1.606  -2.956   0.005  0.00  0.00     0.077 C 
ATOM      3  C1  PXY d   1      -0.440  -2.676  -0.923  0.00  0.00    -0.082 A 
ATOM      4  C2  PXY d   1       0.610  -2.011  -0.471  0.00  0.00     0.003 A 
ATOM      5  C3  PXY d   1       1.659  -1.722  -1.306  0.00  0.00     0.003 A 
ATOM      6  C4  PXY d   1       1.656  -2.164  -2.601  0.00  0.00    -0.082 A 
ATOM      7  C5  PXY d   1       0.592  -2.853  -3.067  0.00  0.00     0.003 A 
ATOM      8  C6  PXY d   1      -0.480  -3.101  -2.215  0.00  0.00     0.003 A 
ENDROOT
TORSDOF 0
ENDMDL
