MODEL 1
REMARK minimizedAffinity 6.40079737
REMARK minimizedRMSD -1
REMARK  0 active torsions:
REMARK  status: ('A' for Active; 'I' for Inactive)
ROOT
ATOM      1  C4' PXY d   1       6.000   4.872  -0.337  0.00  0.00     0.077 C 
ATOM      2  C1' PXY d   1       3.578   5.451  -5.554  0.00  0.00     0.077 C 
ATOM      3  C1  PXY d   1       4.208   5.311  -4.182  0.00  0.00    -0.082 A 
ATOM      4  C2  PXY d   1       5.272   4.540  -4.027  0.00  0.00     0.003 A 
ATOM      5  C3  PXY d   1       5.835   4.376  -2.788  0.00  0.00     0.003 A 
ATOM      6  C4  PXY d   1       5.336   5.051  -1.706  0.00  0.00    -0.082 A 
ATOM      7  C5  PXY d   1       4.257   5.848  -1.858  0.00  0.00     0.003 A 
ATOM      8  C6  PXY d   1       3.675   5.968  -3.117  0.00  0.00     0.003 A 
ENDROOT
TORSDOF 0
ENDMDL
