MODEL 1
REMARK minimizedAffinity 1.60064483
REMARK minimizedRMSD -1
REMARK  0 active torsions:
REMARK  status: ('A' for Active; 'I' for Inactive)
ROOT
ATOM      1  C4' PXY d   1      -1.352  -2.620   0.376  0.00  0.00     0.077 C 
ATOM      2  C1' PXY d   1       0.372  -2.866  -5.135  0.00  0.00     0.077 C 
ATOM      3  C1  PXY d   1      -0.068  -2.797  -3.686  0.00  0.00    -0.082 A 
ATOM      4  C2  PXY d   1      -1.081  -3.542  -3.275  0.00  0.00     0.003 A 
ATOM      5  C3  PXY d   1      -1.513  -3.468  -1.975  0.00  0.00     0.003 A 
ATOM      6  C4  PXY d   1      -0.867  -2.664  -1.075  0.00  0.00    -0.082 A 
ATOM      7  C5  PXY d   1       0.174  -1.909  -1.485  0.00  0.00     0.003 A 
ATOM      8  C6  PXY d   1       0.571  -1.967  -2.818  0.00  0.00     0.003 A 
ENDROOT
TORSDOF 0
ENDMDL
