MODEL 1
REMARK minimizedAffinity 5.47130442
REMARK minimizedRMSD -1
REMARK  0 active torsions:
REMARK  status: ('A' for Active; 'I' for Inactive)
ROOT
ATOM      1  C4' PXY d   1      -1.963  -2.775   0.702  0.00  0.00     0.077 C 
ATOM      2  C1' PXY d   1       0.992  -2.194  -4.232  0.00  0.00     0.077 C 
ATOM      3  C1  PXY d   1       0.227  -2.342  -2.932  0.00  0.00    -0.082 A 
ATOM      4  C2  PXY d   1      -0.804  -3.169  -2.870  0.00  0.00     0.003 A 
ATOM      5  C3  PXY d   1      -1.526  -3.291  -1.711  0.00  0.00     0.003 A 
ATOM      6  C4  PXY d   1      -1.156  -2.600  -0.588  0.00  0.00    -0.082 A 
ATOM      7  C5  PXY d   1      -0.099  -1.763  -0.640  0.00  0.00     0.003 A 
ATOM      8  C6  PXY d   1       0.596  -1.622  -1.838  0.00  0.00     0.003 A 
ENDROOT
TORSDOF 0
ENDMDL
