MODEL 1
REMARK minimizedAffinity 4.62770033
REMARK minimizedRMSD -1
REMARK  0 active torsions:
REMARK  status: ('A' for Active; 'I' for Inactive)
ROOT
ATOM      1  C4' PXY d   1      -0.186  -3.294   0.847  0.00  0.00     0.077 C 
ATOM      2  C1' PXY d   1      -0.421  -2.331  -4.848  0.00  0.00     0.077 C 
ATOM      3  C1  PXY d   1      -0.368  -2.575  -3.352  0.00  0.00    -0.082 A 
ATOM      4  C2  PXY d   1       0.711  -3.121  -2.816  0.00  0.00     0.003 A 
ATOM      5  C3  PXY d   1       0.763  -3.377  -1.470  0.00  0.00     0.003 A 
ATOM      6  C4  PXY d   1      -0.279  -3.022  -0.657  0.00  0.00    -0.082 A 
ATOM      7  C5  PXY d   1      -1.380  -2.454  -1.195  0.00  0.00     0.003 A 
ATOM      8  C6  PXY d   1      -1.429  -2.240  -2.569  0.00  0.00     0.003 A 
ENDROOT
TORSDOF 0
ENDMDL
