MODEL 1
REMARK minimizedAffinity 4.71656609
REMARK minimizedRMSD -1
REMARK  0 active torsions:
REMARK  status: ('A' for Active; 'I' for Inactive)
ROOT
ATOM      1  C4' PXY d   1       5.983   5.696  -0.295  0.00  0.00     0.077 C 
ATOM      2  C1' PXY d   1       5.995   3.545  -5.660  0.00  0.00     0.077 C 
ATOM      3  C1  PXY d   1       5.997   4.120  -4.258  0.00  0.00    -0.082 A 
ATOM      4  C2  PXY d   1       5.999   3.304  -3.216  0.00  0.00     0.003 A 
ATOM      5  C3  PXY d   1       5.969   3.807  -1.941  0.00  0.00     0.003 A 
ATOM      6  C4  PXY d   1       5.990   5.160  -1.729  0.00  0.00    -0.082 A 
ATOM      7  C5  PXY d   1       5.999   5.999  -2.786  0.00  0.00     0.003 A 
ATOM      8  C6  PXY d   1       5.988   5.468  -4.073  0.00  0.00     0.003 A 
ENDROOT
TORSDOF 0
ENDMDL
