MODEL 1
REMARK minimizedAffinity 0.00356312445
REMARK minimizedRMSD -1
REMARK  0 active torsions:
REMARK  status: ('A' for Active; 'I' for Inactive)
ROOT
ATOM      1  C4' PXY d   1       3.200   5.249  -0.939  0.00  0.00     0.077 C 
ATOM      2  C1' PXY d   1       5.995   5.222  -5.999  0.00  0.00     0.077 C 
ATOM      3  C1  PXY d   1       5.273   5.228  -4.665  0.00  0.00    -0.082 A 
ATOM      4  C2  PXY d   1       4.007   4.847  -4.605  0.00  0.00     0.003 A 
ATOM      5  C3  PXY d   1       3.330   4.877  -3.413  0.00  0.00     0.003 A 
ATOM      6  C4  PXY d   1       3.971   5.250  -2.262  0.00  0.00    -0.082 A 
ATOM      7  C5  PXY d   1       5.265   5.630  -2.313  0.00  0.00     0.003 A 
ATOM      8  C6  PXY d   1       5.923   5.632  -3.540  0.00  0.00     0.003 A 
ENDROOT
TORSDOF 0
ENDMDL
