MODEL 1
REMARK minimizedAffinity 1.02788138
REMARK minimizedRMSD -1
REMARK  0 active torsions:
REMARK  status: ('A' for Active; 'I' for Inactive)
ROOT
ATOM      1  C4' PXY d   1      -2.917  -2.785   0.375  0.00  0.00     0.077 C 
ATOM      2  C1' PXY d   1       1.562  -1.979  -3.189  0.00  0.00     0.077 C 
ATOM      3  C1  PXY d   1       0.395  -2.188  -2.244  0.00  0.00    -0.082 A 
ATOM      4  C2  PXY d   1      -0.611  -2.967  -2.608  0.00  0.00     0.003 A 
ATOM      5  C3  PXY d   1      -1.689  -3.141  -1.779  0.00  0.00     0.003 A 
ATOM      6  C4  PXY d   1      -1.714  -2.553  -0.543  0.00  0.00    -0.082 A 
ATOM      7  C5  PXY d   1      -0.687  -1.765  -0.160  0.00  0.00     0.003 A 
ATOM      8  C6  PXY d   1       0.379  -1.569  -1.033  0.00  0.00     0.003 A 
ENDROOT
TORSDOF 0
ENDMDL
