MODEL 1
REMARK minimizedAffinity 0.382553667
REMARK minimizedRMSD -1
REMARK  2 active torsions:
REMARK  status: ('A' for Active; 'I' for Inactive)
REMARK    1  A    between atoms: C2'_3  and  C1'_4 
REMARK    2  A    between atoms: C1'_4  and  C1_5 
ROOT
ATOM      1  C1  I4B d   1       0.973   2.126  -0.436  0.00  0.00    -0.075 A 
ATOM      2  C2  I4B d   1       0.575   1.016   0.266  0.00  0.00     0.003 A 
ATOM      3  C3  I4B d   1       1.068  -0.264  -0.086  0.00  0.00     0.002 A 
ATOM      4  C4  I4B d   1       1.910  -0.393  -1.172  0.00  0.00    -0.004 A 
ATOM      5  C5  I4B d   1       2.329   0.736  -1.868  0.00  0.00     0.002 A 
ATOM      6  C6  I4B d   1       1.868   2.006  -1.491  0.00  0.00     0.003 A 
ENDROOT
BRANCH   1   7
ATOM      7  C1' I4B d   1       0.408   3.459  -0.058  0.00  0.00     0.060 C 
BRANCH   7   8
ATOM      8  C2' I4B d   1       1.531   4.295   0.520  0.00  0.00    -0.013 C 
ATOM      9  C4' I4B d   1       1.530   5.685  -0.061  0.00  0.00     0.013 C 
ATOM     10  C3' I4B d   1       1.364   4.330   2.010  0.00  0.00     0.013 C 
ENDBRANCH   7   8
ENDBRANCH   1   7
TORSDOF 2
ENDMDL
