MODEL 1
REMARK minimizedAffinity -3.4914453
REMARK minimizedRMSD -1
REMARK  2 active torsions:
REMARK  status: ('A' for Active; 'I' for Inactive)
REMARK    1  A    between atoms: C2'_3  and  C1'_4 
REMARK    2  A    between atoms: C1'_4  and  C1_5 
ROOT
ATOM      1  C1  I4B d   1       1.054   2.351   0.211  0.00  0.00    -0.075 A 
ATOM      2  C2  I4B d   1       0.382   1.908  -0.901  0.00  0.00     0.003 A 
ATOM      3  C3  I4B d   1       0.424   0.539  -1.260  0.00  0.00     0.002 A 
ATOM      4  C4  I4B d   1       1.185  -0.337  -0.514  0.00  0.00    -0.004 A 
ATOM      5  C5  I4B d   1       1.847   0.110   0.626  0.00  0.00     0.002 A 
ATOM      6  C6  I4B d   1       1.772   1.460   0.998  0.00  0.00     0.003 A 
ENDROOT
BRANCH   1   7
ATOM      7  C1' I4B d   1       1.016   3.809   0.542  0.00  0.00     0.060 C 
BRANCH   7   8
ATOM      8  C2' I4B d   1       1.348   4.583  -0.717  0.00  0.00    -0.013 C 
ATOM      9  C4' I4B d   1       1.803   5.982  -0.394  0.00  0.00     0.013 C 
ATOM     10  C3' I4B d   1       2.409   3.827  -1.459  0.00  0.00     0.013 C 
ENDBRANCH   7   8
ENDBRANCH   1   7
TORSDOF 2
ENDMDL
