MODEL 1
REMARK minimizedAffinity -3.60730052
REMARK minimizedRMSD -1
REMARK  2 active torsions:
REMARK  status: ('A' for Active; 'I' for Inactive)
REMARK    1  A    between atoms: C2'_3  and  C1'_4 
REMARK    2  A    between atoms: C1'_4  and  C1_5 
ROOT
ATOM      1  C1  I4B d   1       0.776   1.526  -0.447  0.00  0.00    -0.075 A 
ATOM      2  C2  I4B d   1       1.204   2.354  -1.456  0.00  0.00     0.003 A 
ATOM      3  C3  I4B d   1       1.396   3.735  -1.211  0.00  0.00     0.002 A 
ATOM      4  C4  I4B d   1       1.102   4.252   0.035  0.00  0.00    -0.004 A 
ATOM      5  C5  I4B d   1       0.691   3.408   1.062  0.00  0.00     0.002 A 
ATOM      6  C6  I4B d   1       0.539   2.034   0.823  0.00  0.00     0.003 A 
ENDROOT
BRANCH   1   7
ATOM      7  C1' I4B d   1       0.552   0.079  -0.749  0.00  0.00     0.060 C 
BRANCH   7   8
ATOM      8  C2' I4B d   1       1.886  -0.530  -1.134  0.00  0.00    -0.013 C 
ATOM      9  C4' I4B d   1       2.554  -1.173   0.053  0.00  0.00     0.013 C 
ATOM     10  C3' I4B d   1       1.641  -1.529  -2.225  0.00  0.00     0.013 C 
ENDBRANCH   7   8
ENDBRANCH   1   7
TORSDOF 2
ENDMDL
