MODEL 1
REMARK minimizedAffinity -0.421599001
REMARK minimizedRMSD -1
REMARK  2 active torsions:
REMARK  status: ('A' for Active; 'I' for Inactive)
REMARK    1  A    between atoms: C2'_3  and  C1'_4 
REMARK    2  A    between atoms: C1'_4  and  C1_5 
ROOT
ATOM      1  C1  I4B d   1       1.272   2.319   0.330  0.00  0.00    -0.075 A 
ATOM      2  C2  I4B d   1       0.475   1.903  -0.707  0.00  0.00     0.003 A 
ATOM      3  C3  I4B d   1       0.413   0.532  -1.053  0.00  0.00     0.002 A 
ATOM      4  C4  I4B d   1       1.198  -0.377  -0.372  0.00  0.00    -0.004 A 
ATOM      5  C5  I4B d   1       1.988   0.044   0.694  0.00  0.00     0.002 A 
ATOM      6  C6  I4B d   1       2.016   1.398   1.056  0.00  0.00     0.003 A 
ENDROOT
BRANCH   1   7
ATOM      7  C1' I4B d   1       1.339   3.780   0.647  0.00  0.00     0.060 C 
BRANCH   7   8
ATOM      8  C2' I4B d   1       1.535   4.531  -0.654  0.00  0.00    -0.013 C 
ATOM      9  C4' I4B d   1       2.119   5.898  -0.412  0.00  0.00     0.013 C 
ATOM     10  C3' I4B d   1       2.427   3.708  -1.534  0.00  0.00     0.013 C 
ENDBRANCH   7   8
ENDBRANCH   1   7
TORSDOF 2
ENDMDL
