MODEL 1
REMARK minimizedAffinity 9.55128479
REMARK minimizedRMSD -1
REMARK  2 active torsions:
REMARK  status: ('A' for Active; 'I' for Inactive)
REMARK    1  A    between atoms: C2'_3  and  C1'_4 
REMARK    2  A    between atoms: C1'_4  and  C1_5 
ROOT
ATOM      1  C1  I4B d   1       0.563   3.014  -1.676  0.00  0.00    -0.075 A 
ATOM      2  C2  I4B d   1       1.761   2.369  -1.500  0.00  0.00     0.003 A 
ATOM      3  C3  I4B d   1       1.816   0.954  -1.505  0.00  0.00     0.002 A 
ATOM      4  C4  I4B d   1       0.649   0.229  -1.637  0.00  0.00    -0.004 A 
ATOM      5  C5  I4B d   1      -0.562   0.885  -1.838  0.00  0.00     0.002 A 
ATOM      6  C6  I4B d   1      -0.604   2.286  -1.870  0.00  0.00     0.003 A 
ENDROOT
BRANCH   1   7
ATOM      7  C1' I4B d   1       0.536   4.509  -1.633  0.00  0.00     0.060 C 
BRANCH   7   8
ATOM      8  C2' I4B d   1       1.737   4.975  -0.836  0.00  0.00    -0.013 C 
ATOM      9  C4' I4B d   1       2.535   5.998  -1.600  0.00  0.00     0.013 C 
ATOM     10  C3' I4B d   1       1.242   5.535   0.464  0.00  0.00     0.013 C 
ENDBRANCH   7   8
ENDBRANCH   1   7
TORSDOF 2
ENDMDL
