MODEL 1
REMARK minimizedAffinity 5.1625824
REMARK minimizedRMSD -1
REMARK  2 active torsions:
REMARK  status: ('A' for Active; 'I' for Inactive)
REMARK    1  A    between atoms: C2'_3  and  C1'_4 
REMARK    2  A    between atoms: C1'_4  and  C1_5 
ROOT
ATOM      1  C1  I4B d   1       1.809   2.708  -0.034  0.00  0.00    -0.075 A 
ATOM      2  C2  I4B d   1       1.572   2.959   1.295  0.00  0.00     0.003 A 
ATOM      3  C3  I4B d   1       1.441   4.291   1.756  0.00  0.00     0.002 A 
ATOM      4  C4  I4B d   1       1.604   5.336   0.871  0.00  0.00    -0.004 A 
ATOM      5  C5  I4B d   1       1.822   5.080  -0.480  0.00  0.00     0.002 A 
ATOM      6  C6  I4B d   1       1.913   3.757  -0.938  0.00  0.00     0.003 A 
ENDROOT
BRANCH   1   7
ATOM      7  C1' I4B d   1       1.974   1.290  -0.481  0.00  0.00     0.060 C 
BRANCH   7   8
ATOM      8  C2' I4B d   1       1.530   1.203  -1.928  0.00  0.00    -0.013 C 
ATOM      9  C4' I4B d   1       1.237  -0.221  -2.322  0.00  0.00     0.013 C 
ATOM     10  C3' I4B d   1       0.319   2.071  -2.093  0.00  0.00     0.013 C 
ENDBRANCH   7   8
ENDBRANCH   1   7
TORSDOF 2
ENDMDL
