MODEL 1
REMARK minimizedAffinity 7.27820444
REMARK minimizedRMSD -1
REMARK  2 active torsions:
REMARK  status: ('A' for Active; 'I' for Inactive)
REMARK    1  A    between atoms: C2'_3  and  C1'_4 
REMARK    2  A    between atoms: C1'_4  and  C1_5 
ROOT
ATOM      1  C1  I4B d   1       1.427   1.526  -0.193  0.00  0.00    -0.075 A 
ATOM      2  C2  I4B d   1       2.011   0.784   0.803  0.00  0.00     0.003 A 
ATOM      3  C3  I4B d   1       1.996  -0.631   0.740  0.00  0.00     0.002 A 
ATOM      4  C4  I4B d   1       1.347  -1.258  -0.304  0.00  0.00    -0.004 A 
ATOM      5  C5  I4B d   1       0.775  -0.504  -1.325  0.00  0.00     0.002 A 
ATOM      6  C6  I4B d   1       0.826   0.897  -1.276  0.00  0.00     0.003 A 
ENDROOT
BRANCH   1   7
ATOM      7  C1' I4B d   1       1.432   3.017  -0.078  0.00  0.00     0.060 C 
BRANCH   7   8
ATOM      8  C2' I4B d   1       1.922   3.585  -1.395  0.00  0.00    -0.013 C 
ATOM      9  C4' I4B d   1       0.971   3.259  -2.517  0.00  0.00     0.013 C 
ATOM     10  C3' I4B d   1       2.077   5.068  -1.230  0.00  0.00     0.013 C 
ENDBRANCH   7   8
ENDBRANCH   1   7
TORSDOF 2
ENDMDL
