MODEL 1
REMARK minimizedAffinity -1.3837285
REMARK minimizedRMSD -1
REMARK  2 active torsions:
REMARK  status: ('A' for Active; 'I' for Inactive)
REMARK    1  A    between atoms: C2'_3  and  C1'_4 
REMARK    2  A    between atoms: C1'_4  and  C1_5 
ROOT
ATOM      1  C1  I4B d   1       0.990   2.780  -0.248  0.00  0.00    -0.075 A 
ATOM      2  C2  I4B d   1       1.107   2.915  -1.609  0.00  0.00     0.003 A 
ATOM      3  C3  I4B d   1       1.511   4.151  -2.170  0.00  0.00     0.002 A 
ATOM      4  C4  I4B d   1       1.738   5.231  -1.343  0.00  0.00    -0.004 A 
ATOM      5  C5  I4B d   1       1.642   5.085   0.038  0.00  0.00     0.002 A 
ATOM      6  C6  I4B d   1       1.278   3.849   0.590  0.00  0.00     0.003 A 
ENDROOT
BRANCH   1   7
ATOM      7  C1' I4B d   1       0.529   1.470   0.309  0.00  0.00     0.060 C 
BRANCH   7   8
ATOM      8  C2' I4B d   1       1.305   0.369  -0.385  0.00  0.00    -0.013 C 
ATOM      9  C4' I4B d   1       1.639  -0.747   0.570  0.00  0.00     0.013 C 
ATOM     10  C3' I4B d   1       0.476  -0.130  -1.531  0.00  0.00     0.013 C 
ENDBRANCH   7   8
ENDBRANCH   1   7
TORSDOF 2
ENDMDL
