MODEL 1
REMARK minimizedAffinity 0.658466995
REMARK minimizedRMSD -1
REMARK  2 active torsions:
REMARK  status: ('A' for Active; 'I' for Inactive)
REMARK    1  A    between atoms: C2'_3  and  C1'_4 
REMARK    2  A    between atoms: C1'_4  and  C1_5 
ROOT
ATOM      1  C1  I4B d   1       1.265   1.260  -0.464  0.00  0.00    -0.075 A 
ATOM      2  C2  I4B d   1       1.283   2.459   0.205  0.00  0.00     0.003 A 
ATOM      3  C3  I4B d   1       1.290   3.677  -0.515  0.00  0.00     0.002 A 
ATOM      4  C4  I4B d   1       1.330   3.651  -1.895  0.00  0.00    -0.004 A 
ATOM      5  C5  I4B d   1       1.289   2.436  -2.572  0.00  0.00     0.002 A 
ATOM      6  C6  I4B d   1       1.244   1.233  -1.852  0.00  0.00     0.003 A 
ENDROOT
BRANCH   1   7
ATOM      7  C1' I4B d   1       1.291  -0.008   0.328  0.00  0.00     0.060 C 
BRANCH   7   8
ATOM      8  C2' I4B d   1       2.699  -0.565   0.273  0.00  0.00    -0.013 C 
ATOM      9  C4' I4B d   1       3.633   0.227   1.149  0.00  0.00     0.013 C 
ATOM     10  C3' I4B d   1       2.646  -2.002   0.697  0.00  0.00     0.013 C 
ENDBRANCH   7   8
ENDBRANCH   1   7
TORSDOF 2
ENDMDL
