MODEL 1
REMARK minimizedAffinity 2.97466493
REMARK minimizedRMSD -1
REMARK  2 active torsions:
REMARK  status: ('A' for Active; 'I' for Inactive)
REMARK    1  A    between atoms: C2'_3  and  C1'_4 
REMARK    2  A    between atoms: C1'_4  and  C1_5 
ROOT
ATOM      1  C1  I4B d   1       1.081  -1.464  -0.736  0.00  0.00    -0.075 A 
ATOM      2  C2  I4B d   1       1.268  -2.516   0.125  0.00  0.00     0.003 A 
ATOM      3  C3  I4B d   1       0.618  -3.752  -0.108  0.00  0.00     0.002 A 
ATOM      4  C4  I4B d   1      -0.244  -3.876  -1.178  0.00  0.00    -0.004 A 
ATOM      5  C5  I4B d   1      -0.415  -2.815  -2.064  0.00  0.00     0.002 A 
ATOM      6  C6  I4B d   1       0.261  -1.605  -1.849  0.00  0.00     0.003 A 
ENDROOT
BRANCH   1   7
ATOM      7  C1' I4B d   1       1.757  -0.162  -0.442  0.00  0.00     0.060 C 
BRANCH   7   8
ATOM      8  C2' I4B d   1       0.718   0.936  -0.537  0.00  0.00    -0.013 C 
ATOM      9  C4' I4B d   1       0.546   1.639   0.784  0.00  0.00     0.013 C 
ATOM     10  C3' I4B d   1       1.151   1.892  -1.607  0.00  0.00     0.013 C 
ENDBRANCH   7   8
ENDBRANCH   1   7
TORSDOF 2
ENDMDL
