MODEL 1
REMARK minimizedAffinity -3.06949973
REMARK minimizedRMSD -1
REMARK  2 active torsions:
REMARK  status: ('A' for Active; 'I' for Inactive)
REMARK    1  A    between atoms: C2'_3  and  C1'_4 
REMARK    2  A    between atoms: C1'_4  and  C1_5 
ROOT
ATOM      1  C1  I4B d   1       1.039   2.057   0.004  0.00  0.00    -0.075 A 
ATOM      2  C2  I4B d   1       0.157   1.698  -0.985  0.00  0.00     0.003 A 
ATOM      3  C3  I4B d   1      -0.142   0.333  -1.212  0.00  0.00     0.002 A 
ATOM      4  C4  I4B d   1       0.496  -0.636  -0.465  0.00  0.00    -0.004 A 
ATOM      5  C5  I4B d   1       1.372  -0.270   0.552  0.00  0.00     0.002 A 
ATOM      6  C6  I4B d   1       1.636   1.086   0.797  0.00  0.00     0.003 A 
ENDROOT
BRANCH   1   7
ATOM      7  C1' I4B d   1       1.358   3.506   0.195  0.00  0.00     0.060 C 
BRANCH   7   8
ATOM      8  C2' I4B d   1       1.331   4.173  -1.166  0.00  0.00    -0.013 C 
ATOM      9  C4' I4B d   1       1.783   5.607  -1.079  0.00  0.00     0.013 C 
ATOM     10  C3' I4B d   1       2.212   3.382  -2.086  0.00  0.00     0.013 C 
ENDBRANCH   7   8
ENDBRANCH   1   7
TORSDOF 2
ENDMDL
