MODEL 1
REMARK minimizedAffinity 6.3250289
REMARK minimizedRMSD -1
REMARK  2 active torsions:
REMARK  status: ('A' for Active; 'I' for Inactive)
REMARK    1  A    between atoms: C2'_3  and  C1'_4 
REMARK    2  A    between atoms: C1'_4  and  C1_5 
ROOT
ATOM      1  C1  I4B d   1       1.812   3.726  -1.529  0.00  0.00    -0.075 A 
ATOM      2  C2  I4B d   1       1.356   3.732  -0.234  0.00  0.00     0.003 A 
ATOM      3  C3  I4B d   1       1.495   4.892   0.565  0.00  0.00     0.002 A 
ATOM      4  C4  I4B d   1       2.137   6.000   0.050  0.00  0.00    -0.004 A 
ATOM      5  C5  I4B d   1       2.578   6.000  -1.270  0.00  0.00     0.002 A 
ATOM      6  C6  I4B d   1       2.404   4.860  -2.069  0.00  0.00     0.003 A 
ENDROOT
BRANCH   1   7
ATOM      7  C1' I4B d   1       1.678   2.473  -2.334  0.00  0.00     0.060 C 
BRANCH   7   8
ATOM      8  C2' I4B d   1       0.747   1.537  -1.591  0.00  0.00    -0.013 C 
ATOM      9  C4' I4B d   1      -0.689   1.777  -1.978  0.00  0.00     0.013 C 
ATOM     10  C3' I4B d   1       1.162   0.129  -1.898  0.00  0.00     0.013 C 
ENDBRANCH   7   8
ENDBRANCH   1   7
TORSDOF 2
ENDMDL
