MODEL 1
REMARK minimizedAffinity -0.202743858
REMARK minimizedRMSD -1
REMARK  2 active torsions:
REMARK  status: ('A' for Active; 'I' for Inactive)
REMARK    1  A    between atoms: C2'_3  and  C1'_4 
REMARK    2  A    between atoms: C1'_4  and  C1_5 
ROOT
ATOM      1  C1  I4B d   1       1.665   2.274  -1.342  0.00  0.00    -0.075 A 
ATOM      2  C2  I4B d   1       2.566   1.929  -0.366  0.00  0.00     0.003 A 
ATOM      3  C3  I4B d   1       2.794   0.567  -0.054  0.00  0.00     0.002 A 
ATOM      4  C4  I4B d   1       2.066  -0.409  -0.704  0.00  0.00    -0.004 A 
ATOM      5  C5  I4B d   1       1.169  -0.059  -1.709  0.00  0.00     0.002 A 
ATOM      6  C6  I4B d   1       0.976   1.290  -2.039  0.00  0.00     0.003 A 
ENDROOT
BRANCH   1   7
ATOM      7  C1' I4B d   1       1.425   3.723  -1.623  0.00  0.00     0.060 C 
BRANCH   7   8
ATOM      8  C2' I4B d   1       2.156   4.530  -0.569  0.00  0.00    -0.013 C 
ATOM      9  C4' I4B d   1       2.148   5.998  -0.903  0.00  0.00     0.013 C 
ATOM     10  C3' I4B d   1       1.496   4.271   0.752  0.00  0.00     0.013 C 
ENDBRANCH   7   8
ENDBRANCH   1   7
TORSDOF 2
ENDMDL
