MODEL 1
REMARK minimizedAffinity 12.5572929
REMARK minimizedRMSD -1
REMARK  1 active torsions:
REMARK  status: ('A' for Active; 'I' for Inactive)
REMARK    1  A    between atoms: C1_2  and  C2_3 
ROOT
ATOM      1  C2  UNL d   1      -2.149  -0.336   0.234  0.00  0.00    -0.081 A 
ATOM      2  C3  UNL d   1      -1.818  -1.650   0.586  0.00  0.00     0.006 A 
ATOM      3  C4  UNL d   1      -1.074  -1.908   1.740  0.00  0.00     0.002 A 
ATOM      4  C5  UNL d   1      -0.655  -0.859   2.564  0.00  0.00    -0.080 A 
ATOM      5  C6  UNL d   1       0.118  -1.124   3.822  0.00  0.00     0.076 C 
ATOM      6  C7  UNL d   1      -0.970   0.456   2.203  0.00  0.00     0.002 A 
ATOM      7  C8  UNL d   1      -1.713   0.715   1.050  0.00  0.00     0.006 A 
ENDROOT
BRANCH   1   8
ATOM      8  C1  UNL d   1      -3.006  -0.058  -0.974  0.00  0.00     0.054 C 
ATOM      9  C   UNL d   1      -4.416   0.349  -0.571  0.00  0.00     0.018 C 
ENDBRANCH   1   8
TORSDOF 1
ENDMDL
