MODEL 1
REMARK minimizedAffinity 8.12725925
REMARK minimizedRMSD -1
REMARK  1 active torsions:
REMARK  status: ('A' for Active; 'I' for Inactive)
REMARK    1  A    between atoms: C1_2  and  C2_3 
ROOT
ATOM      1  C2  UNL d   1      -3.352   0.342   0.882  0.00  0.00    -0.081 A 
ATOM      2  C3  UNL d   1      -2.026  -0.098   0.969  0.00  0.00     0.006 A 
ATOM      3  C4  UNL d   1      -1.082   0.635   1.692  0.00  0.00     0.002 A 
ATOM      4  C5  UNL d   1      -1.450   1.816   2.346  0.00  0.00    -0.080 A 
ATOM      5  C6  UNL d   1      -0.454   2.597   3.151  0.00  0.00     0.076 C 
ATOM      6  C7  UNL d   1      -2.771   2.265   2.245  0.00  0.00     0.002 A 
ATOM      7  C8  UNL d   1      -3.715   1.533   1.521  0.00  0.00     0.006 A 
ENDROOT
BRANCH   1   8
ATOM      8  C1  UNL d   1      -4.387  -0.480   0.157  0.00  0.00     0.054 C 
ATOM      9  C   UNL d   1      -3.943  -1.929   0.017  0.00  0.00     0.018 C 
ENDBRANCH   1   8
TORSDOF 1
ENDMDL
