MODEL 1
REMARK minimizedAffinity 2.57749796
REMARK minimizedRMSD -1
REMARK  1 active torsions:
REMARK  status: ('A' for Active; 'I' for Inactive)
REMARK    1  A    between atoms: C1_2  and  C2_3 
ROOT
ATOM      1  C2  UNL d   1       4.194  -5.562   2.499  0.00  0.00    -0.081 A 
ATOM      2  C3  UNL d   1       3.241  -5.442   1.480  0.00  0.00     0.006 A 
ATOM      3  C4  UNL d   1       1.881  -5.596   1.761  0.00  0.00     0.002 A 
ATOM      4  C5  UNL d   1       1.452  -5.863   3.066  0.00  0.00    -0.080 A 
ATOM      5  C6  UNL d   1      -0.007  -6.000   3.387  0.00  0.00     0.076 C 
ATOM      6  C7  UNL d   1       2.406  -6.000   4.080  0.00  0.00     0.002 A 
ATOM      7  C8  UNL d   1       3.765  -5.847   3.800  0.00  0.00     0.006 A 
ENDROOT
BRANCH   1   8
ATOM      8  C1  UNL d   1       5.656  -5.333   2.211  0.00  0.00     0.054 C 
ATOM      9  C   UNL d   1       5.940  -3.866   1.919  0.00  0.00     0.018 C 
ENDBRANCH   1   8
TORSDOF 1
ENDMDL
