MODEL 1
REMARK minimizedAffinity 9.55592632
REMARK minimizedRMSD -1
REMARK  1 active torsions:
REMARK  status: ('A' for Active; 'I' for Inactive)
REMARK    1  A    between atoms: C1_2  and  C2_3 
ROOT
ATOM      1  C2  UNL d   1      -3.411  -2.082  -5.996  0.00  0.00    -0.081 A 
ATOM      2  C3  UNL d   1      -2.063  -2.461  -6.000  0.00  0.00     0.006 A 
ATOM      3  C4  UNL d   1      -1.055  -1.494  -5.980  0.00  0.00     0.002 A 
ATOM      4  C5  UNL d   1      -1.378  -0.133  -5.947  0.00  0.00    -0.080 A 
ATOM      5  C6  UNL d   1      -0.305   0.914  -5.895  0.00  0.00     0.076 C 
ATOM      6  C7  UNL d   1      -2.724   0.246  -5.961  0.00  0.00     0.002 A 
ATOM      7  C8  UNL d   1      -3.732  -0.721  -5.981  0.00  0.00     0.006 A 
ENDROOT
BRANCH   1   8
ATOM      8  C1  UNL d   1      -4.500  -3.124  -5.952  0.00  0.00     0.054 C 
ATOM      9  C   UNL d   1      -3.922  -4.531  -5.999  0.00  0.00     0.018 C 
ENDBRANCH   1   8
TORSDOF 1
ENDMDL
