MODEL 1
REMARK minimizedAffinity 8.41851139
REMARK minimizedRMSD -1
REMARK  1 active torsions:
REMARK  status: ('A' for Active; 'I' for Inactive)
REMARK    1  A    between atoms: C1_2  and  C2_3 
ROOT
ATOM      1  C2  UNL d   1      -3.879  -0.115   4.635  0.00  0.00    -0.081 A 
ATOM      2  C3  UNL d   1      -2.901  -0.338   3.658  0.00  0.00     0.006 A 
ATOM      3  C4  UNL d   1      -2.986   0.293   2.414  0.00  0.00     0.002 A 
ATOM      4  C5  UNL d   1      -4.045   1.161   2.130  0.00  0.00    -0.080 A 
ATOM      5  C6  UNL d   1      -4.132   1.868   0.810  0.00  0.00     0.076 C 
ATOM      6  C7  UNL d   1      -5.032   1.370   3.099  0.00  0.00     0.002 A 
ATOM      7  C8  UNL d   1      -4.947   0.739   4.343  0.00  0.00     0.006 A 
ENDROOT
BRANCH   1   8
ATOM      8  C1  UNL d   1      -3.755  -0.743   6.000  0.00  0.00     0.054 C 
ATOM      9  C   UNL d   1      -4.275  -2.173   6.000  0.00  0.00     0.018 C 
ENDBRANCH   1   8
TORSDOF 1
ENDMDL
