MODEL 1
REMARK minimizedAffinity -0.111407995
REMARK minimizedRMSD -1
REMARK  1 active torsions:
REMARK  status: ('A' for Active; 'I' for Inactive)
REMARK    1  A    between atoms: C1_2  and  C2_3 
ROOT
ATOM      1  C2  UNL d   1      -3.499  -2.742  -5.996  0.00  0.00    -0.081 A 
ATOM      2  C3  UNL d   1      -2.241  -3.357  -5.999  0.00  0.00     0.006 A 
ATOM      3  C4  UNL d   1      -1.076  -2.586  -5.991  0.00  0.00     0.002 A 
ATOM      4  C5  UNL d   1      -1.149  -1.189  -5.972  0.00  0.00    -0.080 A 
ATOM      5  C6  UNL d   1       0.094  -0.351  -5.933  0.00  0.00     0.076 C 
ATOM      6  C7  UNL d   1      -2.406  -0.575  -5.987  0.00  0.00     0.002 A 
ATOM      7  C8  UNL d   1      -3.571  -1.344  -5.996  0.00  0.00     0.006 A 
ENDROOT
BRANCH   1   8
ATOM      8  C1  UNL d   1      -4.757  -3.570  -5.940  0.00  0.00     0.054 C 
ATOM      9  C   UNL d   1      -6.000  -2.694  -6.000  0.00  0.00     0.018 C 
ENDBRANCH   1   8
TORSDOF 1
ENDMDL
