MODEL 1
REMARK minimizedAffinity 2.02548122
REMARK minimizedRMSD -1
REMARK  1 active torsions:
REMARK  status: ('A' for Active; 'I' for Inactive)
REMARK    1  A    between atoms: C1_2  and  C2_3 
ROOT
ATOM      1  C2  UNL d   1      -3.377  -1.076  -5.931  0.00  0.00    -0.081 A 
ATOM      2  C3  UNL d   1      -2.541  -2.198  -5.998  0.00  0.00     0.006 A 
ATOM      3  C4  UNL d   1      -3.083  -3.485  -6.000  0.00  0.00     0.002 A 
ATOM      4  C5  UNL d   1      -4.468  -3.672  -5.944  0.00  0.00    -0.080 A 
ATOM      5  C6  UNL d   1      -5.064  -5.048  -5.976  0.00  0.00     0.076 C 
ATOM      6  C7  UNL d   1      -5.302  -2.552  -5.860  0.00  0.00     0.002 A 
ATOM      7  C8  UNL d   1      -4.761  -1.264  -5.857  0.00  0.00     0.006 A 
ENDROOT
BRANCH   1   8
ATOM      8  C1  UNL d   1      -2.799   0.315  -5.994  0.00  0.00     0.054 C 
ATOM      9  C   UNL d   1      -1.283   0.291  -5.862  0.00  0.00     0.018 C 
ENDBRANCH   1   8
TORSDOF 1
ENDMDL
