MODEL 1
REMARK minimizedAffinity 0.949469388
REMARK minimizedRMSD -1
REMARK  1 active torsions:
REMARK  status: ('A' for Active; 'I' for Inactive)
REMARK    1  A    between atoms: C1_2  and  C2_3 
ROOT
ATOM      1  C2  UNL d   1      -5.620   2.266   2.536  0.00  0.00    -0.081 A 
ATOM      2  C3  UNL d   1      -5.999   2.095   3.873  0.00  0.00     0.006 A 
ATOM      3  C4  UNL d   1      -5.635   0.941   4.571  0.00  0.00     0.002 A 
ATOM      4  C5  UNL d   1      -4.879  -0.057   3.947  0.00  0.00    -0.080 A 
ATOM      5  C6  UNL d   1      -4.455  -1.286   4.694  0.00  0.00     0.076 C 
ATOM      6  C7  UNL d   1      -4.515   0.106   2.606  0.00  0.00     0.002 A 
ATOM      7  C8  UNL d   1      -4.879   1.259   1.908  0.00  0.00     0.006 A 
ENDROOT
BRANCH   1   8
ATOM      8  C1  UNL d   1      -5.956   3.538   1.800  0.00  0.00     0.054 C 
ATOM      9  C   UNL d   1      -6.000   4.729   2.747  0.00  0.00     0.018 C 
ENDBRANCH   1   8
TORSDOF 1
ENDMDL
