MODEL 1
REMARK minimizedAffinity 6.07423782
REMARK minimizedRMSD -1
REMARK  1 active torsions:
REMARK  status: ('A' for Active; 'I' for Inactive)
REMARK    1  A    between atoms: C1_2  and  C2_3 
ROOT
ATOM      1  C2  UNL d   1      -2.529  -2.207  -5.577  0.00  0.00    -0.081 A 
ATOM      2  C3  UNL d   1      -2.598  -0.857  -5.212  0.00  0.00     0.006 A 
ATOM      3  C4  UNL d   1      -1.438  -0.153  -4.881  0.00  0.00     0.002 A 
ATOM      4  C5  UNL d   1      -0.190  -0.784  -4.918  0.00  0.00    -0.080 A 
ATOM      5  C6  UNL d   1       1.067  -0.031  -4.594  0.00  0.00     0.076 C 
ATOM      6  C7  UNL d   1      -0.123  -2.137  -5.266  0.00  0.00     0.002 A 
ATOM      7  C8  UNL d   1      -1.282  -2.841  -5.596  0.00  0.00     0.006 A 
ENDROOT
BRANCH   1   8
ATOM      8  C1  UNL d   1      -3.771  -2.951  -5.997  0.00  0.00     0.054 C 
ATOM      9  C   UNL d   1      -4.956  -2.595  -5.110  0.00  0.00     0.018 C 
ENDBRANCH   1   8
TORSDOF 1
ENDMDL
