MODEL 1
REMARK minimizedAffinity -4.77605581
REMARK minimizedRMSD -1
REMARK  3 active torsions:
REMARK  status: ('A' for Active; 'I' for Inactive)
REMARK    1  A    between atoms: C3'_2  and  C2'_3 
REMARK    2  A    between atoms: C2'_3  and  C1'_4 
REMARK    3  A    between atoms: C1'_4  and  C1_5 
ROOT
ATOM      1  C1  N4B d   1      -0.036  -1.379   2.992  0.00  0.00    -0.075 A 
ATOM      2  C2  N4B d   1      -1.387  -0.980   3.091  0.00  0.00     0.002 A 
ATOM      3  C3  N4B d   1      -1.866   0.028   2.290  0.00  0.00     0.002 A 
ATOM      4  C4  N4B d   1      -1.011   0.661   1.401  0.00  0.00    -0.004 A 
ATOM      5  C5  N4B d   1       0.286   0.253   1.294  0.00  0.00     0.002 A 
ATOM      6  C6  N4B d   1       0.780  -0.762   2.089  0.00  0.00     0.002 A 
ENDROOT
BRANCH   1   7
ATOM      7  C1' N4B d   1       0.554  -2.418   3.907  0.00  0.00     0.057 C 
BRANCH   7   8
ATOM      8  C2' N4B d   1       2.017  -2.078   4.173  0.00  0.00     0.009 C 
BRANCH   8   9
ATOM      9  C3' N4B d   1       2.223  -1.502   5.563  0.00  0.00     0.004 C 
ATOM     10  C4' N4B d   1       3.657  -1.537   6.000  0.00  0.00     0.003 C 
ENDBRANCH   8   9
ENDBRANCH   7   8
ENDBRANCH   1   7
TORSDOF 3
ENDMDL
