MODEL 1
REMARK minimizedAffinity 1.8730371
REMARK minimizedRMSD -1
REMARK  3 active torsions:
REMARK  status: ('A' for Active; 'I' for Inactive)
REMARK    1  A    between atoms: C3'_2  and  C2'_3 
REMARK    2  A    between atoms: C2'_3  and  C1'_4 
REMARK    3  A    between atoms: C1'_4  and  C1_5 
ROOT
ATOM      1  C1  N4B d   1       0.707  -1.099   3.426  0.00  0.00    -0.075 A 
ATOM      2  C2  N4B d   1       0.456  -0.739   2.083  0.00  0.00     0.002 A 
ATOM      3  C3  N4B d   1      -0.835  -0.573   1.646  0.00  0.00     0.002 A 
ATOM      4  C4  N4B d   1      -1.888  -0.779   2.525  0.00  0.00    -0.004 A 
ATOM      5  C5  N4B d   1      -1.637  -1.101   3.826  0.00  0.00     0.002 A 
ATOM      6  C6  N4B d   1      -0.344  -1.268   4.281  0.00  0.00     0.002 A 
ENDROOT
BRANCH   1   7
ATOM      7  C1' N4B d   1       2.097  -1.375   3.928  0.00  0.00     0.057 C 
BRANCH   7   8
ATOM      8  C2' N4B d   1       2.067  -1.488   5.449  0.00  0.00     0.009 C 
BRANCH   8   9
ATOM      9  C3' N4B d   1       3.343  -2.104   5.999  0.00  0.00     0.004 C 
ATOM     10  C4' N4B d   1       4.500  -1.150   5.989  0.00  0.00     0.003 C 
ENDBRANCH   8   9
ENDBRANCH   7   8
ENDBRANCH   1   7
TORSDOF 3
ENDMDL
