MODEL 1
REMARK minimizedAffinity -1.93696785
REMARK minimizedRMSD -1
REMARK  3 active torsions:
REMARK  status: ('A' for Active; 'I' for Inactive)
REMARK    1  A    between atoms: C3'_2  and  C2'_3 
REMARK    2  A    between atoms: C2'_3  and  C1'_4 
REMARK    3  A    between atoms: C1'_4  and  C1_5 
ROOT
ATOM      1  C1  N4B d   1      -0.548  -0.826   2.682  0.00  0.00    -0.075 A 
ATOM      2  C2  N4B d   1       0.787  -1.134   2.341  0.00  0.00     0.002 A 
ATOM      3  C3  N4B d   1       1.703  -1.403   3.328  0.00  0.00     0.002 A 
ATOM      4  C4  N4B d   1       1.314  -1.351   4.658  0.00  0.00    -0.004 A 
ATOM      5  C5  N4B d   1       0.016  -1.078   4.978  0.00  0.00     0.002 A 
ATOM      6  C6  N4B d   1      -0.916  -0.810   3.996  0.00  0.00     0.002 A 
ENDROOT
BRANCH   1   7
ATOM      7  C1' N4B d   1      -1.565  -0.442   1.642  0.00  0.00     0.057 C 
BRANCH   7   8
ATOM      8  C2' N4B d   1      -0.847  -0.112   0.337  0.00  0.00     0.009 C 
BRANCH   8   9
ATOM      9  C3' N4B d   1      -1.343  -0.966  -0.817  0.00  0.00     0.004 C 
ATOM     10  C4' N4B d   1      -1.958  -0.154  -1.918  0.00  0.00     0.003 C 
ENDBRANCH   8   9
ENDBRANCH   7   8
ENDBRANCH   1   7
TORSDOF 3
ENDMDL
