MODEL 1
REMARK minimizedAffinity 5.01471186
REMARK minimizedRMSD -1
REMARK  3 active torsions:
REMARK  status: ('A' for Active; 'I' for Inactive)
REMARK    1  A    between atoms: C3'_2  and  C2'_3 
REMARK    2  A    between atoms: C2'_3  and  C1'_4 
REMARK    3  A    between atoms: C1'_4  and  C1_5 
ROOT
ATOM      1  C1  N4B d   1       0.409  -1.082   3.269  0.00  0.00    -0.075 A 
ATOM      2  C2  N4B d   1       1.427  -0.762   2.344  0.00  0.00     0.002 A 
ATOM      3  C3  N4B d   1       1.118  -0.091   1.187  0.00  0.00     0.002 A 
ATOM      4  C4  N4B d   1      -0.200   0.253   0.926  0.00  0.00    -0.004 A 
ATOM      5  C5  N4B d   1      -1.174  -0.036   1.836  0.00  0.00     0.002 A 
ATOM      6  C6  N4B d   1      -0.876  -0.707   3.005  0.00  0.00     0.002 A 
ENDROOT
BRANCH   1   7
ATOM      7  C1' N4B d   1       0.686  -1.890   4.507  0.00  0.00     0.057 C 
BRANCH   7   8
ATOM      8  C2' N4B d   1       2.184  -2.166   4.601  0.00  0.00     0.009 C 
BRANCH   8   9
ATOM      9  C3' N4B d   1       2.724  -1.907   5.997  0.00  0.00     0.004 C 
ATOM     10  C4' N4B d   1       3.917  -0.998   6.000  0.00  0.00     0.003 C 
ENDBRANCH   8   9
ENDBRANCH   7   8
ENDBRANCH   1   7
TORSDOF 3
ENDMDL
