MODEL 1
REMARK minimizedAffinity -4.51668358
REMARK minimizedRMSD -1
REMARK  3 active torsions:
REMARK  status: ('A' for Active; 'I' for Inactive)
REMARK    1  A    between atoms: C3'_2  and  C2'_3 
REMARK    2  A    between atoms: C2'_3  and  C1'_4 
REMARK    3  A    between atoms: C1'_4  and  C1_5 
ROOT
ATOM      1  C1  N4B d   1       0.581  -1.029   3.449  0.00  0.00    -0.075 A 
ATOM      2  C2  N4B d   1      -0.588  -0.512   2.848  0.00  0.00     0.002 A 
ATOM      3  C3  N4B d   1      -1.821  -0.821   3.367  0.00  0.00     0.002 A 
ATOM      4  C4  N4B d   1      -1.911  -1.658   4.470  0.00  0.00    -0.004 A 
ATOM      5  C5  N4B d   1      -0.776  -2.133   5.059  0.00  0.00     0.002 A 
ATOM      6  C6  N4B d   1       0.470  -1.827   4.551  0.00  0.00     0.002 A 
ENDROOT
BRANCH   1   7
ATOM      7  C1' N4B d   1       1.947  -0.789   2.865  0.00  0.00     0.057 C 
BRANCH   7   8
ATOM      8  C2' N4B d   1       1.804  -0.006   1.563  0.00  0.00     0.009 C 
BRANCH   8   9
ATOM      9  C3' N4B d   1       1.420   1.443   1.810  0.00  0.00     0.004 C 
ATOM     10  C4' N4B d   1       1.803   2.346   0.677  0.00  0.00     0.003 C 
ENDBRANCH   8   9
ENDBRANCH   7   8
ENDBRANCH   1   7
TORSDOF 3
ENDMDL
