MODEL 1
REMARK minimizedAffinity -0.610447347
REMARK minimizedRMSD -1
REMARK  3 active torsions:
REMARK  status: ('A' for Active; 'I' for Inactive)
REMARK    1  A    between atoms: C3'_2  and  C2'_3 
REMARK    2  A    between atoms: C2'_3  and  C1'_4 
REMARK    3  A    between atoms: C1'_4  and  C1_5 
ROOT
ATOM      1  C1  N4B d   1      -0.022  -0.203   1.806  0.00  0.00    -0.075 A 
ATOM      2  C2  N4B d   1      -0.983  -0.261   2.840  0.00  0.00     0.002 A 
ATOM      3  C3  N4B d   1      -0.667  -0.852   4.038  0.00  0.00     0.002 A 
ATOM      4  C4  N4B d   1       0.591  -1.408   4.218  0.00  0.00    -0.004 A 
ATOM      5  C5  N4B d   1       1.522  -1.325   3.223  0.00  0.00     0.002 A 
ATOM      6  C6  N4B d   1       1.219  -0.729   2.015  0.00  0.00     0.002 A 
ENDROOT
BRANCH   1   7
ATOM      7  C1' N4B d   1      -0.349   0.358   0.449  0.00  0.00     0.057 C 
BRANCH   7   8
ATOM      8  C2' N4B d   1      -1.115  -0.689  -0.354  0.00  0.00     0.009 C 
BRANCH   8   9
ATOM      9  C3' N4B d   1      -1.934  -0.063  -1.470  0.00  0.00     0.004 C 
ATOM     10  C4' N4B d   1      -2.406  -1.068  -2.478  0.00  0.00     0.003 C 
ENDBRANCH   8   9
ENDBRANCH   7   8
ENDBRANCH   1   7
TORSDOF 3
ENDMDL
