MODEL 1
REMARK minimizedAffinity 4.15275764
REMARK minimizedRMSD -1
REMARK  3 active torsions:
REMARK  status: ('A' for Active; 'I' for Inactive)
REMARK    1  A    between atoms: C3'_2  and  C2'_3 
REMARK    2  A    between atoms: C2'_3  and  C1'_4 
REMARK    3  A    between atoms: C1'_4  and  C1_5 
ROOT
ATOM      1  C1  N4B d   1       0.966  -0.393   2.240  0.00  0.00    -0.075 A 
ATOM      2  C2  N4B d   1      -0.339  -0.932   2.205  0.00  0.00     0.002 A 
ATOM      3  C3  N4B d   1      -1.376  -0.186   1.701  0.00  0.00     0.002 A 
ATOM      4  C4  N4B d   1      -1.137   1.102   1.246  0.00  0.00    -0.004 A 
ATOM      5  C5  N4B d   1       0.130   1.606   1.260  0.00  0.00     0.002 A 
ATOM      6  C6  N4B d   1       1.183   0.866   1.760  0.00  0.00     0.002 A 
ENDROOT
BRANCH   1   7
ATOM      7  C1' N4B d   1       2.117  -1.137   2.861  0.00  0.00     0.057 C 
BRANCH   7   8
ATOM      8  C2' N4B d   1       1.803  -1.409   4.329  0.00  0.00     0.009 C 
BRANCH   8   9
ATOM      9  C3' N4B d   1       2.926  -2.165   5.019  0.00  0.00     0.004 C 
ATOM     10  C4' N4B d   1       3.686  -1.315   5.992  0.00  0.00     0.003 C 
ENDBRANCH   8   9
ENDBRANCH   7   8
ENDBRANCH   1   7
TORSDOF 3
ENDMDL
