MODEL 1
REMARK minimizedAffinity -5.71748495
REMARK minimizedRMSD -1
REMARK  0 active torsions:
REMARK  status: ('A' for Active; 'I' for Inactive)
ROOT
ATOM      1  C   UNL d   1      -3.402   2.540   2.275  0.00  0.00     0.077 C 
ATOM      2  C1  UNL d   1      -2.895   1.285   1.630  0.00  0.00    -0.074 A 
ATOM      3  C2  UNL d   1      -3.781   0.317   1.145  0.00  0.00    -0.005 A 
ATOM      4  C3  UNL d   1      -3.294  -0.841   0.540  0.00  0.00     0.006 A 
ATOM      5  C4  UNL d   1      -1.920  -1.044   0.413  0.00  0.00    -0.005 A 
ATOM      6  C5  UNL d   1      -1.019  -0.087   0.892  0.00  0.00    -0.074 A 
ATOM      7  C6  UNL d   1       0.462  -0.285   0.755  0.00  0.00     0.077 C 
ATOM      8  C7  UNL d   1      -1.515   1.077   1.493  0.00  0.00    -0.001 A 
ENDROOT
TORSDOF 0
ENDMDL
