MODEL 1
REMARK minimizedAffinity -1.63813233
REMARK minimizedRMSD -1
REMARK  0 active torsions:
REMARK  status: ('A' for Active; 'I' for Inactive)
ROOT
ATOM      1  C   UNL d   1       0.007  -2.316  -0.391  0.00  0.00     0.077 C 
ATOM      2  C1  UNL d   1      -0.865  -1.415   0.432  0.00  0.00    -0.074 A 
ATOM      3  C2  UNL d   1      -0.603  -1.206   1.790  0.00  0.00    -0.005 A 
ATOM      4  C3  UNL d   1      -1.418  -0.358   2.541  0.00  0.00     0.006 A 
ATOM      5  C4  UNL d   1      -2.499   0.289   1.942  0.00  0.00    -0.005 A 
ATOM      6  C5  UNL d   1      -2.775   0.093   0.585  0.00  0.00    -0.074 A 
ATOM      7  C6  UNL d   1      -3.928   0.788  -0.076  0.00  0.00     0.077 C 
ATOM      8  C7  UNL d   1      -1.948  -0.755  -0.164  0.00  0.00    -0.001 A 
ENDROOT
TORSDOF 0
ENDMDL
