MODEL 1
REMARK minimizedAffinity -4.03436565
REMARK minimizedRMSD -1
REMARK  0 active torsions:
REMARK  status: ('A' for Active; 'I' for Inactive)
ROOT
ATOM      1  C   UNL d   1      -0.563  -2.709  -0.635  0.00  0.00     0.077 C 
ATOM      2  C1  UNL d   1      -1.540  -1.712  -0.084  0.00  0.00    -0.074 A 
ATOM      3  C2  UNL d   1      -2.915  -1.864  -0.290  0.00  0.00    -0.005 A 
ATOM      4  C3  UNL d   1      -3.812  -0.935   0.237  0.00  0.00     0.006 A 
ATOM      5  C4  UNL d   1      -3.344   0.154   0.973  0.00  0.00    -0.005 A 
ATOM      6  C5  UNL d   1      -1.972   0.322   1.190  0.00  0.00    -0.074 A 
ATOM      7  C6  UNL d   1      -1.453   1.482   1.987  0.00  0.00     0.077 C 
ATOM      8  C7  UNL d   1      -1.078  -0.620   0.663  0.00  0.00    -0.001 A 
ENDROOT
TORSDOF 0
ENDMDL
