MODEL 1
REMARK minimizedAffinity -6.08036137
REMARK minimizedRMSD -1
REMARK  0 active torsions:
REMARK  status: ('A' for Active; 'I' for Inactive)
ROOT
ATOM      1  C   UNL d   1      -4.172   0.268   0.456  0.00  0.00     0.077 C 
ATOM      2  C1  UNL d   1      -2.716  -0.019   0.669  0.00  0.00    -0.074 A 
ATOM      3  C2  UNL d   1      -2.101   0.257   1.895  0.00  0.00    -0.005 A 
ATOM      4  C3  UNL d   1      -0.747  -0.024   2.081  0.00  0.00     0.006 A 
ATOM      5  C4  UNL d   1       0.003  -0.584   1.047  0.00  0.00    -0.005 A 
ATOM      6  C5  UNL d   1      -0.595  -0.868  -0.185  0.00  0.00    -0.074 A 
ATOM      7  C6  UNL d   1       0.195  -1.479  -1.304  0.00  0.00     0.077 C 
ATOM      8  C7  UNL d   1      -1.957  -0.589  -0.363  0.00  0.00    -0.001 A 
ENDROOT
TORSDOF 0
ENDMDL
