MODEL 1
REMARK minimizedAffinity -3.59932375
REMARK minimizedRMSD -1
REMARK  0 active torsions:
REMARK  status: ('A' for Active; 'I' for Inactive)
ROOT
ATOM      1  C   UNL d   1      -3.122   0.191   1.522  0.00  0.00     0.077 C 
ATOM      2  C1  UNL d   1      -1.739  -0.387   1.489  0.00  0.00    -0.074 A 
ATOM      3  C2  UNL d   1      -0.857  -0.202   2.559  0.00  0.00    -0.005 A 
ATOM      4  C3  UNL d   1       0.424  -0.754   2.518  0.00  0.00     0.006 A 
ATOM      5  C4  UNL d   1       0.834  -1.495   1.410  0.00  0.00    -0.005 A 
ATOM      6  C5  UNL d   1      -0.034  -1.691   0.331  0.00  0.00    -0.074 A 
ATOM      7  C6  UNL d   1       0.388  -2.494  -0.864  0.00  0.00     0.077 C 
ATOM      8  C7  UNL d   1      -1.321  -1.139   0.382  0.00  0.00    -0.001 A 
ENDROOT
TORSDOF 0
ENDMDL
