MODEL 1
REMARK minimizedAffinity -2.98750353
REMARK minimizedRMSD -1
REMARK  0 active torsions:
REMARK  status: ('A' for Active; 'I' for Inactive)
ROOT
ATOM      1  C   UNL d   1      -4.198   0.551   0.681  0.00  0.00     0.077 C 
ATOM      2  C1  UNL d   1      -2.827  -0.015   0.902  0.00  0.00    -0.074 A 
ATOM      3  C2  UNL d   1      -2.087  -0.543  -0.161  0.00  0.00    -0.005 A 
ATOM      4  C3  UNL d   1      -0.809  -1.057   0.059  0.00  0.00     0.006 A 
ATOM      5  C4  UNL d   1      -0.259  -1.048   1.341  0.00  0.00    -0.005 A 
ATOM      6  C5  UNL d   1      -0.983  -0.523   2.416  0.00  0.00    -0.074 A 
ATOM      7  C6  UNL d   1      -0.403  -0.497   3.799  0.00  0.00     0.077 C 
ATOM      8  C7  UNL d   1      -2.264  -0.002   2.186  0.00  0.00    -0.001 A 
ENDROOT
TORSDOF 0
ENDMDL
