MODEL 1
REMARK minimizedAffinity -2.47783065
REMARK minimizedRMSD -1
REMARK  0 active torsions:
REMARK  status: ('A' for Active; 'I' for Inactive)
ROOT
ATOM      1  C   UNL d   1       2.215  -0.048   1.580  0.00  0.00     0.172 C 
ATOM      2  N   UNL d   1       0.931  -0.068   0.920  0.00  0.00    -0.070 N 
ATOM      3  C1  UNL d   1       0.659  -0.667  -0.281  0.00  0.00    -0.004 A 
ATOM      4  C2  UNL d   1      -0.674  -0.463  -0.562  0.00  0.00    -0.047 A 
ATOM      5  C3  UNL d   1      -1.223   0.285   0.506  0.00  0.00    -0.047 A 
ATOM      6  C4  UNL d   1      -0.208   0.516   1.410  0.00  0.00    -0.004 A 
ENDROOT
TORSDOF 0
ENDMDL
