MODEL 1
REMARK minimizedAffinity -3.70244241
REMARK minimizedRMSD -1
REMARK  0 active torsions:
REMARK  status: ('A' for Active; 'I' for Inactive)
ROOT
ATOM      1  C   UNL d   1      -1.087   1.468   2.231  0.00  0.00     0.172 C 
ATOM      2  N   UNL d   1      -0.647   0.608   1.158  0.00  0.00    -0.070 N 
ATOM      3  C1  UNL d   1      -1.458   0.012   0.229  0.00  0.00    -0.004 A 
ATOM      4  C2  UNL d   1      -0.659  -0.724  -0.619  0.00  0.00    -0.047 A 
ATOM      5  C3  UNL d   1       0.678  -0.565  -0.185  0.00  0.00    -0.047 A 
ATOM      6  C4  UNL d   1       0.657   0.264   0.917  0.00  0.00    -0.004 A 
ENDROOT
TORSDOF 0
ENDMDL
