MODEL 1
REMARK minimizedAffinity -4.24371815
REMARK minimizedRMSD -1
REMARK  0 active torsions:
REMARK  status: ('A' for Active; 'I' for Inactive)
ROOT
ATOM      1  C   UNL d   1      -1.642   1.053   2.219  0.00  0.00     0.172 C 
ATOM      2  N   UNL d   1      -0.311   0.496   2.262  0.00  0.00    -0.070 N 
ATOM      3  C1  UNL d   1       0.471   0.381   3.380  0.00  0.00    -0.004 A 
ATOM      4  C2  UNL d   1       1.663  -0.199   3.003  0.00  0.00    -0.047 A 
ATOM      5  C3  UNL d   1       1.596  -0.440   1.611  0.00  0.00    -0.047 A 
ATOM      6  C4  UNL d   1       0.363  -0.001   1.177  0.00  0.00    -0.004 A 
ENDROOT
TORSDOF 0
ENDMDL
