MODEL 1
REMARK minimizedAffinity -3.95043516
REMARK minimizedRMSD -1
REMARK  0 active torsions:
REMARK  status: ('A' for Active; 'I' for Inactive)
ROOT
ATOM      1  C   UNL d   1       0.332  -0.568  -1.117  0.00  0.00     0.172 C 
ATOM      2  N   UNL d   1      -0.252   0.083   0.032  0.00  0.00    -0.070 N 
ATOM      3  C1  UNL d   1       0.427   0.489   1.150  0.00  0.00    -0.004 A 
ATOM      4  C2  UNL d   1      -0.483   1.063   2.011  0.00  0.00    -0.047 A 
ATOM      5  C3  UNL d   1      -1.753   0.999   1.390  0.00  0.00    -0.047 A 
ATOM      6  C4  UNL d   1      -1.581   0.388   0.166  0.00  0.00    -0.004 A 
ENDROOT
TORSDOF 0
ENDMDL
