MODEL 1
REMARK minimizedAffinity -2.71705961
REMARK minimizedRMSD -1
REMARK  0 active torsions:
REMARK  status: ('A' for Active; 'I' for Inactive)
ROOT
ATOM      1  C   UNL d   1      -0.169   1.509   2.623  0.00  0.00     0.172 C 
ATOM      2  N   UNL d   1       0.329   0.660   1.566  0.00  0.00    -0.070 N 
ATOM      3  C1  UNL d   1      -0.356   0.309   0.434  0.00  0.00    -0.004 A 
ATOM      4  C2  UNL d   1       0.461  -0.506  -0.319  0.00  0.00    -0.047 A 
ATOM      5  C3  UNL d   1       1.680  -0.651   0.386  0.00  0.00    -0.047 A 
ATOM      6  C4  UNL d   1       1.571   0.082   1.549  0.00  0.00    -0.004 A 
ENDROOT
TORSDOF 0
ENDMDL
