MODEL 1
REMARK minimizedAffinity -3.60802531
REMARK minimizedRMSD -1
REMARK  0 active torsions:
REMARK  status: ('A' for Active; 'I' for Inactive)
ROOT
ATOM      1  C   UNL d   1       2.310  -0.343   2.654  0.00  0.00     0.172 C 
ATOM      2  N   UNL d   1       1.003   0.230   2.432  0.00  0.00    -0.070 N 
ATOM      3  C1  UNL d   1       0.117   0.601   3.408  0.00  0.00    -0.004 A 
ATOM      4  C2  UNL d   1      -1.007   1.102   2.789  0.00  0.00    -0.047 A 
ATOM      5  C3  UNL d   1      -0.791   1.029   1.393  0.00  0.00    -0.047 A 
ATOM      6  C4  UNL d   1       0.462   0.485   1.200  0.00  0.00    -0.004 A 
ENDROOT
TORSDOF 0
ENDMDL
