MODEL 1
REMARK minimizedAffinity -3.92275071
REMARK minimizedRMSD -1
REMARK  0 active torsions:
REMARK  status: ('A' for Active; 'I' for Inactive)
ROOT
ATOM      1  C   UNL d   1      -1.571  -0.223   0.054  0.00  0.00     0.172 C 
ATOM      2  N   UNL d   1      -0.652   0.210   1.080  0.00  0.00    -0.070 N 
ATOM      3  C1  UNL d   1       0.657  -0.174   1.193  0.00  0.00    -0.004 A 
ATOM      4  C2  UNL d   1       1.189   0.456   2.298  0.00  0.00    -0.047 A 
ATOM      5  C3  UNL d   1       0.162   1.245   2.869  0.00  0.00    -0.047 A 
ATOM      6  C4  UNL d   1      -0.966   1.074   2.096  0.00  0.00    -0.004 A 
ENDROOT
TORSDOF 0
ENDMDL
