MODEL 1
REMARK minimizedAffinity -2.54930973
REMARK minimizedRMSD -1
REMARK  0 active torsions:
REMARK  status: ('A' for Active; 'I' for Inactive)
ROOT
ATOM      1  C   UNL d   1      -1.374  -0.695   0.295  0.00  0.00     0.172 C 
ATOM      2  N   UNL d   1      -0.785   0.281   1.181  0.00  0.00    -0.070 N 
ATOM      3  C1  UNL d   1      -1.337   0.732   2.351  0.00  0.00    -0.004 A 
ATOM      4  C2  UNL d   1      -0.470   1.652   2.899  0.00  0.00    -0.047 A 
ATOM      5  C3  UNL d   1       0.641   1.759   2.028  0.00  0.00    -0.047 A 
ATOM      6  C4  UNL d   1       0.419   0.899   0.973  0.00  0.00    -0.004 A 
ENDROOT
TORSDOF 0
ENDMDL
