MODEL 1
REMARK minimizedAffinity -3.21986961
REMARK minimizedRMSD -1
REMARK  0 active torsions:
REMARK  status: ('A' for Active; 'I' for Inactive)
ROOT
ATOM      1  C   UNL d   1       0.103  -1.169  -0.533  0.00  0.00     0.172 C 
ATOM      2  N   UNL d   1      -0.267  -0.205   0.476  0.00  0.00    -0.070 N 
ATOM      3  C1  UNL d   1       0.276   1.043   0.626  0.00  0.00    -0.004 A 
ATOM      4  C2  UNL d   1      -0.345   1.647   1.698  0.00  0.00    -0.047 A 
ATOM      5  C3  UNL d   1      -1.292   0.730   2.211  0.00  0.00    -0.047 A 
ATOM      6  C4  UNL d   1      -1.223  -0.408   1.436  0.00  0.00    -0.004 A 
ENDROOT
TORSDOF 0
ENDMDL
