MODEL 1
REMARK minimizedAffinity -3.07884455
REMARK minimizedRMSD -1
REMARK  0 active torsions:
REMARK  status: ('A' for Active; 'I' for Inactive)
ROOT
ATOM      1  C   UNL d   1       0.257  -0.839  -1.984  0.00  0.00     0.172 C 
ATOM      2  N   UNL d   1       0.371  -0.051  -3.189  0.00  0.00    -0.070 N 
ATOM      3  C1  UNL d   1      -0.227  -0.335  -4.388  0.00  0.00    -0.004 A 
ATOM      4  C2  UNL d   1       0.126   0.654  -5.280  0.00  0.00    -0.047 A 
ATOM      5  C3  UNL d   1       0.967   1.563  -4.595  0.00  0.00    -0.047 A 
ATOM      6  C4  UNL d   1       1.101   1.102  -3.302  0.00  0.00    -0.004 A 
ENDROOT
TORSDOF 0
ENDMDL
