MODEL 1
REMARK minimizedAffinity -3.90603161
REMARK minimizedRMSD -1
REMARK  0 active torsions:
REMARK  status: ('A' for Active; 'I' for Inactive)
ROOT
ATOM      1  C   UNL d   1       0.619  -1.148  -0.697  0.00  0.00     0.172 C 
ATOM      2  N   UNL d   1       0.093  -0.450   0.452  0.00  0.00    -0.070 N 
ATOM      3  C1  UNL d   1      -1.225  -0.145   0.666  0.00  0.00    -0.004 A 
ATOM      4  C2  UNL d   1      -1.314   0.520   1.870  0.00  0.00    -0.047 A 
ATOM      5  C3  UNL d   1      -0.005   0.619   2.397  0.00  0.00    -0.047 A 
ATOM      6  C4  UNL d   1       0.846   0.011   1.499  0.00  0.00    -0.004 A 
ENDROOT
TORSDOF 0
ENDMDL
