MODEL 1
REMARK minimizedAffinity -2.88868332
REMARK minimizedRMSD -1
REMARK  0 active torsions:
REMARK  status: ('A' for Active; 'I' for Inactive)
ROOT
ATOM      1  C   UNL d   1      -1.685  -1.208   0.431  0.00  0.00     0.172 C 
ATOM      2  N   UNL d   1      -0.391  -0.691   0.810  0.00  0.00    -0.070 N 
ATOM      3  C1  UNL d   1      -0.126   0.600   1.183  0.00  0.00    -0.004 A 
ATOM      4  C2  UNL d   1       1.220   0.689   1.466  0.00  0.00    -0.047 A 
ATOM      5  C3  UNL d   1       1.783  -0.593   1.256  0.00  0.00    -0.047 A 
ATOM      6  C4  UNL d   1       0.763  -1.427   0.851  0.00  0.00    -0.004 A 
ENDROOT
TORSDOF 0
ENDMDL
