MODEL 1
REMARK minimizedAffinity -3.1094439
REMARK minimizedRMSD -1
REMARK  0 active torsions:
REMARK  status: ('A' for Active; 'I' for Inactive)
ROOT
ATOM      1  C   UNL d   1      -0.973  -0.260   2.139  0.00  0.00     0.020 A 
ATOM      2  C1  UNL d   1      -0.848   1.129   2.105  0.00  0.00     0.020 A 
ATOM      3  C2  UNL d   1      -0.214   1.747   1.025  0.00  0.00     0.034 A 
ATOM      4  C3  UNL d   1       0.297   0.976  -0.026  0.00  0.00     0.017 A 
ATOM      5  C4  UNL d   1       0.171  -0.417   0.009  0.00  0.00     0.017 A 
ATOM      6  C5  UNL d   1      -0.465  -1.031   1.093  0.00  0.00     0.034 A 
ATOM      7 Cl   UNL d   1       0.776  -1.434  -1.251  0.00  0.00    -0.070 Cl
ATOM      8 Cl1  UNL d   1       1.067   1.807  -1.330  0.00  0.00    -0.070 Cl
ENDROOT
TORSDOF 0
ENDMDL
