MODEL 1
REMARK minimizedAffinity -4.43406773
REMARK minimizedRMSD -1
REMARK  0 active torsions:
REMARK  status: ('A' for Active; 'I' for Inactive)
ROOT
ATOM      1  C   UNL d   1      -1.750   2.509   1.420  0.00  0.00     0.020 A 
ATOM      2  C1  UNL d   1      -1.120   2.923   0.247  0.00  0.00     0.020 A 
ATOM      3  C2  UNL d   1      -0.207   2.080  -0.390  0.00  0.00     0.034 A 
ATOM      4  C3  UNL d   1       0.079   0.819   0.146  0.00  0.00     0.017 A 
ATOM      5  C4  UNL d   1      -0.554   0.405   1.324  0.00  0.00     0.017 A 
ATOM      6  C5  UNL d   1      -1.467   1.253   1.957  0.00  0.00     0.034 A 
ATOM      7 Cl   UNL d   1      -0.252  -1.137   2.045  0.00  0.00    -0.070 Cl
ATOM      8 Cl1  UNL d   1       1.218  -0.172  -0.694  0.00  0.00    -0.070 Cl
ENDROOT
TORSDOF 0
ENDMDL
