MODEL 1
REMARK minimizedAffinity -5.1444273
REMARK minimizedRMSD -1
REMARK  0 active torsions:
REMARK  status: ('A' for Active; 'I' for Inactive)
ROOT
ATOM      1  C   UNL d   1      -1.954   1.909   1.978  0.00  0.00     0.020 A 
ATOM      2  C1  UNL d   1      -1.562   0.578   2.120  0.00  0.00     0.020 A 
ATOM      3  C2  UNL d   1      -0.582   0.046   1.280  0.00  0.00     0.034 A 
ATOM      4  C3  UNL d   1       0.010   0.845   0.295  0.00  0.00     0.017 A 
ATOM      5  C4  UNL d   1      -0.384   2.180   0.153  0.00  0.00     0.017 A 
ATOM      6  C5  UNL d   1      -1.366   2.708   0.997  0.00  0.00     0.034 A 
ATOM      7 Cl   UNL d   1       0.301   3.227  -1.039  0.00  0.00    -0.070 Cl
ATOM      8 Cl1  UNL d   1       1.217   0.121  -0.708  0.00  0.00    -0.070 Cl
ENDROOT
TORSDOF 0
ENDMDL
