MODEL 1
REMARK minimizedAffinity -5.85611725
REMARK minimizedRMSD -1
REMARK  0 active torsions:
REMARK  status: ('A' for Active; 'I' for Inactive)
ROOT
ATOM      1  C   UNL d   1      -1.169   3.653  -0.006  0.00  0.00     0.020 A 
ATOM      2  C1  UNL d   1      -1.836   3.106   1.090  0.00  0.00     0.020 A 
ATOM      3  C2  UNL d   1      -1.519   1.819   1.530  0.00  0.00     0.034 A 
ATOM      4  C3  UNL d   1      -0.532   1.075   0.873  0.00  0.00     0.017 A 
ATOM      5  C4  UNL d   1       0.137   1.624  -0.227  0.00  0.00     0.017 A 
ATOM      6  C5  UNL d   1      -0.185   2.913  -0.663  0.00  0.00     0.034 A 
ATOM      7 Cl   UNL d   1       1.365   0.766  -1.088  0.00  0.00    -0.070 Cl
ATOM      8 Cl1  UNL d   1      -0.191  -0.510   1.471  0.00  0.00    -0.070 Cl
ENDROOT
TORSDOF 0
ENDMDL
