MODEL 1
REMARK minimizedAffinity -4.29367399
REMARK minimizedRMSD -1
REMARK  0 active torsions:
REMARK  status: ('A' for Active; 'I' for Inactive)
ROOT
ATOM      1  C   UNL d   1      -0.924   3.089  -0.246  0.00  0.00     0.020 A 
ATOM      2  C1  UNL d   1      -1.539   2.903   0.992  0.00  0.00     0.020 A 
ATOM      3  C2  UNL d   1      -1.333   1.718   1.702  0.00  0.00     0.034 A 
ATOM      4  C3  UNL d   1      -0.510   0.715   1.175  0.00  0.00     0.017 A 
ATOM      5  C4  UNL d   1       0.106   0.904  -0.067  0.00  0.00     0.017 A 
ATOM      6  C5  UNL d   1      -0.103   2.092  -0.774  0.00  0.00     0.034 A 
ATOM      7 Cl   UNL d   1       1.135  -0.287  -0.782  0.00  0.00    -0.070 Cl
ATOM      8 Cl1  UNL d   1      -0.300  -0.724   2.108  0.00  0.00    -0.070 Cl
ENDROOT
TORSDOF 0
ENDMDL
