MODEL 1
REMARK minimizedAffinity -4.94877291
REMARK minimizedRMSD -1
REMARK  0 active torsions:
REMARK  status: ('A' for Active; 'I' for Inactive)
ROOT
ATOM      1  C   UNL d   1      -1.273   2.801   1.352  0.00  0.00     0.020 A 
ATOM      2  C1  UNL d   1      -1.047   2.916  -0.019  0.00  0.00     0.020 A 
ATOM      3  C2  UNL d   1      -0.494   1.847  -0.727  0.00  0.00     0.034 A 
ATOM      4  C3  UNL d   1      -0.165   0.659  -0.065  0.00  0.00     0.017 A 
ATOM      5  C4  UNL d   1      -0.392   0.545   1.311  0.00  0.00     0.017 A 
ATOM      6  C5  UNL d   1      -0.947   1.618   2.016  0.00  0.00     0.034 A 
ATOM      7 Cl   UNL d   1      -0.013  -0.890   2.198  0.00  0.00    -0.070 Cl
ATOM      8 Cl1  UNL d   1       0.515  -0.623  -1.003  0.00  0.00    -0.070 Cl
ENDROOT
TORSDOF 0
ENDMDL
