MODEL 1
REMARK minimizedAffinity -4.06996584
REMARK minimizedRMSD -1
REMARK  0 active torsions:
REMARK  status: ('A' for Active; 'I' for Inactive)
ROOT
ATOM      1  C   UNL d   1      -1.539   2.228   1.551  0.00  0.00     0.020 A 
ATOM      2  C1  UNL d   1      -1.692   2.347   0.171  0.00  0.00     0.020 A 
ATOM      3  C2  UNL d   1      -1.005   1.485  -0.686  0.00  0.00     0.034 A 
ATOM      4  C3  UNL d   1      -0.161   0.499  -0.163  0.00  0.00     0.017 A 
ATOM      5  C4  UNL d   1      -0.007   0.379   1.223  0.00  0.00     0.017 A 
ATOM      6  C5  UNL d   1      -0.698   1.246   2.076  0.00  0.00     0.034 A 
ATOM      7 Cl   UNL d   1       1.017  -0.813   1.943  0.00  0.00    -0.070 Cl
ATOM      8 Cl1  UNL d   1       0.658  -0.533  -1.281  0.00  0.00    -0.070 Cl
ENDROOT
TORSDOF 0
ENDMDL
