MODEL 1
REMARK minimizedAffinity -3.58749866
REMARK minimizedRMSD -1
REMARK  0 active torsions:
REMARK  status: ('A' for Active; 'I' for Inactive)
ROOT
ATOM      1  C   UNL d   1       0.638  -0.761   0.399  0.00  0.00     0.020 A 
ATOM      2  C1  UNL d   1       1.200  -0.340  -0.805  0.00  0.00     0.020 A 
ATOM      3  C2  UNL d   1       1.099   0.998  -1.193  0.00  0.00     0.034 A 
ATOM      4  C3  UNL d   1       0.435   1.919  -0.376  0.00  0.00     0.017 A 
ATOM      5  C4  UNL d   1      -0.129   1.496   0.833  0.00  0.00     0.017 A 
ATOM      6  C5  UNL d   1      -0.025   0.155   1.217  0.00  0.00     0.034 A 
ATOM      7 Cl   UNL d   1      -0.964   2.574   1.895  0.00  0.00    -0.070 Cl
ATOM      8 Cl1  UNL d   1       0.348   3.557  -0.918  0.00  0.00    -0.070 Cl
ENDROOT
TORSDOF 0
ENDMDL
