MODEL 1
REMARK minimizedAffinity -1.46002591
REMARK minimizedRMSD -1
REMARK  0 active torsions:
REMARK  status: ('A' for Active; 'I' for Inactive)
ROOT
ATOM      1  C   UNL d   1       0.189  -0.938   1.028  0.00  0.00     0.020 A 
ATOM      2  C1  UNL d   1       0.256  -0.855  -0.362  0.00  0.00     0.020 A 
ATOM      3  C2  UNL d   1      -0.119   0.324  -1.010  0.00  0.00     0.034 A 
ATOM      4  C3  UNL d   1      -0.562   1.425  -0.267  0.00  0.00     0.017 A 
ATOM      5  C4  UNL d   1      -0.629   1.340   1.128  0.00  0.00     0.017 A 
ATOM      6  C5  UNL d   1      -0.253   0.157   1.771  0.00  0.00     0.034 A 
ATOM      7 Cl   UNL d   1      -1.166   2.656   2.112  0.00  0.00    -0.070 Cl
ATOM      8 Cl1  UNL d   1      -1.009   2.851  -1.134  0.00  0.00    -0.070 Cl
ENDROOT
TORSDOF 0
ENDMDL
