MODEL 1
REMARK minimizedAffinity -4.07443142
REMARK minimizedRMSD -1
REMARK  0 active torsions:
REMARK  status: ('A' for Active; 'I' for Inactive)
ROOT
ATOM      1  C   UNL d   1      -1.785   2.162   0.323  0.00  0.00     0.020 A 
ATOM      2  C1  UNL d   1      -1.778   2.106   1.716  0.00  0.00     0.020 A 
ATOM      3  C2  UNL d   1      -1.058   1.104   2.371  0.00  0.00     0.034 A 
ATOM      4  C3  UNL d   1      -0.343   0.154   1.632  0.00  0.00     0.017 A 
ATOM      5  C4  UNL d   1      -0.351   0.212   0.234  0.00  0.00     0.017 A 
ATOM      6  C5  UNL d   1      -1.073   1.217  -0.416  0.00  0.00     0.034 A 
ATOM      7 Cl   UNL d   1       0.507  -0.925  -0.746  0.00  0.00    -0.070 Cl
ATOM      8 Cl1  UNL d   1       0.525  -1.057   2.507  0.00  0.00    -0.070 Cl
ENDROOT
TORSDOF 0
ENDMDL
