MODEL 1
REMARK minimizedAffinity -4.92800093
REMARK minimizedRMSD -1
REMARK  0 active torsions:
REMARK  status: ('A' for Active; 'I' for Inactive)
ROOT
ATOM      1  C   UNL d   1      -1.791   1.422   1.881  0.00  0.00     0.020 A 
ATOM      2  C1  UNL d   1      -1.721   2.745   1.448  0.00  0.00     0.020 A 
ATOM      3  C2  UNL d   1      -0.878   3.090   0.390  0.00  0.00     0.034 A 
ATOM      4  C3  UNL d   1      -0.101   2.110  -0.240  0.00  0.00     0.017 A 
ATOM      5  C4  UNL d   1      -0.173   0.782   0.195  0.00  0.00     0.017 A 
ATOM      6  C5  UNL d   1      -1.019   0.442   1.255  0.00  0.00     0.034 A 
ATOM      7 Cl   UNL d   1       0.755  -0.483  -0.532  0.00  0.00    -0.070 Cl
ATOM      8 Cl1  UNL d   1       0.919   2.608  -1.543  0.00  0.00    -0.070 Cl
ENDROOT
TORSDOF 0
ENDMDL
