MODEL 1
REMARK minimizedAffinity -4.99203396
REMARK minimizedRMSD -1
REMARK  0 active torsions:
REMARK  status: ('A' for Active; 'I' for Inactive)
ROOT
ATOM      1  C   UNL d   1      -2.132   1.846   1.633  0.00  0.00     0.020 A 
ATOM      2  C1  UNL d   1      -2.044   0.469   1.835  0.00  0.00     0.020 A 
ATOM      3  C2  UNL d   1      -1.142  -0.290   1.086  0.00  0.00     0.034 A 
ATOM      4  C3  UNL d   1      -0.325   0.327   0.132  0.00  0.00     0.017 A 
ATOM      5  C4  UNL d   1      -0.414   1.709  -0.070  0.00  0.00     0.017 A 
ATOM      6  C5  UNL d   1      -1.319   2.464   0.683  0.00  0.00     0.034 A 
ATOM      7 Cl   UNL d   1       0.562   2.541  -1.229  0.00  0.00    -0.070 Cl
ATOM      8 Cl1  UNL d   1       0.768  -0.673  -0.758  0.00  0.00    -0.070 Cl
ENDROOT
TORSDOF 0
ENDMDL
