MODEL 1
REMARK minimizedAffinity -4.84086514
REMARK minimizedRMSD -1
REMARK  0 active torsions:
REMARK  status: ('A' for Active; 'I' for Inactive)
ROOT
ATOM      1  C   UNL d   1       0.215  -0.335   1.580  0.00  0.00     0.020 A 
ATOM      2  C1  UNL d   1       0.926  -0.359   0.381  0.00  0.00     0.020 A 
ATOM      3  C2  UNL d   1       0.684   0.611  -0.594  0.00  0.00     0.034 A 
ATOM      4  C3  UNL d   1      -0.271   1.609  -0.371  0.00  0.00     0.017 A 
ATOM      5  C4  UNL d   1      -0.985   1.632   0.832  0.00  0.00     0.017 A 
ATOM      6  C5  UNL d   1      -0.738   0.658   1.805  0.00  0.00     0.034 A 
ATOM      7 Cl   UNL d   1      -2.179   2.832   1.179  0.00  0.00    -0.070 Cl
ATOM      8 Cl1  UNL d   1      -0.519   2.777  -1.621  0.00  0.00    -0.070 Cl
ENDROOT
TORSDOF 0
ENDMDL
