MODEL 1
REMARK minimizedAffinity -4.79107571
REMARK minimizedRMSD -1
REMARK  0 active torsions:
REMARK  status: ('A' for Active; 'I' for Inactive)
ROOT
ATOM      1  C   UNL d   1      -1.052   0.094   1.803  0.00  0.00     0.020 A 
ATOM      2  C1  UNL d   1      -1.729   1.307   1.683  0.00  0.00     0.020 A 
ATOM      3  C2  UNL d   1      -1.331   2.236   0.719  0.00  0.00     0.034 A 
ATOM      4  C3  UNL d   1      -0.254   1.954  -0.128  0.00  0.00     0.017 A 
ATOM      5  C4  UNL d   1       0.425   0.736  -0.007  0.00  0.00     0.017 A 
ATOM      6  C5  UNL d   1       0.023  -0.191   0.960  0.00  0.00     0.034 A 
ATOM      7 Cl   UNL d   1       1.763   0.316  -1.017  0.00  0.00    -0.070 Cl
ATOM      8 Cl1  UNL d   1       0.183   3.148  -1.298  0.00  0.00    -0.070 Cl
ENDROOT
TORSDOF 0
ENDMDL
