MODEL 1
REMARK minimizedAffinity -2.81104875
REMARK minimizedRMSD -1
REMARK  0 active torsions:
REMARK  status: ('A' for Active; 'I' for Inactive)
ROOT
ATOM      1  C   UNL d   1      -1.834   0.576   1.619  0.00  0.00     0.020 A 
ATOM      2  C1  UNL d   1      -1.739   1.932   1.312  0.00  0.00     0.020 A 
ATOM      3  C2  UNL d   1      -0.825   2.368   0.350  0.00  0.00     0.034 A 
ATOM      4  C3  UNL d   1      -0.004   1.446  -0.309  0.00  0.00     0.017 A 
ATOM      5  C4  UNL d   1      -0.101   0.084  -0.001  0.00  0.00     0.017 A 
ATOM      6  C5  UNL d   1      -1.017  -0.346   0.963  0.00  0.00     0.034 A 
ATOM      7 Cl   UNL d   1       0.879  -1.113  -0.772  0.00  0.00    -0.070 Cl
ATOM      8 Cl1  UNL d   1       1.103   2.055  -1.489  0.00  0.00    -0.070 Cl
ENDROOT
TORSDOF 0
ENDMDL
