MODEL 1
REMARK minimizedAffinity -2.69650888
REMARK minimizedRMSD -1
REMARK  0 active torsions:
REMARK  status: ('A' for Active; 'I' for Inactive)
ROOT
ATOM      1  C   UNL d   1       0.102  -1.515   1.023  0.00  0.00     0.020 A 
ATOM      2  C1  UNL d   1       0.636  -1.415  -0.261  0.00  0.00     0.020 A 
ATOM      3  C2  UNL d   1       0.676  -0.177  -0.907  0.00  0.00     0.034 A 
ATOM      4  C3  UNL d   1       0.182   0.966  -0.268  0.00  0.00     0.017 A 
ATOM      5  C4  UNL d   1      -0.353   0.865   1.021  0.00  0.00     0.017 A 
ATOM      6  C5  UNL d   1      -0.391  -0.377   1.663  0.00  0.00     0.034 A 
ATOM      7 Cl   UNL d   1      -0.981   2.231   1.874  0.00  0.00    -0.070 Cl
ATOM      8 Cl1  UNL d   1       0.265   2.464  -1.125  0.00  0.00    -0.070 Cl
ENDROOT
TORSDOF 0
ENDMDL
