MODEL 1
REMARK minimizedAffinity -1.6305629
REMARK minimizedRMSD -1
REMARK  0 active torsions:
REMARK  status: ('A' for Active; 'I' for Inactive)
ROOT
ATOM      1  C1  DEN d   1      -2.096   0.150  -0.276  0.00  0.00     0.130 A 
ATOM      2  C2  DEN d   1      -2.418   0.645   1.059  0.00  0.00    -0.031 A 
ATOM      3  C3  DEN d   1      -1.216   0.496   1.904  0.00  0.00     0.027 A 
ATOM      4  C4  DEN d   1       1.102  -0.444   1.276  0.00  0.00     0.027 A 
ATOM      5  C5  DEN d   1       1.851  -0.999   0.262  0.00  0.00    -0.003 A 
ATOM      6  C6  DEN d   1       1.332  -1.238  -0.983  0.00  0.00     0.001 A 
ATOM      7  C7  DEN d   1       0.038  -0.881  -1.259  0.00  0.00     0.017 A 
ATOM      8  C8  DEN d   1      -0.726  -0.329  -0.239  0.00  0.00    -0.094 A 
ATOM      9  C9  DEN d   1      -0.179  -0.083   1.009  0.00  0.00    -0.072 A 
ENDROOT
TORSDOF 0
ENDMDL
