MODEL 1
REMARK minimizedAffinity -4.1002841
REMARK minimizedRMSD -1
REMARK  0 active torsions:
REMARK  status: ('A' for Active; 'I' for Inactive)
ROOT
ATOM      1  C1  DEN d   1       1.270   0.300  -2.042  0.00  0.00     0.130 A 
ATOM      2  C2  DEN d   1       0.918  -0.312  -3.321  0.00  0.00    -0.031 A 
ATOM      3  C3  DEN d   1      -0.450  -0.855  -3.206  0.00  0.00     0.027 A 
ATOM      4  C4  DEN d   1      -2.053  -0.802  -1.186  0.00  0.00     0.027 A 
ATOM      5  C5  DEN d   1      -2.195  -0.400   0.124  0.00  0.00    -0.003 A 
ATOM      6  C6  DEN d   1      -1.188   0.227   0.809  0.00  0.00     0.001 A 
ATOM      7  C7  DEN d   1      -0.009   0.512   0.172  0.00  0.00     0.017 A 
ATOM      8  C8  DEN d   1       0.144   0.104  -1.147  0.00  0.00    -0.094 A 
ATOM      9  C9  DEN d   1      -0.890  -0.518  -1.826  0.00  0.00    -0.072 A 
ENDROOT
TORSDOF 0
ENDMDL
