MODEL 1
REMARK minimizedAffinity -3.18524718
REMARK minimizedRMSD -1
REMARK  0 active torsions:
REMARK  status: ('A' for Active; 'I' for Inactive)
ROOT
ATOM      1  C1  DEN d   1       1.398  -1.061  -0.080  0.00  0.00     0.130 A 
ATOM      2  C2  DEN d   1       2.330  -1.281   1.022  0.00  0.00    -0.031 A 
ATOM      3  C3  DEN d   1       1.640  -0.935   2.280  0.00  0.00     0.027 A 
ATOM      4  C4  DEN d   1      -0.772  -0.088   2.627  0.00  0.00     0.027 A 
ATOM      5  C5  DEN d   1      -1.940   0.265   1.989  0.00  0.00    -0.003 A 
ATOM      6  C6  DEN d   1      -2.066   0.234   0.625  0.00  0.00     0.001 A 
ATOM      7  C7  DEN d   1      -1.019  -0.203  -0.143  0.00  0.00     0.017 A 
ATOM      8  C8  DEN d   1       0.165  -0.553   0.493  0.00  0.00    -0.094 A 
ATOM      9  C9  DEN d   1       0.268  -0.526   1.873  0.00  0.00    -0.072 A 
ENDROOT
TORSDOF 0
ENDMDL
