MODEL 1
REMARK minimizedAffinity -1.91149151
REMARK minimizedRMSD -1
REMARK  0 active torsions:
REMARK  status: ('A' for Active; 'I' for Inactive)
ROOT
ATOM      1  C1  DEN d   1      -1.843   0.700   0.403  0.00  0.00     0.130 A 
ATOM      2  C2  DEN d   1      -1.996   1.027   1.818  0.00  0.00    -0.031 A 
ATOM      3  C3  DEN d   1      -0.759   0.624   2.516  0.00  0.00     0.027 A 
ATOM      4  C4  DEN d   1       1.369  -0.466   1.547  0.00  0.00     0.027 A 
ATOM      5  C5  DEN d   1       1.962  -0.945   0.400  0.00  0.00    -0.003 A 
ATOM      6  C6  DEN d   1       1.320  -0.941  -0.810  0.00  0.00     0.001 A 
ATOM      7  C7  DEN d   1       0.063  -0.406  -0.910  0.00  0.00     0.017 A 
ATOM      8  C8  DEN d   1      -0.544   0.073   0.243  0.00  0.00    -0.094 A 
ATOM      9  C9  DEN d   1       0.126   0.071   1.455  0.00  0.00    -0.072 A 
ENDROOT
TORSDOF 0
ENDMDL
