MODEL 1
REMARK minimizedAffinity 6.25647783
REMARK minimizedRMSD -1
REMARK  0 active torsions:
REMARK  status: ('A' for Active; 'I' for Inactive)
ROOT
ATOM      1  C1  DEN d   1       0.209   1.205  -5.040  0.00  0.00     0.130 A 
ATOM      2  C2  DEN d   1       1.219   0.861  -4.042  0.00  0.00    -0.031 A 
ATOM      3  C3  DEN d   1       0.959  -0.519  -3.586  0.00  0.00     0.027 A 
ATOM      4  C4  DEN d   1      -0.896  -2.151  -4.328  0.00  0.00     0.027 A 
ATOM      5  C5  DEN d   1      -1.996  -2.305  -5.143  0.00  0.00    -0.003 A 
ATOM      6  C6  DEN d   1      -2.454  -1.296  -5.948  0.00  0.00     0.001 A 
ATOM      7  C7  DEN d   1      -1.783  -0.103  -5.991  0.00  0.00     0.017 A 
ATOM      8  C8  DEN d   1      -0.678   0.062  -5.167  0.00  0.00    -0.094 A 
ATOM      9  C9  DEN d   1      -0.223  -0.973  -4.368  0.00  0.00    -0.072 A 
ENDROOT
TORSDOF 0
ENDMDL
