MODEL 1
REMARK minimizedAffinity -2.19016576
REMARK minimizedRMSD -1
REMARK  0 active torsions:
REMARK  status: ('A' for Active; 'I' for Inactive)
ROOT
ATOM      1  C1  DEN d   1       1.769  -1.220   1.080  0.00  0.00     0.130 A 
ATOM      2  C2  DEN d   1       1.953  -1.198   2.528  0.00  0.00    -0.031 A 
ATOM      3  C3  DEN d   1       0.720  -0.661   3.138  0.00  0.00     0.027 A 
ATOM      4  C4  DEN d   1      -1.449   0.128   1.986  0.00  0.00     0.027 A 
ATOM      5  C5  DEN d   1      -2.073   0.309   0.771  0.00  0.00    -0.003 A 
ATOM      6  C6  DEN d   1      -1.453   0.028  -0.417  0.00  0.00     0.001 A 
ATOM      7  C7  DEN d   1      -0.186  -0.493  -0.416  0.00  0.00     0.017 A 
ATOM      8  C8  DEN d   1       0.453  -0.672   0.805  0.00  0.00    -0.094 A 
ATOM      9  C9  DEN d   1      -0.196  -0.393   1.996  0.00  0.00    -0.072 A 
ENDROOT
TORSDOF 0
ENDMDL
