MODEL 1
REMARK minimizedAffinity -3.16092658
REMARK minimizedRMSD -1
REMARK  0 active torsions:
REMARK  status: ('A' for Active; 'I' for Inactive)
ROOT
ATOM      1  C1  DEN d   1       0.338  -0.706  -0.323  0.00  0.00     0.130 A 
ATOM      2  C2  DEN d   1      -0.947  -0.484  -0.981  0.00  0.00    -0.031 A 
ATOM      3  C3  DEN d   1      -1.878   0.081   0.016  0.00  0.00     0.027 A 
ATOM      4  C4  DEN d   1      -1.457   0.635   2.499  0.00  0.00     0.027 A 
ATOM      5  C5  DEN d   1      -0.524   0.609   3.513  0.00  0.00    -0.003 A 
ATOM      6  C6  DEN d   1       0.740   0.115   3.329  0.00  0.00     0.001 A 
ATOM      7  C7  DEN d   1       1.121  -0.332   2.091  0.00  0.00     0.017 A 
ATOM      8  C8  DEN d   1       0.184  -0.315   1.066  0.00  0.00    -0.094 A 
ATOM      9  C9  DEN d   1      -1.085   0.199   1.269  0.00  0.00    -0.072 A 
ENDROOT
TORSDOF 0
ENDMDL
