MODEL 1
REMARK minimizedAffinity 4.14847946
REMARK minimizedRMSD -1
REMARK  0 active torsions:
REMARK  status: ('A' for Active; 'I' for Inactive)
ROOT
ATOM      1  C1  DEN d   1      -0.205   0.919   2.169  0.00  0.00     0.130 A 
ATOM      2  C2  DEN d   1      -1.290   0.476   3.040  0.00  0.00    -0.031 A 
ATOM      3  C3  DEN d   1      -2.201  -0.368   2.241  0.00  0.00     0.027 A 
ATOM      4  C4  DEN d   1      -2.035  -1.034  -0.245  0.00  0.00     0.027 A 
ATOM      5  C5  DEN d   1      -1.295  -0.892  -1.398  0.00  0.00    -0.003 A 
ATOM      6  C6  DEN d   1      -0.168  -0.115  -1.452  0.00  0.00     0.001 A 
ATOM      7  C7  DEN d   1       0.277   0.514  -0.319  0.00  0.00     0.017 A 
ATOM      8  C8  DEN d   1      -0.467   0.381   0.846  0.00  0.00    -0.094 A 
ATOM      9  C9  DEN d   1      -1.597  -0.419   0.883  0.00  0.00    -0.072 A 
ENDROOT
TORSDOF 0
ENDMDL
