MODEL 1
REMARK minimizedAffinity -3.68991446
REMARK minimizedRMSD -1
REMARK  0 active torsions:
REMARK  status: ('A' for Active; 'I' for Inactive)
ROOT
ATOM      1  C1  DEN d   1      -0.178  -0.476  -0.734  0.00  0.00     0.130 A 
ATOM      2  C2  DEN d   1       1.160  -1.042  -0.879  0.00  0.00    -0.031 A 
ATOM      3  C3  DEN d   1       1.772  -1.117   0.463  0.00  0.00     0.027 A 
ATOM      4  C4  DEN d   1       0.780  -0.421   2.740  0.00  0.00     0.027 A 
ATOM      5  C5  DEN d   1      -0.320   0.122   3.366  0.00  0.00    -0.003 A 
ATOM      6  C6  DEN d   1      -1.427   0.532   2.672  0.00  0.00     0.001 A 
ATOM      7  C7  DEN d   1      -1.477   0.363   1.313  0.00  0.00     0.017 A 
ATOM      8  C8  DEN d   1      -0.369  -0.177   0.674  0.00  0.00    -0.094 A 
ATOM      9  C9  DEN d   1       0.736  -0.596   1.395  0.00  0.00    -0.072 A 
ENDROOT
TORSDOF 0
ENDMDL
