MODEL 1
REMARK minimizedAffinity -4.28785658
REMARK minimizedRMSD -1
REMARK  0 active torsions:
REMARK  status: ('A' for Active; 'I' for Inactive)
ROOT
ATOM      1  C1  DEN d   1       0.141   0.292   3.756  0.00  0.00     0.130 A 
ATOM      2  C2  DEN d   1       1.519  -0.168   3.605  0.00  0.00    -0.031 A 
ATOM      3  C3  DEN d   1       1.744  -0.478   2.179  0.00  0.00     0.027 A 
ATOM      4  C4  DEN d   1       0.102  -0.286   0.199  0.00  0.00     0.027 A 
ATOM      5  C5  DEN d   1      -1.184   0.047  -0.165  0.00  0.00    -0.003 A 
ATOM      6  C6  DEN d   1      -2.120   0.449   0.750  0.00  0.00     0.001 A 
ATOM      7  C7  DEN d   1      -1.772   0.572   2.069  0.00  0.00     0.017 A 
ATOM      8  C8  DEN d   1      -0.479   0.231   2.444  0.00  0.00    -0.094 A 
ATOM      9  C9  DEN d   1       0.457  -0.162   1.503  0.00  0.00    -0.072 A 
ENDROOT
TORSDOF 0
ENDMDL
