MODEL 1
REMARK minimizedAffinity -3.56432605
REMARK minimizedRMSD -1
REMARK  0 active torsions:
REMARK  status: ('A' for Active; 'I' for Inactive)
ROOT
ATOM      1  C1  DEN d   1      -0.044   0.113   3.838  0.00  0.00     0.130 A 
ATOM      2  C2  DEN d   1       1.301  -0.455   3.838  0.00  0.00    -0.031 A 
ATOM      3  C3  DEN d   1       1.701  -0.680   2.435  0.00  0.00     0.027 A 
ATOM      4  C4  DEN d   1       0.378  -0.204   0.273  0.00  0.00     0.027 A 
ATOM      5  C5  DEN d   1      -0.814   0.267  -0.233  0.00  0.00    -0.003 A 
ATOM      6  C6  DEN d   1      -1.837   0.684   0.576  0.00  0.00     0.001 A 
ATOM      7  C7  DEN d   1      -1.671   0.681   1.936  0.00  0.00     0.017 A 
ATOM      8  C8  DEN d   1      -0.475   0.201   2.454  0.00  0.00    -0.094 A 
ATOM      9  C9  DEN d   1       0.552  -0.205   1.619  0.00  0.00    -0.072 A 
ENDROOT
TORSDOF 0
ENDMDL
