MODEL 1
REMARK minimizedAffinity -1.00337803
REMARK minimizedRMSD -1
REMARK  0 active torsions:
REMARK  status: ('A' for Active; 'I' for Inactive)
ROOT
ATOM      1  C   UNL d   1      -1.742   0.663   1.648  0.00  0.00    -0.002 A 
ATOM      2  C1  UNL d   1      -1.006   1.793   1.321  0.00  0.00     0.010 A 
ATOM      3  C2  UNL d   1      -0.029   1.741   0.325  0.00  0.00     0.041 A 
ATOM      4  C3  UNL d   1       0.197   0.523  -0.345  0.00  0.00    -0.075 A 
ATOM      5  S   UNL d   1       1.341   0.224  -1.600  0.00  0.00     0.015 SA
ATOM      6  C4  UNL d   1       0.879  -1.411  -1.733  0.00  0.00     0.022 A 
ATOM      7  C5  UNL d   1      -0.122  -1.738  -0.849  0.00  0.00     0.026 A 
ATOM      8  C6  UNL d   1      -0.532  -0.628  -0.035  0.00  0.00    -0.082 A 
ATOM      9  C7  UNL d   1      -1.515  -0.544   0.980  0.00  0.00     0.045 A 
ENDROOT
TORSDOF 0
ENDMDL
