MODEL 1
REMARK minimizedAffinity -0.208223373
REMARK minimizedRMSD -1
REMARK  0 active torsions:
REMARK  status: ('A' for Active; 'I' for Inactive)
ROOT
ATOM      1  C   UNL d   1      -2.245   1.188   1.970  0.00  0.00    -0.002 A 
ATOM      2  C1  UNL d   1      -1.674  -0.076   2.004  0.00  0.00     0.010 A 
ATOM      3  C2  UNL d   1      -0.616  -0.402   1.153  0.00  0.00     0.041 A 
ATOM      4  C3  UNL d   1      -0.136   0.575   0.258  0.00  0.00    -0.075 A 
ATOM      5  S   UNL d   1       1.150   0.402  -0.877  0.00  0.00     0.015 SA
ATOM      6  C4  UNL d   1       0.972   2.003  -1.435  0.00  0.00     0.022 A 
ATOM      7  C5  UNL d   1      -0.039   2.667  -0.782  0.00  0.00     0.026 A 
ATOM      8  C6  UNL d   1      -0.694   1.855   0.205  0.00  0.00    -0.082 A 
ATOM      9  C7  UNL d   1      -1.766   2.155   1.081  0.00  0.00     0.045 A 
ENDROOT
TORSDOF 0
ENDMDL
