MODEL 1
REMARK minimizedAffinity -3.75098372
REMARK minimizedRMSD -1
REMARK  0 active torsions:
REMARK  status: ('A' for Active; 'I' for Inactive)
ROOT
ATOM      1  C   UNL d   1      -1.111   1.586   2.303  0.00  0.00    -0.002 A 
ATOM      2  C1  UNL d   1      -2.188   1.747   1.442  0.00  0.00     0.010 A 
ATOM      3  C2  UNL d   1      -2.229   1.069   0.222  0.00  0.00     0.041 A 
ATOM      4  C3  UNL d   1      -1.161   0.217  -0.121  0.00  0.00    -0.075 A 
ATOM      5  S   UNL d   1      -0.996  -0.715  -1.562  0.00  0.00     0.015 SA
ATOM      6  C4  UNL d   1       0.507  -1.350  -1.068  0.00  0.00     0.022 A 
ATOM      7  C5  UNL d   1       0.889  -0.872   0.163  0.00  0.00     0.026 A 
ATOM      8  C6  UNL d   1      -0.066   0.038   0.730  0.00  0.00    -0.082 A 
ATOM      9  C7  UNL d   1      -0.053   0.740   1.959  0.00  0.00     0.045 A 
ENDROOT
TORSDOF 0
ENDMDL
