MODEL 1
REMARK minimizedAffinity -2.12174749
REMARK minimizedRMSD -1
REMARK  0 active torsions:
REMARK  status: ('A' for Active; 'I' for Inactive)
ROOT
ATOM      1  C   UNL d   1      -1.829   2.666   1.501  0.00  0.00    -0.002 A 
ATOM      2  C1  UNL d   1      -2.108   2.523   0.149  0.00  0.00     0.010 A 
ATOM      3  C2  UNL d   1      -1.649   1.410  -0.557  0.00  0.00     0.041 A 
ATOM      4  C3  UNL d   1      -0.897   0.433   0.125  0.00  0.00    -0.075 A 
ATOM      5  S   UNL d   1      -0.232  -1.014  -0.535  0.00  0.00     0.015 SA
ATOM      6  C4  UNL d   1       0.439  -1.477   0.962  0.00  0.00     0.022 A 
ATOM      7  C5  UNL d   1       0.171  -0.562   1.952  0.00  0.00     0.026 A 
ATOM      8  C6  UNL d   1      -0.604   0.554   1.486  0.00  0.00    -0.082 A 
ATOM      9  C7  UNL d   1      -1.083   1.694   2.174  0.00  0.00     0.045 A 
ENDROOT
TORSDOF 0
ENDMDL
