MODEL 1
REMARK minimizedAffinity -4.21912622
REMARK minimizedRMSD -1
REMARK  0 active torsions:
REMARK  status: ('A' for Active; 'I' for Inactive)
ROOT
ATOM      1  C   UNL d   1       2.828  -4.345   0.236  0.00  0.00    -0.002 A 
ATOM      2  C1  UNL d   1       2.341  -5.476  -0.405  0.00  0.00     0.010 A 
ATOM      3  C2  UNL d   1       1.318  -5.371  -1.350  0.00  0.00     0.041 A 
ATOM      4  C3  UNL d   1       0.790  -4.099  -1.644  0.00  0.00    -0.075 A 
ATOM      5  S   UNL d   1      -0.465  -3.729  -2.767  0.00  0.00     0.015 SA
ATOM      6  C4  UNL d   1      -0.383  -2.062  -2.423  0.00  0.00     0.022 A 
ATOM      7  C5  UNL d   1       0.573  -1.776  -1.477  0.00  0.00     0.026 A 
ATOM      8  C6  UNL d   1       1.265  -2.946  -1.013  0.00  0.00    -0.082 A 
ATOM      9  C7  UNL d   1       2.302  -3.085  -0.059  0.00  0.00     0.045 A 
ENDROOT
TORSDOF 0
ENDMDL
