MODEL 1
REMARK minimizedAffinity -4.21739388
REMARK minimizedRMSD -1
REMARK  0 active torsions:
REMARK  status: ('A' for Active; 'I' for Inactive)
ROOT
ATOM      1  C   UNL d   1       0.979   1.842  -1.849  0.00  0.00    -0.002 A 
ATOM      2  C1  UNL d   1       1.455   0.571  -1.557  0.00  0.00     0.010 A 
ATOM      3  C2  UNL d   1       0.914  -0.165  -0.502  0.00  0.00     0.041 A 
ATOM      4  C3  UNL d   1      -0.126   0.402   0.261  0.00  0.00    -0.075 A 
ATOM      5  S   UNL d   1      -0.943  -0.315   1.600  0.00  0.00     0.015 SA
ATOM      6  C4  UNL d   1      -1.943   1.048   1.815  0.00  0.00     0.022 A 
ATOM      7  C5  UNL d   1      -1.674   2.035   0.897  0.00  0.00     0.026 A 
ATOM      8  C6  UNL d   1      -0.623   1.679  -0.014  0.00  0.00    -0.082 A 
ATOM      9  C7  UNL d   1      -0.052   2.400  -1.090  0.00  0.00     0.045 A 
ENDROOT
TORSDOF 0
ENDMDL
