MODEL 1
REMARK minimizedAffinity -2.08920527
REMARK minimizedRMSD -1
REMARK  0 active torsions:
REMARK  status: ('A' for Active; 'I' for Inactive)
ROOT
ATOM      1  C   UNL d   1      -1.738   1.507   1.972  0.00  0.00    -0.002 A 
ATOM      2  C1  UNL d   1      -1.704   2.424   0.930  0.00  0.00     0.010 A 
ATOM      3  C2  UNL d   1      -0.994   2.143  -0.239  0.00  0.00     0.041 A 
ATOM      4  C3  UNL d   1      -0.315   0.914  -0.347  0.00  0.00    -0.075 A 
ATOM      5  S   UNL d   1       0.617   0.354  -1.685  0.00  0.00     0.015 SA
ATOM      6  C4  UNL d   1       0.991  -1.115  -0.906  0.00  0.00     0.022 A 
ATOM      7  C5  UNL d   1       0.426  -1.193   0.345  0.00  0.00     0.026 A 
ATOM      8  C6  UNL d   1      -0.336  -0.026   0.688  0.00  0.00    -0.082 A 
ATOM      9  C7  UNL d   1      -1.063   0.288   1.862  0.00  0.00     0.045 A 
ENDROOT
TORSDOF 0
ENDMDL
