MODEL 1
REMARK minimizedAffinity -4.6662817
REMARK minimizedRMSD -1
REMARK  0 active torsions:
REMARK  status: ('A' for Active; 'I' for Inactive)
ROOT
ATOM      1  C1  DEN d   1      -0.397   1.670   1.376  0.00  0.00     0.130 A 
ATOM      2  C2  DEN d   1      -0.870   0.299   1.551  0.00  0.00    -0.031 A 
ATOM      3  C3  DEN d   1      -1.105  -0.278   0.212  0.00  0.00     0.027 A 
ATOM      4  C4  DEN d   1      -0.780   0.811  -2.103  0.00  0.00     0.027 A 
ATOM      5  C5  DEN d   1      -0.407   1.963  -2.760  0.00  0.00    -0.003 A 
ATOM      6  C6  DEN d   1      -0.041   3.100  -2.089  0.00  0.00     0.001 A 
ATOM      7  C7  DEN d   1       0.004   3.095  -0.720  0.00  0.00     0.017 A 
ATOM      8  C8  DEN d   1      -0.377   1.939  -0.051  0.00  0.00    -0.094 A 
ATOM      9  C9  DEN d   1      -0.732   0.797  -0.747  0.00  0.00    -0.072 A 
ENDROOT
TORSDOF 0
ENDMDL
