MODEL 1
REMARK minimizedAffinity -3.00632048
REMARK minimizedRMSD -1
REMARK  0 active torsions:
REMARK  status: ('A' for Active; 'I' for Inactive)
ROOT
ATOM      1  C1  DEN d   1      -0.881   0.270   1.691  0.00  0.00     0.130 A 
ATOM      2  C2  DEN d   1      -0.272  -0.590   2.703  0.00  0.00    -0.031 A 
ATOM      3  C3  DEN d   1       0.776  -1.396   2.046  0.00  0.00     0.027 A 
ATOM      4  C4  DEN d   1       1.515  -1.394  -0.426  0.00  0.00     0.027 A 
ATOM      5  C5  DEN d   1       1.282  -0.842  -1.666  0.00  0.00    -0.003 A 
ATOM      6  C6  DEN d   1       0.298   0.087  -1.880  0.00  0.00     0.001 A 
ATOM      7  C7  DEN d   1      -0.461   0.525  -0.827  0.00  0.00     0.017 A 
ATOM      8  C8  DEN d   1      -0.238  -0.032   0.425  0.00  0.00    -0.094 A 
ATOM      9  C9  DEN d   1       0.770  -0.961   0.623  0.00  0.00    -0.072 A 
ENDROOT
TORSDOF 0
ENDMDL
