MODEL 1
REMARK minimizedAffinity -4.72353411
REMARK minimizedRMSD -1
REMARK  0 active torsions:
REMARK  status: ('A' for Active; 'I' for Inactive)
ROOT
ATOM      1  C1  DEN d   1      -2.229  -0.051   1.336  0.00  0.00     0.130 A 
ATOM      2  C2  DEN d   1      -2.452   0.427  -0.025  0.00  0.00    -0.031 A 
ATOM      3  C3  DEN d   1      -1.207   0.216  -0.793  0.00  0.00     0.027 A 
ATOM      4  C4  DEN d   1       1.028  -0.804  -0.010  0.00  0.00     0.027 A 
ATOM      5  C5  DEN d   1       1.701  -1.344   1.064  0.00  0.00    -0.003 A 
ATOM      6  C6  DEN d   1       1.127  -1.458   2.303  0.00  0.00     0.001 A 
ATOM      7  C7  DEN d   1      -0.173  -1.069   2.487  0.00  0.00     0.017 A 
ATOM      8  C8  DEN d   1      -0.856  -0.517   1.410  0.00  0.00    -0.094 A 
ATOM      9  C9  DEN d   1      -0.262  -0.420   0.163  0.00  0.00    -0.072 A 
ENDROOT
TORSDOF 0
ENDMDL
