MODEL 1
REMARK minimizedAffinity -1.12691188
REMARK minimizedRMSD -1
REMARK  0 active torsions:
REMARK  status: ('A' for Active; 'I' for Inactive)
ROOT
ATOM      1  C1  DEN d   1       1.534   2.907  -1.824  0.00  0.00     0.130 A 
ATOM      2  C2  DEN d   1       0.250   3.581  -1.996  0.00  0.00    -0.031 A 
ATOM      3  C3  DEN d   1      -0.817   2.632  -1.620  0.00  0.00     0.027 A 
ATOM      4  C4  DEN d   1      -0.607   0.200  -0.787  0.00  0.00     0.027 A 
ATOM      5  C5  DEN d   1       0.279  -0.812  -0.491  0.00  0.00    -0.003 A 
ATOM      6  C6  DEN d   1       1.632  -0.669  -0.650  0.00  0.00     0.001 A 
ATOM      7  C7  DEN d   1       2.142   0.530  -1.075  0.00  0.00     0.017 A 
ATOM      8  C8  DEN d   1       1.255   1.553  -1.382  0.00  0.00    -0.094 A 
ATOM      9  C9  DEN d   1      -0.109   1.392  -1.203  0.00  0.00    -0.072 A 
ENDROOT
TORSDOF 0
ENDMDL
