MODEL 1
REMARK minimizedAffinity -5.12099504
REMARK minimizedRMSD -1
REMARK  0 active torsions:
REMARK  status: ('A' for Active; 'I' for Inactive)
ROOT
ATOM      1  C1  DEN d   1      -1.214   0.538   0.750  0.00  0.00     0.130 A 
ATOM      2  C2  DEN d   1      -1.001   0.751  -0.679  0.00  0.00    -0.031 A 
ATOM      3  C3  DEN d   1       0.279   0.115  -1.050  0.00  0.00     0.027 A 
ATOM      4  C4  DEN d   1       1.942  -1.176   0.441  0.00  0.00     0.027 A 
ATOM      5  C5  DEN d   1       2.198  -1.606   1.724  0.00  0.00    -0.003 A 
ATOM      6  C6  DEN d   1       1.360  -1.326   2.770  0.00  0.00     0.001 A 
ATOM      7  C7  DEN d   1       0.200  -0.632   2.543  0.00  0.00     0.017 A 
ATOM      8  C8  DEN d   1      -0.062  -0.188   1.254  0.00  0.00    -0.094 A 
ATOM      9  C9  DEN d   1       0.792  -0.492   0.208  0.00  0.00    -0.072 A 
ENDROOT
TORSDOF 0
ENDMDL
