MODEL 1
REMARK minimizedAffinity 0.301333457
REMARK minimizedRMSD -1
REMARK  0 active torsions:
REMARK  status: ('A' for Active; 'I' for Inactive)
ROOT
ATOM      1  C1  DEN d   1      -1.099  -0.399   2.895  0.00  0.00     0.130 A 
ATOM      2  C2  DEN d   1      -1.928  -0.583   1.707  0.00  0.00    -0.031 A 
ATOM      3  C3  DEN d   1      -1.033  -0.854   0.564  0.00  0.00     0.027 A 
ATOM      4  C4  DEN d   1       1.541  -1.009   0.519  0.00  0.00     0.027 A 
ATOM      5  C5  DEN d   1       2.684  -0.913   1.281  0.00  0.00    -0.003 A 
ATOM      6  C6  DEN d   1       2.649  -0.608   2.616  0.00  0.00     0.001 A 
ATOM      7  C7  DEN d   1       1.443  -0.433   3.241  0.00  0.00     0.017 A 
ATOM      8  C8  DEN d   1       0.286  -0.520   2.478  0.00  0.00    -0.094 A 
ATOM      9  C9  DEN d   1       0.342  -0.841   1.132  0.00  0.00    -0.072 A 
ENDROOT
TORSDOF 0
ENDMDL
