MODEL 1
REMARK minimizedAffinity -2.83731532
REMARK minimizedRMSD -1
REMARK  0 active torsions:
REMARK  status: ('A' for Active; 'I' for Inactive)
ROOT
ATOM      1  C1  DEN d   1      -1.800  -0.760   0.990  0.00  0.00     0.130 A 
ATOM      2  C2  DEN d   1      -2.728   0.177   1.618  0.00  0.00    -0.031 A 
ATOM      3  C3  DEN d   1      -2.060   0.759   2.799  0.00  0.00     0.027 A 
ATOM      4  C4  DEN d   1       0.311   0.305   3.709  0.00  0.00     0.027 A 
ATOM      5  C5  DEN d   1       1.466  -0.420   3.520  0.00  0.00    -0.003 A 
ATOM      6  C6  DEN d   1       1.600  -1.328   2.502  0.00  0.00     0.001 A 
ATOM      7  C7  DEN d   1       0.577  -1.500   1.608  0.00  0.00     0.017 A 
ATOM      8  C8  DEN d   1      -0.593  -0.777   1.796  0.00  0.00    -0.094 A 
ATOM      9  C9  DEN d   1      -0.705   0.144   2.824  0.00  0.00    -0.072 A 
ENDROOT
TORSDOF 0
ENDMDL
