MODEL 1
REMARK minimizedAffinity -1.58764279
REMARK minimizedRMSD -1
REMARK  1 active torsions:
REMARK  status: ('A' for Active; 'I' for Inactive)
REMARK    1  A    between atoms: N_2  and  C1_3 
ROOT
ATOM      1  C1  UNL d   1      -2.057   0.418  -0.877  0.00  0.00     0.143 A 
ATOM      2  C2  UNL d   1      -1.817  -0.717  -0.095  0.00  0.00    -0.057 A 
ATOM      3  C3  UNL d   1      -0.705  -0.793   0.753  0.00  0.00     0.033 A 
ATOM      4  C4  UNL d   1       0.205   0.258   0.812  0.00  0.00    -0.042 A 
ATOM      5  C5  UNL d   1      -0.001   1.385   0.025  0.00  0.00     0.033 A 
ATOM      6  C6  UNL d   1      -1.116   1.457  -0.815  0.00  0.00    -0.057 A 
ENDROOT
BRANCH   1   7
ATOM      7  N   UNL d   1      -3.090   0.513  -1.812  0.00  0.00    -0.732 N 
ATOM      8  C   UNL d   1      -2.850   0.219  -3.209  0.00  0.00     0.284 C 
ATOM      9  H3  UNL d   1      -3.971   0.149  -1.457  0.00  0.00     0.395 HD
ENDBRANCH   1   7
TORSDOF 1
ENDMDL
