MODEL 1
REMARK minimizedAffinity -2.73105311
REMARK minimizedRMSD -1
REMARK  1 active torsions:
REMARK  status: ('A' for Active; 'I' for Inactive)
REMARK    1  A    between atoms: N_2  and  C1_3 
ROOT
ATOM      1  C1  UNL d   1      -1.330  -0.036  -0.598  0.00  0.00     0.143 A 
ATOM      2  C2  UNL d   1      -1.969  -1.184  -0.117  0.00  0.00    -0.057 A 
ATOM      3  C3  UNL d   1      -2.761  -1.979  -0.954  0.00  0.00     0.033 A 
ATOM      4  C4  UNL d   1      -2.953  -1.621  -2.285  0.00  0.00    -0.042 A 
ATOM      5  C5  UNL d   1      -2.349  -0.470  -2.778  0.00  0.00     0.033 A 
ATOM      6  C6  UNL d   1      -1.553   0.315  -1.938  0.00  0.00    -0.057 A 
ENDROOT
BRANCH   1   7
ATOM      7  N   UNL d   1      -0.609   0.848   0.209  0.00  0.00    -0.732 N 
ATOM      8  C   UNL d   1       0.813   1.030   0.015  0.00  0.00     0.284 C 
ATOM      9  H3  UNL d   1      -1.118   1.711   0.390  0.00  0.00     0.395 HD
ENDBRANCH   1   7
TORSDOF 1
ENDMDL
