MODEL 1
REMARK minimizedAffinity -4.82546091
REMARK minimizedRMSD -1
REMARK  1 active torsions:
REMARK  status: ('A' for Active; 'I' for Inactive)
REMARK    1  A    between atoms: N_2  and  C1_3 
ROOT
ATOM      1  C1  UNL d   1       0.798  -0.574   0.307  0.00  0.00     0.143 A 
ATOM      2  C2  UNL d   1       2.124  -0.304  -0.045  0.00  0.00    -0.057 A 
ATOM      3  C3  UNL d   1       3.192  -0.912   0.627  0.00  0.00     0.033 A 
ATOM      4  C4  UNL d   1       2.951  -1.782   1.685  0.00  0.00    -0.042 A 
ATOM      5  C5  UNL d   1       1.641  -2.046   2.068  0.00  0.00     0.033 A 
ATOM      6  C6  UNL d   1       0.579  -1.441   1.389  0.00  0.00    -0.057 A 
ENDROOT
BRANCH   1   7
ATOM      7  N   UNL d   1      -0.304   0.073  -0.257  0.00  0.00    -0.732 N 
ATOM      8  C   UNL d   1      -1.651  -0.358   0.053  0.00  0.00     0.284 C 
ATOM      9  H3  UNL d   1      -0.188   1.083  -0.287  0.00  0.00     0.395 HD
ENDBRANCH   1   7
TORSDOF 1
ENDMDL
