MODEL 1
REMARK minimizedAffinity -3.99439216
REMARK minimizedRMSD -1
REMARK  1 active torsions:
REMARK  status: ('A' for Active; 'I' for Inactive)
REMARK    1  A    between atoms: N_2  and  C1_3 
ROOT
ATOM      1  C1  UNL d   1       0.509  -0.427   0.525  0.00  0.00     0.143 A 
ATOM      2  C2  UNL d   1       0.607  -1.666   1.168  0.00  0.00    -0.057 A 
ATOM      3  C3  UNL d   1       1.693  -1.969   1.998  0.00  0.00     0.033 A 
ATOM      4  C4  UNL d   1       2.719  -1.047   2.176  0.00  0.00    -0.042 A 
ATOM      5  C5  UNL d   1       2.655   0.181   1.527  0.00  0.00     0.033 A 
ATOM      6  C6  UNL d   1       1.565   0.481   0.705  0.00  0.00    -0.057 A 
ENDROOT
BRANCH   1   7
ATOM      7  N   UNL d   1      -0.496  -0.103  -0.389  0.00  0.00    -0.732 N 
ATOM      8  C   UNL d   1      -1.891  -0.205  -0.019  0.00  0.00     0.284 C 
ATOM      9  H3  UNL d   1      -0.271   0.725  -0.937  0.00  0.00     0.395 HD
ENDBRANCH   1   7
TORSDOF 1
ENDMDL
