MODEL 1
REMARK minimizedAffinity -4.88610649
REMARK minimizedRMSD -1
REMARK  1 active torsions:
REMARK  status: ('A' for Active; 'I' for Inactive)
REMARK    1  A    between atoms: N_2  and  C1_3 
ROOT
ATOM      1  C1  UNL d   1       0.953  -0.536   0.058  0.00  0.00     0.143 A 
ATOM      2  C2  UNL d   1       1.866   0.486   0.338  0.00  0.00    -0.057 A 
ATOM      3  C3  UNL d   1       3.012   0.246   1.105  0.00  0.00     0.033 A 
ATOM      4  C4  UNL d   1       3.250  -1.019   1.633  0.00  0.00    -0.042 A 
ATOM      5  C5  UNL d   1       2.343  -2.044   1.389  0.00  0.00     0.033 A 
ATOM      6  C6  UNL d   1       1.204  -1.799   0.616  0.00  0.00    -0.057 A 
ENDROOT
BRANCH   1   7
ATOM      7  N   UNL d   1      -0.255  -0.337  -0.616  0.00  0.00    -0.732 N 
ATOM      8  C   UNL d   1      -1.463  -0.022   0.114  0.00  0.00     0.284 C 
ATOM      9  H3  UNL d   1      -0.137   0.195  -1.475  0.00  0.00     0.395 HD
ENDBRANCH   1   7
TORSDOF 1
ENDMDL
