MODEL 1
REMARK minimizedAffinity -3.1295228
REMARK minimizedRMSD -1
REMARK  1 active torsions:
REMARK  status: ('A' for Active; 'I' for Inactive)
REMARK    1  A    between atoms: N_2  and  C1_3 
ROOT
ATOM      1  C1  UNL d   1       0.203  -0.191   0.583  0.00  0.00     0.143 A 
ATOM      2  C2  UNL d   1       1.291   0.686   0.503  0.00  0.00    -0.057 A 
ATOM      3  C3  UNL d   1       2.500   0.404   1.149  0.00  0.00     0.033 A 
ATOM      4  C4  UNL d   1       2.635  -0.750   1.913  0.00  0.00    -0.042 A 
ATOM      5  C5  UNL d   1       1.559  -1.624   2.028  0.00  0.00     0.033 A 
ATOM      6  C6  UNL d   1       0.356  -1.340   1.375  0.00  0.00    -0.057 A 
ENDROOT
BRANCH   1   7
ATOM      7  N   UNL d   1      -1.057   0.081   0.045  0.00  0.00    -0.732 N 
ATOM      8  C   UNL d   1      -1.473  -0.526  -1.201  0.00  0.00     0.284 C 
ATOM      9  H3  UNL d   1      -1.784   0.112   0.756  0.00  0.00     0.395 HD
ENDBRANCH   1   7
TORSDOF 1
ENDMDL
