MODEL 1
REMARK minimizedAffinity -3.04845667
REMARK minimizedRMSD -1
REMARK  1 active torsions:
REMARK  status: ('A' for Active; 'I' for Inactive)
REMARK    1  A    between atoms: N_2  and  C1_3 
ROOT
ATOM      1  C1  UNL d   1      -1.935  -0.010  -1.137  0.00  0.00     0.143 A 
ATOM      2  C2  UNL d   1      -2.684  -1.136  -1.495  0.00  0.00    -0.057 A 
ATOM      3  C3  UNL d   1      -3.641  -1.078  -2.515  0.00  0.00     0.033 A 
ATOM      4  C4  UNL d   1      -3.887   0.119  -3.179  0.00  0.00    -0.042 A 
ATOM      5  C5  UNL d   1      -3.172   1.258  -2.823  0.00  0.00     0.033 A 
ATOM      6  C6  UNL d   1      -2.213   1.192  -1.808  0.00  0.00    -0.057 A 
ENDROOT
BRANCH   1   7
ATOM      7  N   UNL d   1      -1.040   0.021  -0.065  0.00  0.00    -0.732 N 
ATOM      8  C   UNL d   1       0.215   0.734  -0.173  0.00  0.00     0.284 C 
ATOM      9  H3  UNL d   1      -1.509   0.139   0.830  0.00  0.00     0.395 HD
ENDBRANCH   1   7
TORSDOF 1
ENDMDL
