MODEL 1
REMARK minimizedAffinity 6.52574778
REMARK minimizedRMSD -1
REMARK  0 active torsions:
REMARK  status: ('A' for Active; 'I' for Inactive)
ROOT
ATOM      1  C4' PXY d   1       2.494   3.032   0.156  0.00  0.00     0.077 C 
ATOM      2  C1' PXY d   1       2.737  -1.217   4.068  0.00  0.00     0.077 C 
ATOM      3  C1  PXY d   1       2.667  -0.095   3.051  0.00  0.00    -0.082 A 
ATOM      4  C2  PXY d   1       2.728  -0.378   1.759  0.00  0.00     0.003 A 
ATOM      5  C3  PXY d   1       2.698   0.627   0.827  0.00  0.00     0.003 A 
ATOM      6  C4  PXY d   1       2.552   1.931   1.218  0.00  0.00    -0.082 A 
ATOM      7  C5  PXY d   1       2.478   2.227   2.533  0.00  0.00     0.003 A 
ATOM      8  C6  PXY d   1       2.552   1.196   3.465  0.00  0.00     0.003 A 
ENDROOT
TORSDOF 0
ENDMDL
