MODEL 1
REMARK minimizedAffinity 3.99150634
REMARK minimizedRMSD -1
REMARK  0 active torsions:
REMARK  status: ('A' for Active; 'I' for Inactive)
ROOT
ATOM      1  C4' PXY d   1      -0.990  -1.844  -0.070  0.00  0.00     0.077 C 
ATOM      2  C1' PXY d   1       3.074  -2.184   4.027  0.00  0.00     0.077 C 
ATOM      3  C1  PXY d   1       2.009  -2.082   2.952  0.00  0.00    -0.082 A 
ATOM      4  C2  PXY d   1       1.108  -3.043   2.831  0.00  0.00     0.003 A 
ATOM      5  C3  PXY d   1       0.158  -2.982   1.844  0.00  0.00     0.003 A 
ATOM      6  C4  PXY d   1       0.097  -1.901   1.006  0.00  0.00    -0.082 A 
ATOM      7  C5  PXY d   1       1.007  -0.911   1.131  0.00  0.00     0.003 A 
ATOM      8  C6  PXY d   1       1.988  -1.012   2.112  0.00  0.00     0.003 A 
ENDROOT
TORSDOF 0
ENDMDL
