MODEL 1
REMARK minimizedAffinity 1.6286726
REMARK minimizedRMSD -1
REMARK  0 active torsions:
REMARK  status: ('A' for Active; 'I' for Inactive)
ROOT
ATOM      1  C4' PXY d   1       2.195  -1.120   3.615  0.00  0.00     0.077 C 
ATOM      2  C1' PXY d   1       0.953   1.988  -1.098  0.00  0.00     0.077 C 
ATOM      3  C1  PXY d   1       1.291   1.178   0.138  0.00  0.00    -0.082 A 
ATOM      4  C2  PXY d   1       0.594   0.088   0.417  0.00  0.00     0.003 A 
ATOM      5  C3  PXY d   1       0.865  -0.639   1.547  0.00  0.00     0.003 A 
ATOM      6  C4  PXY d   1       1.895  -0.276   2.373  0.00  0.00    -0.082 A 
ATOM      7  C5  PXY d   1       2.618   0.828   2.090  0.00  0.00     0.003 A 
ATOM      8  C6  PXY d   1       2.300   1.575   0.960  0.00  0.00     0.003 A 
ENDROOT
TORSDOF 0
ENDMDL
