MODEL 1
REMARK minimizedAffinity 1.42788029
REMARK minimizedRMSD -1
REMARK  0 active torsions:
REMARK  status: ('A' for Active; 'I' for Inactive)
ROOT
ATOM      1  C4' PXY d   1      -2.099  -0.804  -2.790  0.00  0.00     0.077 C 
ATOM      2  C1' PXY d   1       1.280  -4.377   0.249  0.00  0.00     0.077 C 
ATOM      3  C1  PXY d   1       0.389  -3.435  -0.537  0.00  0.00    -0.082 A 
ATOM      4  C2  PXY d   1       0.055  -3.736  -1.781  0.00  0.00     0.003 A 
ATOM      5  C3  PXY d   1      -0.723  -2.880  -2.517  0.00  0.00     0.003 A 
ATOM      6  C4  PXY d   1      -1.209  -1.730  -1.956  0.00  0.00    -0.082 A 
ATOM      7  C5  PXY d   1      -0.882  -1.421  -0.683  0.00  0.00     0.003 A 
ATOM      8  C6  PXY d   1      -0.056  -2.283   0.033  0.00  0.00     0.003 A 
ENDROOT
TORSDOF 0
ENDMDL
