MODEL 1
REMARK minimizedAffinity 2.09179783
REMARK minimizedRMSD -1
REMARK  0 active torsions:
REMARK  status: ('A' for Active; 'I' for Inactive)
ROOT
ATOM      1  C4' PXY d   1       0.476  -2.020   0.767  0.00  0.00     0.077 C 
ATOM      2  C1' PXY d   1       3.030   2.685   2.947  0.00  0.00     0.077 C 
ATOM      3  C1  PXY d   1       2.365   1.444   2.385  0.00  0.00    -0.082 A 
ATOM      4  C2  PXY d   1       2.016   1.410   1.109  0.00  0.00     0.003 A 
ATOM      5  C3  PXY d   1       1.385   0.308   0.592  0.00  0.00     0.003 A 
ATOM      6  C4  PXY d   1       1.158  -0.792   1.375  0.00  0.00    -0.082 A 
ATOM      7  C5  PXY d   1       1.522  -0.769   2.675  0.00  0.00     0.003 A 
ATOM      8  C6  PXY d   1       2.123   0.375   3.191  0.00  0.00     0.003 A 
ENDROOT
TORSDOF 0
ENDMDL
