MODEL 1
REMARK minimizedAffinity -1.18887663
REMARK minimizedRMSD -1
REMARK  0 active torsions:
REMARK  status: ('A' for Active; 'I' for Inactive)
ROOT
ATOM      1  C4' PXY d   1      -2.245   0.600   0.375  0.00  0.00     0.077 C 
ATOM      2  C1' PXY d   1       0.904  -4.239   0.081  0.00  0.00     0.077 C 
ATOM      3  C1  PXY d   1       0.073  -2.972   0.146  0.00  0.00    -0.082 A 
ATOM      4  C2  PXY d   1       0.433  -1.995   0.963  0.00  0.00     0.003 A 
ATOM      5  C3  PXY d   1      -0.324  -0.856   1.058  0.00  0.00     0.003 A 
ATOM      6  C4  PXY d   1      -1.432  -0.693   0.270  0.00  0.00    -0.082 A 
ATOM      7  C5  PXY d   1      -1.799  -1.681  -0.574  0.00  0.00     0.003 A 
ATOM      8  C6  PXY d   1      -1.040  -2.846  -0.625  0.00  0.00     0.003 A 
ENDROOT
TORSDOF 0
ENDMDL
