MODEL 1
REMARK minimizedAffinity 1.58337045
REMARK minimizedRMSD -1
REMARK  0 active torsions:
REMARK  status: ('A' for Active; 'I' for Inactive)
ROOT
ATOM      1  C4' PXY d   1       0.011  -2.398   0.766  0.00  0.00     0.077 C 
ATOM      2  C1' PXY d   1      -0.031   3.326  -0.044  0.00  0.00     0.077 C 
ATOM      3  C1  PXY d   1      -0.033   1.825   0.171  0.00  0.00    -0.082 A 
ATOM      4  C2  PXY d   1       1.087   1.213   0.520  0.00  0.00     0.003 A 
ATOM      5  C3  PXY d   1       1.111  -0.148   0.687  0.00  0.00     0.003 A 
ATOM      6  C4  PXY d   1      -0.036  -0.883   0.547  0.00  0.00    -0.082 A 
ATOM      7  C5  PXY d   1      -1.185  -0.264   0.202  0.00  0.00     0.003 A 
ATOM      8  C6  PXY d   1      -1.179   1.112  -0.003  0.00  0.00     0.003 A 
ENDROOT
TORSDOF 0
ENDMDL
