MODEL 1
REMARK minimizedAffinity -0.348663658
REMARK minimizedRMSD -1
REMARK  0 active torsions:
REMARK  status: ('A' for Active; 'I' for Inactive)
ROOT
ATOM      1  C   UNL d   1      -0.636   1.884   1.313  0.00  0.00    -0.002 A 
ATOM      2  C1  UNL d   1      -0.954   0.717   0.633  0.00  0.00     0.010 A 
ATOM      3  C2  UNL d   1      -1.824  -0.219   1.196  0.00  0.00     0.041 A 
ATOM      4  C3  UNL d   1      -2.376   0.041   2.466  0.00  0.00    -0.075 A 
ATOM      5  S   UNL d   1      -3.465  -0.960   3.351  0.00  0.00     0.015 SA
ATOM      6  C4  UNL d   1      -3.535   0.138   4.652  0.00  0.00     0.022 A 
ATOM      7  C5  UNL d   1      -2.752   1.247   4.434  0.00  0.00     0.026 A 
ATOM      8  C6  UNL d   1      -2.071   1.210   3.170  0.00  0.00    -0.082 A 
ATOM      9  C7  UNL d   1      -1.185   2.139   2.572  0.00  0.00     0.045 A 
ENDROOT
TORSDOF 0
ENDMDL
