MODEL 1
REMARK minimizedAffinity 1.54836214
REMARK minimizedRMSD -1
REMARK  0 active torsions:
REMARK  status: ('A' for Active; 'I' for Inactive)
ROOT
ATOM      1  C   UNL d   1       1.506  -1.976  -0.497  0.00  0.00    -0.002 A 
ATOM      2  C1  UNL d   1       0.571  -1.255   0.232  0.00  0.00     0.010 A 
ATOM      3  C2  UNL d   1       0.278   0.069  -0.102  0.00  0.00     0.041 A 
ATOM      4  C3  UNL d   1       0.946   0.661  -1.192  0.00  0.00    -0.075 A 
ATOM      5  S   UNL d   1       0.747   2.268  -1.783  0.00  0.00     0.015 SA
ATOM      6  C4  UNL d   1       1.899   2.035  -3.018  0.00  0.00     0.022 A 
ATOM      7  C5  UNL d   1       2.432   0.768  -2.994  0.00  0.00     0.026 A 
ATOM      8  C6  UNL d   1       1.891  -0.045  -1.941  0.00  0.00    -0.082 A 
ATOM      9  C7  UNL d   1       2.167  -1.385  -1.577  0.00  0.00     0.045 A 
ENDROOT
TORSDOF 0
ENDMDL
