MODEL 1
REMARK minimizedAffinity -3.38244581
REMARK minimizedRMSD -1
REMARK  0 active torsions:
REMARK  status: ('A' for Active; 'I' for Inactive)
ROOT
ATOM      1  C   UNL d   1       2.540  -0.802  -1.269  0.00  0.00    -0.002 A 
ATOM      2  C1  UNL d   1       2.492   0.579  -1.393  0.00  0.00     0.010 A 
ATOM      3  C2  UNL d   1       1.338   1.284  -1.045  0.00  0.00     0.041 A 
ATOM      4  C3  UNL d   1       0.223   0.570  -0.565  0.00  0.00    -0.075 A 
ATOM      5  S   UNL d   1      -1.297   1.222  -0.077  0.00  0.00     0.015 SA
ATOM      6  C4  UNL d   1      -1.918  -0.317   0.308  0.00  0.00     0.022 A 
ATOM      7  C5  UNL d   1      -1.002  -1.316   0.076  0.00  0.00     0.026 A 
ATOM      8  C6  UNL d   1       0.247  -0.821  -0.430  0.00  0.00    -0.082 A 
ATOM      9  C7  UNL d   1       1.432  -1.507  -0.792  0.00  0.00     0.045 A 
ENDROOT
TORSDOF 0
ENDMDL
