MODEL 1
REMARK minimizedAffinity -4.31578159
REMARK minimizedRMSD -1
REMARK  0 active torsions:
REMARK  status: ('A' for Active; 'I' for Inactive)
ROOT
ATOM      1  C   UNL d   1       1.512  -1.338  -1.374  0.00  0.00    -0.002 A 
ATOM      2  C1  UNL d   1       1.955  -0.025  -1.447  0.00  0.00     0.010 A 
ATOM      3  C2  UNL d   1       1.311   0.982  -0.726  0.00  0.00     0.041 A 
ATOM      4  C3  UNL d   1       0.205   0.644   0.079  0.00  0.00    -0.075 A 
ATOM      5  S   UNL d   1      -0.739   1.711   1.050  0.00  0.00     0.015 SA
ATOM      6  C4  UNL d   1      -1.751   0.449   1.585  0.00  0.00     0.022 A 
ATOM      7  C5  UNL d   1      -1.393  -0.763   1.045  0.00  0.00     0.026 A 
ATOM      8  C6  UNL d   1      -0.259  -0.671   0.169  0.00  0.00    -0.082 A 
ATOM      9  C7  UNL d   1       0.414  -1.670  -0.575  0.00  0.00     0.045 A 
ENDROOT
TORSDOF 0
ENDMDL
