MODEL 1
REMARK minimizedAffinity -2.20158577
REMARK minimizedRMSD -1
REMARK  0 active torsions:
REMARK  status: ('A' for Active; 'I' for Inactive)
ROOT
ATOM      1  C   UNL d   1      -4.104  -0.688   4.635  0.00  0.00    -0.002 A 
ATOM      2  C1  UNL d   1      -4.130  -1.500   3.510  0.00  0.00     0.010 A 
ATOM      3  C2  UNL d   1      -3.493  -1.103   2.332  0.00  0.00     0.041 A 
ATOM      4  C3  UNL d   1      -2.822   0.136   2.305  0.00  0.00    -0.075 A 
ATOM      5  S   UNL d   1      -1.973   0.828   0.974  0.00  0.00     0.015 SA
ATOM      6  C4  UNL d   1      -1.554   2.218   1.868  0.00  0.00     0.022 A 
ATOM      7  C5  UNL d   1      -2.043   2.171   3.152  0.00  0.00     0.026 A 
ATOM      8  C6  UNL d   1      -2.782   0.970   3.425  0.00  0.00    -0.082 A 
ATOM      9  C7  UNL d   1      -3.437   0.540   4.604  0.00  0.00     0.045 A 
ENDROOT
TORSDOF 0
ENDMDL
