MODEL 1
REMARK minimizedAffinity 0.428648293
REMARK minimizedRMSD -1
REMARK  0 active torsions:
REMARK  status: ('A' for Active; 'I' for Inactive)
ROOT
ATOM      1  C   UNL d   1       1.429  -2.226  -1.227  0.00  0.00    -0.002 A 
ATOM      2  C1  UNL d   1       2.118  -1.066  -1.550  0.00  0.00     0.010 A 
ATOM      3  C2  UNL d   1       1.710   0.168  -1.039  0.00  0.00     0.041 A 
ATOM      4  C3  UNL d   1       0.589   0.216  -0.188  0.00  0.00    -0.075 A 
ATOM      5  S   UNL d   1      -0.091   1.615   0.557  0.00  0.00     0.015 SA
ATOM      6  C4  UNL d   1      -1.312   0.705   1.322  0.00  0.00     0.022 A 
ATOM      7  C5  UNL d   1      -1.218  -0.635   1.028  0.00  0.00     0.026 A 
ATOM      8  C6  UNL d   1      -0.121  -0.938   0.153  0.00  0.00    -0.082 A 
ATOM      9  C7  UNL d   1       0.317  -2.174  -0.382  0.00  0.00     0.045 A 
ENDROOT
TORSDOF 0
ENDMDL
