MODEL 1
REMARK minimizedAffinity -0.94003129
REMARK minimizedRMSD -1
REMARK  0 active torsions:
REMARK  status: ('A' for Active; 'I' for Inactive)
ROOT
ATOM      1  C   UNL d   1      -3.271   0.636   3.585  0.00  0.00    -0.002 A 
ATOM      2  C1  UNL d   1      -2.237   1.464   3.998  0.00  0.00     0.010 A 
ATOM      3  C2  UNL d   1      -1.097   1.623   3.208  0.00  0.00     0.041 A 
ATOM      4  C3  UNL d   1      -1.014   0.931   1.984  0.00  0.00    -0.075 A 
ATOM      5  S   UNL d   1       0.286   0.974   0.851  0.00  0.00     0.015 SA
ATOM      6  C4  UNL d   1      -0.502  -0.105  -0.207  0.00  0.00     0.022 A 
ATOM      7  C5  UNL d   1      -1.727  -0.499   0.276  0.00  0.00     0.026 A 
ATOM      8  C6  UNL d   1      -2.043   0.092   1.546  0.00  0.00    -0.082 A 
ATOM      9  C7  UNL d   1      -3.185  -0.049   2.370  0.00  0.00     0.045 A 
ENDROOT
TORSDOF 0
ENDMDL
