MODEL 1
REMARK minimizedAffinity -2.80021882
REMARK minimizedRMSD -1
REMARK  0 active torsions:
REMARK  status: ('A' for Active; 'I' for Inactive)
ROOT
ATOM      1  C   UNL d   1       2.168  -0.574  -0.969  0.00  0.00    -0.002 A 
ATOM      2  C1  UNL d   1       1.382  -1.448  -0.231  0.00  0.00     0.010 A 
ATOM      3  C2  UNL d   1       0.074  -1.104   0.119  0.00  0.00     0.041 A 
ATOM      4  C3  UNL d   1      -0.435   0.145  -0.291  0.00  0.00    -0.075 A 
ATOM      5  S   UNL d   1      -2.007   0.779   0.020  0.00  0.00     0.015 SA
ATOM      6  C4  UNL d   1      -1.672   2.224  -0.819  0.00  0.00     0.022 A 
ATOM      7  C5  UNL d   1      -0.396   2.239  -1.331  0.00  0.00     0.026 A 
ATOM      8  C6  UNL d   1       0.338   1.041  -1.036  0.00  0.00    -0.082 A 
ATOM      9  C7  UNL d   1       1.660   0.663  -1.373  0.00  0.00     0.045 A 
ENDROOT
TORSDOF 0
ENDMDL
