MODEL 1
REMARK minimizedAffinity -2.33756351
REMARK minimizedRMSD -1
REMARK  0 active torsions:
REMARK  status: ('A' for Active; 'I' for Inactive)
ROOT
ATOM      1  C   UNL d   1       2.912  -1.479  -1.564  0.00  0.00    -0.002 A 
ATOM      2  C1  UNL d   1       3.024  -0.103  -1.703  0.00  0.00     0.010 A 
ATOM      3  C2  UNL d   1       2.054   0.747  -1.168  0.00  0.00     0.041 A 
ATOM      4  C3  UNL d   1       0.959   0.185  -0.483  0.00  0.00    -0.075 A 
ATOM      5  S   UNL d   1      -0.350   1.030   0.256  0.00  0.00     0.015 SA
ATOM      6  C4  UNL d   1      -1.089  -0.416   0.774  0.00  0.00     0.022 A 
ATOM      7  C5  UNL d   1      -0.368  -1.526   0.401  0.00  0.00     0.026 A 
ATOM      8  C6  UNL d   1       0.824  -1.198  -0.329  0.00  0.00    -0.082 A 
ATOM      9  C7  UNL d   1       1.824  -2.033  -0.883  0.00  0.00     0.045 A 
ENDROOT
TORSDOF 0
ENDMDL
