MODEL 1
REMARK minimizedAffinity -4.0565629
REMARK minimizedRMSD -1
REMARK  0 active torsions:
REMARK  status: ('A' for Active; 'I' for Inactive)
ROOT
ATOM      1  C   UNL d   1       2.263   1.524  -2.769  0.00  0.00    -0.002 A 
ATOM      2  C1  UNL d   1       1.104   2.077  -2.243  0.00  0.00     0.010 A 
ATOM      3  C2  UNL d   1       0.326   1.361  -1.331  0.00  0.00     0.041 A 
ATOM      4  C3  UNL d   1       0.739   0.069  -0.950  0.00  0.00    -0.075 A 
ATOM      5  S   UNL d   1      -0.053  -0.993   0.153  0.00  0.00     0.015 SA
ATOM      6  C4  UNL d   1       1.129  -2.204  -0.046  0.00  0.00     0.022 A 
ATOM      7  C5  UNL d   1       2.112  -1.825  -0.929  0.00  0.00     0.026 A 
ATOM      8  C6  UNL d   1       1.904  -0.508  -1.465  0.00  0.00    -0.082 A 
ATOM      9  C7  UNL d   1       2.670   0.243  -2.389  0.00  0.00     0.045 A 
ENDROOT
TORSDOF 0
ENDMDL
