MODEL 1
REMARK minimizedAffinity -1.6552788
REMARK minimizedRMSD -1
REMARK  0 active torsions:
REMARK  status: ('A' for Active; 'I' for Inactive)
ROOT
ATOM      1  C   UNL d   1       0.551  -1.608  -0.796  0.00  0.00    -0.002 A 
ATOM      2  C1  UNL d   1       1.260  -0.420  -0.903  0.00  0.00     0.010 A 
ATOM      3  C2  UNL d   1       0.834   0.725  -0.227  0.00  0.00     0.041 A 
ATOM      4  C3  UNL d   1      -0.327   0.655   0.568  0.00  0.00    -0.075 A 
ATOM      5  S   UNL d   1      -1.037   1.929   1.487  0.00  0.00     0.015 SA
ATOM      6  C4  UNL d   1      -2.297   0.927   2.044  0.00  0.00     0.022 A 
ATOM      7  C5  UNL d   1      -2.195  -0.352   1.550  0.00  0.00     0.026 A 
ATOM      8  C6  UNL d   1      -1.058  -0.530   0.692  0.00  0.00    -0.082 A 
ATOM      9  C7  UNL d   1      -0.600  -1.674  -0.007  0.00  0.00     0.045 A 
ENDROOT
TORSDOF 0
ENDMDL
