MODEL 1
REMARK minimizedAffinity 6.73248053
REMARK minimizedRMSD -1
REMARK  0 active torsions:
REMARK  status: ('A' for Active; 'I' for Inactive)
ROOT
ATOM      1  C4' PXY d   1       1.013  -0.704  -2.075  0.00  0.00     0.077 C 
ATOM      2  C1' PXY d   1       0.729  -1.212   3.676  0.00  0.00     0.077 C 
ATOM      3  C1  PXY d   1       0.792  -1.085   2.167  0.00  0.00    -0.082 A 
ATOM      4  C2  PXY d   1       1.964  -0.928   1.572  0.00  0.00     0.003 A 
ATOM      5  C3  PXY d   1       2.036  -0.780   0.211  0.00  0.00     0.003 A 
ATOM      6  C4  PXY d   1       0.902  -0.846  -0.555  0.00  0.00    -0.082 A 
ATOM      7  C5  PXY d   1      -0.296  -1.016   0.044  0.00  0.00     0.003 A 
ATOM      8  C6  PXY d   1      -0.352  -1.123   1.431  0.00  0.00     0.003 A 
ENDROOT
TORSDOF 0
ENDMDL
