MODEL 1
REMARK minimizedAffinity 0.278541267
REMARK minimizedRMSD -1
REMARK  0 active torsions:
REMARK  status: ('A' for Active; 'I' for Inactive)
ROOT
ATOM      1  C4' PXY d   1       1.940  -0.803  -2.730  0.00  0.00     0.077 C 
ATOM      2  C1' PXY d   1       0.523  -2.033   2.738  0.00  0.00     0.077 C 
ATOM      3  C1  PXY d   1       0.882  -1.714   1.300  0.00  0.00    -0.082 A 
ATOM      4  C2  PXY d   1       2.151  -1.733   0.923  0.00  0.00     0.003 A 
ATOM      5  C3  PXY d   1       2.497  -1.415  -0.365  0.00  0.00     0.003 A 
ATOM      6  C4  PXY d   1       1.530  -1.127  -1.291  0.00  0.00    -0.082 A 
ATOM      7  C5  PXY d   1       0.233  -1.117  -0.917  0.00  0.00     0.003 A 
ATOM      8  C6  PXY d   1      -0.094  -1.401   0.405  0.00  0.00     0.003 A 
ENDROOT
TORSDOF 0
ENDMDL
