MODEL 1
REMARK minimizedAffinity 3.10408974
REMARK minimizedRMSD -1
REMARK  0 active torsions:
REMARK  status: ('A' for Active; 'I' for Inactive)
ROOT
ATOM      1  C4' PXY d   1       1.875  -1.853   1.808  0.00  0.00     0.077 C 
ATOM      2  C1' PXY d   1      -2.852   1.087   3.368  0.00  0.00     0.077 C 
ATOM      3  C1  PXY d   1      -1.620   0.305   2.955  0.00  0.00    -0.082 A 
ATOM      4  C2  PXY d   1      -0.445   0.611   3.482  0.00  0.00     0.003 A 
ATOM      5  C3  PXY d   1       0.685  -0.064   3.096  0.00  0.00     0.003 A 
ATOM      6  C4  PXY d   1       0.603  -1.098   2.202  0.00  0.00    -0.082 A 
ATOM      7  C5  PXY d   1      -0.594  -1.423   1.669  0.00  0.00     0.003 A 
ATOM      8  C6  PXY d   1      -1.722  -0.698   2.042  0.00  0.00     0.003 A 
ENDROOT
TORSDOF 0
ENDMDL
