MODEL 1
REMARK minimizedAffinity 1.41800439
REMARK minimizedRMSD -1
REMARK  0 active torsions:
REMARK  status: ('A' for Active; 'I' for Inactive)
ROOT
ATOM      1  C4' PXY d   1      -0.409  -0.972   3.740  0.00  0.00     0.077 C 
ATOM      2  C1' PXY d   1       3.409  -2.383  -0.365  0.00  0.00     0.077 C 
ATOM      3  C1  PXY d   1       2.405  -2.025   0.713  0.00  0.00    -0.082 A 
ATOM      4  C2  PXY d   1       1.867  -0.817   0.731  0.00  0.00     0.003 A 
ATOM      5  C3  PXY d   1       0.981  -0.466   1.717  0.00  0.00     0.003 A 
ATOM      6  C4  PXY d   1       0.602  -1.380   2.664  0.00  0.00    -0.082 A 
ATOM      7  C5  PXY d   1       1.138  -2.618   2.646  0.00  0.00     0.003 A 
ATOM      8  C6  PXY d   1       2.067  -2.941   1.661  0.00  0.00     0.003 A 
ENDROOT
TORSDOF 0
ENDMDL
