MODEL 1
REMARK minimizedAffinity -0.609243453
REMARK minimizedRMSD -1
REMARK  0 active torsions:
REMARK  status: ('A' for Active; 'I' for Inactive)
ROOT
ATOM      1  C4' PXY d   1       3.038  -2.402   0.774  0.00  0.00     0.077 C 
ATOM      2  C1' PXY d   1      -1.641   0.422   2.655  0.00  0.00     0.077 C 
ATOM      3  C1  PXY d   1      -0.420  -0.321   2.150  0.00  0.00    -0.082 A 
ATOM      4  C2  PXY d   1       0.442  -0.827   3.017  0.00  0.00     0.003 A 
ATOM      5  C3  PXY d   1       1.568  -1.475   2.578  0.00  0.00     0.003 A 
ATOM      6  C4  PXY d   1       1.787  -1.652   1.238  0.00  0.00    -0.082 A 
ATOM      7  C5  PXY d   1       0.907  -1.147   0.348  0.00  0.00     0.003 A 
ATOM      8  C6  PXY d   1      -0.209  -0.458   0.813  0.00  0.00     0.003 A 
ENDROOT
TORSDOF 0
ENDMDL
