MODEL 1
REMARK minimizedAffinity 0.322934508
REMARK minimizedRMSD -1
REMARK  0 active torsions:
REMARK  status: ('A' for Active; 'I' for Inactive)
ROOT
ATOM      1  C4' PXY d   1       3.419  -2.422  -0.531  0.00  0.00     0.077 C 
ATOM      2  C1' PXY d   1      -1.225  -0.255   2.145  0.00  0.00     0.077 C 
ATOM      3  C1  PXY d   1      -0.014  -0.823   1.432  0.00  0.00    -0.082 A 
ATOM      4  C2  PXY d   1       0.904  -1.479   2.123  0.00  0.00     0.003 A 
ATOM      5  C3  PXY d   1       2.021  -1.972   1.500  0.00  0.00     0.003 A 
ATOM      6  C4  PXY d   1       2.175  -1.839   0.146  0.00  0.00    -0.082 A 
ATOM      7  C5  PXY d   1       1.238  -1.180  -0.568  0.00  0.00     0.003 A 
ATOM      8  C6  PXY d   1       0.131  -0.651   0.090  0.00  0.00     0.003 A 
ENDROOT
TORSDOF 0
ENDMDL
