MODEL 1
REMARK minimizedAffinity 6.09051657
REMARK minimizedRMSD -1
REMARK  0 active torsions:
REMARK  status: ('A' for Active; 'I' for Inactive)
ROOT
ATOM      1  C4' PXY d   1       1.522  -2.432   1.743  0.00  0.00     0.077 C 
ATOM      2  C1' PXY d   1      -2.673   1.210   3.342  0.00  0.00     0.077 C 
ATOM      3  C1  PXY d   1      -1.581   0.249   2.915  0.00  0.00    -0.082 A 
ATOM      4  C2  PXY d   1      -0.546   0.039   3.712  0.00  0.00     0.003 A 
ATOM      5  C3  PXY d   1       0.466  -0.802   3.327  0.00  0.00     0.003 A 
ATOM      6  C4  PXY d   1       0.392  -1.477   2.138  0.00  0.00    -0.082 A 
ATOM      7  C5  PXY d   1      -0.666  -1.276   1.324  0.00  0.00     0.003 A 
ATOM      8  C6  PXY d   1      -1.663  -0.387   1.715  0.00  0.00     0.003 A 
ENDROOT
TORSDOF 0
ENDMDL
