MODEL 1
REMARK minimizedAffinity 9.73145771
REMARK minimizedRMSD -1
REMARK  0 active torsions:
REMARK  status: ('A' for Active; 'I' for Inactive)
ROOT
ATOM      1  C4' PXY d   1      -0.895   3.608   3.968  0.00  0.00     0.077 C 
ATOM      2  C1' PXY d   1       3.960   6.000   6.000  0.00  0.00     0.077 C 
ATOM      3  C1  PXY d   1       2.683   5.384   5.463  0.00  0.00    -0.082 A 
ATOM      4  C2  PXY d   1       2.241   4.245   5.971  0.00  0.00     0.003 A 
ATOM      5  C3  PXY d   1       1.106   3.658   5.476  0.00  0.00     0.003 A 
ATOM      6  C4  PXY d   1       0.385   4.271   4.485  0.00  0.00    -0.082 A 
ATOM      7  C5  PXY d   1       0.823   5.439   3.969  0.00  0.00     0.003 A 
ATOM      8  C6  PXY d   1       2.001   5.997   4.458  0.00  0.00     0.003 A 
ENDROOT
TORSDOF 0
ENDMDL
