MODEL 1
REMARK minimizedAffinity 0.00230330694
REMARK minimizedRMSD -1
REMARK  0 active torsions:
REMARK  status: ('A' for Active; 'I' for Inactive)
ROOT
ATOM      1  C   UNL d   1       2.034   1.476   3.662  0.00  0.00     0.172 C 
ATOM      2  N   UNL d   1       2.409   1.014   2.346  0.00  0.00    -0.070 N 
ATOM      3  C1  UNL d   1       1.798   1.365   1.172  0.00  0.00    -0.004 A 
ATOM      4  C2  UNL d   1       2.450   0.716   0.146  0.00  0.00    -0.047 A 
ATOM      5  C3  UNL d   1       3.489  -0.052   0.724  0.00  0.00    -0.047 A 
ATOM      6  C4  UNL d   1       3.441   0.151   2.087  0.00  0.00    -0.004 A 
ENDROOT
TORSDOF 0
ENDMDL
