MODEL 1
REMARK minimizedAffinity -0.415557057
REMARK minimizedRMSD -1
REMARK  0 active torsions:
REMARK  status: ('A' for Active; 'I' for Inactive)
ROOT
ATOM      1  C   UNL d   1       2.640  -5.999  -2.101  0.00  0.00     0.172 C 
ATOM      2  N   UNL d   1       1.775  -5.999  -0.945  0.00  0.00    -0.070 N 
ATOM      3  C1  UNL d   1       0.406  -6.000  -0.973  0.00  0.00    -0.004 A 
ATOM      4  C2  UNL d   1      -0.043  -6.000   0.331  0.00  0.00    -0.047 A 
ATOM      5  C3  UNL d   1       1.096  -5.998   1.170  0.00  0.00    -0.047 A 
ATOM      6  C4  UNL d   1       2.208  -5.997   0.355  0.00  0.00    -0.004 A 
ENDROOT
TORSDOF 0
ENDMDL
