MODEL 1
REMARK minimizedAffinity 4.35381937
REMARK minimizedRMSD -1
REMARK  0 active torsions:
REMARK  status: ('A' for Active; 'I' for Inactive)
ROOT
ATOM      1  C   UNL d   1       2.006  -5.664  -0.771  0.00  0.00     0.172 C 
ATOM      2  N   UNL d   1       3.258  -5.751  -1.486  0.00  0.00    -0.070 N 
ATOM      3  C1  UNL d   1       4.483  -5.995  -0.926  0.00  0.00    -0.004 A 
ATOM      4  C2  UNL d   1       5.417  -6.000  -1.939  0.00  0.00    -0.047 A 
ATOM      5  C3  UNL d   1       4.730  -5.750  -3.150  0.00  0.00    -0.047 A 
ATOM      6  C4  UNL d   1       3.394  -5.600  -2.841  0.00  0.00    -0.004 A 
ENDROOT
TORSDOF 0
ENDMDL
