MODEL 1
REMARK minimizedAffinity 3.07516813
REMARK minimizedRMSD -1
REMARK  0 active torsions:
REMARK  status: ('A' for Active; 'I' for Inactive)
ROOT
ATOM      1  C   UNL d   1       5.855  -5.869  -5.828  0.00  0.00     0.172 C 
ATOM      2  N   UNL d   1       4.521  -5.921  -5.276  0.00  0.00    -0.070 N 
ATOM      3  C1  UNL d   1       3.359  -5.949  -5.999  0.00  0.00    -0.004 A 
ATOM      4  C2  UNL d   1       2.309  -5.998  -5.108  0.00  0.00    -0.047 A 
ATOM      5  C3  UNL d   1       2.859  -5.998  -3.805  0.00  0.00    -0.047 A 
ATOM      6  C4  UNL d   1       4.231  -5.950  -3.938  0.00  0.00    -0.004 A 
ENDROOT
TORSDOF 0
ENDMDL
