MODEL 1
REMARK minimizedAffinity 3.37482309
REMARK minimizedRMSD -1
REMARK  0 active torsions:
REMARK  status: ('A' for Active; 'I' for Inactive)
ROOT
ATOM      1  C   UNL d   1      -0.017  -0.636  -0.545  0.00  0.00     0.172 C 
ATOM      2  N   UNL d   1       0.405   0.579   0.110  0.00  0.00    -0.070 N 
ATOM      3  C1  UNL d   1       1.663   1.119   0.060  0.00  0.00    -0.004 A 
ATOM      4  C2  UNL d   1       1.657   2.274   0.812  0.00  0.00    -0.047 A 
ATOM      5  C3  UNL d   1       0.351   2.434   1.333  0.00  0.00    -0.047 A 
ATOM      6  C4  UNL d   1      -0.404   1.371   0.883  0.00  0.00    -0.004 A 
ENDROOT
TORSDOF 0
ENDMDL
