MODEL 1
REMARK minimizedAffinity -2.61527824
REMARK minimizedRMSD -1
REMARK  0 active torsions:
REMARK  status: ('A' for Active; 'I' for Inactive)
ROOT
ATOM      1  C   UNL d   1      -2.290   5.956   2.178  0.00  0.00     0.078 C 
ATOM      2  C1  UNL d   1      -3.570   5.951   2.958  0.00  0.00    -0.077 A 
ATOM      3  C2  UNL d   1      -4.810   5.916   2.309  0.00  0.00    -0.001 A 
ATOM      4  C3  UNL d   1      -5.994   5.921   3.048  0.00  0.00     0.003 A 
ATOM      5  C4  UNL d   1      -5.950   5.962   4.440  0.00  0.00    -0.005 A 
ATOM      6  C5  UNL d   1      -4.721   6.000   5.095  0.00  0.00     0.003 A 
ATOM      7  C6  UNL d   1      -3.536   5.994   4.358  0.00  0.00    -0.001 A 
ENDROOT
TORSDOF 0
ENDMDL
