MODEL 1
REMARK minimizedAffinity 3.13129234
REMARK minimizedRMSD -1
REMARK  0 active torsions:
REMARK  status: ('A' for Active; 'I' for Inactive)
ROOT
ATOM      1  C   UNL d   1       1.469  -2.265   4.529  0.00  0.00     0.078 C 
ATOM      2  C1  UNL d   1       0.740  -3.562   4.716  0.00  0.00    -0.077 A 
ATOM      3  C2  UNL d   1      -0.254  -3.967   3.816  0.00  0.00    -0.001 A 
ATOM      4  C3  UNL d   1      -0.931  -5.172   4.008  0.00  0.00     0.003 A 
ATOM      5  C4  UNL d   1      -0.622  -5.983   5.098  0.00  0.00    -0.005 A 
ATOM      6  C5  UNL d   1       0.364  -5.588   6.000  0.00  0.00     0.003 A 
ATOM      7  C6  UNL d   1       1.042  -4.382   5.810  0.00  0.00    -0.001 A 
ENDROOT
TORSDOF 0
ENDMDL
