MODEL 1
REMARK minimizedAffinity -2.55670094
REMARK minimizedRMSD -1
REMARK  0 active torsions:
REMARK  status: ('A' for Active; 'I' for Inactive)
ROOT
ATOM      1  C   UNL d   1      -5.115   5.976   5.242  0.00  0.00     0.078 C 
ATOM      2  C1  UNL d   1      -4.889   5.992   3.760  0.00  0.00    -0.077 A 
ATOM      3  C2  UNL d   1      -5.966   5.992   2.866  0.00  0.00    -0.001 A 
ATOM      4  C3  UNL d   1      -5.741   5.997   1.488  0.00  0.00     0.003 A 
ATOM      5  C4  UNL d   1      -4.439   6.000   0.992  0.00  0.00    -0.005 A 
ATOM      6  C5  UNL d   1      -3.360   5.997   1.874  0.00  0.00     0.003 A 
ATOM      7  C6  UNL d   1      -3.583   5.993   3.252  0.00  0.00    -0.001 A 
ENDROOT
TORSDOF 0
ENDMDL
