MODEL 1
REMARK minimizedAffinity 1.10822368
REMARK minimizedRMSD -1
REMARK  0 active torsions:
REMARK  status: ('A' for Active; 'I' for Inactive)
ROOT
ATOM      1  C   UNL d   1      -2.372   6.000   3.376  0.00  0.00     0.078 C 
ATOM      2  C1  UNL d   1      -3.643   5.782   2.609  0.00  0.00    -0.077 A 
ATOM      3  C2  UNL d   1      -4.827   5.422   3.264  0.00  0.00    -0.001 A 
ATOM      4  C3  UNL d   1      -6.000   5.212   2.536  0.00  0.00     0.003 A 
ATOM      5  C4  UNL d   1      -5.999   5.359   1.151  0.00  0.00    -0.005 A 
ATOM      6  C5  UNL d   1      -4.825   5.714   0.490  0.00  0.00     0.003 A 
ATOM      7  C6  UNL d   1      -3.651   5.924   1.216  0.00  0.00    -0.001 A 
ENDROOT
TORSDOF 0
ENDMDL
