MODEL 1
REMARK minimizedAffinity -1.09620607
REMARK minimizedRMSD -1
REMARK  0 active torsions:
REMARK  status: ('A' for Active; 'I' for Inactive)
ROOT
ATOM      1  C   UNL d   1      -4.520   5.978   0.966  0.00  0.00     0.078 C 
ATOM      2  C1  UNL d   1      -4.638   5.977   2.460  0.00  0.00    -0.077 A 
ATOM      3  C2  UNL d   1      -5.891   5.977   3.085  0.00  0.00    -0.001 A 
ATOM      4  C3  UNL d   1      -5.986   5.987   4.478  0.00  0.00     0.003 A 
ATOM      5  C4  UNL d   1      -4.831   5.997   5.257  0.00  0.00    -0.005 A 
ATOM      6  C5  UNL d   1      -3.580   6.000   4.645  0.00  0.00     0.003 A 
ATOM      7  C6  UNL d   1      -3.483   5.990   3.252  0.00  0.00    -0.001 A 
ENDROOT
TORSDOF 0
ENDMDL
