MODEL 1
REMARK minimizedAffinity -2.74935579
REMARK minimizedRMSD -1
REMARK  0 active torsions:
REMARK  status: ('A' for Active; 'I' for Inactive)
ROOT
ATOM      1  C   UNL d   1      -5.800   5.968   5.706  0.00  0.00     0.078 C 
ATOM      2  C1  UNL d   1      -5.053   5.956   4.406  0.00  0.00    -0.077 A 
ATOM      3  C2  UNL d   1      -3.653   5.974   4.379  0.00  0.00    -0.001 A 
ATOM      4  C3  UNL d   1      -2.971   5.972   3.161  0.00  0.00     0.003 A 
ATOM      5  C4  UNL d   1      -3.680   5.954   1.962  0.00  0.00    -0.005 A 
ATOM      6  C5  UNL d   1      -5.074   5.939   1.979  0.00  0.00     0.003 A 
ATOM      7  C6  UNL d   1      -5.757   5.940   3.196  0.00  0.00    -0.001 A 
ENDROOT
TORSDOF 0
ENDMDL
