MODEL 1
REMARK minimizedAffinity 25.0995502
REMARK minimizedRMSD -1
REMARK  0 active torsions:
REMARK  status: ('A' for Active; 'I' for Inactive)
ROOT
ATOM      1  C   UNL d   1      -1.155  -0.323  -0.909  0.00  0.00     0.124 A 
ATOM      2  C1  UNL d   1      -1.785  -1.063  -1.899  0.00  0.00     0.062 A 
ATOM      3  C2  UNL d   1      -3.168  -1.219  -1.883  0.00  0.00     0.162 A 
ATOM      4  C3  UNL d   1      -3.931  -0.633  -0.873  0.00  0.00    -0.034 A 
ATOM      5  C4  UNL d   1      -3.290   0.109   0.120  0.00  0.00     0.162 A 
ATOM      6  C5  UNL d   1      -1.907   0.263   0.100  0.00  0.00     0.062 A 
ATOM      7  F   UNL d   1      -1.300   0.978   1.057  0.00  0.00    -0.097 F 
ATOM      8  F1  UNL d   1      -3.993   0.686   1.106  0.00  0.00    -0.096 F 
ATOM      9  I   UNL d   1      -5.999  -0.865  -0.845  0.00  0.00    -0.060 I 
ATOM     10  F2  UNL d   1      -3.751  -1.940  -2.853  0.00  0.00    -0.096 F 
ATOM     11  F3  UNL d   1      -1.061  -1.630  -2.874  0.00  0.00    -0.097 F 
ATOM     12  F4  UNL d   1       0.176  -0.175  -0.926  0.00  0.00    -0.092 F 
ENDROOT
TORSDOF 0
ENDMDL
