MODEL 1
REMARK minimizedAffinity 21.2512341
REMARK minimizedRMSD -1
REMARK  0 active torsions:
REMARK  status: ('A' for Active; 'I' for Inactive)
ROOT
ATOM      1  C   UNL d   1      -1.925  -0.395   1.868  0.00  0.00     0.124 A 
ATOM      2  C1  UNL d   1      -2.607  -1.604   1.855  0.00  0.00     0.062 A 
ATOM      3  C2  UNL d   1      -3.771  -1.742   1.104  0.00  0.00     0.162 A 
ATOM      4  C3  UNL d   1      -4.260  -0.669   0.359  0.00  0.00    -0.034 A 
ATOM      5  C4  UNL d   1      -3.569   0.543   0.378  0.00  0.00     0.162 A 
ATOM      6  C5  UNL d   1      -2.406   0.677   1.130  0.00  0.00     0.062 A 
ATOM      7  F   UNL d   1      -1.748   1.845   1.142  0.00  0.00    -0.097 F 
ATOM      8  F1  UNL d   1      -4.011   1.596  -0.327  0.00  0.00    -0.096 F 
ATOM      9  I   UNL d   1      -6.000  -0.872  -0.765  0.00  0.00    -0.060 I 
ATOM     10  F2  UNL d   1      -4.410  -2.922   1.110  0.00  0.00    -0.096 F 
ATOM     11  F3  UNL d   1      -2.145  -2.641   2.568  0.00  0.00    -0.097 F 
ATOM     12  F4  UNL d   1      -0.806  -0.264   2.592  0.00  0.00    -0.092 F 
ENDROOT
TORSDOF 0
ENDMDL
