MODEL 1
REMARK minimizedAffinity 10.7765961
REMARK minimizedRMSD -1
REMARK  0 active torsions:
REMARK  status: ('A' for Active; 'I' for Inactive)
ROOT
ATOM      1  C   UNL d   1      -0.340  -4.313   5.992  0.00  0.00     0.124 A 
ATOM      2  C1  UNL d   1       1.028  -4.078   5.992  0.00  0.00     0.062 A 
ATOM      3  C2  UNL d   1       1.513  -2.773   5.993  0.00  0.00     0.162 A 
ATOM      4  C3  UNL d   1       0.630  -1.694   5.997  0.00  0.00    -0.034 A 
ATOM      5  C4  UNL d   1      -0.744  -1.939   5.996  0.00  0.00     0.162 A 
ATOM      6  C5  UNL d   1      -1.224  -3.244   5.994  0.00  0.00     0.062 A 
ATOM      7  F   UNL d   1      -2.546  -3.470   5.994  0.00  0.00    -0.097 F 
ATOM      8  F1  UNL d   1      -1.621  -0.924   5.999  0.00  0.00    -0.096 F 
ATOM      9  I   UNL d   1       1.352   0.258   5.999  0.00  0.00    -0.060 I 
ATOM     10  F2  UNL d   1       2.840  -2.575   5.993  0.00  0.00    -0.096 F 
ATOM     11  F3  UNL d   1       1.885  -5.109   5.989  0.00  0.00    -0.097 F 
ATOM     12  F4  UNL d   1      -0.804  -5.570   5.989  0.00  0.00    -0.092 F 
ENDROOT
TORSDOF 0
ENDMDL
