MODEL 1
REMARK minimizedAffinity 14.03368
REMARK minimizedRMSD -1
REMARK  0 active torsions:
REMARK  status: ('A' for Active; 'I' for Inactive)
ROOT
ATOM      1  C   UNL d   1       0.619   2.938   2.337  0.00  0.00     0.124 A 
ATOM      2  C1  UNL d   1      -0.148   2.799   1.189  0.00  0.00     0.062 A 
ATOM      3  C2  UNL d   1       0.051   1.712   0.342  0.00  0.00     0.162 A 
ATOM      4  C3  UNL d   1       1.021   0.756   0.640  0.00  0.00    -0.034 A 
ATOM      5  C4  UNL d   1       1.790   0.904   1.796  0.00  0.00     0.162 A 
ATOM      6  C5  UNL d   1       1.587   1.991   2.640  0.00  0.00     0.062 A 
ATOM      7  F   UNL d   1       2.329   2.125   3.748  0.00  0.00    -0.097 F 
ATOM      8  F1  UNL d   1       2.732   0.003   2.113  0.00  0.00    -0.096 F 
ATOM      9  I   UNL d   1       1.322  -0.870  -0.624  0.00  0.00    -0.060 I 
ATOM     10  F2  UNL d   1      -0.705   1.602  -0.761  0.00  0.00    -0.096 F 
ATOM     11  F3  UNL d   1      -1.084   3.713   0.894  0.00  0.00    -0.097 F 
ATOM     12  F4  UNL d   1       0.426   3.985   3.150  0.00  0.00    -0.092 F 
ENDROOT
TORSDOF 0
ENDMDL
