MODEL 1
REMARK minimizedAffinity 2.6986866
REMARK minimizedRMSD -1
REMARK  0 active torsions:
REMARK  status: ('A' for Active; 'I' for Inactive)
ROOT
ATOM      1  C   UNL d   1      -0.526  -2.210   5.977  0.00  0.00     0.124 A 
ATOM      2  C1  UNL d   1      -1.022  -3.506   5.974  0.00  0.00     0.062 A 
ATOM      3  C2  UNL d   1      -0.149  -4.590   5.979  0.00  0.00     0.162 A 
ATOM      4  C3  UNL d   1       1.231  -4.382   5.988  0.00  0.00    -0.034 A 
ATOM      5  C4  UNL d   1       1.722  -3.075   5.990  0.00  0.00     0.162 A 
ATOM      6  C5  UNL d   1       0.845  -1.995   5.985  0.00  0.00     0.062 A 
ATOM      7  F   UNL d   1       1.326  -0.743   5.989  0.00  0.00    -0.097 F 
ATOM      8  F1  UNL d   1       3.042  -2.839   5.999  0.00  0.00    -0.096 F 
ATOM      9  I   UNL d   1       2.540  -5.999   5.995  0.00  0.00    -0.060 I 
ATOM     10  F2  UNL d   1      -0.656  -5.831   5.975  0.00  0.00    -0.096 F 
ATOM     11  F3  UNL d   1      -2.346  -3.716   5.965  0.00  0.00    -0.097 F 
ATOM     12  F4  UNL d   1      -1.369  -1.169   5.971  0.00  0.00    -0.092 F 
ENDROOT
TORSDOF 0
ENDMDL
