MODEL 1
REMARK minimizedAffinity 11.5060091
REMARK minimizedRMSD -1
REMARK  0 active torsions:
REMARK  status: ('A' for Active; 'I' for Inactive)
ROOT
ATOM      1  C   UNL d   1       1.285  -0.890  -0.713  0.00  0.00     0.124 A 
ATOM      2  C1  UNL d   1       2.102  -1.035   0.399  0.00  0.00     0.062 A 
ATOM      3  C2  UNL d   1       2.028  -0.121   1.447  0.00  0.00     0.162 A 
ATOM      4  C3  UNL d   1       1.132   0.946   1.387  0.00  0.00    -0.034 A 
ATOM      5  C4  UNL d   1       0.314   1.086   0.265  0.00  0.00     0.162 A 
ATOM      6  C5  UNL d   1       0.392   0.170  -0.779  0.00  0.00     0.062 A 
ATOM      7  F   UNL d   1      -0.399   0.311  -1.853  0.00  0.00    -0.097 F 
ATOM      8  F1  UNL d   1      -0.559   2.100   0.175  0.00  0.00    -0.096 F 
ATOM      9  I   UNL d   1       1.018   2.315   2.951  0.00  0.00    -0.060 I 
ATOM     10  F2  UNL d   1       2.830  -0.286   2.509  0.00  0.00    -0.096 F 
ATOM     11  F3  UNL d   1       2.967  -2.058   0.465  0.00  0.00    -0.097 F 
ATOM     12  F4  UNL d   1       1.359  -1.770  -1.719  0.00  0.00    -0.092 F 
ENDROOT
TORSDOF 0
ENDMDL
