MODEL 1
REMARK minimizedAffinity 21.5045624
REMARK minimizedRMSD -1
REMARK  0 active torsions:
REMARK  status: ('A' for Active; 'I' for Inactive)
ROOT
ATOM      1  C   UNL d   1       0.265   2.880   2.364  0.00  0.00     0.124 A 
ATOM      2  C1  UNL d   1      -0.146   2.992   1.043  0.00  0.00     0.062 A 
ATOM      3  C2  UNL d   1       0.040   1.933   0.160  0.00  0.00     0.162 A 
ATOM      4  C3  UNL d   1       0.639   0.750   0.595  0.00  0.00    -0.034 A 
ATOM      5  C4  UNL d   1       1.050   0.646   1.925  0.00  0.00     0.162 A 
ATOM      6  C5  UNL d   1       0.862   1.707   2.804  0.00  0.00     0.062 A 
ATOM      7  F   UNL d   1       1.259   1.597   4.080  0.00  0.00    -0.097 F 
ATOM      8  F1  UNL d   1       1.629  -0.477   2.377  0.00  0.00    -0.096 F 
ATOM      9  I   UNL d   1       0.918  -0.836  -0.722  0.00  0.00    -0.060 I 
ATOM     10  F2  UNL d   1      -0.366   2.069  -1.112  0.00  0.00    -0.096 F 
ATOM     11  F3  UNL d   1      -0.722   4.125   0.615  0.00  0.00    -0.097 F 
ATOM     12  F4  UNL d   1       0.086   3.902   3.211  0.00  0.00    -0.092 F 
ENDROOT
TORSDOF 0
ENDMDL
