MODEL 1
REMARK minimizedAffinity 2.79659724
REMARK minimizedRMSD -1
REMARK  0 active torsions:
REMARK  status: ('A' for Active; 'I' for Inactive)
ROOT
ATOM      1  C   UNL d   1      -1.524  -2.376  -1.178  0.00  0.00     0.124 A 
ATOM      2  C1  UNL d   1      -1.601  -3.697  -1.598  0.00  0.00     0.062 A 
ATOM      3  C2  UNL d   1      -1.427  -4.733  -0.685  0.00  0.00     0.162 A 
ATOM      4  C3  UNL d   1      -1.175  -4.453   0.658  0.00  0.00    -0.034 A 
ATOM      5  C4  UNL d   1      -1.098  -3.122   1.072  0.00  0.00     0.162 A 
ATOM      6  C5  UNL d   1      -1.273  -2.090   0.156  0.00  0.00     0.062 A 
ATOM      7  F   UNL d   1      -1.198  -0.815   0.564  0.00  0.00    -0.097 F 
ATOM      8  F1  UNL d   1      -0.857  -2.817   2.356  0.00  0.00    -0.096 F 
ATOM      9  I   UNL d   1      -0.914  -6.000   2.026  0.00  0.00    -0.060 I 
ATOM     10  F2  UNL d   1      -1.507  -6.000  -1.119  0.00  0.00    -0.096 F 
ATOM     11  F3  UNL d   1      -1.843  -3.976  -2.887  0.00  0.00    -0.097 F 
ATOM     12  F4  UNL d   1      -1.691  -1.381  -2.059  0.00  0.00    -0.092 F 
ENDROOT
TORSDOF 0
ENDMDL
