MODEL 1
REMARK minimizedAffinity 16.0799274
REMARK minimizedRMSD -1
REMARK  0 active torsions:
REMARK  status: ('A' for Active; 'I' for Inactive)
ROOT
ATOM      1  C   UNL d   1       0.753  -0.722  -0.982  0.00  0.00     0.124 A 
ATOM      2  C1  UNL d   1       1.476  -1.063   0.153  0.00  0.00     0.062 A 
ATOM      3  C2  UNL d   1       1.658  -0.134   1.173  0.00  0.00     0.162 A 
ATOM      4  C3  UNL d   1       1.114   1.146   1.064  0.00  0.00    -0.034 A 
ATOM      5  C4  UNL d   1       0.389   1.483  -0.080  0.00  0.00     0.162 A 
ATOM      6  C5  UNL d   1       0.210   0.550  -1.097  0.00  0.00     0.062 A 
ATOM      7  F   UNL d   1      -0.489   0.882  -2.192  0.00  0.00    -0.097 F 
ATOM      8  F1  UNL d   1      -0.148   2.704  -0.218  0.00  0.00    -0.096 F 
ATOM      9  I   UNL d   1       1.384   2.539   2.587  0.00  0.00    -0.060 I 
ATOM     10  F2  UNL d   1       2.361  -0.491   2.258  0.00  0.00    -0.096 F 
ATOM     11  F3  UNL d   1       2.002  -2.291   0.266  0.00  0.00    -0.097 F 
ATOM     12  F4  UNL d   1       0.580  -1.617  -1.962  0.00  0.00    -0.092 F 
ENDROOT
TORSDOF 0
ENDMDL
