MODEL 1
REMARK minimizedAffinity 13.8674793
REMARK minimizedRMSD -1
REMARK  0 active torsions:
REMARK  status: ('A' for Active; 'I' for Inactive)
ROOT
ATOM      1  C   UNL d   1       2.699  -0.839   0.891  0.00  0.00     0.124 A 
ATOM      2  C1  UNL d   1       2.468  -0.671  -0.468  0.00  0.00     0.062 A 
ATOM      3  C2  UNL d   1       1.499  -1.435  -1.112  0.00  0.00     0.162 A 
ATOM      4  C3  UNL d   1       0.753  -2.374  -0.399  0.00  0.00    -0.034 A 
ATOM      5  C4  UNL d   1       0.992  -2.538   0.966  0.00  0.00     0.162 A 
ATOM      6  C5  UNL d   1       1.961  -1.772   1.606  0.00  0.00     0.062 A 
ATOM      7  F   UNL d   1       2.184  -1.935   2.918  0.00  0.00    -0.097 F 
ATOM      8  F1  UNL d   1       0.293  -3.431   1.682  0.00  0.00    -0.096 F 
ATOM      9  I   UNL d   1      -0.696  -3.518  -1.359  0.00  0.00    -0.060 I 
ATOM     10  F2  UNL d   1       1.297  -1.252  -2.426  0.00  0.00    -0.096 F 
ATOM     11  F3  UNL d   1       3.179   0.228  -1.162  0.00  0.00    -0.097 F 
ATOM     12  F4  UNL d   1       3.632  -0.104   1.508  0.00  0.00    -0.092 F 
ENDROOT
TORSDOF 0
ENDMDL
