MODEL 1
REMARK minimizedAffinity 1.01516998
REMARK minimizedRMSD -1
REMARK  1 active torsions:
REMARK  status: ('A' for Active; 'I' for Inactive)
REMARK    1  A    between atoms: C1_2  and  C2_3 
ROOT
ATOM      1  C2  UNL d   1       0.141  -0.880   2.202  0.00  0.00    -0.073 A 
ATOM      2  C3  UNL d   1       0.915  -0.289   3.207  0.00  0.00    -0.002 A 
ATOM      3  C4  UNL d   1       2.307  -0.281   3.112  0.00  0.00     0.004 A 
ATOM      4  C5  UNL d   1       2.939  -0.857   2.011  0.00  0.00    -0.004 A 
ATOM      5  C6  UNL d   1       2.183  -1.443   0.990  0.00  0.00    -0.075 A 
ATOM      6  C7  UNL d   1       2.847  -2.069  -0.201  0.00  0.00     0.076 C 
ATOM      7  C8  UNL d   1       0.785  -1.449   1.094  0.00  0.00     0.001 A 
ENDROOT
BRANCH   1   8
ATOM      8  C1  UNL d   1      -1.363  -0.885   2.297  0.00  0.00     0.053 C 
ATOM      9  C   UNL d   1      -1.906   0.438   2.813  0.00  0.00     0.018 C 
ENDBRANCH   1   8
TORSDOF 1
ENDMDL
