MODEL 1
REMARK minimizedAffinity 9.66694927
REMARK minimizedRMSD -1
REMARK  1 active torsions:
REMARK  status: ('A' for Active; 'I' for Inactive)
REMARK    1  A    between atoms: C1_2  and  C2_3 
ROOT
ATOM      1  C2  UNL d   1       1.033  -1.562   1.415  0.00  0.00    -0.073 A 
ATOM      2  C3  UNL d   1       2.274  -2.077   1.808  0.00  0.00    -0.002 A 
ATOM      3  C4  UNL d   1       3.279  -2.290   0.863  0.00  0.00     0.004 A 
ATOM      4  C5  UNL d   1       3.057  -1.985  -0.479  0.00  0.00    -0.004 A 
ATOM      5  C6  UNL d   1       1.828  -1.459  -0.889  0.00  0.00    -0.075 A 
ATOM      6  C7  UNL d   1       1.572  -1.128  -2.330  0.00  0.00     0.076 C 
ATOM      7  C8  UNL d   1       0.822  -1.250   0.064  0.00  0.00     0.001 A 
ENDROOT
BRANCH   1   8
ATOM      8  C1  UNL d   1      -0.053  -1.325   2.432  0.00  0.00     0.053 C 
ATOM      9  C   UNL d   1       0.324  -0.237   3.425  0.00  0.00     0.018 C 
ENDBRANCH   1   8
TORSDOF 1
ENDMDL
