MODEL 1
REMARK minimizedAffinity -1.8047297
REMARK minimizedRMSD -1
REMARK  1 active torsions:
REMARK  status: ('A' for Active; 'I' for Inactive)
REMARK    1  A    between atoms: C1_2  and  C2_3 
ROOT
ATOM      1  C2  UNL d   1       2.687   1.042   1.697  0.00  0.00    -0.073 A 
ATOM      2  C3  UNL d   1       2.342   0.514   2.947  0.00  0.00    -0.002 A 
ATOM      3  C4  UNL d   1       2.298  -0.867   3.141  0.00  0.00     0.004 A 
ATOM      4  C5  UNL d   1       2.603  -1.734   2.091  0.00  0.00    -0.004 A 
ATOM      5  C6  UNL d   1       2.962  -1.226   0.838  0.00  0.00    -0.075 A 
ATOM      6  C7  UNL d   1       3.291  -2.144  -0.301  0.00  0.00     0.076 C 
ATOM      7  C8  UNL d   1       3.001   0.163   0.651  0.00  0.00     0.001 A 
ENDROOT
BRANCH   1   8
ATOM      8  C1  UNL d   1       2.743   2.532   1.484  0.00  0.00     0.053 C 
ATOM      9  C   UNL d   1       2.522   3.301   2.777  0.00  0.00     0.018 C 
ENDBRANCH   1   8
TORSDOF 1
ENDMDL
