MODEL 1
REMARK minimizedAffinity 5.47267342
REMARK minimizedRMSD -1
REMARK  1 active torsions:
REMARK  status: ('A' for Active; 'I' for Inactive)
REMARK    1  A    between atoms: C1_2  and  C2_3 
ROOT
ATOM      1  C2  UNL d   1       0.573  -1.444   2.788  0.00  0.00    -0.073 A 
ATOM      2  C3  UNL d   1       0.088  -2.730   2.526  0.00  0.00    -0.002 A 
ATOM      3  C4  UNL d   1      -1.286  -2.967   2.468  0.00  0.00     0.004 A 
ATOM      4  C5  UNL d   1      -2.188  -1.922   2.664  0.00  0.00    -0.004 A 
ATOM      5  C6  UNL d   1      -1.723  -0.627   2.915  0.00  0.00    -0.075 A 
ATOM      6  C7  UNL d   1      -2.680   0.509   3.130  0.00  0.00     0.076 C 
ATOM      7  C8  UNL d   1      -0.342  -0.397   2.975  0.00  0.00     0.001 A 
ENDROOT
BRANCH   1   8
ATOM      8  C1  UNL d   1       2.055  -1.182   2.845  0.00  0.00     0.053 C 
ATOM      9  C   UNL d   1       2.801  -1.877   1.717  0.00  0.00     0.018 C 
ENDBRANCH   1   8
TORSDOF 1
ENDMDL
