MODEL 1
REMARK minimizedAffinity 2.48821688
REMARK minimizedRMSD -1
REMARK  0 active torsions:
REMARK  status: ('A' for Active; 'I' for Inactive)
ROOT
ATOM      1  C   UNL d   1       1.356  -3.673   5.660  0.00  0.00     0.078 C 
ATOM      2  C1  UNL d   1       1.723  -2.919   4.417  0.00  0.00    -0.077 A 
ATOM      3  C2  UNL d   1       1.673  -1.520   4.380  0.00  0.00    -0.001 A 
ATOM      4  C3  UNL d   1       2.008  -0.832   3.213  0.00  0.00     0.003 A 
ATOM      5  C4  UNL d   1       2.394  -1.534   2.074  0.00  0.00    -0.005 A 
ATOM      6  C5  UNL d   1       2.446  -2.926   2.099  0.00  0.00     0.003 A 
ATOM      7  C6  UNL d   1       2.111  -3.616   3.265  0.00  0.00    -0.001 A 
ENDROOT
TORSDOF 0
ENDMDL
