MODEL 1
REMARK minimizedAffinity 5.94067335
REMARK minimizedRMSD -1
REMARK  0 active torsions:
REMARK  status: ('A' for Active; 'I' for Inactive)
ROOT
ATOM      1  C   UNL d   1       2.216  -0.448   2.898  0.00  0.00     0.078 C 
ATOM      2  C1  UNL d   1       1.377  -0.840   1.718  0.00  0.00    -0.077 A 
ATOM      3  C2  UNL d   1      -0.020  -0.775   1.773  0.00  0.00    -0.001 A 
ATOM      4  C3  UNL d   1      -0.789  -1.152   0.671  0.00  0.00     0.003 A 
ATOM      5  C4  UNL d   1      -0.168  -1.597  -0.495  0.00  0.00    -0.005 A 
ATOM      6  C5  UNL d   1       1.222  -1.666  -0.559  0.00  0.00     0.003 A 
ATOM      7  C6  UNL d   1       1.992  -1.290   0.543  0.00  0.00    -0.001 A 
ENDROOT
TORSDOF 0
ENDMDL
