MODEL 1
REMARK minimizedAffinity 0.206795096
REMARK minimizedRMSD -1
REMARK  0 active torsions:
REMARK  status: ('A' for Active; 'I' for Inactive)
ROOT
ATOM      1  C   UNL d   1      -5.848   3.393  -4.856  0.00  0.00     0.078 C 
ATOM      2  C1  UNL d   1      -5.856   1.981  -4.353  0.00  0.00    -0.077 A 
ATOM      3  C2  UNL d   1      -5.708   1.701  -2.989  0.00  0.00    -0.001 A 
ATOM      4  C3  UNL d   1      -5.708   0.381  -2.535  0.00  0.00     0.003 A 
ATOM      5  C4  UNL d   1      -5.854  -0.670  -3.439  0.00  0.00    -0.005 A 
ATOM      6  C5  UNL d   1      -6.000  -0.401  -4.798  0.00  0.00     0.003 A 
ATOM      7  C6  UNL d   1      -6.000   0.918  -5.254  0.00  0.00    -0.001 A 
ENDROOT
TORSDOF 0
ENDMDL
