MODEL 1
REMARK minimizedAffinity 11.1650991
REMARK minimizedRMSD -1
REMARK  0 active torsions:
REMARK  status: ('A' for Active; 'I' for Inactive)
ROOT
ATOM      1  C   UNL d   1       2.001  -1.129   3.093  0.00  0.00     0.078 C 
ATOM      2  C1  UNL d   1       2.442   0.097   2.351  0.00  0.00    -0.077 A 
ATOM      3  C2  UNL d   1       3.063  -0.000   1.100  0.00  0.00    -0.001 A 
ATOM      4  C3  UNL d   1       3.477   1.149   0.426  0.00  0.00     0.003 A 
ATOM      5  C4  UNL d   1       3.275   2.405   0.995  0.00  0.00    -0.005 A 
ATOM      6  C5  UNL d   1       2.660   2.512   2.240  0.00  0.00     0.003 A 
ATOM      7  C6  UNL d   1       2.246   1.364   2.916  0.00  0.00    -0.001 A 
ENDROOT
TORSDOF 0
ENDMDL
