MODEL 1
REMARK minimizedAffinity 6.75069427
REMARK minimizedRMSD -1
REMARK  0 active torsions:
REMARK  status: ('A' for Active; 'I' for Inactive)
ROOT
ATOM      1  C   UNL d   1       3.644  -5.901  -1.925  0.00  0.00     0.078 C 
ATOM      2  C1  UNL d   1       4.164  -5.758  -3.324  0.00  0.00    -0.077 A 
ATOM      3  C2  UNL d   1       5.514  -5.480  -3.567  0.00  0.00    -0.001 A 
ATOM      4  C3  UNL d   1       5.983  -5.340  -4.874  0.00  0.00     0.003 A 
ATOM      5  C4  UNL d   1       5.107  -5.476  -5.949  0.00  0.00    -0.005 A 
ATOM      6  C5  UNL d   1       3.761  -5.751  -5.718  0.00  0.00     0.003 A 
ATOM      7  C6  UNL d   1       3.291  -5.891  -4.411  0.00  0.00    -0.001 A 
ENDROOT
TORSDOF 0
ENDMDL
