MODEL 1
REMARK minimizedAffinity 4.95559835
REMARK minimizedRMSD -1
REMARK  0 active torsions:
REMARK  status: ('A' for Active; 'I' for Inactive)
ROOT
ATOM      1  C   UNL d   1       5.717  -2.006   3.081  0.00  0.00     0.078 C 
ATOM      2  C1  UNL d   1       4.340  -1.474   2.816  0.00  0.00    -0.077 A 
ATOM      3  C2  UNL d   1       3.215  -2.060   3.407  0.00  0.00    -0.001 A 
ATOM      4  C3  UNL d   1       1.938  -1.561   3.144  0.00  0.00     0.003 A 
ATOM      5  C4  UNL d   1       1.775  -0.473   2.288  0.00  0.00    -0.005 A 
ATOM      6  C5  UNL d   1       2.889   0.116   1.694  0.00  0.00     0.003 A 
ATOM      7  C6  UNL d   1       4.166  -0.382   1.956  0.00  0.00    -0.001 A 
ENDROOT
TORSDOF 0
ENDMDL
