MODEL 1
REMARK minimizedAffinity 11.8606863
REMARK minimizedRMSD -1
REMARK  0 active torsions:
REMARK  status: ('A' for Active; 'I' for Inactive)
ROOT
ATOM      1  C4' PXY d   1      -1.939   5.045  -2.952  0.00  0.00     0.077 C 
ATOM      2  C1' PXY d   1       1.379   2.305   0.908  0.00  0.00     0.077 C 
ATOM      3  C1  PXY d   1       0.519   3.030  -0.108  0.00  0.00    -0.082 A 
ATOM      4  C2  PXY d   1      -0.787   3.115   0.082  0.00  0.00     0.003 A 
ATOM      5  C3  PXY d   1      -1.584   3.739  -0.843  0.00  0.00     0.003 A 
ATOM      6  C4  PXY d   1      -1.031   4.330  -1.948  0.00  0.00    -0.082 A 
ATOM      7  C5  PXY d   1       0.303   4.257  -2.144  0.00  0.00     0.003 A 
ATOM      8  C6  PXY d   1       1.089   3.583  -1.214  0.00  0.00     0.003 A 
ENDROOT
TORSDOF 0
ENDMDL
