MODEL 1
REMARK minimizedAffinity 8.00266552
REMARK minimizedRMSD -1
REMARK  0 active torsions:
REMARK  status: ('A' for Active; 'I' for Inactive)
ROOT
ATOM      1  C4' PXY d   1       0.413  -3.759  -1.409  0.00  0.00     0.077 C 
ATOM      2  C1' PXY d   1       5.999  -4.721  -0.276  0.00  0.00     0.077 C 
ATOM      3  C1  PXY d   1       4.534  -4.459  -0.564  0.00  0.00    -0.082 A 
ATOM      4  C2  PXY d   1       3.798  -5.407  -1.122  0.00  0.00     0.003 A 
ATOM      5  C3  PXY d   1       2.479  -5.176  -1.419  0.00  0.00     0.003 A 
ATOM      6  C4  PXY d   1       1.894  -3.982  -1.092  0.00  0.00    -0.082 A 
ATOM      7  C5  PXY d   1       2.636  -3.014  -0.512  0.00  0.00     0.003 A 
ATOM      8  C6  PXY d   1       3.983  -3.254  -0.257  0.00  0.00     0.003 A 
ENDROOT
TORSDOF 0
ENDMDL
