MODEL 1
REMARK minimizedAffinity 4.43743134
REMARK minimizedRMSD -1
REMARK  0 active torsions:
REMARK  status: ('A' for Active; 'I' for Inactive)
ROOT
ATOM      1  C4' PXY d   1      -0.743   1.171   3.376  0.00  0.00     0.077 C 
ATOM      2  C1' PXY d   1       0.967   3.777  -1.493  0.00  0.00     0.077 C 
ATOM      3  C1  PXY d   1       0.511   3.104  -0.213  0.00  0.00    -0.082 A 
ATOM      4  C2  PXY d   1       1.269   2.172   0.341  0.00  0.00     0.003 A 
ATOM      5  C3  PXY d   1       0.857   1.531   1.481  0.00  0.00     0.003 A 
ATOM      6  C4  PXY d   1      -0.318   1.884   2.089  0.00  0.00    -0.082 A 
ATOM      7  C5  PXY d   1      -1.092   2.841   1.535  0.00  0.00     0.003 A 
ATOM      8  C6  PXY d   1      -0.676   3.451   0.355  0.00  0.00     0.003 A 
ENDROOT
TORSDOF 0
ENDMDL
