MODEL 1
REMARK minimizedAffinity 4.17925119
REMARK minimizedRMSD -1
REMARK  0 active torsions:
REMARK  status: ('A' for Active; 'I' for Inactive)
ROOT
ATOM      1  C4' PXY d   1       0.062   0.910   3.669  0.00  0.00     0.077 C 
ATOM      2  C1' PXY d   1       0.125   3.678  -1.405  0.00  0.00     0.077 C 
ATOM      3  C1  PXY d   1       0.098   2.959  -0.071  0.00  0.00    -0.082 A 
ATOM      4  C2  PXY d   1       1.198   2.379   0.382  0.00  0.00     0.003 A 
ATOM      5  C3  PXY d   1       1.183   1.698   1.572  0.00  0.00     0.003 A 
ATOM      6  C4  PXY d   1       0.045   1.655   2.332  0.00  0.00    -0.082 A 
ATOM      7  C5  PXY d   1      -1.078   2.253   1.882  0.00  0.00     0.003 A 
ATOM      8  C6  PXY d   1      -1.053   2.905   0.652  0.00  0.00     0.003 A 
ENDROOT
TORSDOF 0
ENDMDL
