MODEL 1
REMARK minimizedAffinity 7.97777462
REMARK minimizedRMSD -1
REMARK  0 active torsions:
REMARK  status: ('A' for Active; 'I' for Inactive)
ROOT
ATOM      1  C4' PXY d   1      -1.559   1.440   2.035  0.00  0.00     0.077 C 
ATOM      2  C1' PXY d   1       1.721   4.497  -1.613  0.00  0.00     0.077 C 
ATOM      3  C1  PXY d   1       0.872   3.689  -0.651  0.00  0.00    -0.082 A 
ATOM      4  C2  PXY d   1      -0.393   3.437  -0.949  0.00  0.00     0.003 A 
ATOM      5  C3  PXY d   1      -1.184   2.736  -0.076  0.00  0.00     0.003 A 
ATOM      6  C4  PXY d   1      -0.662   2.243   1.090  0.00  0.00    -0.082 A 
ATOM      7  C5  PXY d   1       0.630   2.487   1.396  0.00  0.00     0.003 A 
ATOM      8  C6  PXY d   1       1.406   3.236   0.516  0.00  0.00     0.003 A 
ENDROOT
TORSDOF 0
ENDMDL
