MODEL 1
REMARK minimizedAffinity 9.12237835
REMARK minimizedRMSD -1
REMARK  0 active torsions:
REMARK  status: ('A' for Active; 'I' for Inactive)
ROOT
ATOM      1  C4' PXY d   1      -5.901  -4.755  -5.831  0.00  0.00     0.077 C 
ATOM      2  C1' PXY d   1      -0.126  -4.933  -5.980  0.00  0.00     0.077 C 
ATOM      3  C1  PXY d   1      -1.640  -4.874  -5.936  0.00  0.00    -0.082 A 
ATOM      4  C2  PXY d   1      -2.337  -5.998  -5.915  0.00  0.00     0.003 A 
ATOM      5  C3  PXY d   1      -3.708  -5.963  -5.907  0.00  0.00     0.003 A 
ATOM      6  C4  PXY d   1      -4.371  -4.766  -5.866  0.00  0.00    -0.082 A 
ATOM      7  C5  PXY d   1      -3.666  -3.615  -5.876  0.00  0.00     0.003 A 
ATOM      8  C6  PXY d   1      -2.276  -3.671  -5.926  0.00  0.00     0.003 A 
ENDROOT
TORSDOF 0
ENDMDL
