MODEL 1
REMARK minimizedAffinity 5.22664452
REMARK minimizedRMSD -1
REMARK  0 active torsions:
REMARK  status: ('A' for Active; 'I' for Inactive)
ROOT
ATOM      1  C4' PXY d   1      -4.140   5.251  -2.939  0.00  0.00     0.077 C 
ATOM      2  C1' PXY d   1      -2.842   6.000   2.644  0.00  0.00     0.077 C 
ATOM      3  C1  PXY d   1      -3.170   5.806   1.176  0.00  0.00    -0.082 A 
ATOM      4  C2  PXY d   1      -4.411   5.985   0.754  0.00  0.00     0.003 A 
ATOM      5  C3  PXY d   1      -4.731   5.783  -0.563  0.00  0.00     0.003 A 
ATOM      6  C4  PXY d   1      -3.761   5.445  -1.468  0.00  0.00    -0.082 A 
ATOM      7  C5  PXY d   1      -2.490   5.270  -1.048  0.00  0.00     0.003 A 
ATOM      8  C6  PXY d   1      -2.194   5.441   0.302  0.00  0.00     0.003 A 
ENDROOT
TORSDOF 0
ENDMDL
