MODEL 1
REMARK minimizedAffinity 4.97768688
REMARK minimizedRMSD -1
REMARK  0 active torsions:
REMARK  status: ('A' for Active; 'I' for Inactive)
ROOT
ATOM      1  C4' PXY d   1       0.929   1.968   3.050  0.00  0.00     0.077 C 
ATOM      2  C1' PXY d   1      -2.966   3.523  -0.929  0.00  0.00     0.077 C 
ATOM      3  C1  PXY d   1      -1.938   3.109   0.106  0.00  0.00    -0.082 A 
ATOM      4  C2  PXY d   1      -2.281   3.049   1.382  0.00  0.00     0.003 A 
ATOM      5  C3  PXY d   1      -1.356   2.708   2.334  0.00  0.00     0.003 A 
ATOM      6  C4  PXY d   1      -0.079   2.372   1.970  0.00  0.00    -0.082 A 
ATOM      7  C5  PXY d   1       0.276   2.421   0.669  0.00  0.00     0.003 A 
ATOM      8  C6  PXY d   1      -0.667   2.810  -0.278  0.00  0.00     0.003 A 
ENDROOT
TORSDOF 0
ENDMDL
