MODEL 1
REMARK minimizedAffinity 7.66959715
REMARK minimizedRMSD -1
REMARK  0 active torsions:
REMARK  status: ('A' for Active; 'I' for Inactive)
ROOT
ATOM      1  C4' PXY d   1      -1.548   4.015  -1.512  0.00  0.00     0.077 C 
ATOM      2  C1' PXY d   1       1.743  -0.481   0.030  0.00  0.00     0.077 C 
ATOM      3  C1  PXY d   1       0.869   0.692  -0.370  0.00  0.00    -0.082 A 
ATOM      4  C2  PXY d   1       1.282   1.523  -1.314  0.00  0.00     0.003 A 
ATOM      5  C3  PXY d   1       0.519   2.606  -1.665  0.00  0.00     0.003 A 
ATOM      6  C4  PXY d   1      -0.703   2.812  -1.082  0.00  0.00    -0.082 A 
ATOM      7  C5  PXY d   1      -1.135   1.963  -0.126  0.00  0.00     0.003 A 
ATOM      8  C6  PXY d   1      -0.327   0.892   0.246  0.00  0.00     0.003 A 
ENDROOT
TORSDOF 0
ENDMDL
