MODEL 1
REMARK minimizedAffinity 11.2403898
REMARK minimizedRMSD -1
REMARK  0 active torsions:
REMARK  status: ('A' for Active; 'I' for Inactive)
ROOT
ATOM      1  C4' PXY d   1       2.937  -4.513   0.511  0.00  0.00     0.077 C 
ATOM      2  C1' PXY d   1       6.000  -5.750  -4.233  0.00  0.00     0.077 C 
ATOM      3  C1  PXY d   1       5.208  -5.422  -2.982  0.00  0.00    -0.082 A 
ATOM      4  C2  PXY d   1       4.035  -6.000  -2.781  0.00  0.00     0.003 A 
ATOM      5  C3  PXY d   1       3.291  -5.691  -1.672  0.00  0.00     0.003 A 
ATOM      6  C4  PXY d   1       3.776  -4.821  -0.732  0.00  0.00    -0.082 A 
ATOM      7  C5  PXY d   1       4.977  -4.235  -0.925  0.00  0.00     0.003 A 
ATOM      8  C6  PXY d   1       5.698  -4.531  -2.078  0.00  0.00     0.003 A 
ENDROOT
TORSDOF 0
ENDMDL
