MODEL 1
REMARK minimizedAffinity 8.3676815
REMARK minimizedRMSD -1
REMARK  0 active torsions:
REMARK  status: ('A' for Active; 'I' for Inactive)
ROOT
ATOM      1  C4' PXY d   1       2.106   1.154   1.078  0.00  0.00     0.077 C 
ATOM      2  C1' PXY d   1      -1.754   4.529  -1.591  0.00  0.00     0.077 C 
ATOM      3  C1  PXY d   1      -0.749   3.645  -0.880  0.00  0.00    -0.082 A 
ATOM      4  C2  PXY d   1       0.500   3.594  -1.314  0.00  0.00     0.003 A 
ATOM      5  C3  PXY d   1       1.414   2.775  -0.703  0.00  0.00     0.003 A 
ATOM      6  C4  PXY d   1       1.060   2.040   0.397  0.00  0.00    -0.082 A 
ATOM      7  C5  PXY d   1      -0.210   2.095   0.852  0.00  0.00     0.003 A 
ATOM      8  C6  PXY d   1      -1.133   2.901   0.193  0.00  0.00     0.003 A 
ENDROOT
TORSDOF 0
ENDMDL
