MODEL 1
REMARK minimizedAffinity 10.9790764
REMARK minimizedRMSD -1
REMARK  0 active torsions:
REMARK  status: ('A' for Active; 'I' for Inactive)
ROOT
ATOM      1  C   UNL d   1       3.634  -1.492   4.828  0.00  0.00     0.124 A 
ATOM      2  C1  UNL d   1       4.831  -1.174   4.203  0.00  0.00     0.062 A 
ATOM      3  C2  UNL d   1       4.828  -0.501   2.985  0.00  0.00     0.162 A 
ATOM      4  C3  UNL d   1       3.622  -0.139   2.384  0.00  0.00    -0.034 A 
ATOM      5  C4  UNL d   1       2.421  -0.463   3.019  0.00  0.00     0.162 A 
ATOM      6  C5  UNL d   1       2.430  -1.137   4.236  0.00  0.00     0.062 A 
ATOM      7  F   UNL d   1       1.272  -1.443   4.839  0.00  0.00    -0.097 F 
ATOM      8  F1  UNL d   1       1.244  -0.131   2.469  0.00  0.00    -0.096 F 
ATOM      9  I   UNL d   1       3.612   0.868   0.563  0.00  0.00    -0.060 I 
ATOM     10  F2  UNL d   1       6.000  -0.206   2.403  0.00  0.00    -0.096 F 
ATOM     11  F3  UNL d   1       5.996  -1.517   4.773  0.00  0.00    -0.097 F 
ATOM     12  F4  UNL d   1       3.640  -2.141   6.000  0.00  0.00    -0.092 F 
ENDROOT
TORSDOF 0
ENDMDL
