MODEL 1
REMARK minimizedAffinity 10.8654528
REMARK minimizedRMSD -1
REMARK  0 active torsions:
REMARK  status: ('A' for Active; 'I' for Inactive)
ROOT
ATOM      1  C   UNL d   1       1.245  -0.976   2.279  0.00  0.00     0.124 A 
ATOM      2  C1  UNL d   1       1.930  -1.231   1.099  0.00  0.00     0.062 A 
ATOM      3  C2  UNL d   1       3.288  -1.537   1.130  0.00  0.00     0.162 A 
ATOM      4  C3  UNL d   1       3.969  -1.592   2.346  0.00  0.00    -0.034 A 
ATOM      5  C4  UNL d   1       3.273  -1.335   3.528  0.00  0.00     0.162 A 
ATOM      6  C5  UNL d   1       1.917  -1.029   3.492  0.00  0.00     0.062 A 
ATOM      7  F   UNL d   1       1.256  -0.783   4.633  0.00  0.00    -0.097 F 
ATOM      8  F1  UNL d   1       3.897  -1.379   4.715  0.00  0.00    -0.096 F 
ATOM      9  I   UNL d   1       5.999  -2.051   2.397  0.00  0.00    -0.060 I 
ATOM     10  F2  UNL d   1       3.925  -1.778  -0.026  0.00  0.00    -0.096 F 
ATOM     11  F3  UNL d   1       1.284  -1.180  -0.075  0.00  0.00    -0.097 F 
ATOM     12  F4  UNL d   1      -0.061  -0.681   2.246  0.00  0.00    -0.092 F 
ENDROOT
TORSDOF 0
ENDMDL
