MODEL 1
REMARK minimizedAffinity 18.9621887
REMARK minimizedRMSD -1
REMARK  0 active torsions:
REMARK  status: ('A' for Active; 'I' for Inactive)
ROOT
ATOM      1  C   UNL d   1       1.908   0.193   2.204  0.00  0.00     0.124 A 
ATOM      2  C1  UNL d   1       2.977   0.502   1.375  0.00  0.00     0.062 A 
ATOM      3  C2  UNL d   1       4.080  -0.345   1.309  0.00  0.00     0.162 A 
ATOM      4  C3  UNL d   1       4.118  -1.511   2.074  0.00  0.00    -0.034 A 
ATOM      5  C4  UNL d   1       3.039  -1.815   2.906  0.00  0.00     0.162 A 
ATOM      6  C5  UNL d   1       1.939  -0.965   2.968  0.00  0.00     0.062 A 
ATOM      7  F   UNL d   1       0.907  -1.266   3.769  0.00  0.00    -0.097 F 
ATOM      8  F1  UNL d   1       3.043  -2.928   3.654  0.00  0.00    -0.096 F 
ATOM      9  I   UNL d   1       5.765  -2.780   1.978  0.00  0.00    -0.060 I 
ATOM     10  F2  UNL d   1       5.099  -0.021   0.500  0.00  0.00    -0.096 F 
ATOM     11  F3  UNL d   1       2.949   1.621   0.637  0.00  0.00    -0.097 F 
ATOM     12  F4  UNL d   1       0.848   1.010   2.266  0.00  0.00    -0.092 F 
ENDROOT
TORSDOF 0
ENDMDL
