MODEL 1
REMARK minimizedAffinity 14.5001154
REMARK minimizedRMSD -1
REMARK  0 active torsions:
REMARK  status: ('A' for Active; 'I' for Inactive)
ROOT
ATOM      1  C   UNL d   1       2.040  -0.995   1.976  0.00  0.00     0.124 A 
ATOM      2  C1  UNL d   1       3.374  -0.909   2.350  0.00  0.00     0.062 A 
ATOM      3  C2  UNL d   1       3.866  -1.709   3.377  0.00  0.00     0.162 A 
ATOM      4  C3  UNL d   1       3.023  -2.603   4.037  0.00  0.00    -0.034 A 
ATOM      5  C4  UNL d   1       1.683  -2.684   3.656  0.00  0.00     0.162 A 
ATOM      6  C5  UNL d   1       1.196  -1.882   2.629  0.00  0.00     0.062 A 
ATOM      7  F   UNL d   1      -0.093  -1.967   2.268  0.00  0.00    -0.097 F 
ATOM      8  F1  UNL d   1       0.846  -3.534   4.269  0.00  0.00    -0.096 F 
ATOM      9  I   UNL d   1       3.755  -3.801   5.574  0.00  0.00    -0.060 I 
ATOM     10  F2  UNL d   1       5.159  -1.604   3.718  0.00  0.00    -0.096 F 
ATOM     11  F3  UNL d   1       4.191  -0.051   1.722  0.00  0.00    -0.097 F 
ATOM     12  F4  UNL d   1       1.569  -0.223   0.988  0.00  0.00    -0.092 F 
ENDROOT
TORSDOF 0
ENDMDL
