MODEL 1
REMARK minimizedAffinity 18.7889977
REMARK minimizedRMSD -1
REMARK  0 active torsions:
REMARK  status: ('A' for Active; 'I' for Inactive)
ROOT
ATOM      1  C   UNL d   1       3.078   1.869   2.216  0.00  0.00     0.124 A 
ATOM      2  C1  UNL d   1       3.063   0.678   1.504  0.00  0.00     0.062 A 
ATOM      3  C2  UNL d   1       2.702  -0.510   2.134  0.00  0.00     0.162 A 
ATOM      4  C3  UNL d   1       2.351  -0.512   3.484  0.00  0.00    -0.034 A 
ATOM      5  C4  UNL d   1       2.369   0.691   4.194  0.00  0.00     0.162 A 
ATOM      6  C5  UNL d   1       2.731   1.875   3.559  0.00  0.00     0.062 A 
ATOM      7  F   UNL d   1       2.745   3.025   4.249  0.00  0.00    -0.097 F 
ATOM      8  F1  UNL d   1       2.037   0.725   5.493  0.00  0.00    -0.096 F 
ATOM      9  I   UNL d   1       1.810  -2.285   4.429  0.00  0.00    -0.060 I 
ATOM     10  F2  UNL d   1       2.696  -1.646   1.421  0.00  0.00    -0.096 F 
ATOM     11  F3  UNL d   1       3.399   0.670   0.206  0.00  0.00    -0.097 F 
ATOM     12  F4  UNL d   1       3.427   3.010   1.607  0.00  0.00    -0.092 F 
ENDROOT
TORSDOF 0
ENDMDL
