MODEL 1
REMARK minimizedAffinity 10.924861
REMARK minimizedRMSD -1
REMARK  0 active torsions:
REMARK  status: ('A' for Active; 'I' for Inactive)
ROOT
ATOM      1  C   UNL d   1       2.866   1.020   1.677  0.00  0.00     0.124 A 
ATOM      2  C1  UNL d   1       2.085   1.935   2.370  0.00  0.00     0.062 A 
ATOM      3  C2  UNL d   1       1.471   2.984   1.693  0.00  0.00     0.162 A 
ATOM      4  C3  UNL d   1       1.634   3.124   0.314  0.00  0.00    -0.034 A 
ATOM      5  C4  UNL d   1       2.422   2.200  -0.375  0.00  0.00     0.162 A 
ATOM      6  C5  UNL d   1       3.034   1.153   0.306  0.00  0.00     0.062 A 
ATOM      7  F   UNL d   1       3.788   0.270  -0.364  0.00  0.00    -0.097 F 
ATOM      8  F1  UNL d   1       2.600   2.305  -1.700  0.00  0.00    -0.096 F 
ATOM      9  I   UNL d   1       0.717   4.692  -0.702  0.00  0.00    -0.060 I 
ATOM     10  F2  UNL d   1       0.722   3.854   2.387  0.00  0.00    -0.096 F 
ATOM     11  F3  UNL d   1       1.923   1.809   3.695  0.00  0.00    -0.097 F 
ATOM     12  F4  UNL d   1       3.457   0.011   2.332  0.00  0.00    -0.092 F 
ENDROOT
TORSDOF 0
ENDMDL
