MODEL 1
REMARK minimizedAffinity 26.8202629
REMARK minimizedRMSD -1
REMARK  0 active torsions:
REMARK  status: ('A' for Active; 'I' for Inactive)
ROOT
ATOM      1  C   UNL d   1      -2.232  -2.170  -1.161  0.00  0.00     0.124 A 
ATOM      2  C1  UNL d   1      -2.303  -1.102  -2.045  0.00  0.00     0.062 A 
ATOM      3  C2  UNL d   1      -2.912  -1.260  -3.286  0.00  0.00     0.162 A 
ATOM      4  C3  UNL d   1      -3.457  -2.491  -3.651  0.00  0.00    -0.034 A 
ATOM      5  C4  UNL d   1      -3.381  -3.561  -2.757  0.00  0.00     0.162 A 
ATOM      6  C5  UNL d   1      -2.771  -3.398  -1.518  0.00  0.00     0.062 A 
ATOM      7  F   UNL d   1      -2.703  -4.431  -0.665  0.00  0.00    -0.097 F 
ATOM      8  F1  UNL d   1      -3.894  -4.759  -3.076  0.00  0.00    -0.096 F 
ATOM      9  I   UNL d   1      -4.368  -2.732  -5.507  0.00  0.00    -0.060 I 
ATOM     10  F2  UNL d   1      -2.966  -0.211  -4.120  0.00  0.00    -0.096 F 
ATOM     11  F3  UNL d   1      -1.782   0.085  -1.702  0.00  0.00    -0.097 F 
ATOM     12  F4  UNL d   1      -1.644  -2.016   0.033  0.00  0.00    -0.092 F 
ENDROOT
TORSDOF 0
ENDMDL
