MODEL 1
REMARK minimizedAffinity -4.62498522
REMARK minimizedRMSD -1
REMARK  0 active torsions:
REMARK  status: ('A' for Active; 'I' for Inactive)
ROOT
ATOM      1  N1  IND d   1      -0.604   0.059  -0.642  0.00  0.00    -0.196 N 
ATOM      2  C2  IND d   1       0.753   0.218  -0.699  0.00  0.00     0.054 A 
ATOM      3  C3  IND d   1       1.274   0.262   0.547  0.00  0.00    -0.031 A 
ATOM      4  C4  IND d   1       0.099  -0.011   2.822  0.00  0.00     0.051 A 
ATOM      5  C5  IND d   1      -1.139  -0.141   3.386  0.00  0.00    -0.031 A 
ATOM      6  C6  IND d   1      -2.285  -0.216   2.621  0.00  0.00     0.015 A 
ATOM      7  C7  IND d   1      -2.234  -0.174   1.256  0.00  0.00    -0.016 A 
ATOM      8  C8  IND d   1      -0.979  -0.034   0.680  0.00  0.00    -0.047 A 
ATOM      9  C9  IND d   1       0.183   0.085   1.453  0.00  0.00    -0.096 A 
ATOM     10  HN1 IND d   1      -1.134   0.023  -1.319  0.00  0.00     0.298 HD
ENDROOT
TORSDOF 0
ENDMDL
