MODEL 1
REMARK minimizedAffinity -2.89458156
REMARK minimizedRMSD -1
REMARK  0 active torsions:
REMARK  status: ('A' for Active; 'I' for Inactive)
ROOT
ATOM      1  N1  IND d   1       0.797   0.857   0.137  0.00  0.00    -0.196 N 
ATOM      2  C2  IND d   1       0.481   0.132  -0.979  0.00  0.00     0.054 A 
ATOM      3  C3  IND d   1      -0.561  -0.691  -0.725  0.00  0.00    -0.031 A 
ATOM      4  C4  IND d   1      -1.966  -0.939   1.418  0.00  0.00     0.051 A 
ATOM      5  C5  IND d   1      -2.036  -0.515   2.715  0.00  0.00    -0.031 A 
ATOM      6  C6  IND d   1      -1.149   0.409   3.229  0.00  0.00     0.015 A 
ATOM      7  C7  IND d   1      -0.162   0.954   2.457  0.00  0.00    -0.016 A 
ATOM      8  C8  IND d   1      -0.083   0.520   1.142  0.00  0.00    -0.047 A 
ATOM      9  C9  IND d   1      -0.954  -0.449   0.627  0.00  0.00    -0.096 A 
ATOM     10  HN1 IND d   1       1.437   1.427   0.200  0.00  0.00     0.298 HD
ENDROOT
TORSDOF 0
ENDMDL
