MODEL 1
REMARK minimizedAffinity -4.56952858
REMARK minimizedRMSD -1
REMARK  0 active torsions:
REMARK  status: ('A' for Active; 'I' for Inactive)
ROOT
ATOM      1  N1  IND d   1      -0.717   0.095  -0.577  0.00  0.00    -0.196 N 
ATOM      2  C2  IND d   1       0.644  -0.002  -0.508  0.00  0.00     0.054 A 
ATOM      3  C3  IND d   1       1.047  -0.060   0.781  0.00  0.00    -0.031 A 
ATOM      4  C4  IND d   1      -0.363  -0.113   2.934  0.00  0.00     0.051 A 
ATOM      5  C5  IND d   1      -1.651  -0.010   3.382  0.00  0.00    -0.031 A 
ATOM      6  C6  IND d   1      -2.715   0.133   2.514  0.00  0.00     0.015 A 
ATOM      7  C7  IND d   1      -2.531   0.168   1.161  0.00  0.00    -0.016 A 
ATOM      8  C8  IND d   1      -1.224   0.071   0.704  0.00  0.00    -0.047 A 
ATOM      9  C9  IND d   1      -0.137  -0.032   1.581  0.00  0.00    -0.096 A 
ATOM     10  HN1 IND d   1      -1.180   0.161  -1.299  0.00  0.00     0.298 HD
ENDROOT
TORSDOF 0
ENDMDL
