MODEL 1
REMARK minimizedAffinity -6.20846176
REMARK minimizedRMSD -1
REMARK  0 active torsions:
REMARK  status: ('A' for Active; 'I' for Inactive)
ROOT
ATOM      1  N1  IND d   1      -0.705   0.099  -0.821  0.00  0.00    -0.196 N 
ATOM      2  C2  IND d   1       0.660   0.129  -0.744  0.00  0.00     0.054 A 
ATOM      3  C3  IND d   1       1.060   0.032   0.544  0.00  0.00    -0.031 A 
ATOM      4  C4  IND d   1      -0.349  -0.285   2.675  0.00  0.00     0.051 A 
ATOM      5  C5  IND d   1      -1.642  -0.334   3.114  0.00  0.00    -0.031 A 
ATOM      6  C6  IND d   1      -2.711  -0.241   2.246  0.00  0.00     0.015 A 
ATOM      7  C7  IND d   1      -2.525  -0.108   0.899  0.00  0.00    -0.016 A 
ATOM      8  C8  IND d   1      -1.213  -0.051   0.450  0.00  0.00    -0.047 A 
ATOM      9  C9  IND d   1      -0.124  -0.101   1.331  0.00  0.00    -0.096 A 
ATOM     10  HN1 IND d   1      -1.168   0.164  -1.543  0.00  0.00     0.298 HD
ENDROOT
TORSDOF 0
ENDMDL
