MODEL 1
REMARK minimizedAffinity -5.78560877
REMARK minimizedRMSD -1
REMARK  0 active torsions:
REMARK  status: ('A' for Active; 'I' for Inactive)
ROOT
ATOM      1  N1  IND d   1      -0.974   0.290  -0.638  0.00  0.00    -0.196 N 
ATOM      2  C2  IND d   1       0.299  -0.201  -0.709  0.00  0.00     0.054 A 
ATOM      3  C3  IND d   1       0.730  -0.573   0.518  0.00  0.00    -0.031 A 
ATOM      4  C4  IND d   1      -0.526  -0.558   2.765  0.00  0.00     0.051 A 
ATOM      5  C5  IND d   1      -1.702  -0.164   3.339  0.00  0.00    -0.031 A 
ATOM      6  C6  IND d   1      -2.717   0.411   2.602  0.00  0.00     0.015 A 
ATOM      7  C7  IND d   1      -2.598   0.603   1.254  0.00  0.00    -0.016 A 
ATOM      8  C8  IND d   1      -1.402   0.210   0.669  0.00  0.00    -0.047 A 
ATOM      9  C9  IND d   1      -0.352  -0.334   1.420  0.00  0.00    -0.096 A 
ATOM     10  HN1 IND d   1      -1.431   0.597  -1.298  0.00  0.00     0.298 HD
ENDROOT
TORSDOF 0
ENDMDL
