MODEL 1
REMARK minimizedAffinity -3.60059595
REMARK minimizedRMSD -1
REMARK  0 active torsions:
REMARK  status: ('A' for Active; 'I' for Inactive)
ROOT
ATOM      1  N1  IND d   1      -1.341  -0.645   2.014  0.00  0.00    -0.196 N 
ATOM      2  C2  IND d   1      -0.551  -0.559   3.126  0.00  0.00     0.054 A 
ATOM      3  C3  IND d   1       0.685  -0.125   2.793  0.00  0.00    -0.031 A 
ATOM      4  C4  IND d   1       1.600   0.602   0.499  0.00  0.00     0.051 A 
ATOM      5  C5  IND d   1       1.264   0.665  -0.824  0.00  0.00    -0.031 A 
ATOM      6  C6  IND d   1       0.016   0.290  -1.278  0.00  0.00     0.015 A 
ATOM      7  C7  IND d   1      -0.950  -0.154  -0.419  0.00  0.00    -0.016 A 
ATOM      8  C8  IND d   1      -0.610  -0.226   0.924  0.00  0.00    -0.047 A 
ATOM      9  C9  IND d   1       0.669   0.113   1.385  0.00  0.00    -0.096 A 
ATOM     10  HN1 IND d   1      -2.157  -0.916   1.998  0.00  0.00     0.298 HD
ENDROOT
TORSDOF 0
ENDMDL
