MODEL 1
REMARK minimizedAffinity -3.70632172
REMARK minimizedRMSD -1
REMARK  0 active torsions:
REMARK  status: ('A' for Active; 'I' for Inactive)
ROOT
ATOM      1  N1  IND d   1      -2.327   0.592  -0.756  0.00  0.00    -0.196 N 
ATOM      2  C2  IND d   1      -1.179   0.534  -1.496  0.00  0.00     0.054 A 
ATOM      3  C3  IND d   1      -0.119   0.270  -0.700  0.00  0.00    -0.031 A 
ATOM      4  C4  IND d   1      -0.051  -0.206   1.829  0.00  0.00     0.051 A 
ATOM      5  C5  IND d   1      -0.844  -0.229   2.943  0.00  0.00    -0.031 A 
ATOM      6  C6  IND d   1      -2.199   0.022   2.878  0.00  0.00     0.015 A 
ATOM      7  C7  IND d   1      -2.817   0.296   1.691  0.00  0.00    -0.016 A 
ATOM      8  C8  IND d   1      -2.014   0.328   0.559  0.00  0.00    -0.047 A 
ATOM      9  C9  IND d   1      -0.631   0.116   0.625  0.00  0.00    -0.096 A 
ATOM     10  HN1 IND d   1      -3.112   0.764  -1.061  0.00  0.00     0.298 HD
ENDROOT
TORSDOF 0
ENDMDL
