MODEL 1
REMARK minimizedAffinity -5.67978477
REMARK minimizedRMSD -1
REMARK  0 active torsions:
REMARK  status: ('A' for Active; 'I' for Inactive)
ROOT
ATOM      1  N1  IND d   1      -2.204   1.146  -0.565  0.00  0.00    -0.196 N 
ATOM      2  C2  IND d   1      -1.108   1.262  -1.373  0.00  0.00     0.054 A 
ATOM      3  C3  IND d   1      -0.004   0.813  -0.734  0.00  0.00    -0.031 A 
ATOM      4  C4  IND d   1       0.217  -0.247   1.601  0.00  0.00     0.051 A 
ATOM      5  C5  IND d   1      -0.502  -0.531   2.728  0.00  0.00    -0.031 A 
ATOM      6  C6  IND d   1      -1.854  -0.268   2.815  0.00  0.00     0.015 A 
ATOM      7  C7  IND d   1      -2.542   0.281   1.770  0.00  0.00    -0.016 A 
ATOM      8  C8  IND d   1      -1.813   0.577   0.627  0.00  0.00    -0.047 A 
ATOM      9  C9  IND d   1      -0.432   0.352   0.548  0.00  0.00    -0.096 A 
ATOM     10  HN1 IND d   1      -3.004   1.387  -0.768  0.00  0.00     0.298 HD
ENDROOT
TORSDOF 0
ENDMDL
