MODEL 1
REMARK minimizedAffinity -5.91205692
REMARK minimizedRMSD -1
REMARK  0 active torsions:
REMARK  status: ('A' for Active; 'I' for Inactive)
ROOT
ATOM      1  N1  IND d   1      -1.064   0.498  -0.631  0.00  0.00    -0.196 N 
ATOM      2  C2  IND d   1       0.278   0.246  -0.698  0.00  0.00     0.054 A 
ATOM      3  C3  IND d   1       0.736  -0.183   0.499  0.00  0.00    -0.031 A 
ATOM      4  C4  IND d   1      -0.559  -0.642   2.676  0.00  0.00     0.051 A 
ATOM      5  C5  IND d   1      -1.800  -0.526   3.237  0.00  0.00    -0.031 A 
ATOM      6  C6  IND d   1      -2.882  -0.055   2.521  0.00  0.00     0.015 A 
ATOM      7  C7  IND d   1      -2.764   0.308   1.209  0.00  0.00    -0.016 A 
ATOM      8  C8  IND d   1      -1.504   0.198   0.639  0.00  0.00    -0.047 A 
ATOM      9  C9  IND d   1      -0.394  -0.240   1.372  0.00  0.00    -0.096 A 
ATOM     10  HN1 IND d   1      -1.551   0.795  -1.275  0.00  0.00     0.298 HD
ENDROOT
TORSDOF 0
ENDMDL
