MODEL 1
REMARK minimizedAffinity -5.32220554
REMARK minimizedRMSD -1
REMARK  0 active torsions:
REMARK  status: ('A' for Active; 'I' for Inactive)
ROOT
ATOM      1  N1  IND d   1      -2.894   0.451   0.742  0.00  0.00    -0.196 N 
ATOM      2  C2  IND d   1      -3.456   0.246   1.972  0.00  0.00     0.054 A 
ATOM      3  C3  IND d   1      -2.501  -0.053   2.881  0.00  0.00    -0.031 A 
ATOM      4  C4  IND d   1       0.055  -0.161   2.593  0.00  0.00     0.051 A 
ATOM      5  C5  IND d   1       1.036  -0.085   1.645  0.00  0.00    -0.031 A 
ATOM      6  C6  IND d   1       0.752   0.181   0.321  0.00  0.00     0.015 A 
ATOM      7  C7  IND d   1      -0.529   0.394  -0.104  0.00  0.00    -0.016 A 
ATOM      8  C8  IND d   1      -1.529   0.311   0.855  0.00  0.00    -0.047 A 
ATOM      9  C9  IND d   1      -1.250  -0.001   2.192  0.00  0.00    -0.096 A 
ATOM     10  HN1 IND d   1      -3.322   0.635   0.020  0.00  0.00     0.298 HD
ENDROOT
TORSDOF 0
ENDMDL
