MODEL 1
REMARK minimizedAffinity -5.15222979
REMARK minimizedRMSD -1
REMARK  0 active torsions:
REMARK  status: ('A' for Active; 'I' for Inactive)
ROOT
ATOM      1  N1  IND d   1      -1.004   0.625  -0.471  0.00  0.00    -0.196 N 
ATOM      2  C2  IND d   1       0.353   0.495  -0.575  0.00  0.00     0.054 A 
ATOM      3  C3  IND d   1       0.866  -0.009   0.569  0.00  0.00    -0.031 A 
ATOM      4  C4  IND d   1      -0.348  -0.789   2.702  0.00  0.00     0.051 A 
ATOM      5  C5  IND d   1      -1.584  -0.835   3.282  0.00  0.00    -0.031 A 
ATOM      6  C6  IND d   1      -2.714  -0.389   2.627  0.00  0.00     0.015 A 
ATOM      7  C7  IND d   1      -2.650   0.110   1.356  0.00  0.00    -0.016 A 
ATOM      8  C8  IND d   1      -1.395   0.164   0.767  0.00  0.00    -0.047 A 
ATOM      9  C9  IND d   1      -0.239  -0.247   1.443  0.00  0.00    -0.096 A 
ATOM     10  HN1 IND d   1      -1.526   0.941  -1.077  0.00  0.00     0.298 HD
ENDROOT
TORSDOF 0
ENDMDL
