MODEL 1
REMARK minimizedAffinity -2.22763419
REMARK minimizedRMSD -1
REMARK  0 active torsions:
REMARK  status: ('A' for Active; 'I' for Inactive)
ROOT
ATOM      1  N1  IND d   1      -0.917  -0.015  -0.467  0.00  0.00    -0.196 N 
ATOM      2  C2  IND d   1      -0.009   0.611   0.341  0.00  0.00     0.054 A 
ATOM      3  C3  IND d   1       1.206   0.639  -0.250  0.00  0.00    -0.031 A 
ATOM      4  C4  IND d   1       1.911  -0.195  -2.582  0.00  0.00     0.051 A 
ATOM      5  C5  IND d   1       1.439  -0.871  -3.672  0.00  0.00    -0.031 A 
ATOM      6  C6  IND d   1       0.131  -1.302  -3.752  0.00  0.00     0.015 A 
ATOM      7  C7  IND d   1      -0.761  -1.063  -2.746  0.00  0.00    -0.016 A 
ATOM      8  C8  IND d   1      -0.284  -0.383  -1.634  0.00  0.00    -0.047 A 
ATOM      9  C9  IND d   1       1.053   0.020  -1.529  0.00  0.00    -0.096 A 
ATOM     10  HN1 IND d   1      -1.744  -0.156  -0.278  0.00  0.00     0.298 HD
ENDROOT
TORSDOF 0
ENDMDL
