MODEL 1
REMARK minimizedAffinity -5.65990829
REMARK minimizedRMSD -1
REMARK  0 active torsions:
REMARK  status: ('A' for Active; 'I' for Inactive)
ROOT
ATOM      1  N1  IND d   1      -0.893   0.391  -0.792  0.00  0.00    -0.196 N 
ATOM      2  C2  IND d   1       0.430   0.644  -1.024  0.00  0.00     0.054 A 
ATOM      3  C3  IND d   1       1.144   0.494   0.114  0.00  0.00    -0.031 A 
ATOM      4  C4  IND d   1       0.362  -0.259   2.448  0.00  0.00     0.051 A 
ATOM      5  C5  IND d   1      -0.763  -0.568   3.159  0.00  0.00    -0.031 A 
ATOM      6  C6  IND d   1      -2.015  -0.575   2.577  0.00  0.00     0.015 A 
ATOM      7  C7  IND d   1      -2.186  -0.284   1.254  0.00  0.00    -0.016 A 
ATOM      8  C8  IND d   1      -1.046   0.036   0.530  0.00  0.00    -0.047 A 
ATOM      9  C9  IND d   1       0.221   0.087   1.125  0.00  0.00    -0.096 A 
ATOM     10  HN1 IND d   1      -1.523   0.445  -1.374  0.00  0.00     0.298 HD
ENDROOT
TORSDOF 0
ENDMDL
