MODEL 1
REMARK minimizedAffinity -6.46096277
REMARK minimizedRMSD -1
REMARK  0 active torsions:
REMARK  status: ('A' for Active; 'I' for Inactive)
ROOT
ATOM      1  N1  IND d   1      -0.644   0.524  -0.542  0.00  0.00    -0.196 N 
ATOM      2  C2  IND d   1       0.717   0.626  -0.465  0.00  0.00     0.054 A 
ATOM      3  C3  IND d   1       1.128   0.481   0.815  0.00  0.00    -0.031 A 
ATOM      4  C4  IND d   1      -0.251  -0.032   2.928  0.00  0.00     0.051 A 
ATOM      5  C5  IND d   1      -1.537  -0.178   3.365  0.00  0.00    -0.031 A 
ATOM      6  C6  IND d   1      -2.613  -0.098   2.505  0.00  0.00     0.015 A 
ATOM      7  C7  IND d   1      -2.441   0.120   1.167  0.00  0.00    -0.016 A 
ATOM      8  C8  IND d   1      -1.137   0.275   0.721  0.00  0.00    -0.047 A 
ATOM      9  C9  IND d   1      -0.043   0.238   1.595  0.00  0.00    -0.096 A 
ATOM     10  HN1 IND d   1      -1.113   0.602  -1.258  0.00  0.00     0.298 HD
ENDROOT
TORSDOF 0
ENDMDL
