MODEL 1
REMARK minimizedAffinity -4.99002838
REMARK minimizedRMSD -1
REMARK  0 active torsions:
REMARK  status: ('A' for Active; 'I' for Inactive)
ROOT
ATOM      1  N1  IND d   1      -1.005   0.088  -0.375  0.00  0.00    -0.196 N 
ATOM      2  C2  IND d   1       0.349   0.235  -0.490  0.00  0.00     0.054 A 
ATOM      3  C3  IND d   1       0.924   0.266   0.733  0.00  0.00    -0.031 A 
ATOM      4  C4  IND d   1      -0.153  -0.009   3.055  0.00  0.00     0.051 A 
ATOM      5  C5  IND d   1      -1.366  -0.132   3.672  0.00  0.00    -0.031 A 
ATOM      6  C6  IND d   1      -2.545  -0.191   2.957  0.00  0.00     0.015 A 
ATOM      7  C7  IND d   1      -2.553  -0.142   1.592  0.00  0.00    -0.016 A 
ATOM      8  C8  IND d   1      -1.324  -0.010   0.962  0.00  0.00    -0.047 A 
ATOM      9  C9  IND d   1      -0.128   0.093   1.684  0.00  0.00    -0.096 A 
ATOM     10  HN1 IND d   1      -1.565   0.061  -1.027  0.00  0.00     0.298 HD
ENDROOT
TORSDOF 0
ENDMDL
