MODEL 1
REMARK minimizedAffinity -5.22113276
REMARK minimizedRMSD -1
REMARK  0 active torsions:
REMARK  status: ('A' for Active; 'I' for Inactive)
ROOT
ATOM      1  N1  IND d   1      -0.922   0.299  -0.517  0.00  0.00    -0.196 N 
ATOM      2  C2  IND d   1       0.412   0.413  -0.792  0.00  0.00     0.054 A 
ATOM      3  C3  IND d   1       1.144   0.159   0.315  0.00  0.00    -0.031 A 
ATOM      4  C4  IND d   1       0.366  -0.562   2.661  0.00  0.00     0.051 A 
ATOM      5  C5  IND d   1      -0.761  -0.764   3.407  0.00  0.00    -0.031 A 
ATOM      6  C6  IND d   1      -2.025  -0.622   2.872  0.00  0.00     0.015 A 
ATOM      7  C7  IND d   1      -2.209  -0.282   1.562  0.00  0.00    -0.016 A 
ATOM      8  C8  IND d   1      -1.067  -0.069   0.803  0.00  0.00    -0.047 A 
ATOM      9  C9  IND d   1       0.218  -0.170   1.351  0.00  0.00    -0.096 A 
ATOM     10  HN1 IND d   1      -1.563   0.435  -1.074  0.00  0.00     0.298 HD
ENDROOT
TORSDOF 0
ENDMDL
