MODEL 1
REMARK minimizedAffinity -6.42598629
REMARK minimizedRMSD -1
REMARK  0 active torsions:
REMARK  status: ('A' for Active; 'I' for Inactive)
ROOT
ATOM      1  N1  IND d   1      -0.609   0.231  -0.673  0.00  0.00    -0.196 N 
ATOM      2  C2  IND d   1       0.758   0.255  -0.707  0.00  0.00     0.054 A 
ATOM      3  C3  IND d   1       1.262   0.099   0.538  0.00  0.00    -0.031 A 
ATOM      4  C4  IND d   1       0.031  -0.314   2.761  0.00  0.00     0.051 A 
ATOM      5  C5  IND d   1      -1.222  -0.381   3.303  0.00  0.00    -0.031 A 
ATOM      6  C6  IND d   1      -2.358  -0.248   2.530  0.00  0.00     0.015 A 
ATOM      7  C7  IND d   1      -2.283  -0.053   1.180  0.00  0.00    -0.016 A 
ATOM      8  C8  IND d   1      -1.012   0.023   0.628  0.00  0.00    -0.047 A 
ATOM      9  C9  IND d   1       0.145  -0.069   1.413  0.00  0.00    -0.096 A 
ATOM     10  HN1 IND d   1      -1.129   0.328  -1.350  0.00  0.00     0.298 HD
ENDROOT
TORSDOF 0
ENDMDL
