MODEL 1
REMARK minimizedAffinity -0.983600676
REMARK minimizedRMSD -1
REMARK  0 active torsions:
REMARK  status: ('A' for Active; 'I' for Inactive)
ROOT
ATOM      1  N1  IND d   1      -2.555   0.816   0.300  0.00  0.00    -0.196 N 
ATOM      2  C2  IND d   1      -3.224   0.981   1.481  0.00  0.00     0.054 A 
ATOM      3  C3  IND d   1      -2.371   0.870   2.524  0.00  0.00    -0.031 A 
ATOM      4  C4  IND d   1       0.180   0.520   2.521  0.00  0.00     0.051 A 
ATOM      5  C5  IND d   1       1.233   0.278   1.684  0.00  0.00    -0.031 A 
ATOM      6  C6  IND d   1       1.074   0.203   0.315  0.00  0.00     0.015 A 
ATOM      7  C7  IND d   1      -0.147   0.381  -0.271  0.00  0.00    -0.016 A 
ATOM      8  C8  IND d   1      -1.220   0.620   0.576  0.00  0.00    -0.047 A 
ATOM      9  C9  IND d   1      -1.072   0.655   1.969  0.00  0.00    -0.096 A 
ATOM     10  HN1 IND d   1      -2.909   0.832  -0.483  0.00  0.00     0.298 HD
ENDROOT
TORSDOF 0
ENDMDL
