MODEL 1
REMARK minimizedAffinity 8.72322273
REMARK minimizedRMSD -1
REMARK  2 active torsions:
REMARK  status: ('A' for Active; 'I' for Inactive)
REMARK    1  A    between atoms: C1_2  and  C2_3 
REMARK    2  A    between atoms: C2_3  and  C3_4 
ROOT
ATOM      1  C3  UNL d   1       2.034  -5.176  -1.610  0.00  0.00    -0.075 A 
ATOM      2  C4  UNL d   1       1.124  -4.415  -0.863  0.00  0.00     0.002 A 
ATOM      3  C5  UNL d   1       0.126  -3.678  -1.501  0.00  0.00     0.002 A 
ATOM      4  C6  UNL d   1       0.031  -3.684  -2.891  0.00  0.00    -0.004 A 
ATOM      5  C7  UNL d   1       0.941  -4.424  -3.643  0.00  0.00     0.002 A 
ATOM      6  C8  UNL d   1       1.938  -5.166  -3.008  0.00  0.00     0.002 A 
ENDROOT
BRANCH   1   7
ATOM      7  C2  UNL d   1       3.098  -5.999  -0.924  0.00  0.00     0.056 C 
BRANCH   7   8
ATOM      8  C1  UNL d   1       4.489  -5.871  -1.555  0.00  0.00     0.007 C 
ATOM      9  C   UNL d   1       5.595  -5.651  -0.531  0.00  0.00     0.009 C 
ENDBRANCH   7   8
ENDBRANCH   1   7
TORSDOF 2
ENDMDL
