MODEL 1
REMARK minimizedAffinity 12.8325834
REMARK minimizedRMSD -1
REMARK  2 active torsions:
REMARK  status: ('A' for Active; 'I' for Inactive)
REMARK    1  A    between atoms: C1_2  and  C2_3 
REMARK    2  A    between atoms: C2_3  and  C3_4 
ROOT
ATOM      1  C3  UNL d   1      -0.271   2.863  -0.181  0.00  0.00    -0.075 A 
ATOM      2  C4  UNL d   1      -1.473   2.759   0.534  0.00  0.00     0.002 A 
ATOM      3  C5  UNL d   1      -1.503   2.130   1.780  0.00  0.00     0.002 A 
ATOM      4  C6  UNL d   1      -0.338   1.590   2.320  0.00  0.00    -0.004 A 
ATOM      5  C7  UNL d   1       0.858   1.673   1.610  0.00  0.00     0.002 A 
ATOM      6  C8  UNL d   1       0.892   2.305   0.366  0.00  0.00     0.002 A 
ENDROOT
BRANCH   1   7
ATOM      7  C2  UNL d   1      -0.225   3.567  -1.516  0.00  0.00     0.056 C 
BRANCH   7   8
ATOM      8  C1  UNL d   1       1.184   3.699  -2.104  0.00  0.00     0.007 C 
ATOM      9  C   UNL d   1       2.055   4.700  -1.357  0.00  0.00     0.009 C 
ENDBRANCH   7   8
ENDBRANCH   1   7
TORSDOF 2
ENDMDL
