MODEL 1
REMARK minimizedAffinity 16.7187386
REMARK minimizedRMSD -1
REMARK  2 active torsions:
REMARK  status: ('A' for Active; 'I' for Inactive)
REMARK    1  A    between atoms: C1_2  and  C2_3 
REMARK    2  A    between atoms: C2_3  and  C3_4 
ROOT
ATOM      1  C3  UNL d   1      -4.171   2.471  -4.677  0.00  0.00    -0.075 A 
ATOM      2  C4  UNL d   1      -4.943   2.582  -3.510  0.00  0.00     0.002 A 
ATOM      3  C5  UNL d   1      -4.641   3.548  -2.551  0.00  0.00     0.002 A 
ATOM      4  C6  UNL d   1      -3.560   4.407  -2.739  0.00  0.00    -0.004 A 
ATOM      5  C7  UNL d   1      -2.777   4.295  -3.886  0.00  0.00     0.002 A 
ATOM      6  C8  UNL d   1      -3.080   3.332  -4.850  0.00  0.00     0.002 A 
ENDROOT
BRANCH   1   7
ATOM      7  C2  UNL d   1      -4.511   1.446  -5.733  0.00  0.00     0.056 C 
BRANCH   7   8
ATOM      8  C1  UNL d   1      -3.711   0.145  -5.619  0.00  0.00     0.007 C 
ATOM      9  C   UNL d   1      -2.205   0.356  -5.705  0.00  0.00     0.009 C 
ENDBRANCH   7   8
ENDBRANCH   1   7
TORSDOF 2
ENDMDL
