MODEL 1
REMARK minimizedAffinity 9.7827816
REMARK minimizedRMSD -1
REMARK  2 active torsions:
REMARK  status: ('A' for Active; 'I' for Inactive)
REMARK    1  A    between atoms: C1_2  and  C2_3 
REMARK    2  A    between atoms: C2_3  and  C3_4 
ROOT
ATOM      1  C3  UNL d   1      -1.398   3.497  -1.336  0.00  0.00    -0.075 A 
ATOM      2  C4  UNL d   1      -0.129   3.783  -1.861  0.00  0.00     0.002 A 
ATOM      3  C5  UNL d   1       1.018   3.249  -1.272  0.00  0.00     0.002 A 
ATOM      4  C6  UNL d   1       0.912   2.434  -0.147  0.00  0.00    -0.004 A 
ATOM      5  C7  UNL d   1      -0.342   2.157   0.393  0.00  0.00     0.002 A 
ATOM      6  C8  UNL d   1      -1.491   2.686  -0.197  0.00  0.00     0.002 A 
ENDROOT
BRANCH   1   7
ATOM      7  C2  UNL d   1      -2.645   4.047  -1.986  0.00  0.00     0.056 C 
BRANCH   7   8
ATOM      8  C1  UNL d   1      -3.120   3.245  -3.202  0.00  0.00     0.007 C 
ATOM      9  C   UNL d   1      -4.566   2.783  -3.089  0.00  0.00     0.009 C 
ENDBRANCH   7   8
ENDBRANCH   1   7
TORSDOF 2
ENDMDL
