MODEL 1
REMARK minimizedAffinity 6.35088062
REMARK minimizedRMSD -1
REMARK  1 active torsions:
REMARK  status: ('A' for Active; 'I' for Inactive)
REMARK    1  A    between atoms: C1_2  and  C2_3 
ROOT
ATOM      1  C2  UNL d   1      -1.439  -1.426   0.385  0.00  0.00    -0.076 A 
ATOM      2  C3  UNL d   1      -2.401  -1.233   1.391  0.00  0.00     0.004 A 
ATOM      3  C4  UNL d   1      -3.714  -0.892   1.072  0.00  0.00    -0.003 A 
ATOM      4  C5  UNL d   1      -4.087  -0.737  -0.258  0.00  0.00     0.000 A 
ATOM      5  C6  UNL d   1      -3.150  -0.941  -1.271  0.00  0.00     0.000 A 
ATOM      6  C7  UNL d   1      -1.826  -1.302  -0.967  0.00  0.00    -0.073 A 
ATOM      7  C8  UNL d   1      -0.855  -1.504  -2.098  0.00  0.00     0.078 C 
ENDROOT
BRANCH   1   8
ATOM      8  C1  UNL d   1      -0.024  -1.768   0.792  0.00  0.00     0.053 C 
ATOM      9  C   UNL d   1       0.233  -1.522   2.270  0.00  0.00     0.018 C 
ENDBRANCH   1   8
TORSDOF 1
ENDMDL
