MODEL 1
REMARK minimizedAffinity 11.1058531
REMARK minimizedRMSD -1
REMARK  1 active torsions:
REMARK  status: ('A' for Active; 'I' for Inactive)
REMARK    1  A    between atoms: C1_2  and  C2_3 
ROOT
ATOM      1  C2  UNL d   1       0.056   0.082   2.716  0.00  0.00    -0.076 A 
ATOM      2  C3  UNL d   1      -1.083  -0.622   2.289  0.00  0.00     0.004 A 
ATOM      3  C4  UNL d   1      -0.970  -1.879   1.696  0.00  0.00    -0.003 A 
ATOM      4  C5  UNL d   1       0.285  -2.453   1.523  0.00  0.00     0.000 A 
ATOM      5  C6  UNL d   1       1.424  -1.777   1.957  0.00  0.00     0.000 A 
ATOM      6  C7  UNL d   1       1.327  -0.516   2.571  0.00  0.00    -0.073 A 
ATOM      7  C8  UNL d   1       2.589   0.171   3.015  0.00  0.00     0.078 C 
ENDROOT
BRANCH   1   8
ATOM      8  C1  UNL d   1      -0.126   1.453   3.327  0.00  0.00     0.053 C 
ATOM      9  C   UNL d   1      -1.535   1.993   3.136  0.00  0.00     0.018 C 
ENDBRANCH   1   8
TORSDOF 1
ENDMDL
