MODEL 1
REMARK minimizedAffinity 4.903862
REMARK minimizedRMSD -1
REMARK  1 active torsions:
REMARK  status: ('A' for Active; 'I' for Inactive)
REMARK    1  A    between atoms: C1_2  and  C2_3 
ROOT
ATOM      1  C2  UNL d   1       1.202   0.151   1.763  0.00  0.00    -0.076 A 
ATOM      2  C3  UNL d   1       1.405  -1.131   1.222  0.00  0.00     0.004 A 
ATOM      3  C4  UNL d   1       0.435  -2.124   1.347  0.00  0.00    -0.003 A 
ATOM      4  C5  UNL d   1      -0.755  -1.851   2.014  0.00  0.00     0.000 A 
ATOM      5  C6  UNL d   1      -0.980  -0.580   2.542  0.00  0.00     0.000 A 
ATOM      6  C7  UNL d   1      -0.019   0.437   2.410  0.00  0.00    -0.073 A 
ATOM      7  C8  UNL d   1      -0.312   1.788   3.003  0.00  0.00     0.078 C 
ENDROOT
BRANCH   1   8
ATOM      8  C1  UNL d   1       2.301   1.179   1.620  0.00  0.00     0.053 C 
ATOM      9  C   UNL d   1       2.455   1.673   0.189  0.00  0.00     0.018 C 
ENDBRANCH   1   8
TORSDOF 1
ENDMDL
