MODEL 1
REMARK minimizedAffinity 2.97954202
REMARK minimizedRMSD -1
REMARK  1 active torsions:
REMARK  status: ('A' for Active; 'I' for Inactive)
REMARK    1  A    between atoms: C1_2  and  C2_3 
ROOT
ATOM      1  C2  UNL d   1      -4.056   4.507   1.094  0.00  0.00    -0.076 A 
ATOM      2  C3  UNL d   1      -3.385   4.536  -0.141  0.00  0.00     0.004 A 
ATOM      3  C4  UNL d   1      -3.884   5.276  -1.211  0.00  0.00    -0.003 A 
ATOM      4  C5  UNL d   1      -5.062   6.000  -1.064  0.00  0.00     0.000 A 
ATOM      5  C6  UNL d   1      -5.731   5.997   0.159  0.00  0.00     0.000 A 
ATOM      6  C7  UNL d   1      -5.233   5.269   1.253  0.00  0.00    -0.073 A 
ATOM      7  C8  UNL d   1      -5.999   5.297   2.547  0.00  0.00     0.078 C 
ENDROOT
BRANCH   1   8
ATOM      8  C1  UNL d   1      -3.482   3.665   2.211  0.00  0.00     0.053 C 
ATOM      9  C   UNL d   1      -2.169   3.002   1.825  0.00  0.00     0.018 C 
ENDBRANCH   1   8
TORSDOF 1
ENDMDL
