MODEL 1
REMARK minimizedAffinity 16.8824387
REMARK minimizedRMSD -1
REMARK  1 active torsions:
REMARK  status: ('A' for Active; 'I' for Inactive)
REMARK    1  A    between atoms: C1_2  and  C2_3 
ROOT
ATOM      1  C2  UNL d   1      -2.398  -1.523  -1.095  0.00  0.00    -0.076 A 
ATOM      2  C3  UNL d   1      -1.426  -2.483  -0.764  0.00  0.00     0.004 A 
ATOM      3  C4  UNL d   1      -1.157  -2.803   0.566  0.00  0.00    -0.003 A 
ATOM      4  C5  UNL d   1      -1.857  -2.169   1.586  0.00  0.00     0.000 A 
ATOM      5  C6  UNL d   1      -2.837  -1.227   1.276  0.00  0.00     0.000 A 
ATOM      6  C7  UNL d   1      -3.132  -0.904  -0.060  0.00  0.00    -0.073 A 
ATOM      7  C8  UNL d   1      -4.195   0.123  -0.336  0.00  0.00     0.078 C 
ENDROOT
BRANCH   1   8
ATOM      8  C1  UNL d   1      -2.627  -1.196  -2.553  0.00  0.00     0.053 C 
ATOM      9  C   UNL d   1      -1.848  -2.112  -3.484  0.00  0.00     0.018 C 
ENDBRANCH   1   8
TORSDOF 1
ENDMDL
