MODEL 1
REMARK minimizedAffinity 14.1222248
REMARK minimizedRMSD -1
REMARK  1 active torsions:
REMARK  status: ('A' for Active; 'I' for Inactive)
REMARK    1  A    between atoms: C1_2  and  C2_3 
ROOT
ATOM      1  C2  UNL d   1       3.905   1.107  -2.550  0.00  0.00    -0.076 A 
ATOM      2  C3  UNL d   1       5.160   1.613  -2.930  0.00  0.00     0.004 A 
ATOM      3  C4  UNL d   1       5.999   0.890  -3.776  0.00  0.00    -0.003 A 
ATOM      4  C5  UNL d   1       5.597  -0.352  -4.256  0.00  0.00     0.000 A 
ATOM      5  C6  UNL d   1       4.347  -0.862  -3.904  0.00  0.00     0.000 A 
ATOM      6  C7  UNL d   1       3.482  -0.138  -3.065  0.00  0.00    -0.073 A 
ATOM      7  C8  UNL d   1       2.149  -0.738  -2.713  0.00  0.00     0.078 C 
ENDROOT
BRANCH   1   8
ATOM      8  C1  UNL d   1       3.049   1.924  -1.609  0.00  0.00     0.053 C 
ATOM      9  C   UNL d   1       3.869   2.630  -0.540  0.00  0.00     0.018 C 
ENDBRANCH   1   8
TORSDOF 1
ENDMDL
