MODEL 1
REMARK minimizedAffinity 14.4544172
REMARK minimizedRMSD -1
REMARK  1 active torsions:
REMARK  status: ('A' for Active; 'I' for Inactive)
REMARK    1  A    between atoms: C1_2  and  C2_3 
ROOT
ATOM      1  C2  UNL d   1      -0.625  -3.570   1.124  0.00  0.00    -0.076 A 
ATOM      2  C3  UNL d   1      -0.317  -3.587   2.495  0.00  0.00     0.004 A 
ATOM      3  C4  UNL d   1      -0.237  -4.789   3.197  0.00  0.00    -0.003 A 
ATOM      4  C5  UNL d   1      -0.463  -5.992   2.539  0.00  0.00     0.000 A 
ATOM      5  C6  UNL d   1      -0.753  -5.995   1.175  0.00  0.00     0.000 A 
ATOM      6  C7  UNL d   1      -0.822  -4.793   0.449  0.00  0.00    -0.073 A 
ATOM      7  C8  UNL d   1      -1.144  -4.854  -1.019  0.00  0.00     0.078 C 
ENDROOT
BRANCH   1   8
ATOM      8  C1  UNL d   1      -0.725  -2.234   0.421  0.00  0.00     0.053 C 
ATOM      9  C   UNL d   1      -2.146  -1.694   0.395  0.00  0.00     0.018 C 
ENDBRANCH   1   8
TORSDOF 1
ENDMDL
