MODEL 1
REMARK minimizedAffinity 8.61150265
REMARK minimizedRMSD -1
REMARK  1 active torsions:
REMARK  status: ('A' for Active; 'I' for Inactive)
REMARK    1  A    between atoms: C1_2  and  C2_3 
ROOT
ATOM      1  C2  UNL d   1      -3.593   3.753  -4.616  0.00  0.00    -0.076 A 
ATOM      2  C3  UNL d   1      -3.490   5.041  -4.063  0.00  0.00     0.004 A 
ATOM      3  C4  UNL d   1      -4.477   6.000  -4.288  0.00  0.00    -0.003 A 
ATOM      4  C5  UNL d   1      -5.582   5.686  -5.071  0.00  0.00     0.000 A 
ATOM      5  C6  UNL d   1      -5.709   4.407  -5.613  0.00  0.00     0.000 A 
ATOM      6  C7  UNL d   1      -4.732   3.424  -5.382  0.00  0.00    -0.073 A 
ATOM      7  C8  UNL d   1      -4.917   2.064  -5.996  0.00  0.00     0.078 C 
ENDROOT
BRANCH   1   8
ATOM      8  C1  UNL d   1      -2.479   2.764  -4.359  0.00  0.00     0.053 C 
ATOM      9  C   UNL d   1      -1.374   2.847  -5.401  0.00  0.00     0.018 C 
ENDBRANCH   1   8
TORSDOF 1
ENDMDL
