MODEL 1
REMARK minimizedAffinity 15.7386637
REMARK minimizedRMSD -1
REMARK  1 active torsions:
REMARK  status: ('A' for Active; 'I' for Inactive)
REMARK    1  A    between atoms: C1_2  and  C2_3 
ROOT
ATOM      1  C2  UNL d   1       4.945   0.631  -3.502  0.00  0.00    -0.076 A 
ATOM      2  C3  UNL d   1       4.069   1.574  -2.937  0.00  0.00     0.004 A 
ATOM      3  C4  UNL d   1       3.064   1.182  -2.054  0.00  0.00    -0.003 A 
ATOM      4  C5  UNL d   1       2.920  -0.161  -1.721  0.00  0.00     0.000 A 
ATOM      5  C6  UNL d   1       3.792  -1.108  -2.258  0.00  0.00     0.000 A 
ATOM      6  C7  UNL d   1       4.820  -0.726  -3.137  0.00  0.00    -0.073 A 
ATOM      7  C8  UNL d   1       5.727  -1.790  -3.692  0.00  0.00     0.078 C 
ENDROOT
BRANCH   1   8
ATOM      8  C1  UNL d   1       5.998   1.112  -4.475  0.00  0.00     0.053 C 
ATOM      9  C   UNL d   1       5.997   2.625  -4.633  0.00  0.00     0.018 C 
ENDBRANCH   1   8
TORSDOF 1
ENDMDL
