MODEL 1
REMARK minimizedAffinity 17.3160381
REMARK minimizedRMSD -1
REMARK  1 active torsions:
REMARK  status: ('A' for Active; 'I' for Inactive)
REMARK    1  A    between atoms: C1_2  and  C2_3 
ROOT
ATOM      1  C2  UNL d   1      -1.060  -3.113   0.319  0.00  0.00    -0.076 A 
ATOM      2  C3  UNL d   1      -1.044  -2.733  -1.034  0.00  0.00     0.004 A 
ATOM      3  C4  UNL d   1      -1.425  -1.450  -1.424  0.00  0.00    -0.003 A 
ATOM      4  C5  UNL d   1      -1.828  -0.526  -0.466  0.00  0.00     0.000 A 
ATOM      5  C6  UNL d   1      -1.832  -0.880   0.883  0.00  0.00     0.000 A 
ATOM      6  C7  UNL d   1      -1.436  -2.164   1.294  0.00  0.00    -0.073 A 
ATOM      7  C8  UNL d   1      -1.466  -2.493   2.761  0.00  0.00     0.078 C 
ENDROOT
BRANCH   1   8
ATOM      8  C1  UNL d   1      -0.662  -4.526   0.679  0.00  0.00     0.053 C 
ATOM      9  C   UNL d   1      -1.048  -5.532  -0.394  0.00  0.00     0.018 C 
ENDBRANCH   1   8
TORSDOF 1
ENDMDL
