MODEL 1
REMARK minimizedAffinity 9.5883503
REMARK minimizedRMSD -1
REMARK  1 active torsions:
REMARK  status: ('A' for Active; 'I' for Inactive)
REMARK    1  A    between atoms: C1_2  and  C2_3 
ROOT
ATOM      1  C2  UNL d   1      -3.401  -2.076   0.694  0.00  0.00    -0.076 A 
ATOM      2  C3  UNL d   1      -3.650  -3.324   1.291  0.00  0.00     0.004 A 
ATOM      3  C4  UNL d   1      -4.938  -3.690   1.679  0.00  0.00    -0.003 A 
ATOM      4  C5  UNL d   1      -5.998  -2.814   1.475  0.00  0.00     0.000 A 
ATOM      5  C6  UNL d   1      -5.773  -1.579   0.868  0.00  0.00     0.000 A 
ATOM      6  C7  UNL d   1      -4.483  -1.201   0.457  0.00  0.00    -0.073 A 
ATOM      7  C8  UNL d   1      -4.296   0.145  -0.187  0.00  0.00     0.078 C 
ENDROOT
BRANCH   1   8
ATOM      8  C1  UNL d   1      -1.980  -1.723   0.319  0.00  0.00     0.053 C 
ATOM      9  C   UNL d   1      -1.223  -1.062   1.461  0.00  0.00     0.018 C 
ENDBRANCH   1   8
TORSDOF 1
ENDMDL
