MODEL 1
REMARK minimizedAffinity 8.1972599
REMARK minimizedRMSD -1
REMARK  1 active torsions:
REMARK  status: ('A' for Active; 'I' for Inactive)
REMARK    1  A    between atoms: C1_2  and  C2_3 
ROOT
ATOM      1  C2  UNL d   1      -3.031  -0.622   5.330  0.00  0.00    -0.076 A 
ATOM      2  C3  UNL d   1      -1.667  -0.568   5.666  0.00  0.00     0.004 A 
ATOM      3  C4  UNL d   1      -0.962  -1.724   5.996  0.00  0.00    -0.003 A 
ATOM      4  C5  UNL d   1      -1.610  -2.954   5.995  0.00  0.00     0.000 A 
ATOM      5  C6  UNL d   1      -2.959  -3.030   5.647  0.00  0.00     0.000 A 
ATOM      6  C7  UNL d   1      -3.679  -1.875   5.295  0.00  0.00    -0.073 A 
ATOM      7  C8  UNL d   1      -5.133  -2.014   4.934  0.00  0.00     0.078 C 
ENDROOT
BRANCH   1   8
ATOM      8  C1  UNL d   1      -3.749   0.668   5.007  0.00  0.00     0.053 C 
ATOM      9  C   UNL d   1      -3.421   1.780   5.991  0.00  0.00     0.018 C 
ENDBRANCH   1   8
TORSDOF 1
ENDMDL
