MODEL 1
REMARK minimizedAffinity -1.09934759
REMARK minimizedRMSD -1
REMARK  1 active torsions:
REMARK  status: ('A' for Active; 'I' for Inactive)
REMARK    1  A    between atoms: N_2  and  C1_3 
ROOT
ATOM      1  C1  UNL d   1      -1.419  -0.089   0.435  0.00  0.00     0.143 A 
ATOM      2  C2  UNL d   1      -0.640   0.424  -0.608  0.00  0.00    -0.057 A 
ATOM      3  C3  UNL d   1       0.750   0.258  -0.625  0.00  0.00     0.033 A 
ATOM      4  C4  UNL d   1       1.391  -0.401   0.419  0.00  0.00    -0.042 A 
ATOM      5  C5  UNL d   1       0.639  -0.898   1.478  0.00  0.00     0.033 A 
ATOM      6  C6  UNL d   1      -0.750  -0.735   1.486  0.00  0.00    -0.057 A 
ENDROOT
BRANCH   1   7
ATOM      7  N   UNL d   1      -2.794   0.128   0.559  0.00  0.00    -0.732 N 
ATOM      8  C   UNL d   1      -3.300   1.403   1.020  0.00  0.00     0.284 C 
ATOM      9  H3  UNL d   1      -3.322  -0.274  -0.212  0.00  0.00     0.395 HD
ENDBRANCH   1   7
TORSDOF 1
ENDMDL
