MODEL 1
REMARK minimizedAffinity -2.85350275
REMARK minimizedRMSD -1
REMARK  1 active torsions:
REMARK  status: ('A' for Active; 'I' for Inactive)
REMARK    1  A    between atoms: N_2  and  C1_3 
ROOT
ATOM      1  C1  UNL d   1       0.692   0.350  -0.462  0.00  0.00     0.143 A 
ATOM      2  C2  UNL d   1      -0.264   0.209  -1.474  0.00  0.00    -0.057 A 
ATOM      3  C3  UNL d   1      -1.524  -0.342  -1.212  0.00  0.00     0.033 A 
ATOM      4  C4  UNL d   1      -1.841  -0.791   0.066  0.00  0.00    -0.042 A 
ATOM      5  C5  UNL d   1      -0.898  -0.683   1.082  0.00  0.00     0.033 A 
ATOM      6  C6  UNL d   1       0.356  -0.125   0.815  0.00  0.00    -0.057 A 
ENDROOT
BRANCH   1   7
ATOM      7  N   UNL d   1       1.996   0.800  -0.681  0.00  0.00    -0.732 N 
ATOM      8  C   UNL d   1       2.541   1.891   0.099  0.00  0.00     0.284 C 
ATOM      9  H3  UNL d   1       2.649   0.036  -0.839  0.00  0.00     0.395 HD
ENDBRANCH   1   7
TORSDOF 1
ENDMDL
