MODEL 1
REMARK minimizedAffinity -2.2174499
REMARK minimizedRMSD -1
REMARK  1 active torsions:
REMARK  status: ('A' for Active; 'I' for Inactive)
REMARK    1  A    between atoms: N_2  and  C1_3 
ROOT
ATOM      1  C1  UNL d   1      -1.435  -0.655   0.442  0.00  0.00     0.143 A 
ATOM      2  C2  UNL d   1      -0.760  -1.523   1.306  0.00  0.00    -0.057 A 
ATOM      3  C3  UNL d   1       0.636  -1.504   1.411  0.00  0.00     0.033 A 
ATOM      4  C4  UNL d   1       1.386  -0.633   0.628  0.00  0.00    -0.042 A 
ATOM      5  C5  UNL d   1       0.738   0.222  -0.257  0.00  0.00     0.033 A 
ATOM      6  C6  UNL d   1      -0.657   0.203  -0.352  0.00  0.00    -0.057 A 
ENDROOT
BRANCH   1   7
ATOM      7  N   UNL d   1      -2.814  -0.693   0.220  0.00  0.00    -0.732 N 
ATOM      8  C   UNL d   1      -3.360  -1.419  -0.907  0.00  0.00     0.284 C 
ATOM      9  H3  UNL d   1      -3.343  -0.806   1.082  0.00  0.00     0.395 HD
ENDBRANCH   1   7
TORSDOF 1
ENDMDL
