MODEL 1
REMARK minimizedAffinity -2.19982314
REMARK minimizedRMSD -1
REMARK  1 active torsions:
REMARK  status: ('A' for Active; 'I' for Inactive)
REMARK    1  A    between atoms: N_2  and  C1_3 
ROOT
ATOM      1  C1  UNL d   1      -1.952  -0.498  -0.179  0.00  0.00     0.143 A 
ATOM      2  C2  UNL d   1      -1.363   0.009  -1.342  0.00  0.00    -0.057 A 
ATOM      3  C3  UNL d   1       0.026   0.140  -1.455  0.00  0.00     0.033 A 
ATOM      4  C4  UNL d   1       0.852  -0.208  -0.391  0.00  0.00    -0.042 A 
ATOM      5  C5  UNL d   1       0.287  -0.691   0.784  0.00  0.00     0.033 A 
ATOM      6  C6  UNL d   1      -1.100  -0.825   0.888  0.00  0.00    -0.057 A 
ENDROOT
BRANCH   1   7
ATOM      7  N   UNL d   1      -3.332  -0.559   0.031  0.00  0.00    -0.732 N 
ATOM      8  C   UNL d   1      -4.018  -1.833   0.054  0.00  0.00     0.284 C 
ATOM      9  H3  UNL d   1      -3.646   0.095   0.745  0.00  0.00     0.395 HD
ENDBRANCH   1   7
TORSDOF 1
ENDMDL
