MODEL 1
REMARK minimizedAffinity -3.94335413
REMARK minimizedRMSD -1
REMARK  1 active torsions:
REMARK  status: ('A' for Active; 'I' for Inactive)
REMARK    1  A    between atoms: N_2  and  C1_3 
ROOT
ATOM      1  C1  UNL d   1       0.105  -0.130  -0.029  0.00  0.00     0.143 A 
ATOM      2  C2  UNL d   1      -0.470  -0.076  -1.303  0.00  0.00    -0.057 A 
ATOM      3  C3  UNL d   1      -1.837  -0.309  -1.492  0.00  0.00     0.033 A 
ATOM      4  C4  UNL d   1      -2.651  -0.630  -0.411  0.00  0.00    -0.042 A 
ATOM      5  C5  UNL d   1      -2.096  -0.713   0.861  0.00  0.00     0.033 A 
ATOM      6  C6  UNL d   1      -0.731  -0.473   1.045  0.00  0.00    -0.057 A 
ENDROOT
BRANCH   1   7
ATOM      7  N   UNL d   1       1.476  -0.005   0.212  0.00  0.00    -0.732 N 
ATOM      8  C   UNL d   1       2.013   1.199   0.809  0.00  0.00     0.284 C 
ATOM      9  H3  UNL d   1       1.887  -0.865   0.568  0.00  0.00     0.395 HD
ENDBRANCH   1   7
TORSDOF 1
ENDMDL
