MODEL 1
REMARK minimizedAffinity 1.23324823
REMARK minimizedRMSD -1
REMARK  1 active torsions:
REMARK  status: ('A' for Active; 'I' for Inactive)
REMARK    1  A    between atoms: N_2  and  C1_3 
ROOT
ATOM      1  C1  UNL d   1      -4.915   5.742   2.884  0.00  0.00     0.143 A 
ATOM      2  C2  UNL d   1      -3.808   6.000   2.068  0.00  0.00    -0.057 A 
ATOM      3  C3  UNL d   1      -3.800   5.630   0.717  0.00  0.00     0.033 A 
ATOM      4  C4  UNL d   1      -4.892   4.968   0.165  0.00  0.00    -0.042 A 
ATOM      5  C5  UNL d   1      -5.992   4.679   0.964  0.00  0.00     0.033 A 
ATOM      6  C6  UNL d   1      -5.997   5.057   2.310  0.00  0.00    -0.057 A 
ENDROOT
BRANCH   1   7
ATOM      7  N   UNL d   1      -4.944   5.997   4.257  0.00  0.00    -0.732 N 
ATOM      8  C   UNL d   1      -4.021   5.330   5.151  0.00  0.00     0.284 C 
ATOM      9  H3  UNL d   1      -5.087   6.982   4.467  0.00  0.00     0.395 HD
ENDBRANCH   1   7
TORSDOF 1
ENDMDL
