MODEL 1
REMARK minimizedAffinity -5.25825548
REMARK minimizedRMSD -1
REMARK  1 active torsions:
REMARK  status: ('A' for Active; 'I' for Inactive)
REMARK    1  A    between atoms: N_2  and  C1_3 
ROOT
ATOM      1  C1  UNL d   1      -0.074   0.195   0.022  0.00  0.00     0.143 A 
ATOM      2  C2  UNL d   1      -0.463   0.475  -1.293  0.00  0.00    -0.057 A 
ATOM      3  C3  UNL d   1      -1.753   0.177  -1.747  0.00  0.00     0.033 A 
ATOM      4  C4  UNL d   1      -2.671  -0.435  -0.901  0.00  0.00    -0.042 A 
ATOM      5  C5  UNL d   1      -2.299  -0.746   0.402  0.00  0.00     0.033 A 
ATOM      6  C6  UNL d   1      -1.011  -0.439   0.852  0.00  0.00    -0.057 A 
ENDROOT
BRANCH   1   7
ATOM      7  N   UNL d   1       1.224   0.377   0.505  0.00  0.00    -0.732 N 
ATOM      8  C   UNL d   1       1.590   1.595   1.195  0.00  0.00     0.284 C 
ATOM      9  H3  UNL d   1       1.605  -0.468   0.924  0.00  0.00     0.395 HD
ENDBRANCH   1   7
TORSDOF 1
ENDMDL
