MODEL 1
REMARK minimizedAffinity -4.21063423
REMARK minimizedRMSD -1
REMARK  1 active torsions:
REMARK  status: ('A' for Active; 'I' for Inactive)
REMARK    1  A    between atoms: N_2  and  C1_3 
ROOT
ATOM      1  C1  UNL d   1      -2.405  -1.460   0.217  0.00  0.00     0.143 A 
ATOM      2  C2  UNL d   1      -1.341  -0.759   0.794  0.00  0.00    -0.057 A 
ATOM      3  C3  UNL d   1      -0.570   0.137   0.045  0.00  0.00     0.033 A 
ATOM      4  C4  UNL d   1      -0.831   0.327  -1.308  0.00  0.00    -0.042 A 
ATOM      5  C5  UNL d   1      -1.868  -0.378  -1.910  0.00  0.00     0.033 A 
ATOM      6  C6  UNL d   1      -2.639  -1.267  -1.154  0.00  0.00    -0.057 A 
ENDROOT
BRANCH   1   7
ATOM      7  N   UNL d   1      -3.146  -2.437   0.885  0.00  0.00    -0.732 N 
ATOM      8  C   UNL d   1      -2.485  -3.443   1.688  0.00  0.00     0.284 C 
ATOM      9  H3  UNL d   1      -3.995  -2.063   1.303  0.00  0.00     0.395 HD
ENDBRANCH   1   7
TORSDOF 1
ENDMDL
