MODEL 1
REMARK minimizedAffinity -2.04091907
REMARK minimizedRMSD -1
REMARK  1 active torsions:
REMARK  status: ('A' for Active; 'I' for Inactive)
REMARK    1  A    between atoms: N_2  and  C1_3 
ROOT
ATOM      1  C1  UNL d   1      -1.069  -0.509  -0.191  0.00  0.00     0.143 A 
ATOM      2  C2  UNL d   1      -0.652  -1.393   0.809  0.00  0.00    -0.057 A 
ATOM      3  C3  UNL d   1       0.680  -1.425   1.241  0.00  0.00     0.033 A 
ATOM      4  C4  UNL d   1       1.626  -0.589   0.657  0.00  0.00    -0.042 A 
ATOM      5  C5  UNL d   1       1.239   0.280  -0.356  0.00  0.00     0.033 A 
ATOM      6  C6  UNL d   1      -0.093   0.311  -0.778  0.00  0.00    -0.057 A 
ENDROOT
BRANCH   1   7
ATOM      7  N   UNL d   1      -2.357  -0.498  -0.732  0.00  0.00    -0.732 N 
ATOM      8  C   UNL d   1      -3.327  -1.502  -0.347  0.00  0.00     0.284 C 
ATOM      9  H3  UNL d   1      -2.740   0.442  -0.807  0.00  0.00     0.395 HD
ENDBRANCH   1   7
TORSDOF 1
ENDMDL
