MODEL 1
REMARK minimizedAffinity -4.92296076
REMARK minimizedRMSD -1
REMARK  1 active torsions:
REMARK  status: ('A' for Active; 'I' for Inactive)
REMARK    1  A    between atoms: N_2  and  C1_3 
ROOT
ATOM      1  C1  UNL d   1      -1.447  -0.733   0.325  0.00  0.00     0.143 A 
ATOM      2  C2  UNL d   1      -0.658  -1.430   1.246  0.00  0.00    -0.057 A 
ATOM      3  C3  UNL d   1       0.737  -1.307   1.247  0.00  0.00     0.033 A 
ATOM      4  C4  UNL d   1       1.371  -0.504   0.305  0.00  0.00    -0.042 A 
ATOM      5  C5  UNL d   1       0.608   0.179  -0.636  0.00  0.00     0.033 A 
ATOM      6  C6  UNL d   1      -0.785   0.057  -0.628  0.00  0.00    -0.057 A 
ENDROOT
BRANCH   1   7
ATOM      7  N   UNL d   1      -2.831  -0.890   0.210  0.00  0.00    -0.732 N 
ATOM      8  C   UNL d   1      -3.397  -1.660  -0.877  0.00  0.00     0.284 C 
ATOM      9  H3  UNL d   1      -3.280  -1.047   1.109  0.00  0.00     0.395 HD
ENDBRANCH   1   7
TORSDOF 1
ENDMDL
