MODEL 1
REMARK minimizedAffinity 8.04639339
REMARK minimizedRMSD -1
REMARK  0 active torsions:
REMARK  status: ('A' for Active; 'I' for Inactive)
ROOT
ATOM      1  C   UNL d   1       3.648  -0.018  -0.953  0.00  0.00     0.124 A 
ATOM      2  C1  UNL d   1       3.463   0.260   0.395  0.00  0.00     0.062 A 
ATOM      3  C2  UNL d   1       4.133   1.326   0.988  0.00  0.00     0.162 A 
ATOM      4  C3  UNL d   1       4.995   2.122   0.235  0.00  0.00    -0.034 A 
ATOM      5  C4  UNL d   1       5.178   1.836  -1.119  0.00  0.00     0.162 A 
ATOM      6  C5  UNL d   1       4.505   0.770  -1.708  0.00  0.00     0.062 A 
ATOM      7  F   UNL d   1       4.686   0.503  -3.010  0.00  0.00    -0.097 F 
ATOM      8  F1  UNL d   1       5.999   2.582  -1.873  0.00  0.00    -0.096 F 
ATOM      9  I   UNL d   1       6.000   3.716   1.119  0.00  0.00    -0.060 I 
ATOM     10  F2  UNL d   1       3.935   1.571   2.292  0.00  0.00    -0.096 F 
ATOM     11  F3  UNL d   1       2.636  -0.500   1.127  0.00  0.00    -0.097 F 
ATOM     12  F4  UNL d   1       3.003  -1.044  -1.521  0.00  0.00    -0.092 F 
ENDROOT
TORSDOF 0
ENDMDL
