MODEL 1
REMARK minimizedAffinity 14.1362762
REMARK minimizedRMSD -1
REMARK  0 active torsions:
REMARK  status: ('A' for Active; 'I' for Inactive)
ROOT
ATOM      1  C   UNL d   1      -0.113   4.052   1.715  0.00  0.00     0.124 A 
ATOM      2  C1  UNL d   1       0.998   3.633   2.434  0.00  0.00     0.062 A 
ATOM      3  C2  UNL d   1       1.244   2.275   2.612  0.00  0.00     0.162 A 
ATOM      4  C3  UNL d   1       0.379   1.325   2.069  0.00  0.00    -0.034 A 
ATOM      5  C4  UNL d   1      -0.736   1.755   1.348  0.00  0.00     0.162 A 
ATOM      6  C5  UNL d   1      -0.978   3.113   1.172  0.00  0.00     0.062 A 
ATOM      7  F   UNL d   1      -2.052   3.516   0.477  0.00  0.00    -0.097 F 
ATOM      8  F1  UNL d   1      -1.589   0.869   0.812  0.00  0.00    -0.096 F 
ATOM      9  I   UNL d   1       0.744  -0.707   2.333  0.00  0.00    -0.060 I 
ATOM     10  F2  UNL d   1       2.325   1.898   3.312  0.00  0.00    -0.096 F 
ATOM     11  F3  UNL d   1       1.835   4.538   2.960  0.00  0.00    -0.097 F 
ATOM     12  F4  UNL d   1      -0.348   5.360   1.546  0.00  0.00    -0.092 F 
ENDROOT
TORSDOF 0
ENDMDL
