MODEL 1
REMARK minimizedAffinity 21.5046673
REMARK minimizedRMSD -1
REMARK  0 active torsions:
REMARK  status: ('A' for Active; 'I' for Inactive)
ROOT
ATOM      1  C   UNL d   1       4.486   1.458  -0.024  0.00  0.00     0.124 A 
ATOM      2  C1  UNL d   1       3.473   0.968   0.789  0.00  0.00     0.062 A 
ATOM      3  C2  UNL d   1       2.706  -0.117   0.374  0.00  0.00     0.162 A 
ATOM      4  C3  UNL d   1       2.949  -0.720  -0.860  0.00  0.00    -0.034 A 
ATOM      5  C4  UNL d   1       3.968  -0.220  -1.673  0.00  0.00     0.162 A 
ATOM      6  C5  UNL d   1       4.732   0.864  -1.254  0.00  0.00     0.062 A 
ATOM      7  F   UNL d   1       5.709   1.337  -2.041  0.00  0.00    -0.097 F 
ATOM      8  F1  UNL d   1       4.228  -0.776  -2.866  0.00  0.00    -0.096 F 
ATOM      9  I   UNL d   1       1.804  -2.342  -1.484  0.00  0.00    -0.060 I 
ATOM     10  F2  UNL d   1       1.735  -0.570   1.181  0.00  0.00    -0.096 F 
ATOM     11  F3  UNL d   1       3.233   1.541   1.977  0.00  0.00    -0.097 F 
ATOM     12  F4  UNL d   1       5.222   2.503   0.376  0.00  0.00    -0.092 F 
ENDROOT
TORSDOF 0
ENDMDL
