MODEL 1
REMARK minimizedAffinity 10.4746819
REMARK minimizedRMSD -1
REMARK  0 active torsions:
REMARK  status: ('A' for Active; 'I' for Inactive)
ROOT
ATOM      1  C   UNL d   1       3.870  -1.186  -1.634  0.00  0.00     0.124 A 
ATOM      2  C1  UNL d   1       2.945  -0.447  -0.911  0.00  0.00     0.062 A 
ATOM      3  C2  UNL d   1       1.643  -0.914  -0.756  0.00  0.00     0.162 A 
ATOM      4  C3  UNL d   1       1.258  -2.128  -1.324  0.00  0.00    -0.034 A 
ATOM      5  C4  UNL d   1       2.195  -2.866  -2.051  0.00  0.00     0.162 A 
ATOM      6  C5  UNL d   1       3.494  -2.395  -2.203  0.00  0.00     0.062 A 
ATOM      7  F   UNL d   1       4.387  -3.111  -2.902  0.00  0.00    -0.097 F 
ATOM      8  F1  UNL d   1       1.859  -4.038  -2.611  0.00  0.00    -0.096 F 
ATOM      9  I   UNL d   1      -0.687  -2.831  -1.094  0.00  0.00    -0.060 I 
ATOM     10  F2  UNL d   1       0.769  -0.179  -0.052  0.00  0.00    -0.096 F 
ATOM     11  F3  UNL d   1       3.305   0.722  -0.361  0.00  0.00    -0.097 F 
ATOM     12  F4  UNL d   1       5.122  -0.734  -1.782  0.00  0.00    -0.092 F 
ENDROOT
TORSDOF 0
ENDMDL
