MODEL 1
REMARK minimizedAffinity 19.9489517
REMARK minimizedRMSD -1
REMARK  0 active torsions:
REMARK  status: ('A' for Active; 'I' for Inactive)
ROOT
ATOM      1  C   UNL d   1       0.342   1.072   0.646  0.00  0.00     0.124 A 
ATOM      2  C1  UNL d   1       0.879   0.548  -0.522  0.00  0.00     0.062 A 
ATOM      3  C2  UNL d   1       2.253   0.355  -0.636  0.00  0.00     0.162 A 
ATOM      4  C3  UNL d   1       3.100   0.688   0.421  0.00  0.00    -0.034 A 
ATOM      5  C4  UNL d   1       2.553   1.216   1.592  0.00  0.00     0.162 A 
ATOM      6  C5  UNL d   1       1.179   1.406   1.701  0.00  0.00     0.062 A 
ATOM      7  F   UNL d   1       0.663   1.914   2.830  0.00  0.00    -0.097 F 
ATOM      8  F1  UNL d   1       3.339   1.546   2.628  0.00  0.00    -0.096 F 
ATOM      9  I   UNL d   1       5.155   0.402   0.255  0.00  0.00    -0.060 I 
ATOM     10  F2  UNL d   1       2.744  -0.154  -1.775  0.00  0.00    -0.096 F 
ATOM     11  F3  UNL d   1       0.073   0.225  -1.543  0.00  0.00    -0.097 F 
ATOM     12  F4  UNL d   1      -0.980   1.257   0.753  0.00  0.00    -0.092 F 
ENDROOT
TORSDOF 0
ENDMDL
