MODEL 1
REMARK minimizedAffinity 26.9585381
REMARK minimizedRMSD -1
REMARK  0 active torsions:
REMARK  status: ('A' for Active; 'I' for Inactive)
ROOT
ATOM      1  C   UNL d   1      -0.241   1.076   0.199  0.00  0.00     0.124 A 
ATOM      2  C1  UNL d   1       0.503   0.603  -0.873  0.00  0.00     0.062 A 
ATOM      3  C2  UNL d   1       1.839   0.253  -0.699  0.00  0.00     0.162 A 
ATOM      4  C3  UNL d   1       2.440   0.375   0.554  0.00  0.00    -0.034 A 
ATOM      5  C4  UNL d   1       1.686   0.853   1.627  0.00  0.00     0.162 A 
ATOM      6  C5  UNL d   1       0.352   1.201   1.448  0.00  0.00     0.062 A 
ATOM      7  F   UNL d   1      -0.365   1.658   2.485  0.00  0.00    -0.097 F 
ATOM      8  F1  UNL d   1       2.233   0.982   2.845  0.00  0.00    -0.096 F 
ATOM      9  I   UNL d   1       4.437  -0.147   0.819  0.00  0.00    -0.060 I 
ATOM     10  F2  UNL d   1       2.533  -0.202  -1.753  0.00  0.00    -0.096 F 
ATOM     11  F3  UNL d   1      -0.067   0.482  -2.081  0.00  0.00    -0.097 F 
ATOM     12  F4  UNL d   1      -1.526   1.413   0.028  0.00  0.00    -0.092 F 
ENDROOT
TORSDOF 0
ENDMDL
