MODEL 1
REMARK minimizedAffinity 4.26950121
REMARK minimizedRMSD -1
REMARK  1 active torsions:
REMARK  status: ('A' for Active; 'I' for Inactive)
REMARK    1  A    between atoms: C1_2  and  C2_3 
ROOT
ATOM      1  C2  UNL d   1       2.588  -1.785  -0.871  0.00  0.00    -0.081 A 
ATOM      2  C3  UNL d   1       3.540  -1.311  -1.783  0.00  0.00     0.006 A 
ATOM      3  C4  UNL d   1       3.990   0.010  -1.713  0.00  0.00     0.002 A 
ATOM      4  C5  UNL d   1       3.503   0.875  -0.727  0.00  0.00    -0.080 A 
ATOM      5  C6  UNL d   1       4.000   2.286  -0.623  0.00  0.00     0.076 C 
ATOM      6  C7  UNL d   1       2.539   0.406   0.172  0.00  0.00     0.002 A 
ATOM      7  C8  UNL d   1       2.088  -0.914   0.103  0.00  0.00     0.006 A 
ENDROOT
BRANCH   1   8
ATOM      8  C1  UNL d   1       2.149  -3.227  -0.903  0.00  0.00     0.054 C 
ATOM      9  C   UNL d   1       2.395  -3.910   0.435  0.00  0.00     0.018 C 
ENDBRANCH   1   8
TORSDOF 1
ENDMDL
