MODEL 1
REMARK minimizedAffinity 17.4208755
REMARK minimizedRMSD -1
REMARK  1 active torsions:
REMARK  status: ('A' for Active; 'I' for Inactive)
REMARK    1  A    between atoms: C1_2  and  C2_3 
ROOT
ATOM      1  C2  UNL d   1       3.577  -0.206  -0.711  0.00  0.00    -0.081 A 
ATOM      2  C3  UNL d   1       2.965  -1.415  -1.062  0.00  0.00     0.006 A 
ATOM      3  C4  UNL d   1       2.964  -2.492  -0.173  0.00  0.00     0.002 A 
ATOM      4  C5  UNL d   1       3.567  -2.377   1.084  0.00  0.00    -0.080 A 
ATOM      5  C6  UNL d   1       3.547  -3.516   2.059  0.00  0.00     0.076 C 
ATOM      6  C7  UNL d   1       4.194  -1.174   1.428  0.00  0.00     0.002 A 
ATOM      7  C8  UNL d   1       4.197  -0.097   0.539  0.00  0.00     0.006 A 
ENDROOT
BRANCH   1   8
ATOM      8  C1  UNL d   1       3.524   0.979  -1.641  0.00  0.00     0.054 C 
ATOM      9  C   UNL d   1       4.506   0.822  -2.794  0.00  0.00     0.018 C 
ENDBRANCH   1   8
TORSDOF 1
ENDMDL
