MODEL 1
REMARK minimizedAffinity 1.88550103
REMARK minimizedRMSD -1
REMARK  1 active torsions:
REMARK  status: ('A' for Active; 'I' for Inactive)
REMARK    1  A    between atoms: C1_2  and  C2_3 
ROOT
ATOM      1  C2  UNL d   1       2.200   5.193   5.274  0.00  0.00    -0.081 A 
ATOM      2  C3  UNL d   1       1.008   5.381   5.982  0.00  0.00     0.006 A 
ATOM      3  C4  UNL d   1      -0.183   5.655   5.305  0.00  0.00     0.002 A 
ATOM      4  C5  UNL d   1      -0.203   5.736   3.909  0.00  0.00    -0.080 A 
ATOM      5  C6  UNL d   1      -1.480   5.999   3.167  0.00  0.00     0.076 C 
ATOM      6  C7  UNL d   1       0.992   5.565   3.201  0.00  0.00     0.002 A 
ATOM      7  C8  UNL d   1       2.183   5.292   3.878  0.00  0.00     0.006 A 
ENDROOT
BRANCH   1   8
ATOM      8  C1  UNL d   1       3.473   4.834   5.997  0.00  0.00     0.054 C 
ATOM      9  C   UNL d   1       3.800   3.355   5.842  0.00  0.00     0.018 C 
ENDBRANCH   1   8
TORSDOF 1
ENDMDL
