MODEL 1
REMARK minimizedAffinity 2.22396278
REMARK minimizedRMSD -1
REMARK  1 active torsions:
REMARK  status: ('A' for Active; 'I' for Inactive)
REMARK    1  A    between atoms: C1_2  and  C2_3 
ROOT
ATOM      1  C2  UNL d   1       2.314   2.015   4.488  0.00  0.00    -0.081 A 
ATOM      2  C3  UNL d   1       2.612   2.709   3.309  0.00  0.00     0.006 A 
ATOM      3  C4  UNL d   1       3.134   4.003   3.362  0.00  0.00     0.002 A 
ATOM      4  C5  UNL d   1       3.374   4.622   4.594  0.00  0.00    -0.080 A 
ATOM      5  C6  UNL d   1       3.962   6.000   4.665  0.00  0.00     0.076 C 
ATOM      6  C7  UNL d   1       3.060   3.935   5.771  0.00  0.00     0.002 A 
ATOM      7  C8  UNL d   1       2.537   2.641   5.719  0.00  0.00     0.006 A 
ENDROOT
BRANCH   1   8
ATOM      8  C1  UNL d   1       1.811   0.594   4.435  0.00  0.00     0.054 C 
ATOM      9  C   UNL d   1       0.685   0.443   3.423  0.00  0.00     0.018 C 
ENDBRANCH   1   8
TORSDOF 1
ENDMDL
