MODEL 1
REMARK minimizedAffinity 8.87747765
REMARK minimizedRMSD -1
REMARK  1 active torsions:
REMARK  status: ('A' for Active; 'I' for Inactive)
REMARK    1  A    between atoms: C1_2  and  C2_3 
ROOT
ATOM      1  C2  UNL d   1       2.577  -2.090  -1.369  0.00  0.00    -0.081 A 
ATOM      2  C3  UNL d   1       1.537  -1.678  -2.212  0.00  0.00     0.006 A 
ATOM      3  C4  UNL d   1       0.342  -2.398  -2.267  0.00  0.00     0.002 A 
ATOM      4  C5  UNL d   1       0.163  -3.538  -1.475  0.00  0.00    -0.080 A 
ATOM      5  C6  UNL d   1      -1.126  -4.304  -1.502  0.00  0.00     0.076 C 
ATOM      6  C7  UNL d   1       1.209  -3.961  -0.647  0.00  0.00     0.002 A 
ATOM      7  C8  UNL d   1       2.404  -3.241  -0.592  0.00  0.00     0.006 A 
ENDROOT
BRANCH   1   8
ATOM      8  C1  UNL d   1       3.843  -1.279  -1.259  0.00  0.00     0.054 C 
ATOM      9  C   UNL d   1       3.565   0.105  -0.689  0.00  0.00     0.018 C 
ENDBRANCH   1   8
TORSDOF 1
ENDMDL
