MODEL 1
REMARK minimizedAffinity 8.46342754
REMARK minimizedRMSD -1
REMARK  1 active torsions:
REMARK  status: ('A' for Active; 'I' for Inactive)
REMARK    1  A    between atoms: C1_2  and  C2_3 
ROOT
ATOM      1  C2  UNL d   1      -4.269   2.011  -0.052  0.00  0.00    -0.081 A 
ATOM      2  C3  UNL d   1      -5.177   1.512  -0.994  0.00  0.00     0.006 A 
ATOM      3  C4  UNL d   1      -5.706   2.350  -1.979  0.00  0.00     0.002 A 
ATOM      4  C5  UNL d   1      -5.330   3.696  -2.044  0.00  0.00    -0.080 A 
ATOM      5  C6  UNL d   1      -5.868   4.598  -3.115  0.00  0.00     0.076 C 
ATOM      6  C7  UNL d   1      -4.437   4.198  -1.092  0.00  0.00     0.002 A 
ATOM      7  C8  UNL d   1      -3.908   3.361  -0.106  0.00  0.00     0.006 A 
ENDROOT
BRANCH   1   8
ATOM      8  C1  UNL d   1      -3.647   1.095   0.971  0.00  0.00     0.054 C 
ATOM      9  C   UNL d   1      -2.186   0.815   0.648  0.00  0.00     0.018 C 
ENDBRANCH   1   8
TORSDOF 1
ENDMDL
