MODEL 1
REMARK minimizedAffinity -1.79869485
REMARK minimizedRMSD -1
REMARK  1 active torsions:
REMARK  status: ('A' for Active; 'I' for Inactive)
REMARK    1  A    between atoms: C1_2  and  C2_3 
ROOT
ATOM      1  C2  UNL d   1       1.704   4.851   5.082  0.00  0.00    -0.081 A 
ATOM      2  C3  UNL d   1       2.326   6.000   5.585  0.00  0.00     0.006 A 
ATOM      3  C4  UNL d   1       3.691   5.993   5.885  0.00  0.00     0.002 A 
ATOM      4  C5  UNL d   1       4.457   4.841   5.679  0.00  0.00    -0.080 A 
ATOM      5  C6  UNL d   1       5.928   4.829   5.968  0.00  0.00     0.076 C 
ATOM      6  C7  UNL d   1       3.832   3.687   5.193  0.00  0.00     0.002 A 
ATOM      7  C8  UNL d   1       2.468   3.693   4.894  0.00  0.00     0.006 A 
ENDROOT
BRANCH   1   8
ATOM      8  C1  UNL d   1       0.247   4.874   4.697  0.00  0.00     0.054 C 
ATOM      9  C   UNL d   1      -0.494   6.000   5.404  0.00  0.00     0.018 C 
ENDBRANCH   1   8
TORSDOF 1
ENDMDL
