MODEL 1
REMARK minimizedAffinity 4.82379532
REMARK minimizedRMSD -1
REMARK  1 active torsions:
REMARK  status: ('A' for Active; 'I' for Inactive)
REMARK    1  A    between atoms: C1_2  and  C2_3 
ROOT
ATOM      1  C2  UNL d   1      -0.409   3.767   4.355  0.00  0.00    -0.081 A 
ATOM      2  C3  UNL d   1      -1.022   4.105   3.143  0.00  0.00     0.006 A 
ATOM      3  C4  UNL d   1      -0.781   3.349   1.993  0.00  0.00     0.002 A 
ATOM      4  C5  UNL d   1       0.070   2.240   2.038  0.00  0.00    -0.080 A 
ATOM      5  C6  UNL d   1       0.313   1.402   0.818  0.00  0.00     0.076 C 
ATOM      6  C7  UNL d   1       0.696   1.912   3.245  0.00  0.00     0.002 A 
ATOM      7  C8  UNL d   1       0.456   2.668   4.395  0.00  0.00     0.006 A 
ENDROOT
BRANCH   1   8
ATOM      8  C1  UNL d   1      -0.717   4.541   5.612  0.00  0.00     0.054 C 
ATOM      9  C   UNL d   1      -0.258   5.988   5.497  0.00  0.00     0.018 C 
ENDBRANCH   1   8
TORSDOF 1
ENDMDL
