MODEL 1
REMARK minimizedAffinity -5.13828754
REMARK minimizedRMSD -1
REMARK  0 active torsions:
REMARK  status: ('A' for Active; 'I' for Inactive)
ROOT
ATOM      1  C   UNL d   1      -1.873  -0.206  -2.448  0.00  0.00     0.023 A 
ATOM      2  C1  UNL d   1      -0.488  -0.107  -2.574  0.00  0.00     0.003 A 
ATOM      3  C2  UNL d   1       0.339  -0.464  -1.507  0.00  0.00     0.048 A 
ATOM      4  C3  UNL d   1      -0.226  -0.921  -0.317  0.00  0.00     0.023 A 
ATOM      5  C4  UNL d   1      -1.612  -1.023  -0.187  0.00  0.00     0.048 A 
ATOM      6  C5  UNL d   1      -2.435  -0.664  -1.256  0.00  0.00     0.003 A 
ATOM      7  I   UNL d   1       1.002  -1.454   1.272  0.00  0.00    -0.146 I 
ENDROOT
TORSDOF 0
ENDMDL
