MODEL 1
REMARK minimizedAffinity -2.98373103
REMARK minimizedRMSD -1
REMARK  0 active torsions:
REMARK  status: ('A' for Active; 'I' for Inactive)
ROOT
ATOM      1  C   UNL d   1      -2.928  -0.961  -1.217  0.00  0.00     0.023 A 
ATOM      2  C1  UNL d   1      -2.304  -1.574  -0.130  0.00  0.00     0.003 A 
ATOM      3  C2  UNL d   1      -1.099  -1.067   0.362  0.00  0.00     0.048 A 
ATOM      4  C3  UNL d   1      -0.525   0.054  -0.237  0.00  0.00     0.023 A 
ATOM      5  C4  UNL d   1      -1.146   0.671  -1.324  0.00  0.00     0.048 A 
ATOM      6  C5  UNL d   1      -2.350   0.160  -1.813  0.00  0.00     0.003 A 
ATOM      7  I   UNL d   1       1.268   0.810   0.494  0.00  0.00    -0.146 I 
ENDROOT
TORSDOF 0
ENDMDL
