MODEL 1
REMARK minimizedAffinity -1.19445074
REMARK minimizedRMSD -1
REMARK  0 active torsions:
REMARK  status: ('A' for Active; 'I' for Inactive)
ROOT
ATOM      1  C   UNL d   1      -3.047  -0.640  -1.520  0.00  0.00     0.023 A 
ATOM      2  C1  UNL d   1      -2.648  -0.993  -0.231  0.00  0.00     0.003 A 
ATOM      3  C2  UNL d   1      -1.369  -0.659   0.221  0.00  0.00     0.048 A 
ATOM      4  C3  UNL d   1      -0.496   0.029  -0.621  0.00  0.00     0.023 A 
ATOM      5  C4  UNL d   1      -0.892   0.384  -1.912  0.00  0.00     0.048 A 
ATOM      6  C5  UNL d   1      -2.171   0.048  -2.360  0.00  0.00     0.003 A 
ATOM      7  I   UNL d   1       1.407   0.527   0.049  0.00  0.00    -0.146 I 
ENDROOT
TORSDOF 0
ENDMDL
