MODEL 1
REMARK minimizedAffinity -1.73664069
REMARK minimizedRMSD -1
REMARK  0 active torsions:
REMARK  status: ('A' for Active; 'I' for Inactive)
ROOT
ATOM      1  C   UNL d   1      -1.133  -0.294  -2.738  0.00  0.00     0.023 A 
ATOM      2  C1  UNL d   1      -2.073  -1.209  -2.263  0.00  0.00     0.003 A 
ATOM      3  C2  UNL d   1      -2.025  -1.635  -0.935  0.00  0.00     0.048 A 
ATOM      4  C3  UNL d   1      -1.036  -1.141  -0.085  0.00  0.00     0.023 A 
ATOM      5  C4  UNL d   1      -0.094  -0.225  -0.555  0.00  0.00     0.048 A 
ATOM      6  C5  UNL d   1      -0.145   0.198  -1.884  0.00  0.00     0.003 A 
ATOM      7  I   UNL d   1      -0.964  -1.774   1.894  0.00  0.00    -0.146 I 
ENDROOT
TORSDOF 0
ENDMDL
