MODEL 1
REMARK minimizedAffinity -3.06379032
REMARK minimizedRMSD -1
REMARK  0 active torsions:
REMARK  status: ('A' for Active; 'I' for Inactive)
ROOT
ATOM      1  C   UNL d   1      -2.762  -0.720  -0.409  0.00  0.00     0.023 A 
ATOM      2  C1  UNL d   1      -2.379  -0.101   0.781  0.00  0.00     0.003 A 
ATOM      3  C2  UNL d   1      -1.201   0.648   0.832  0.00  0.00     0.048 A 
ATOM      4  C3  UNL d   1      -0.412   0.774  -0.311  0.00  0.00     0.023 A 
ATOM      5  C4  UNL d   1      -0.792   0.158  -1.504  0.00  0.00     0.048 A 
ATOM      6  C5  UNL d   1      -1.970  -0.591  -1.550  0.00  0.00     0.003 A 
ATOM      7  I   UNL d   1       1.341   1.888  -0.237  0.00  0.00    -0.146 I 
ENDROOT
TORSDOF 0
ENDMDL
