MODEL 1
REMARK minimizedAffinity -3.17877531
REMARK minimizedRMSD -1
REMARK  0 active torsions:
REMARK  status: ('A' for Active; 'I' for Inactive)
ROOT
ATOM      1  C   UNL d   1       1.371   0.352   0.487  0.00  0.00     0.023 A 
ATOM      2  C1  UNL d   1       0.931  -0.920   0.854  0.00  0.00     0.003 A 
ATOM      3  C2  UNL d   1      -0.278  -1.411   0.359  0.00  0.00     0.048 A 
ATOM      4  C3  UNL d   1      -1.043  -0.626  -0.503  0.00  0.00     0.023 A 
ATOM      5  C4  UNL d   1      -0.606   0.647  -0.874  0.00  0.00     0.048 A 
ATOM      6  C5  UNL d   1       0.603   1.135  -0.376  0.00  0.00     0.003 A 
ATOM      7  I   UNL d   1      -2.844  -1.356  -1.241  0.00  0.00    -0.146 I 
ENDROOT
TORSDOF 0
ENDMDL
