MODEL 1
REMARK minimizedAffinity -3.95957112
REMARK minimizedRMSD -1
REMARK  0 active torsions:
REMARK  status: ('A' for Active; 'I' for Inactive)
ROOT
ATOM      1  C   UNL d   1      -2.410  -3.431  -3.124  0.00  0.00     0.023 A 
ATOM      2  C1  UNL d   1      -2.560  -3.941  -1.835  0.00  0.00     0.003 A 
ATOM      3  C2  UNL d   1      -2.534  -3.081  -0.735  0.00  0.00     0.048 A 
ATOM      4  C3  UNL d   1      -2.358  -1.712  -0.931  0.00  0.00     0.023 A 
ATOM      5  C4  UNL d   1      -2.208  -1.197  -2.220  0.00  0.00     0.048 A 
ATOM      6  C5  UNL d   1      -2.234  -2.060  -3.317  0.00  0.00     0.003 A 
ATOM      7  I   UNL d   1      -2.319  -0.430   0.704  0.00  0.00    -0.146 I 
ENDROOT
TORSDOF 0
ENDMDL
