MODEL 1
REMARK minimizedAffinity -1.87704432
REMARK minimizedRMSD -1
REMARK  0 active torsions:
REMARK  status: ('A' for Active; 'I' for Inactive)
ROOT
ATOM      1  C   UNL d   1      -2.713  -3.026  -1.211  0.00  0.00     0.023 A 
ATOM      2  C1  UNL d   1      -2.435  -2.066  -2.185  0.00  0.00     0.003 A 
ATOM      3  C2  UNL d   1      -1.751  -0.899  -1.841  0.00  0.00     0.048 A 
ATOM      4  C3  UNL d   1      -1.347  -0.697  -0.522  0.00  0.00     0.023 A 
ATOM      5  C4  UNL d   1      -1.622  -1.654   0.456  0.00  0.00     0.048 A 
ATOM      6  C5  UNL d   1      -2.307  -2.820   0.108  0.00  0.00     0.003 A 
ATOM      7  I   UNL d   1      -0.328   1.041  -0.009  0.00  0.00    -0.146 I 
ENDROOT
TORSDOF 0
ENDMDL
