MODEL 1
REMARK minimizedAffinity -4.01287794
REMARK minimizedRMSD -1
REMARK  0 active torsions:
REMARK  status: ('A' for Active; 'I' for Inactive)
ROOT
ATOM      1  C   UNL d   1       1.206   0.867  -0.612  0.00  0.00     0.023 A 
ATOM      2  C1  UNL d   1       0.756   0.165   0.507  0.00  0.00     0.003 A 
ATOM      3  C2  UNL d   1      -0.517  -0.408   0.507  0.00  0.00     0.048 A 
ATOM      4  C3  UNL d   1      -1.335  -0.276  -0.614  0.00  0.00     0.023 A 
ATOM      5  C4  UNL d   1      -0.889   0.425  -1.736  0.00  0.00     0.048 A 
ATOM      6  C5  UNL d   1       0.385   0.997  -1.732  0.00  0.00     0.003 A 
ATOM      7  I   UNL d   1      -3.231  -1.128  -0.616  0.00  0.00    -0.146 I 
ENDROOT
TORSDOF 0
ENDMDL
