MODEL 1
REMARK minimizedAffinity -0.134857759
REMARK minimizedRMSD -1
REMARK  0 active torsions:
REMARK  status: ('A' for Active; 'I' for Inactive)
ROOT
ATOM      1  C   UNL d   1      -1.503  -1.104   2.348  0.00  0.00     0.023 A 
ATOM      2  C1  UNL d   1      -0.437  -1.858   1.857  0.00  0.00     0.003 A 
ATOM      3  C2  UNL d   1       0.282  -1.413   0.746  0.00  0.00     0.048 A 
ATOM      4  C3  UNL d   1      -0.071  -0.212   0.130  0.00  0.00     0.023 A 
ATOM      5  C4  UNL d   1      -1.136   0.546   0.619  0.00  0.00     0.048 A 
ATOM      6  C5  UNL d   1      -1.852   0.096   1.730  0.00  0.00     0.003 A 
ATOM      7  I   UNL d   1       0.997   0.453  -1.524  0.00  0.00    -0.146 I 
ENDROOT
TORSDOF 0
ENDMDL
