MODEL 1
REMARK minimizedAffinity -2.13466382
REMARK minimizedRMSD -1
REMARK  0 active torsions:
REMARK  status: ('A' for Active; 'I' for Inactive)
ROOT
ATOM      1  C   UNL d   1      -1.561   0.493   1.212  0.00  0.00     0.023 A 
ATOM      2  C1  UNL d   1      -0.438   0.277   0.414  0.00  0.00     0.003 A 
ATOM      3  C2  UNL d   1      -0.559  -0.419  -0.791  0.00  0.00     0.048 A 
ATOM      4  C3  UNL d   1      -1.807  -0.894  -1.192  0.00  0.00     0.023 A 
ATOM      5  C4  UNL d   1      -2.934  -0.679  -0.396  0.00  0.00     0.048 A 
ATOM      6  C5  UNL d   1      -2.807   0.016   0.808  0.00  0.00     0.003 A 
ATOM      7  I   UNL d   1      -1.991  -1.929  -2.984  0.00  0.00    -0.146 I 
ENDROOT
TORSDOF 0
ENDMDL
