MODEL 1
REMARK minimizedAffinity -4.16935825
REMARK minimizedRMSD -1
REMARK  0 active torsions:
REMARK  status: ('A' for Active; 'I' for Inactive)
ROOT
ATOM      1  C   UNL d   1      -3.031  -0.347  -0.840  0.00  0.00     0.023 A 
ATOM      2  C1  UNL d   1      -2.101  -0.556  -1.859  0.00  0.00     0.003 A 
ATOM      3  C2  UNL d   1      -0.742  -0.341  -1.620  0.00  0.00     0.048 A 
ATOM      4  C3  UNL d   1      -0.320   0.083  -0.361  0.00  0.00     0.023 A 
ATOM      5  C4  UNL d   1      -1.246   0.293   0.662  0.00  0.00     0.048 A 
ATOM      6  C5  UNL d   1      -2.604   0.078   0.418  0.00  0.00     0.003 A 
ATOM      7  I   UNL d   1       1.703   0.404  -0.003  0.00  0.00    -0.146 I 
ENDROOT
TORSDOF 0
ENDMDL
