MODEL 1
REMARK minimizedAffinity -0.985879004
REMARK minimizedRMSD -1
REMARK  0 active torsions:
REMARK  status: ('A' for Active; 'I' for Inactive)
ROOT
ATOM      1  C   UNL d   1      -1.245  -0.683   1.123  0.00  0.00     0.023 A 
ATOM      2  C1  UNL d   1      -0.009  -0.114   0.814  0.00  0.00     0.003 A 
ATOM      3  C2  UNL d   1       0.323   0.158  -0.514  0.00  0.00     0.048 A 
ATOM      4  C3  UNL d   1      -0.586  -0.140  -1.529  0.00  0.00     0.023 A 
ATOM      5  C4  UNL d   1      -1.824  -0.708  -1.225  0.00  0.00     0.048 A 
ATOM      6  C5  UNL d   1      -2.151  -0.979   0.105  0.00  0.00     0.003 A 
ATOM      7  I   UNL d   1      -0.094   0.264  -3.508  0.00  0.00    -0.146 I 
ENDROOT
TORSDOF 0
ENDMDL
