MODEL 1
REMARK minimizedAffinity -4.24341965
REMARK minimizedRMSD -1
REMARK  0 active torsions:
REMARK  status: ('A' for Active; 'I' for Inactive)
ROOT
ATOM      1  C   UNL d   1      -2.699  -0.467  -1.550  0.00  0.00     0.023 A 
ATOM      2  C1  UNL d   1      -2.479  -0.520  -0.174  0.00  0.00     0.003 A 
ATOM      3  C2  UNL d   1      -1.207  -0.264   0.341  0.00  0.00     0.048 A 
ATOM      4  C3  UNL d   1      -0.159   0.045  -0.526  0.00  0.00     0.023 A 
ATOM      5  C4  UNL d   1      -0.375   0.100  -1.904  0.00  0.00     0.048 A 
ATOM      6  C5  UNL d   1      -1.649  -0.158  -2.414  0.00  0.00     0.003 A 
ATOM      7  I   UNL d   1       1.736   0.426   0.239  0.00  0.00    -0.146 I 
ENDROOT
TORSDOF 0
ENDMDL
