MODEL 1
REMARK minimizedAffinity -5.15956116
REMARK minimizedRMSD -1
REMARK  0 active torsions:
REMARK  status: ('A' for Active; 'I' for Inactive)
ROOT
ATOM      1  C   UNL d   1      -2.956  -0.493  -0.767  0.00  0.00     0.023 A 
ATOM      2  C1  UNL d   1      -2.654  -0.216   0.566  0.00  0.00     0.003 A 
ATOM      3  C2  UNL d   1      -1.327  -0.022   0.957  0.00  0.00     0.048 A 
ATOM      4  C3  UNL d   1      -0.308  -0.106   0.009  0.00  0.00     0.023 A 
ATOM      5  C4  UNL d   1      -0.606  -0.383  -1.326  0.00  0.00     0.048 A 
ATOM      6  C5  UNL d   1      -1.934  -0.576  -1.712  0.00  0.00     0.003 A 
ATOM      7  I   UNL d   1       1.667   0.182   0.588  0.00  0.00    -0.146 I 
ENDROOT
TORSDOF 0
ENDMDL
