MODEL 1
REMARK minimizedAffinity 7.80705786
REMARK minimizedRMSD -1
REMARK  0 active torsions:
REMARK  status: ('A' for Active; 'I' for Inactive)
ROOT
ATOM      1  C   UNL d   1       4.155  -0.829  -2.296  0.00  0.00     0.078 C 
ATOM      2  C1  UNL d   1       2.862  -0.111  -2.543  0.00  0.00    -0.077 A 
ATOM      3  C2  UNL d   1       2.846   1.188  -3.065  0.00  0.00    -0.001 A 
ATOM      4  C3  UNL d   1       1.635   1.847  -3.282  0.00  0.00     0.003 A 
ATOM      5  C4  UNL d   1       0.430   1.216  -2.978  0.00  0.00    -0.005 A 
ATOM      6  C5  UNL d   1       0.436  -0.076  -2.456  0.00  0.00     0.003 A 
ATOM      7  C6  UNL d   1       1.646  -0.737  -2.239  0.00  0.00    -0.001 A 
ENDROOT
TORSDOF 0
ENDMDL
