MODEL 1
REMARK minimizedAffinity 4.15003967
REMARK minimizedRMSD -1
REMARK  0 active torsions:
REMARK  status: ('A' for Active; 'I' for Inactive)
ROOT
ATOM      1  C   UNL d   1       2.719   0.291  -3.070  0.00  0.00     0.078 C 
ATOM      2  C1  UNL d   1       2.219  -0.038  -1.695  0.00  0.00    -0.077 A 
ATOM      3  C2  UNL d   1       1.923  -1.357  -1.331  0.00  0.00    -0.001 A 
ATOM      4  C3  UNL d   1       1.450  -1.647  -0.051  0.00  0.00     0.003 A 
ATOM      5  C4  UNL d   1       1.267  -0.623   0.876  0.00  0.00    -0.005 A 
ATOM      6  C5  UNL d   1       1.558   0.693   0.523  0.00  0.00     0.003 A 
ATOM      7  C6  UNL d   1       2.031   0.985  -0.757  0.00  0.00    -0.001 A 
ENDROOT
TORSDOF 0
ENDMDL
