MODEL 1
REMARK minimizedAffinity 10.2749224
REMARK minimizedRMSD -1
REMARK  0 active torsions:
REMARK  status: ('A' for Active; 'I' for Inactive)
ROOT
ATOM      1  C   UNL d   1       3.983   3.240   2.685  0.00  0.00     0.078 C 
ATOM      2  C1  UNL d   1       2.891   2.566   1.909  0.00  0.00    -0.077 A 
ATOM      3  C2  UNL d   1       1.574   2.548   2.384  0.00  0.00    -0.001 A 
ATOM      4  C3  UNL d   1       0.569   1.908   1.657  0.00  0.00     0.003 A 
ATOM      5  C4  UNL d   1       0.872   1.280   0.450  0.00  0.00    -0.005 A 
ATOM      6  C5  UNL d   1       2.180   1.290  -0.029  0.00  0.00     0.003 A 
ATOM      7  C6  UNL d   1       3.186   1.929   0.697  0.00  0.00    -0.001 A 
ENDROOT
TORSDOF 0
ENDMDL
