MODEL 1
REMARK minimizedAffinity 6.99801779
REMARK minimizedRMSD -1
REMARK  0 active torsions:
REMARK  status: ('A' for Active; 'I' for Inactive)
ROOT
ATOM      1  C   UNL d   1       2.221   1.503   1.059  0.00  0.00     0.078 C 
ATOM      2  C1  UNL d   1       2.540   1.055  -0.336  0.00  0.00    -0.077 A 
ATOM      3  C2  UNL d   1       3.699   1.494  -0.987  0.00  0.00    -0.001 A 
ATOM      4  C3  UNL d   1       3.979   1.076  -2.289  0.00  0.00     0.003 A 
ATOM      5  C4  UNL d   1       3.103   0.218  -2.952  0.00  0.00    -0.005 A 
ATOM      6  C5  UNL d   1       1.946  -0.222  -2.313  0.00  0.00     0.003 A 
ATOM      7  C6  UNL d   1       1.665   0.194  -1.011  0.00  0.00    -0.001 A 
ENDROOT
TORSDOF 0
ENDMDL
