MODEL 1
REMARK minimizedAffinity 4.94012928
REMARK minimizedRMSD -1
REMARK  0 active torsions:
REMARK  status: ('A' for Active; 'I' for Inactive)
ROOT
ATOM      1  C   UNL d   1       2.746  -0.013  -2.717  0.00  0.00     0.078 C 
ATOM      2  C1  UNL d   1       2.256   0.417  -1.366  0.00  0.00    -0.077 A 
ATOM      3  C2  UNL d   1       1.568  -0.473  -0.532  0.00  0.00    -0.001 A 
ATOM      4  C3  UNL d   1       1.109  -0.057   0.718  0.00  0.00     0.003 A 
ATOM      5  C4  UNL d   1       1.331   1.251   1.146  0.00  0.00    -0.005 A 
ATOM      6  C5  UNL d   1       2.013   2.144   0.322  0.00  0.00     0.003 A 
ATOM      7  C6  UNL d   1       2.473   1.730  -0.929  0.00  0.00    -0.001 A 
ENDROOT
TORSDOF 0
ENDMDL
