MODEL 1
REMARK minimizedAffinity 2.70570898
REMARK minimizedRMSD -1
REMARK  0 active torsions:
REMARK  status: ('A' for Active; 'I' for Inactive)
ROOT
ATOM      1  C   UNL d   1       1.987   0.391  -0.474  0.00  0.00     0.078 C 
ATOM      2  C1  UNL d   1       1.264   1.135   0.609  0.00  0.00    -0.077 A 
ATOM      3  C2  UNL d   1      -0.097   1.443   0.487  0.00  0.00    -0.001 A 
ATOM      4  C3  UNL d   1      -0.755   2.145   1.498  0.00  0.00     0.003 A 
ATOM      5  C4  UNL d   1      -0.060   2.545   2.638  0.00  0.00    -0.005 A 
ATOM      6  C5  UNL d   1       1.294   2.245   2.767  0.00  0.00     0.003 A 
ATOM      7  C6  UNL d   1       1.954   1.543   1.757  0.00  0.00    -0.001 A 
ENDROOT
TORSDOF 0
ENDMDL
