MODEL 1
REMARK minimizedAffinity 7.36912584
REMARK minimizedRMSD -1
REMARK  0 active torsions:
REMARK  status: ('A' for Active; 'I' for Inactive)
ROOT
ATOM      1  C   UNL d   1       2.072   1.746   1.871  0.00  0.00     0.078 C 
ATOM      2  C1  UNL d   1       1.942   0.914   0.630  0.00  0.00    -0.077 A 
ATOM      3  C2  UNL d   1       1.284  -0.322   0.657  0.00  0.00    -0.001 A 
ATOM      4  C3  UNL d   1       1.179  -1.091  -0.504  0.00  0.00     0.003 A 
ATOM      5  C4  UNL d   1       1.732  -0.633  -1.698  0.00  0.00    -0.005 A 
ATOM      6  C5  UNL d   1       2.390   0.594  -1.734  0.00  0.00     0.003 A 
ATOM      7  C6  UNL d   1       2.496   1.364  -0.574  0.00  0.00    -0.001 A 
ENDROOT
TORSDOF 0
ENDMDL
