MODEL 1
REMARK minimizedAffinity 5.72251654
REMARK minimizedRMSD -1
REMARK  0 active torsions:
REMARK  status: ('A' for Active; 'I' for Inactive)
ROOT
ATOM      1  C   UNL d   1       3.060   0.085  -2.159  0.00  0.00     0.078 C 
ATOM      2  C1  UNL d   1       2.690   0.614  -0.805  0.00  0.00    -0.077 A 
ATOM      3  C2  UNL d   1       1.575   0.120  -0.117  0.00  0.00    -0.001 A 
ATOM      4  C3  UNL d   1       1.237   0.629   1.137  0.00  0.00     0.003 A 
ATOM      5  C4  UNL d   1       2.009   1.636   1.715  0.00  0.00    -0.005 A 
ATOM      6  C5  UNL d   1       3.119   2.136   1.037  0.00  0.00     0.003 A 
ATOM      7  C6  UNL d   1       3.458   1.628  -0.218  0.00  0.00    -0.001 A 
ENDROOT
TORSDOF 0
ENDMDL
