MODEL 1
REMARK minimizedAffinity 5.35418177
REMARK minimizedRMSD -1
REMARK  0 active torsions:
REMARK  status: ('A' for Active; 'I' for Inactive)
ROOT
ATOM      1  C   UNL d   1       3.071   0.573  -1.621  0.00  0.00     0.078 C 
ATOM      2  C1  UNL d   1       2.886   1.157  -0.253  0.00  0.00    -0.077 A 
ATOM      3  C2  UNL d   1       3.833   2.032   0.293  0.00  0.00    -0.001 A 
ATOM      4  C3  UNL d   1       3.652   2.561   1.572  0.00  0.00     0.003 A 
ATOM      5  C4  UNL d   1       2.525   2.219   2.317  0.00  0.00    -0.005 A 
ATOM      6  C5  UNL d   1       1.578   1.347   1.784  0.00  0.00     0.003 A 
ATOM      7  C6  UNL d   1       1.757   0.818   0.505  0.00  0.00    -0.001 A 
ENDROOT
TORSDOF 0
ENDMDL
