MODEL 1
REMARK minimizedAffinity 1.90900528
REMARK minimizedRMSD -1
REMARK  0 active torsions:
REMARK  status: ('A' for Active; 'I' for Inactive)
ROOT
ATOM      1  C   UNL d   1       3.372   0.282  -2.661  0.00  0.00     0.078 C 
ATOM      2  C1  UNL d   1       2.892   0.380  -1.244  0.00  0.00    -0.077 A 
ATOM      3  C2  UNL d   1       2.314  -0.722  -0.601  0.00  0.00    -0.001 A 
ATOM      4  C3  UNL d   1       1.862  -0.614   0.715  0.00  0.00     0.003 A 
ATOM      5  C4  UNL d   1       1.982   0.594   1.399  0.00  0.00    -0.005 A 
ATOM      6  C5  UNL d   1       2.553   1.696   0.767  0.00  0.00     0.003 A 
ATOM      7  C6  UNL d   1       3.005   1.590  -0.549  0.00  0.00    -0.001 A 
ENDROOT
TORSDOF 0
ENDMDL
