MODEL 1
REMARK minimizedAffinity 5.0067606
REMARK minimizedRMSD -1
REMARK  0 active torsions:
REMARK  status: ('A' for Active; 'I' for Inactive)
ROOT
ATOM      1  C   UNL d   1       2.727   0.042  -2.939  0.00  0.00     0.078 C 
ATOM      2  C1  UNL d   1       2.189   0.009  -1.540  0.00  0.00    -0.077 A 
ATOM      3  C2  UNL d   1       1.934  -1.208  -0.894  0.00  0.00    -0.001 A 
ATOM      4  C3  UNL d   1       1.425  -1.224   0.405  0.00  0.00     0.003 A 
ATOM      5  C4  UNL d   1       1.165  -0.027   1.069  0.00  0.00    -0.005 A 
ATOM      6  C5  UNL d   1       1.413   1.188   0.434  0.00  0.00     0.003 A 
ATOM      7  C6  UNL d   1       1.922   1.206  -0.865  0.00  0.00    -0.001 A 
ENDROOT
TORSDOF 0
ENDMDL
