MODEL 1
REMARK minimizedAffinity 5.48742199
REMARK minimizedRMSD -1
REMARK  0 active torsions:
REMARK  status: ('A' for Active; 'I' for Inactive)
ROOT
ATOM      1  C   UNL d   1       3.238   0.374  -2.503  0.00  0.00     0.078 C 
ATOM      2  C1  UNL d   1       2.629   0.287  -1.135  0.00  0.00    -0.077 A 
ATOM      3  C2  UNL d   1       2.248  -0.946  -0.593  0.00  0.00    -0.001 A 
ATOM      4  C3  UNL d   1       1.674  -1.011   0.677  0.00  0.00     0.003 A 
ATOM      5  C4  UNL d   1       1.475   0.153   1.416  0.00  0.00    -0.005 A 
ATOM      6  C5  UNL d   1       1.850   1.385   0.884  0.00  0.00     0.003 A 
ATOM      7  C6  UNL d   1       2.424   1.452  -0.386  0.00  0.00    -0.001 A 
ENDROOT
TORSDOF 0
ENDMDL
