MODEL 1
REMARK minimizedAffinity 5.76004648
REMARK minimizedRMSD -1
REMARK  0 active torsions:
REMARK  status: ('A' for Active; 'I' for Inactive)
ROOT
ATOM      1  C   UNL d   1       0.926   1.583   1.094  0.00  0.00     0.078 C 
ATOM      2  C1  UNL d   1       1.655   0.501   0.355  0.00  0.00    -0.077 A 
ATOM      3  C2  UNL d   1       2.010   0.659  -0.990  0.00  0.00    -0.001 A 
ATOM      4  C3  UNL d   1       2.680  -0.361  -1.668  0.00  0.00     0.003 A 
ATOM      5  C4  UNL d   1       2.999  -1.547  -1.010  0.00  0.00    -0.005 A 
ATOM      6  C5  UNL d   1       2.648  -1.714   0.328  0.00  0.00     0.003 A 
ATOM      7  C6  UNL d   1       1.978  -0.695   1.008  0.00  0.00    -0.001 A 
ENDROOT
TORSDOF 0
ENDMDL
