MODEL 1
REMARK minimizedAffinity 8.16499233
REMARK minimizedRMSD -1
REMARK  0 active torsions:
REMARK  status: ('A' for Active; 'I' for Inactive)
ROOT
ATOM      1  C   UNL d   1       2.991  -0.006  -1.990  0.00  0.00     0.078 C 
ATOM      2  C1  UNL d   1       2.566   0.539  -0.659  0.00  0.00    -0.077 A 
ATOM      3  C2  UNL d   1       1.265   0.341  -0.181  0.00  0.00    -0.001 A 
ATOM      4  C3  UNL d   1       0.881   0.862   1.055  0.00  0.00     0.003 A 
ATOM      5  C4  UNL d   1       1.791   1.584   1.824  0.00  0.00    -0.005 A 
ATOM      6  C5  UNL d   1       3.088   1.788   1.356  0.00  0.00     0.003 A 
ATOM      7  C6  UNL d   1       3.474   1.268   0.119  0.00  0.00    -0.001 A 
ENDROOT
TORSDOF 0
ENDMDL
