MODEL 1
REMARK minimizedAffinity 4.97093487
REMARK minimizedRMSD -1
REMARK  0 active torsions:
REMARK  status: ('A' for Active; 'I' for Inactive)
ROOT
ATOM      1  C   UNL d   1      -6.000   4.865   0.528  0.00  0.00     0.078 C 
ATOM      2  C1  UNL d   1      -5.312   3.546   0.719  0.00  0.00    -0.077 A 
ATOM      3  C2  UNL d   1      -6.000   2.341   0.535  0.00  0.00    -0.001 A 
ATOM      4  C3  UNL d   1      -5.349   1.120   0.726  0.00  0.00     0.003 A 
ATOM      5  C4  UNL d   1      -4.008   1.094   1.103  0.00  0.00    -0.005 A 
ATOM      6  C5  UNL d   1      -3.316   2.289   1.290  0.00  0.00     0.003 A 
ATOM      7  C6  UNL d   1      -3.965   3.510   1.100  0.00  0.00    -0.001 A 
ENDROOT
TORSDOF 0
ENDMDL
