MODEL 1
REMARK minimizedAffinity 4.08745813
REMARK minimizedRMSD -1
REMARK  0 active torsions:
REMARK  status: ('A' for Active; 'I' for Inactive)
ROOT
ATOM      1  C   UNL d   1       0.197   2.092  -4.860  0.00  0.00     0.078 C 
ATOM      2  C1  UNL d   1       1.113   1.476  -3.845  0.00  0.00    -0.077 A 
ATOM      3  C2  UNL d   1       1.569   2.212  -2.744  0.00  0.00    -0.001 A 
ATOM      4  C3  UNL d   1       2.430   1.629  -1.813  0.00  0.00     0.003 A 
ATOM      5  C4  UNL d   1       2.843   0.308  -1.973  0.00  0.00    -0.005 A 
ATOM      6  C5  UNL d   1       2.397  -0.431  -3.066  0.00  0.00     0.003 A 
ATOM      7  C6  UNL d   1       1.536   0.150  -3.999  0.00  0.00    -0.001 A 
ENDROOT
TORSDOF 0
ENDMDL
