MODEL 1
REMARK minimizedAffinity 9.30029392
REMARK minimizedRMSD -1
REMARK  2 active torsions:
REMARK  status: ('A' for Active; 'I' for Inactive)
REMARK    1  A    between atoms: C2'_3  and  C1'_4 
REMARK    2  A    between atoms: C1'_4  and  C1_5 
ROOT
ATOM      1  C1  I4B d   1       5.838   5.247   2.873  0.00  0.00    -0.075 A 
ATOM      2  C2  I4B d   1       5.804   3.876   2.933  0.00  0.00     0.003 A 
ATOM      3  C3  I4B d   1       5.841   3.217   4.186  0.00  0.00     0.002 A 
ATOM      4  C4  I4B d   1       5.962   3.960   5.342  0.00  0.00    -0.004 A 
ATOM      5  C5  I4B d   1       5.973   5.351   5.280  0.00  0.00     0.002 A 
ATOM      6  C6  I4B d   1       5.898   5.999   4.039  0.00  0.00     0.003 A 
ENDROOT
BRANCH   1   7
ATOM      7  C1' I4B d   1       5.830   5.910   1.532  0.00  0.00     0.060 C 
BRANCH   7   8
ATOM      8  C2' I4B d   1       4.454   5.723   0.927  0.00  0.00    -0.013 C 
ATOM      9  C4' I4B d   1       4.291   4.338   0.359  0.00  0.00     0.013 C 
ATOM     10  C3' I4B d   1       3.438   5.993   1.996  0.00  0.00     0.013 C 
ENDBRANCH   7   8
ENDBRANCH   1   7
TORSDOF 2
ENDMDL
