MODEL 1
REMARK minimizedAffinity -2.40391636
REMARK minimizedRMSD -1
REMARK  2 active torsions:
REMARK  status: ('A' for Active; 'I' for Inactive)
REMARK    1  A    between atoms: C2'_3  and  C1'_4 
REMARK    2  A    between atoms: C1'_4  and  C1_5 
ROOT
ATOM      1  C1  I4B d   1       1.738   1.128  -2.009  0.00  0.00    -0.075 A 
ATOM      2  C2  I4B d   1       3.056   0.769  -1.879  0.00  0.00     0.003 A 
ATOM      3  C3  I4B d   1       3.405  -0.572  -1.589  0.00  0.00     0.002 A 
ATOM      4  C4  I4B d   1       2.408  -1.505  -1.387  0.00  0.00    -0.004 A 
ATOM      5  C5  I4B d   1       1.072  -1.144  -1.542  0.00  0.00     0.002 A 
ATOM      6  C6  I4B d   1       0.735   0.178  -1.866  0.00  0.00     0.003 A 
ENDROOT
BRANCH   1   7
ATOM      7  C1' I4B d   1       1.405   2.560  -2.283  0.00  0.00     0.060 C 
BRANCH   7   8
ATOM      8  C2' I4B d   1       0.027   2.606  -2.913  0.00  0.00    -0.013 C 
ATOM      9  C4' I4B d   1      -0.746   3.811  -2.445  0.00  0.00     0.013 C 
ATOM     10  C3' I4B d   1       0.200   2.618  -4.403  0.00  0.00     0.013 C 
ENDBRANCH   7   8
ENDBRANCH   1   7
TORSDOF 2
ENDMDL
