MODEL 1
REMARK minimizedAffinity 1.36174226
REMARK minimizedRMSD -1
REMARK  2 active torsions:
REMARK  status: ('A' for Active; 'I' for Inactive)
REMARK    1  A    between atoms: C2'_3  and  C1'_4 
REMARK    2  A    between atoms: C1'_4  and  C1_5 
ROOT
ATOM      1  C1  I4B d   1       2.267   0.810  -2.330  0.00  0.00    -0.075 A 
ATOM      2  C2  I4B d   1       3.512   0.268  -2.130  0.00  0.00     0.003 A 
ATOM      3  C3  I4B d   1       3.644  -1.068  -1.678  0.00  0.00     0.002 A 
ATOM      4  C4  I4B d   1       2.512  -1.804  -1.393  0.00  0.00    -0.004 A 
ATOM      5  C5  I4B d   1       1.251  -1.260  -1.619  0.00  0.00     0.002 A 
ATOM      6  C6  I4B d   1       1.127   0.051  -2.102  0.00  0.00     0.003 A 
ENDROOT
BRANCH   1   7
ATOM      7  C1' I4B d   1       2.164   2.234  -2.776  0.00  0.00     0.060 C 
BRANCH   7   8
ATOM      8  C2' I4B d   1       0.771   2.450  -3.329  0.00  0.00    -0.013 C 
ATOM      9  C4' I4B d   1       0.169   3.728  -2.807  0.00  0.00     0.013 C 
ATOM     10  C3' I4B d   1       0.864   2.468  -4.826  0.00  0.00     0.013 C 
ENDBRANCH   7   8
ENDBRANCH   1   7
TORSDOF 2
ENDMDL
