MODEL 1
REMARK minimizedAffinity 1.31949806
REMARK minimizedRMSD -1
REMARK  2 active torsions:
REMARK  status: ('A' for Active; 'I' for Inactive)
REMARK    1  A    between atoms: C2'_3  and  C1'_4 
REMARK    2  A    between atoms: C1'_4  and  C1_5 
ROOT
ATOM      1  C1  I4B d   1       0.157   2.884  -2.669  0.00  0.00    -0.075 A 
ATOM      2  C2  I4B d   1       0.964   3.977  -2.476  0.00  0.00     0.003 A 
ATOM      3  C3  I4B d   1       0.459   5.132  -1.831  0.00  0.00     0.002 A 
ATOM      4  C4  I4B d   1      -0.865   5.169  -1.443  0.00  0.00    -0.004 A 
ATOM      5  C5  I4B d   1      -1.676   4.052  -1.619  0.00  0.00     0.002 A 
ATOM      6  C6  I4B d   1      -1.159   2.897  -2.225  0.00  0.00     0.003 A 
ENDROOT
BRANCH   1   7
ATOM      7  C1' I4B d   1       0.713   1.693  -3.383  0.00  0.00     0.060 C 
BRANCH   7   8
ATOM      8  C2' I4B d   1       2.218   1.702  -3.203  0.00  0.00    -0.013 C 
ATOM      9  C4' I4B d   1       2.650   0.686  -2.179  0.00  0.00     0.013 C 
ATOM     10  C3' I4B d   1       2.846   1.428  -4.537  0.00  0.00     0.013 C 
ENDBRANCH   7   8
ENDBRANCH   1   7
TORSDOF 2
ENDMDL
