MODEL 1
REMARK minimizedAffinity 3.49323773
REMARK minimizedRMSD -1
REMARK  2 active torsions:
REMARK  status: ('A' for Active; 'I' for Inactive)
REMARK    1  A    between atoms: C2'_3  and  C1'_4 
REMARK    2  A    between atoms: C1'_4  and  C1_5 
ROOT
ATOM      1  C1  I4B d   1       2.116   1.657  -3.358  0.00  0.00    -0.075 A 
ATOM      2  C2  I4B d   1       2.956   2.018  -4.381  0.00  0.00     0.003 A 
ATOM      3  C3  I4B d   1       2.510   1.962  -5.724  0.00  0.00     0.002 A 
ATOM      4  C4  I4B d   1       1.242   1.494  -6.000  0.00  0.00    -0.004 A 
ATOM      5  C5  I4B d   1       0.383   1.150  -4.960  0.00  0.00     0.002 A 
ATOM      6  C6  I4B d   1       0.818   1.244  -3.630  0.00  0.00     0.003 A 
ENDROOT
BRANCH   1   7
ATOM      7  C1' I4B d   1       2.630   1.696  -1.954  0.00  0.00     0.060 C 
BRANCH   7   8
ATOM      8  C2' I4B d   1       2.883   0.270  -1.509  0.00  0.00    -0.013 C 
ATOM      9  C4' I4B d   1       1.890  -0.678  -2.128  0.00  0.00     0.013 C 
ATOM     10  C3' I4B d   1       4.288  -0.092  -1.891  0.00  0.00     0.013 C 
ENDBRANCH   7   8
ENDBRANCH   1   7
TORSDOF 2
ENDMDL
