MODEL 1
REMARK minimizedAffinity -5.1739502
REMARK minimizedRMSD -1
REMARK  2 active torsions:
REMARK  status: ('A' for Active; 'I' for Inactive)
REMARK    1  A    between atoms: C2'_3  and  C1'_4 
REMARK    2  A    between atoms: C1'_4  and  C1_5 
ROOT
ATOM      1  C1  I4B d   1       2.111   1.347  -3.384  0.00  0.00    -0.075 A 
ATOM      2  C2  I4B d   1       3.274   1.818  -3.939  0.00  0.00     0.003 A 
ATOM      3  C3  I4B d   1       3.273   2.353  -5.250  0.00  0.00     0.002 A 
ATOM      4  C4  I4B d   1       2.104   2.351  -5.983  0.00  0.00    -0.004 A 
ATOM      5  C5  I4B d   1       0.921   1.894  -5.411  0.00  0.00     0.002 A 
ATOM      6  C6  I4B d   1       0.921   1.400  -4.098  0.00  0.00     0.003 A 
ENDROOT
BRANCH   1   7
ATOM      7  C1' I4B d   1       2.154   0.758  -2.009  0.00  0.00     0.060 C 
BRANCH   7   8
ATOM      8  C2' I4B d   1       1.143  -0.369  -1.952  0.00  0.00    -0.013 C 
ATOM      9  C4' I4B d   1       1.825  -1.707  -1.841  0.00  0.00     0.013 C 
ATOM     10  C3' I4B d   1       0.241  -0.122  -0.779  0.00  0.00     0.013 C 
ENDBRANCH   7   8
ENDBRANCH   1   7
TORSDOF 2
ENDMDL
