MODEL 1
REMARK minimizedAffinity 4.73581076
REMARK minimizedRMSD -1
REMARK  2 active torsions:
REMARK  status: ('A' for Active; 'I' for Inactive)
REMARK    1  A    between atoms: C2'_3  and  C1'_4 
REMARK    2  A    between atoms: C1'_4  and  C1_5 
ROOT
ATOM      1  C1  I4B d   1       1.761   1.536  -2.764  0.00  0.00    -0.075 A 
ATOM      2  C2  I4B d   1       0.444   1.313  -3.079  0.00  0.00     0.003 A 
ATOM      3  C3  I4B d   1      -0.302   0.337  -2.377  0.00  0.00     0.002 A 
ATOM      4  C4  I4B d   1       0.318  -0.424  -1.407  0.00  0.00    -0.004 A 
ATOM      5  C5  I4B d   1       1.647  -0.181  -1.072  0.00  0.00     0.002 A 
ATOM      6  C6  I4B d   1       2.370   0.813  -1.746  0.00  0.00     0.003 A 
ENDROOT
BRANCH   1   7
ATOM      7  C1' I4B d   1       2.528   2.552  -3.549  0.00  0.00     0.060 C 
BRANCH   7   8
ATOM      8  C2' I4B d   1       3.544   1.816  -4.399  0.00  0.00    -0.013 C 
ATOM      9  C4' I4B d   1       3.752   2.508  -5.720  0.00  0.00     0.013 C 
ATOM     10  C3' I4B d   1       4.824   1.733  -3.623  0.00  0.00     0.013 C 
ENDBRANCH   7   8
ENDBRANCH   1   7
TORSDOF 2
ENDMDL
