MODEL 1
REMARK minimizedAffinity -4.14249372
REMARK minimizedRMSD -1
REMARK  2 active torsions:
REMARK  status: ('A' for Active; 'I' for Inactive)
REMARK    1  A    between atoms: C2'_3  and  C1'_4 
REMARK    2  A    between atoms: C1'_4  and  C1_5 
ROOT
ATOM      1  C1  I4B d   1       0.165  -0.148  -0.111  0.00  0.00    -0.075 A 
ATOM      2  C2  I4B d   1      -0.157  -1.482  -0.085  0.00  0.00     0.003 A 
ATOM      3  C3  I4B d   1       0.719  -2.438  -0.653  0.00  0.00     0.002 A 
ATOM      4  C4  I4B d   1       1.874  -2.014  -1.278  0.00  0.00    -0.004 A 
ATOM      5  C5  I4B d   1       2.210  -0.664  -1.284  0.00  0.00     0.002 A 
ATOM      6  C6  I4B d   1       1.357   0.275  -0.685  0.00  0.00     0.003 A 
ENDROOT
BRANCH   1   7
ATOM      7  C1' I4B d   1      -0.798   0.838   0.470  0.00  0.00     0.060 C 
BRANCH   7   8
ATOM      8  C2' I4B d   1      -0.063   2.148   0.669  0.00  0.00    -0.013 C 
ATOM      9  C4' I4B d   1      -0.381   3.124  -0.433  0.00  0.00     0.013 C 
ATOM     10  C3' I4B d   1      -0.452   2.698   2.009  0.00  0.00     0.013 C 
ENDBRANCH   7   8
ENDBRANCH   1   7
TORSDOF 2
ENDMDL
