MODEL 1
REMARK minimizedAffinity -2.18929052
REMARK minimizedRMSD -1
REMARK  2 active torsions:
REMARK  status: ('A' for Active; 'I' for Inactive)
REMARK    1  A    between atoms: C2'_3  and  C1'_4 
REMARK    2  A    between atoms: C1'_4  and  C1_5 
ROOT
ATOM      1  C1  I4B d   1      -0.835   5.152   5.883  0.00  0.00    -0.075 A 
ATOM      2  C2  I4B d   1      -0.999   3.792   5.967  0.00  0.00     0.003 A 
ATOM      3  C3  I4B d   1      -2.299   3.232   5.999  0.00  0.00     0.002 A 
ATOM      4  C4  I4B d   1      -3.399   4.065   5.997  0.00  0.00    -0.004 A 
ATOM      5  C5  I4B d   1      -3.231   5.443   5.889  0.00  0.00     0.002 A 
ATOM      6  C6  I4B d   1      -1.941   5.990   5.819  0.00  0.00     0.003 A 
ENDROOT
BRANCH   1   7
ATOM      7  C1' I4B d   1       0.552   5.712   5.884  0.00  0.00     0.060 C 
BRANCH   7   8
ATOM      8  C2' I4B d   1       0.962   5.947   4.444  0.00  0.00    -0.013 C 
ATOM      9  C4' I4B d   1       2.460   5.999   4.305  0.00  0.00     0.013 C 
ATOM     10  C3' I4B d   1       0.378   4.845   3.611  0.00  0.00     0.013 C 
ENDBRANCH   7   8
ENDBRANCH   1   7
TORSDOF 2
ENDMDL
