MODEL 1
REMARK minimizedAffinity 0.311157525
REMARK minimizedRMSD -1
REMARK  2 active torsions:
REMARK  status: ('A' for Active; 'I' for Inactive)
REMARK    1  A    between atoms: C2'_3  and  C1'_4 
REMARK    2  A    between atoms: C1'_4  and  C1_5 
ROOT
ATOM      1  C1  I4B d   1       3.015  -3.367   1.221  0.00  0.00    -0.075 A 
ATOM      2  C2  I4B d   1       3.500  -4.634   1.429  0.00  0.00     0.003 A 
ATOM      3  C3  I4B d   1       4.847  -4.826   1.820  0.00  0.00     0.002 A 
ATOM      4  C4  I4B d   1       5.682  -3.734   1.942  0.00  0.00    -0.004 A 
ATOM      5  C5  I4B d   1       5.182  -2.448   1.753  0.00  0.00     0.002 A 
ATOM      6  C6  I4B d   1       3.837  -2.262   1.402  0.00  0.00     0.003 A 
ENDROOT
BRANCH   1   7
ATOM      7  C1' I4B d   1       1.596  -3.202   0.776  0.00  0.00     0.060 C 
BRANCH   7   8
ATOM      8  C2' I4B d   1       0.738  -3.015   2.011  0.00  0.00    -0.013 C 
ATOM      9  C4' I4B d   1       0.041  -1.681   1.993  0.00  0.00     0.013 C 
ATOM     10  C3' I4B d   1      -0.250  -4.142   2.063  0.00  0.00     0.013 C 
ENDBRANCH   7   8
ENDBRANCH   1   7
TORSDOF 2
ENDMDL
