MODEL 1
REMARK minimizedAffinity 9.74969482
REMARK minimizedRMSD -1
REMARK  2 active torsions:
REMARK  status: ('A' for Active; 'I' for Inactive)
REMARK    1  A    between atoms: C2'_3  and  C1'_4 
REMARK    2  A    between atoms: C1'_4  and  C1_5 
ROOT
ATOM      1  C1  I4B d   1      -1.586   5.154   4.325  0.00  0.00    -0.075 A 
ATOM      2  C2  I4B d   1      -1.989   3.879   4.019  0.00  0.00     0.003 A 
ATOM      3  C3  I4B d   1      -3.092   3.299   4.691  0.00  0.00     0.002 A 
ATOM      4  C4  I4B d   1      -3.727   4.007   5.691  0.00  0.00    -0.004 A 
ATOM      5  C5  I4B d   1      -3.331   5.309   5.985  0.00  0.00     0.002 A 
ATOM      6  C6  I4B d   1      -2.262   5.891   5.289  0.00  0.00     0.003 A 
ENDROOT
BRANCH   1   7
ATOM      7  C1' I4B d   1      -0.396   5.723   3.619  0.00  0.00     0.060 C 
BRANCH   7   8
ATOM      8  C2' I4B d   1       0.674   5.999   4.655  0.00  0.00    -0.013 C 
ATOM      9  C4' I4B d   1       0.290   5.439   5.999  0.00  0.00     0.013 C 
ATOM     10  C3' I4B d   1       1.958   5.399   4.165  0.00  0.00     0.013 C 
ENDBRANCH   7   8
ENDBRANCH   1   7
TORSDOF 2
ENDMDL
