MODEL 1
REMARK minimizedAffinity 1.29138267
REMARK minimizedRMSD -1
REMARK  2 active torsions:
REMARK  status: ('A' for Active; 'I' for Inactive)
REMARK    1  A    between atoms: C2'_3  and  C1'_4 
REMARK    2  A    between atoms: C1'_4  and  C1_5 
ROOT
ATOM      1  C1  I4B d   1      -1.250   5.600   4.563  0.00  0.00    -0.075 A 
ATOM      2  C2  I4B d   1      -0.731   5.959   5.781  0.00  0.00     0.003 A 
ATOM      3  C3  I4B d   1       0.667   5.921   6.000  0.00  0.00     0.002 A 
ATOM      4  C4  I4B d   1       1.500   5.472   4.995  0.00  0.00    -0.004 A 
ATOM      5  C5  I4B d   1       0.974   5.130   3.753  0.00  0.00     0.002 A 
ATOM      6  C6  I4B d   1      -0.409   5.206   3.531  0.00  0.00     0.003 A 
ENDROOT
BRANCH   1   7
ATOM      7  C1' I4B d   1      -2.734   5.620   4.377  0.00  0.00     0.060 C 
BRANCH   7   8
ATOM      8  C2' I4B d   1      -3.373   5.162   5.672  0.00  0.00    -0.013 C 
ATOM      9  C4' I4B d   1      -4.811   5.602   5.757  0.00  0.00     0.013 C 
ATOM     10  C3' I4B d   1      -3.260   3.668   5.741  0.00  0.00     0.013 C 
ENDBRANCH   7   8
ENDBRANCH   1   7
TORSDOF 2
ENDMDL
