MODEL 1
REMARK minimizedAffinity 3.25866771
REMARK minimizedRMSD -1
REMARK  2 active torsions:
REMARK  status: ('A' for Active; 'I' for Inactive)
REMARK    1  A    between atoms: C2'_3  and  C1'_4 
REMARK    2  A    between atoms: C1'_4  and  C1_5 
ROOT
ATOM      1  C1  I4B d   1       4.109  -2.849   1.456  0.00  0.00    -0.075 A 
ATOM      2  C2  I4B d   1       3.002  -3.517   0.996  0.00  0.00     0.003 A 
ATOM      3  C3  I4B d   1       1.750  -2.859   0.926  0.00  0.00     0.002 A 
ATOM      4  C4  I4B d   1       1.641  -1.557   1.371  0.00  0.00    -0.004 A 
ATOM      5  C5  I4B d   1       2.769  -0.874   1.817  0.00  0.00     0.002 A 
ATOM      6  C6  I4B d   1       4.013  -1.520   1.848  0.00  0.00     0.003 A 
ENDROOT
BRANCH   1   7
ATOM      7  C1' I4B d   1       5.408  -3.584   1.548  0.00  0.00     0.060 C 
BRANCH   7   8
ATOM      8  C2' I4B d   1       5.110  -5.010   1.962  0.00  0.00    -0.013 C 
ATOM      9  C4' I4B d   1       5.779  -5.997   1.042  0.00  0.00     0.013 C 
ATOM     10  C3' I4B d   1       5.573  -5.188   3.377  0.00  0.00     0.013 C 
ENDBRANCH   7   8
ENDBRANCH   1   7
TORSDOF 2
ENDMDL
