MODEL 1
REMARK minimizedAffinity -1.40305889
REMARK minimizedRMSD -1
REMARK  0 active torsions:
REMARK  status: ('A' for Active; 'I' for Inactive)
ROOT
ATOM      1  C   UNL d   1       1.146  -0.535   0.835  0.00  0.00     0.124 A 
ATOM      2  C1  UNL d   1       1.669  -1.732   0.366  0.00  0.00     0.062 A 
ATOM      3  C2  UNL d   1       2.766  -1.728  -0.491  0.00  0.00     0.162 A 
ATOM      4  C3  UNL d   1       3.348  -0.522  -0.884  0.00  0.00    -0.034 A 
ATOM      5  C4  UNL d   1       2.815   0.677  -0.409  0.00  0.00     0.162 A 
ATOM      6  C5  UNL d   1       1.719   0.668   0.448  0.00  0.00     0.062 A 
ATOM      7  F   UNL d   1       1.214   1.825   0.900  0.00  0.00    -0.097 F 
ATOM      8  F1  UNL d   1       3.350   1.854  -0.767  0.00  0.00    -0.096 F 
ATOM      9  I   UNL d   1       4.988  -0.512  -2.165  0.00  0.00    -0.060 I 
ATOM     10  F2  UNL d   1       3.251  -2.899  -0.929  0.00  0.00    -0.096 F 
ATOM     11  F3  UNL d   1       1.117  -2.895   0.738  0.00  0.00    -0.097 F 
ATOM     12  F4  UNL d   1       0.090  -0.542   1.659  0.00  0.00    -0.092 F 
ENDROOT
TORSDOF 0
ENDMDL
