MODEL 1
REMARK minimizedAffinity 1.46106386
REMARK minimizedRMSD -1
REMARK  0 active torsions:
REMARK  status: ('A' for Active; 'I' for Inactive)
ROOT
ATOM      1  C   UNL d   1       3.106  -0.896  -0.699  0.00  0.00     0.124 A 
ATOM      2  C1  UNL d   1       2.308  -1.967  -0.318  0.00  0.00     0.062 A 
ATOM      3  C2  UNL d   1       1.087  -1.741   0.311  0.00  0.00     0.162 A 
ATOM      4  C3  UNL d   1       0.655  -0.439   0.562  0.00  0.00    -0.034 A 
ATOM      5  C4  UNL d   1       1.462   0.632   0.177  0.00  0.00     0.162 A 
ATOM      6  C5  UNL d   1       2.682   0.402  -0.451  0.00  0.00     0.062 A 
ATOM      7  F   UNL d   1       3.451   1.437  -0.818  0.00  0.00    -0.097 F 
ATOM      8  F1  UNL d   1       1.077   1.897   0.403  0.00  0.00    -0.096 F 
ATOM      9  I   UNL d   1      -1.171  -0.098   1.502  0.00  0.00    -0.060 I 
ATOM     10  F2  UNL d   1       0.337  -2.795   0.668  0.00  0.00    -0.096 F 
ATOM     11  F3  UNL d   1       2.716  -3.222  -0.555  0.00  0.00    -0.097 F 
ATOM     12  F4  UNL d   1       4.281  -1.116  -1.302  0.00  0.00    -0.092 F 
ENDROOT
TORSDOF 0
ENDMDL
