MODEL 1
REMARK minimizedAffinity -2.74684906
REMARK minimizedRMSD -1
REMARK  0 active torsions:
REMARK  status: ('A' for Active; 'I' for Inactive)
ROOT
ATOM      1  C   UNL d   1       0.949   0.409   0.442  0.00  0.00     0.124 A 
ATOM      2  C1  UNL d   1       1.541   1.472  -0.226  0.00  0.00     0.062 A 
ATOM      3  C2  UNL d   1       2.618   1.249  -1.079  0.00  0.00     0.162 A 
ATOM      4  C3  UNL d   1       3.110  -0.042  -1.270  0.00  0.00    -0.034 A 
ATOM      5  C4  UNL d   1       2.510  -1.106  -0.593  0.00  0.00     0.162 A 
ATOM      6  C5  UNL d   1       1.434  -0.878   0.258  0.00  0.00     0.062 A 
ATOM      7  F   UNL d   1       0.863  -1.906   0.903  0.00  0.00    -0.097 F 
ATOM      8  F1  UNL d   1       2.957  -2.360  -0.754  0.00  0.00    -0.096 F 
ATOM      9  I   UNL d   1       4.720  -0.379  -2.545  0.00  0.00    -0.060 I 
ATOM     10  F2  UNL d   1       3.171   2.295  -1.712  0.00  0.00    -0.096 F 
ATOM     11  F3  UNL d   1       1.076   2.717  -0.049  0.00  0.00    -0.097 F 
ATOM     12  F4  UNL d   1      -0.086   0.626   1.263  0.00  0.00    -0.092 F 
ENDROOT
TORSDOF 0
ENDMDL
