MODEL 1
REMARK minimizedAffinity 4.3734045
REMARK minimizedRMSD -1
REMARK  0 active torsions:
REMARK  status: ('A' for Active; 'I' for Inactive)
ROOT
ATOM      1  C   UNL d   1       1.397  -0.165   0.539  0.00  0.00     0.124 A 
ATOM      2  C1  UNL d   1       2.026   0.958   0.021  0.00  0.00     0.062 A 
ATOM      3  C2  UNL d   1       3.094   0.819  -0.860  0.00  0.00     0.162 A 
ATOM      4  C3  UNL d   1       3.540  -0.449  -1.231  0.00  0.00    -0.034 A 
ATOM      5  C4  UNL d   1       2.903  -1.575  -0.705  0.00  0.00     0.162 A 
ATOM      6  C5  UNL d   1       1.836  -1.431   0.175  0.00  0.00     0.062 A 
ATOM      7  F   UNL d   1       1.229  -2.518   0.674  0.00  0.00    -0.097 F 
ATOM      8  F1  UNL d   1       3.306  -2.810  -1.041  0.00  0.00    -0.096 F 
ATOM      9  I   UNL d   1       5.137  -0.662  -2.548  0.00  0.00    -0.060 I 
ATOM     10  F2  UNL d   1       3.683   1.923  -1.344  0.00  0.00    -0.096 F 
ATOM     11  F3  UNL d   1       1.604   2.182   0.372  0.00  0.00    -0.097 F 
ATOM     12  F4  UNL d   1       0.369  -0.029   1.387  0.00  0.00    -0.092 F 
ENDROOT
TORSDOF 0
ENDMDL
