MODEL 1
REMARK minimizedAffinity 2.96725225
REMARK minimizedRMSD -1
REMARK  0 active torsions:
REMARK  status: ('A' for Active; 'I' for Inactive)
ROOT
ATOM      1  C   UNL d   1       1.048  -0.245   0.481  0.00  0.00     0.124 A 
ATOM      2  C1  UNL d   1       1.719   0.910   0.101  0.00  0.00     0.062 A 
ATOM      3  C2  UNL d   1       2.827   0.832  -0.737  0.00  0.00     0.162 A 
ATOM      4  C3  UNL d   1       3.272  -0.406  -1.202  0.00  0.00    -0.034 A 
ATOM      5  C4  UNL d   1       2.593  -1.562  -0.816  0.00  0.00     0.162 A 
ATOM      6  C5  UNL d   1       1.486  -1.479   0.022  0.00  0.00     0.062 A 
ATOM      7  F   UNL d   1       0.839  -2.596   0.387  0.00  0.00    -0.097 F 
ATOM      8  F1  UNL d   1       2.994  -2.768  -1.245  0.00  0.00    -0.096 F 
ATOM      9  I   UNL d   1       4.929  -0.526  -2.456  0.00  0.00    -0.060 I 
ATOM     10  F2  UNL d   1       3.456   1.964  -1.087  0.00  0.00    -0.096 F 
ATOM     11  F3  UNL d   1       1.298   2.103   0.544  0.00  0.00    -0.097 F 
ATOM     12  F4  UNL d   1      -0.018  -0.167   1.288  0.00  0.00    -0.092 F 
ENDROOT
TORSDOF 0
ENDMDL
