MODEL 1
REMARK minimizedAffinity 5.24531174
REMARK minimizedRMSD -1
REMARK  0 active torsions:
REMARK  status: ('A' for Active; 'I' for Inactive)
ROOT
ATOM      1  C   UNL d   1       0.987   0.186   0.883  0.00  0.00     0.124 A 
ATOM      2  C1  UNL d   1       1.616  -1.044   0.747  0.00  0.00     0.062 A 
ATOM      3  C2  UNL d   1       2.666  -1.197  -0.153  0.00  0.00     0.162 A 
ATOM      4  C3  UNL d   1       3.096  -0.117  -0.924  0.00  0.00    -0.034 A 
ATOM      5  C4  UNL d   1       2.458   1.117  -0.782  0.00  0.00     0.162 A 
ATOM      6  C5  UNL d   1       1.408   1.265   0.119  0.00  0.00     0.062 A 
ATOM      7  F   UNL d   1       0.802   2.454   0.249  0.00  0.00    -0.097 F 
ATOM      8  F1  UNL d   1       2.845   2.176  -1.508  0.00  0.00    -0.096 F 
ATOM      9  I   UNL d   1       4.666  -0.342  -2.271  0.00  0.00    -0.060 I 
ATOM     10  F2  UNL d   1       3.256  -2.397  -0.264  0.00  0.00    -0.096 F 
ATOM     11  F3  UNL d   1       1.210  -2.088   1.484  0.00  0.00    -0.097 F 
ATOM     12  F4  UNL d   1      -0.024   0.330   1.749  0.00  0.00    -0.092 F 
ENDROOT
TORSDOF 0
ENDMDL
