MODEL 1
REMARK minimizedAffinity 12.2592163
REMARK minimizedRMSD -1
REMARK  0 active torsions:
REMARK  status: ('A' for Active; 'I' for Inactive)
ROOT
ATOM      1  C   UNL d   1       1.047  -1.361   0.530  0.00  0.00     0.124 A 
ATOM      2  C1  UNL d   1       2.041  -1.648  -0.396  0.00  0.00     0.062 A 
ATOM      3  C2  UNL d   1       2.785  -0.619  -0.965  0.00  0.00     0.162 A 
ATOM      4  C3  UNL d   1       2.539   0.707  -0.609  0.00  0.00    -0.034 A 
ATOM      5  C4  UNL d   1       1.538   0.988   0.322  0.00  0.00     0.162 A 
ATOM      6  C5  UNL d   1       0.797  -0.044   0.888  0.00  0.00     0.062 A 
ATOM      7  F   UNL d   1      -0.163   0.235   1.782  0.00  0.00    -0.097 F 
ATOM      8  F1  UNL d   1       1.275   2.252   0.686  0.00  0.00    -0.096 F 
ATOM      9  I   UNL d   1       3.650   2.249  -1.458  0.00  0.00    -0.060 I 
ATOM     10  F2  UNL d   1       3.739  -0.925  -1.857  0.00  0.00    -0.096 F 
ATOM     11  F3  UNL d   1       2.284  -2.920  -0.744  0.00  0.00    -0.097 F 
ATOM     12  F4  UNL d   1       0.332  -2.353   1.076  0.00  0.00    -0.092 F 
ENDROOT
TORSDOF 0
ENDMDL
