MODEL 1
REMARK minimizedAffinity 5.05387878
REMARK minimizedRMSD -1
REMARK  0 active torsions:
REMARK  status: ('A' for Active; 'I' for Inactive)
ROOT
ATOM      1  C   UNL d   1       4.635   0.651  -2.028  0.00  0.00     0.124 A 
ATOM      2  C1  UNL d   1       4.236  -0.678  -1.992  0.00  0.00     0.062 A 
ATOM      3  C2  UNL d   1       3.228  -1.083  -1.122  0.00  0.00     0.162 A 
ATOM      4  C3  UNL d   1       2.611  -0.157  -0.281  0.00  0.00    -0.034 A 
ATOM      5  C4  UNL d   1       3.018   1.177  -0.322  0.00  0.00     0.162 A 
ATOM      6  C5  UNL d   1       4.026   1.577  -1.193  0.00  0.00     0.062 A 
ATOM      7  F   UNL d   1       4.410   2.861  -1.226  0.00  0.00    -0.097 F 
ATOM      8  F1  UNL d   1       2.446   2.093   0.473  0.00  0.00    -0.096 F 
ATOM      9  I   UNL d   1       1.102  -0.759   1.021  0.00  0.00    -0.060 I 
ATOM     10  F2  UNL d   1       2.863  -2.373  -1.109  0.00  0.00    -0.096 F 
ATOM     11  F3  UNL d   1       4.824  -1.575  -2.797  0.00  0.00    -0.097 F 
ATOM     12  F4  UNL d   1       5.606   1.037  -2.865  0.00  0.00    -0.092 F 
ENDROOT
TORSDOF 0
ENDMDL
