MODEL 1
REMARK minimizedAffinity 6.6099968
REMARK minimizedRMSD -1
REMARK  0 active torsions:
REMARK  status: ('A' for Active; 'I' for Inactive)
ROOT
ATOM      1  C   UNL d   1       0.940  -0.297   1.015  0.00  0.00     0.124 A 
ATOM      2  C1  UNL d   1       1.517  -1.525   0.719  0.00  0.00     0.062 A 
ATOM      3  C2  UNL d   1       2.432  -1.635  -0.323  0.00  0.00     0.162 A 
ATOM      4  C3  UNL d   1       2.778  -0.514  -1.078  0.00  0.00    -0.034 A 
ATOM      5  C4  UNL d   1       2.193   0.717  -0.775  0.00  0.00     0.162 A 
ATOM      6  C5  UNL d   1       1.279   0.822   0.269  0.00  0.00     0.062 A 
ATOM      7  F   UNL d   1       0.723   2.009   0.553  0.00  0.00    -0.097 F 
ATOM      8  F1  UNL d   1       2.503   1.816  -1.479  0.00  0.00    -0.096 F 
ATOM      9  I   UNL d   1       4.146  -0.674  -2.638  0.00  0.00    -0.060 I 
ATOM     10  F2  UNL d   1       2.973  -2.833  -0.587  0.00  0.00    -0.096 F 
ATOM     11  F3  UNL d   1       1.190  -2.608   1.439  0.00  0.00    -0.097 F 
ATOM     12  F4  UNL d   1       0.059  -0.194   2.018  0.00  0.00    -0.092 F 
ENDROOT
TORSDOF 0
ENDMDL
