MODEL 1
REMARK minimizedAffinity 0.394087732
REMARK minimizedRMSD -1
REMARK  0 active torsions:
REMARK  status: ('A' for Active; 'I' for Inactive)
ROOT
ATOM      1  C   UNL d   1       1.114  -0.440   0.539  0.00  0.00     0.124 A 
ATOM      2  C1  UNL d   1       1.676   0.720   0.025  0.00  0.00     0.062 A 
ATOM      3  C2  UNL d   1       2.755   0.647  -0.851  0.00  0.00     0.162 A 
ATOM      4  C3  UNL d   1       3.279  -0.592  -1.221  0.00  0.00    -0.034 A 
ATOM      5  C4  UNL d   1       2.708  -1.755  -0.700  0.00  0.00     0.162 A 
ATOM      6  C5  UNL d   1       1.630  -1.676   0.176  0.00  0.00     0.062 A 
ATOM      7  F   UNL d   1       1.088  -2.799   0.671  0.00  0.00    -0.097 F 
ATOM      8  F1  UNL d   1       3.187  -2.963  -1.034  0.00  0.00    -0.096 F 
ATOM      9  I   UNL d   1       4.891  -0.706  -2.532  0.00  0.00    -0.060 I 
ATOM     10  F2  UNL d   1       3.279   1.784  -1.332  0.00  0.00    -0.096 F 
ATOM     11  F3  UNL d   1       1.180   1.916   0.375  0.00  0.00    -0.097 F 
ATOM     12  F4  UNL d   1       0.077  -0.367   1.383  0.00  0.00    -0.092 F 
ENDROOT
TORSDOF 0
ENDMDL
