MODEL 1
REMARK minimizedAffinity 0.84330976
REMARK minimizedRMSD -1
REMARK  0 active torsions:
REMARK  status: ('A' for Active; 'I' for Inactive)
ROOT
ATOM      1  C   UNL d   1       1.281  -0.175   0.377  0.00  0.00     0.124 A 
ATOM      2  C1  UNL d   1       1.910   0.997  -0.019  0.00  0.00     0.062 A 
ATOM      3  C2  UNL d   1       3.026   0.947  -0.849  0.00  0.00     0.162 A 
ATOM      4  C3  UNL d   1       3.519  -0.281  -1.291  0.00  0.00    -0.034 A 
ATOM      5  C4  UNL d   1       2.881  -1.455  -0.888  0.00  0.00     0.162 A 
ATOM      6  C5  UNL d   1       1.767  -1.400  -0.058  0.00  0.00     0.062 A 
ATOM      7  F   UNL d   1       1.160  -2.533   0.324  0.00  0.00    -0.097 F 
ATOM      8  F1  UNL d   1       3.330  -2.653  -1.294  0.00  0.00    -0.096 F 
ATOM      9  I   UNL d   1       5.187  -0.361  -2.533  0.00  0.00    -0.060 I 
ATOM     10  F2  UNL d   1       3.614   2.095  -1.216  0.00  0.00    -0.096 F 
ATOM     11  F3  UNL d   1       1.443   2.182   0.401  0.00  0.00    -0.097 F 
ATOM     12  F4  UNL d   1       0.208  -0.123   1.177  0.00  0.00    -0.092 F 
ENDROOT
TORSDOF 0
ENDMDL
