MODEL 1
REMARK minimizedAffinity 1.50908601
REMARK minimizedRMSD -1
REMARK  0 active torsions:
REMARK  status: ('A' for Active; 'I' for Inactive)
ROOT
ATOM      1  C   UNL d   1       0.564  -0.174   0.395  0.00  0.00     0.124 A 
ATOM      2  C1  UNL d   1       1.267  -1.363   0.256  0.00  0.00     0.062 A 
ATOM      3  C2  UNL d   1       2.396  -1.418  -0.556  0.00  0.00     0.162 A 
ATOM      4  C3  UNL d   1       2.830  -0.280  -1.235  0.00  0.00    -0.034 A 
ATOM      5  C4  UNL d   1       2.117   0.912  -1.091  0.00  0.00     0.162 A 
ATOM      6  C5  UNL d   1       0.990   0.962  -0.278  0.00  0.00     0.062 A 
ATOM      7  F   UNL d   1       0.312   2.112  -0.145  0.00  0.00    -0.097 F 
ATOM      8  F1  UNL d   1       2.507   2.025  -1.730  0.00  0.00    -0.096 F 
ATOM      9  I   UNL d   1       4.517  -0.358  -2.451  0.00  0.00    -0.060 I 
ATOM     10  F2  UNL d   1       3.055  -2.580  -0.672  0.00  0.00    -0.096 F 
ATOM     11  F3  UNL d   1       0.857  -2.462   0.906  0.00  0.00    -0.097 F 
ATOM     12  F4  UNL d   1      -0.522  -0.124   1.177  0.00  0.00    -0.092 F 
ENDROOT
TORSDOF 0
ENDMDL
