MODEL 1
REMARK minimizedAffinity 8.46362673e-05
REMARK minimizedRMSD -1
REMARK  0 active torsions:
REMARK  status: ('A' for Active; 'I' for Inactive)
ROOT
ATOM      1  C   UNL d   1       1.280  -0.519   0.637  0.00  0.00     0.124 A 
ATOM      2  C1  UNL d   1       1.694   0.652   0.018  0.00  0.00     0.062 A 
ATOM      3  C2  UNL d   1       2.634   0.608  -1.007  0.00  0.00     0.162 A 
ATOM      4  C3  UNL d   1       3.168  -0.613  -1.420  0.00  0.00    -0.034 A 
ATOM      5  C4  UNL d   1       2.748  -1.787  -0.792  0.00  0.00     0.162 A 
ATOM      6  C5  UNL d   1       1.808  -1.737   0.232  0.00  0.00     0.062 A 
ATOM      7  F   UNL d   1       1.409  -2.870   0.829  0.00  0.00    -0.097 F 
ATOM      8  F1  UNL d   1       3.240  -2.978  -1.164  0.00  0.00    -0.096 F 
ATOM      9  I   UNL d   1       4.575  -0.684  -2.952  0.00  0.00    -0.060 I 
ATOM     10  F2  UNL d   1       3.016   1.755  -1.587  0.00  0.00    -0.096 F 
ATOM     11  F3  UNL d   1       1.187   1.830   0.408  0.00  0.00    -0.097 F 
ATOM     12  F4  UNL d   1       0.376  -0.474   1.624  0.00  0.00    -0.092 F 
ENDROOT
TORSDOF 0
ENDMDL
