MODEL 1
REMARK minimizedAffinity 7.02926683
REMARK minimizedRMSD -1
REMARK  0 active torsions:
REMARK  status: ('A' for Active; 'I' for Inactive)
ROOT
ATOM      1  O1  BZF d   1      -0.260   2.564   1.484  0.00  0.00    -0.204 OA
ATOM      2  C2  BZF d   1      -1.519   2.483   2.046  0.00  0.00     0.174 A 
ATOM      3  C3  BZF d   1      -1.651   1.347   2.762  0.00  0.00    -0.012 A 
ATOM      4  C3A BZF d   1      -0.366   0.721   2.714  0.00  0.00    -0.107 A 
ATOM      5  C4  BZF d   1       0.138  -0.431   3.249  0.00  0.00     0.055 A 
ATOM      6  C5  BZF d   1       1.414  -0.794   2.953  0.00  0.00    -0.016 A 
ATOM      7  C6  BZF d   1       2.211  -0.033   2.122  0.00  0.00     0.022 A 
ATOM      8  C7  BZF d   1       1.757   1.119   1.572  0.00  0.00     0.029 A 
ATOM      9  C7A BZF d   1       0.479   1.506   1.896  0.00  0.00     0.058 A 
ENDROOT
TORSDOF 0
ENDMDL
