MODEL 1
REMARK minimizedAffinity 2.99404383
REMARK minimizedRMSD -1
REMARK  0 active torsions:
REMARK  status: ('A' for Active; 'I' for Inactive)
ROOT
ATOM      1  O1  BZF d   1       3.474  -1.074  -3.415  0.00  0.00    -0.204 OA
ATOM      2  C2  BZF d   1       2.899  -1.491  -2.230  0.00  0.00     0.174 A 
ATOM      3  C3  BZF d   1       3.370  -2.702  -1.870  0.00  0.00    -0.012 A 
ATOM      4  C3A BZF d   1       4.365  -3.025  -2.847  0.00  0.00    -0.107 A 
ATOM      5  C4  BZF d   1       5.198  -4.092  -3.020  0.00  0.00     0.055 A 
ATOM      6  C5  BZF d   1       6.000  -4.133  -4.117  0.00  0.00    -0.016 A 
ATOM      7  C6  BZF d   1       5.990  -3.127  -5.061  0.00  0.00     0.022 A 
ATOM      8  C7  BZF d   1       5.184  -2.046  -4.930  0.00  0.00     0.029 A 
ATOM      9  C7A BZF d   1       4.396  -1.986  -3.806  0.00  0.00     0.058 A 
ENDROOT
TORSDOF 0
ENDMDL
