MODEL 1
REMARK minimizedAffinity 2.60181046
REMARK minimizedRMSD -1
REMARK  0 active torsions:
REMARK  status: ('A' for Active; 'I' for Inactive)
ROOT
ATOM      1  O1  BZF d   1       0.298   1.253  -0.754  0.00  0.00    -0.204 OA
ATOM      2  C2  BZF d   1       0.506   2.618  -0.792  0.00  0.00     0.174 A 
ATOM      3  C3  BZF d   1       0.602   3.123   0.455  0.00  0.00    -0.012 A 
ATOM      4  C3A BZF d   1       0.535   1.989   1.326  0.00  0.00    -0.107 A 
ATOM      5  C4  BZF d   1       0.592   1.843   2.682  0.00  0.00     0.055 A 
ATOM      6  C5  BZF d   1       0.423   0.606   3.221  0.00  0.00    -0.016 A 
ATOM      7  C6  BZF d   1       0.190  -0.503   2.434  0.00  0.00     0.022 A 
ATOM      8  C7  BZF d   1       0.131  -0.408   1.083  0.00  0.00     0.029 A 
ATOM      9  C7A BZF d   1       0.334   0.835   0.534  0.00  0.00     0.058 A 
ENDROOT
TORSDOF 0
ENDMDL
