MODEL 1
REMARK minimizedAffinity 18.7974072
REMARK minimizedRMSD -1
REMARK  0 active torsions:
REMARK  status: ('A' for Active; 'I' for Inactive)
ROOT
ATOM      1  O1  BZF d   1      -2.350   3.380   2.478  0.00  0.00    -0.204 OA
ATOM      2  C2  BZF d   1      -3.134   4.397   1.969  0.00  0.00     0.174 A 
ATOM      3  C3  BZF d   1      -2.714   4.754   0.738  0.00  0.00    -0.012 A 
ATOM      4  C3A BZF d   1      -1.656   3.845   0.423  0.00  0.00    -0.107 A 
ATOM      5  C4  BZF d   1      -0.851   3.682  -0.668  0.00  0.00     0.055 A 
ATOM      6  C5  BZF d   1       0.134   2.747  -0.630  0.00  0.00    -0.016 A 
ATOM      7  C6  BZF d   1       0.345   1.961   0.484  0.00  0.00     0.022 A 
ATOM      8  C7  BZF d   1      -0.431   2.082   1.589  0.00  0.00     0.029 A 
ATOM      9  C7A BZF d   1      -1.448   3.004   1.540  0.00  0.00     0.058 A 
ENDROOT
TORSDOF 0
ENDMDL
