MODEL 1
REMARK minimizedAffinity 19.5318127
REMARK minimizedRMSD -1
REMARK  0 active torsions:
REMARK  status: ('A' for Active; 'I' for Inactive)
ROOT
ATOM      1  O1  BZF d   1      -1.849   3.136   3.059  0.00  0.00    -0.204 OA
ATOM      2  C2  BZF d   1      -2.543   4.029   2.265  0.00  0.00     0.174 A 
ATOM      3  C3  BZF d   1      -1.785   4.433   1.225  0.00  0.00    -0.012 A 
ATOM      4  C3A BZF d   1      -0.573   3.680   1.327  0.00  0.00    -0.107 A 
ATOM      5  C4  BZF d   1       0.565   3.625   0.574  0.00  0.00     0.055 A 
ATOM      6  C5  BZF d   1       1.593   2.838   0.987  0.00  0.00    -0.016 A 
ATOM      7  C6  BZF d   1       1.519   2.098   2.149  0.00  0.00     0.022 A 
ATOM      8  C7  BZF d   1       0.409   2.116   2.926  0.00  0.00     0.029 A 
ATOM      9  C7A BZF d   1      -0.644   2.884   2.494  0.00  0.00     0.058 A 
ENDROOT
TORSDOF 0
ENDMDL
