MODEL 1
REMARK minimizedAffinity -3.82412696
REMARK minimizedRMSD -1
REMARK  0 active torsions:
REMARK  status: ('A' for Active; 'I' for Inactive)
ROOT
ATOM      1  C   UNL d   1       2.138   2.136   0.687  0.00  0.00     0.020 A 
ATOM      2  C1  UNL d   1       1.177   2.756   1.483  0.00  0.00     0.020 A 
ATOM      3  C2  UNL d   1      -0.167   2.397   1.363  0.00  0.00     0.034 A 
ATOM      4  C3  UNL d   1      -0.554   1.415   0.444  0.00  0.00     0.017 A 
ATOM      5  C4  UNL d   1       0.412   0.792  -0.355  0.00  0.00     0.017 A 
ATOM      6  C5  UNL d   1       1.756   1.155  -0.230  0.00  0.00     0.034 A 
ATOM      7 Cl   UNL d   1       0.011  -0.429  -1.511  0.00  0.00    -0.070 Cl
ATOM      8 Cl1  UNL d   1      -2.233   1.020   0.349  0.00  0.00    -0.070 Cl
ENDROOT
TORSDOF 0
ENDMDL
