MODEL 1
REMARK minimizedAffinity -4.79272175
REMARK minimizedRMSD -1
REMARK  0 active torsions:
REMARK  status: ('A' for Active; 'I' for Inactive)
ROOT
ATOM      1  C   UNL d   1       2.767   2.164   0.450  0.00  0.00     0.020 A 
ATOM      2  C1  UNL d   1       1.878   2.909   1.224  0.00  0.00     0.020 A 
ATOM      3  C2  UNL d   1       0.567   2.463   1.406  0.00  0.00     0.034 A 
ATOM      4  C3  UNL d   1       0.142   1.268   0.814  0.00  0.00     0.017 A 
ATOM      5  C4  UNL d   1       1.035   0.521   0.038  0.00  0.00     0.017 A 
ATOM      6  C5  UNL d   1       2.347   0.973  -0.142  0.00  0.00     0.034 A 
ATOM      7 Cl   UNL d   1       0.584  -0.963  -0.725  0.00  0.00    -0.070 Cl
ATOM      8 Cl1  UNL d   1      -1.492   0.775   1.082  0.00  0.00    -0.070 Cl
ENDROOT
TORSDOF 0
ENDMDL
