MODEL 1
REMARK minimizedAffinity -5.02975845
REMARK minimizedRMSD -1
REMARK  0 active torsions:
REMARK  status: ('A' for Active; 'I' for Inactive)
ROOT
ATOM      1  C   UNL d   1       0.711   2.831   1.409  0.00  0.00     0.020 A 
ATOM      2  C1  UNL d   1       1.535   2.458   0.348  0.00  0.00     0.020 A 
ATOM      3  C2  UNL d   1       1.421   1.183  -0.209  0.00  0.00     0.034 A 
ATOM      4  C3  UNL d   1       0.481   0.276   0.294  0.00  0.00     0.017 A 
ATOM      5  C4  UNL d   1      -0.346   0.652   1.359  0.00  0.00     0.017 A 
ATOM      6  C5  UNL d   1      -0.227   1.930   1.913  0.00  0.00     0.034 A 
ATOM      7 Cl   UNL d   1      -1.529  -0.412   2.033  0.00  0.00    -0.070 Cl
ATOM      8 Cl1  UNL d   1       0.394  -1.284  -0.444  0.00  0.00    -0.070 Cl
ENDROOT
TORSDOF 0
ENDMDL
