MODEL 1
REMARK minimizedAffinity -4.05308247
REMARK minimizedRMSD -1
REMARK  0 active torsions:
REMARK  status: ('A' for Active; 'I' for Inactive)
ROOT
ATOM      1  C   UNL d   1       1.194   2.771   1.481  0.00  0.00     0.020 A 
ATOM      2  C1  UNL d   1       1.359   2.621   0.105  0.00  0.00     0.020 A 
ATOM      3  C2  UNL d   1       0.858   1.487  -0.539  0.00  0.00     0.034 A 
ATOM      4  C3  UNL d   1       0.190   0.499   0.194  0.00  0.00     0.017 A 
ATOM      5  C4  UNL d   1       0.025   0.651   1.575  0.00  0.00     0.017 A 
ATOM      6  C5  UNL d   1       0.529   1.788   2.215  0.00  0.00     0.034 A 
ATOM      7 Cl   UNL d   1      -0.788  -0.525   2.547  0.00  0.00    -0.070 Cl
ATOM      8 Cl1  UNL d   1      -0.404  -0.876  -0.667  0.00  0.00    -0.070 Cl
ENDROOT
TORSDOF 0
ENDMDL
