MODEL 1
REMARK minimizedAffinity -3.66846609
REMARK minimizedRMSD -1
REMARK  0 active torsions:
REMARK  status: ('A' for Active; 'I' for Inactive)
ROOT
ATOM      1  C   UNL d   1       1.052   2.584   0.076  0.00  0.00     0.020 A 
ATOM      2  C1  UNL d   1       0.670   2.847   1.390  0.00  0.00     0.020 A 
ATOM      3  C2  UNL d   1      -0.164   1.955   2.067  0.00  0.00     0.034 A 
ATOM      4  C3  UNL d   1      -0.619   0.795   1.429  0.00  0.00     0.017 A 
ATOM      5  C4  UNL d   1      -0.235   0.531   0.110  0.00  0.00     0.017 A 
ATOM      6  C5  UNL d   1       0.601   1.428  -0.563  0.00  0.00     0.034 A 
ATOM      7 Cl   UNL d   1      -0.755  -0.879  -0.743  0.00  0.00    -0.070 Cl
ATOM      8 Cl1  UNL d   1      -1.648  -0.265   2.327  0.00  0.00    -0.070 Cl
ENDROOT
TORSDOF 0
ENDMDL
