MODEL 1
REMARK minimizedAffinity -2.75174785
REMARK minimizedRMSD -1
REMARK  0 active torsions:
REMARK  status: ('A' for Active; 'I' for Inactive)
ROOT
ATOM      1  C   UNL d   1       1.112   2.599   1.104  0.00  0.00     0.020 A 
ATOM      2  C1  UNL d   1       1.642   2.284  -0.147  0.00  0.00     0.020 A 
ATOM      3  C2  UNL d   1       1.161   1.178  -0.850  0.00  0.00     0.034 A 
ATOM      4  C3  UNL d   1       0.147   0.383  -0.305  0.00  0.00     0.017 A 
ATOM      5  C4  UNL d   1      -0.385   0.700   0.950  0.00  0.00     0.017 A 
ATOM      6  C5  UNL d   1       0.100   1.809   1.651  0.00  0.00     0.034 A 
ATOM      7 Cl   UNL d   1      -1.639  -0.233   1.689  0.00  0.00    -0.070 Cl
ATOM      8 Cl1  UNL d   1      -0.401  -0.969  -1.231  0.00  0.00    -0.070 Cl
ENDROOT
TORSDOF 0
ENDMDL
