MODEL 1
REMARK minimizedAffinity -2.78733611
REMARK minimizedRMSD -1
REMARK  0 active torsions:
REMARK  status: ('A' for Active; 'I' for Inactive)
ROOT
ATOM      1  C   UNL d   1       0.364  -1.654  -0.746  0.00  0.00     0.020 A 
ATOM      2  C1  UNL d   1       1.507  -0.876  -0.922  0.00  0.00     0.020 A 
ATOM      3  C2  UNL d   1       1.690   0.279  -0.159  0.00  0.00     0.034 A 
ATOM      4  C3  UNL d   1       0.728   0.659   0.784  0.00  0.00     0.017 A 
ATOM      5  C4  UNL d   1      -0.419  -0.123   0.960  0.00  0.00     0.017 A 
ATOM      6  C5  UNL d   1      -0.597  -1.278   0.193  0.00  0.00     0.034 A 
ATOM      7 Cl   UNL d   1      -1.650   0.282   2.104  0.00  0.00    -0.070 Cl
ATOM      8 Cl1  UNL d   1       1.020   2.099   1.694  0.00  0.00    -0.070 Cl
ENDROOT
TORSDOF 0
ENDMDL
