MODEL 1
REMARK minimizedAffinity -0.571874976
REMARK minimizedRMSD -1
REMARK  0 active torsions:
REMARK  status: ('A' for Active; 'I' for Inactive)
ROOT
ATOM      1  C   UNL d   1       0.332  -1.142  -0.481  0.00  0.00     0.020 A 
ATOM      2  C1  UNL d   1      -0.765  -0.431   0.002  0.00  0.00     0.020 A 
ATOM      3  C2  UNL d   1      -1.896  -0.263  -0.799  0.00  0.00     0.034 A 
ATOM      4  C3  UNL d   1      -1.933  -0.807  -2.088  0.00  0.00     0.017 A 
ATOM      5  C4  UNL d   1      -0.830  -1.520  -2.573  0.00  0.00     0.017 A 
ATOM      6  C5  UNL d   1       0.300  -1.686  -1.766  0.00  0.00     0.034 A 
ATOM      7 Cl   UNL d   1      -0.801  -2.221  -4.153  0.00  0.00    -0.070 Cl
ATOM      8 Cl1  UNL d   1      -3.364  -0.560  -3.024  0.00  0.00    -0.070 Cl
ENDROOT
TORSDOF 0
ENDMDL
