MODEL 1
REMARK minimizedAffinity -0.770846546
REMARK minimizedRMSD -1
REMARK  0 active torsions:
REMARK  status: ('A' for Active; 'I' for Inactive)
ROOT
ATOM      1  C   UNL d   1       0.096   1.873   1.761  0.00  0.00     0.020 A 
ATOM      2  C1  UNL d   1      -1.107   1.202   1.548  0.00  0.00     0.020 A 
ATOM      3  C2  UNL d   1      -1.157   0.123   0.663  0.00  0.00     0.034 A 
ATOM      4  C3  UNL d   1      -0.002  -0.288  -0.012  0.00  0.00     0.017 A 
ATOM      5  C4  UNL d   1       1.205   0.386   0.203  0.00  0.00     0.017 A 
ATOM      6  C5  UNL d   1       1.250   1.466   1.090  0.00  0.00     0.034 A 
ATOM      7 Cl   UNL d   1       2.672  -0.064  -0.593  0.00  0.00    -0.070 Cl
ATOM      8 Cl1  UNL d   1      -0.137  -1.631  -1.092  0.00  0.00    -0.070 Cl
ENDROOT
TORSDOF 0
ENDMDL
