MODEL 1
REMARK minimizedAffinity -4.78900433
REMARK minimizedRMSD -1
REMARK  0 active torsions:
REMARK  status: ('A' for Active; 'I' for Inactive)
ROOT
ATOM      1  C   UNL d   1       3.217   1.173   0.134  0.00  0.00     0.020 A 
ATOM      2  C1  UNL d   1       2.738   2.114   1.045  0.00  0.00     0.020 A 
ATOM      3  C2  UNL d   1       1.397   2.088   1.435  0.00  0.00     0.034 A 
ATOM      4  C3  UNL d   1       0.531   1.120   0.915  0.00  0.00     0.017 A 
ATOM      5  C4  UNL d   1       1.013   0.176   0.000  0.00  0.00     0.017 A 
ATOM      6  C5  UNL d   1       2.356   0.207  -0.388  0.00  0.00     0.034 A 
ATOM      7 Cl   UNL d   1       0.005  -1.049  -0.685  0.00  0.00    -0.070 Cl
ATOM      8 Cl1  UNL d   1      -1.114   1.146   1.442  0.00  0.00    -0.070 Cl
ENDROOT
TORSDOF 0
ENDMDL
