MODEL 1
REMARK minimizedAffinity -4.16524315
REMARK minimizedRMSD -1
REMARK  0 active torsions:
REMARK  status: ('A' for Active; 'I' for Inactive)
ROOT
ATOM      1  C   UNL d   1       0.746   2.800   0.460  0.00  0.00     0.020 A 
ATOM      2  C1  UNL d   1       1.952   2.767  -0.237  0.00  0.00     0.020 A 
ATOM      3  C2  UNL d   1       3.075   2.169   0.338  0.00  0.00     0.034 A 
ATOM      4  C3  UNL d   1       2.994   1.602   1.615  0.00  0.00     0.017 A 
ATOM      5  C4  UNL d   1       1.782   1.636   2.315  0.00  0.00     0.017 A 
ATOM      6  C5  UNL d   1       0.661   2.236   1.733  0.00  0.00     0.034 A 
ATOM      7 Cl   UNL d   1       1.604   0.957   3.894  0.00  0.00    -0.070 Cl
ATOM      8 Cl1  UNL d   1       4.422   0.879   2.266  0.00  0.00    -0.070 Cl
ENDROOT
TORSDOF 0
ENDMDL
