MODEL 1
REMARK minimizedAffinity -1.73911452
REMARK minimizedRMSD -1
REMARK  0 active torsions:
REMARK  status: ('A' for Active; 'I' for Inactive)
ROOT
ATOM      1  C   UNL d   1       1.989   2.039   0.593  0.00  0.00     0.020 A 
ATOM      2  C1  UNL d   1       1.276   2.451   1.718  0.00  0.00     0.020 A 
ATOM      3  C2  UNL d   1       0.071   1.828   2.047  0.00  0.00     0.034 A 
ATOM      4  C3  UNL d   1      -0.425   0.789   1.251  0.00  0.00     0.017 A 
ATOM      5  C4  UNL d   1       0.291   0.376   0.122  0.00  0.00     0.017 A 
ATOM      6  C5  UNL d   1       1.498   1.004  -0.203  0.00  0.00     0.034 A 
ATOM      7 Cl   UNL d   1      -0.257  -0.898  -0.909  0.00  0.00    -0.070 Cl
ATOM      8 Cl1  UNL d   1      -1.922   0.063   1.718  0.00  0.00    -0.070 Cl
ENDROOT
TORSDOF 0
ENDMDL
