MODEL 1
REMARK minimizedAffinity -4.15241385
REMARK minimizedRMSD -1
REMARK  0 active torsions:
REMARK  status: ('A' for Active; 'I' for Inactive)
ROOT
ATOM      1  C   UNL d   1      -0.084   1.924   1.977  0.00  0.00     0.020 A 
ATOM      2  C1  UNL d   1       1.268   2.264   2.008  0.00  0.00     0.020 A 
ATOM      3  C2  UNL d   1       2.178   1.582   1.197  0.00  0.00     0.034 A 
ATOM      4  C3  UNL d   1       1.737   0.556   0.352  0.00  0.00     0.017 A 
ATOM      5  C4  UNL d   1       0.380   0.216   0.322  0.00  0.00     0.017 A 
ATOM      6  C5  UNL d   1      -0.527   0.902   1.136  0.00  0.00     0.034 A 
ATOM      7 Cl   UNL d   1      -0.239  -1.037  -0.694  0.00  0.00    -0.070 Cl
ATOM      8 Cl1  UNL d   1       2.918  -0.244  -0.623  0.00  0.00    -0.070 Cl
ENDROOT
TORSDOF 0
ENDMDL
