MODEL 1
REMARK minimizedAffinity 1.32104623
REMARK minimizedRMSD -1
REMARK  0 active torsions:
REMARK  status: ('A' for Active; 'I' for Inactive)
ROOT
ATOM      1  C   UNL d   1       2.199   0.610   0.350  0.00  0.00     0.020 A 
ATOM      2  C1  UNL d   1       1.887   1.478   1.396  0.00  0.00     0.020 A 
ATOM      3  C2  UNL d   1       0.592   1.506   1.918  0.00  0.00     0.034 A 
ATOM      4  C3  UNL d   1      -0.396   0.664   1.395  0.00  0.00     0.017 A 
ATOM      5  C4  UNL d   1      -0.082  -0.207   0.345  0.00  0.00     0.017 A 
ATOM      6  C5  UNL d   1       1.216  -0.230  -0.174  0.00  0.00     0.034 A 
ATOM      7 Cl   UNL d   1      -1.248  -1.275  -0.354  0.00  0.00    -0.070 Cl
ATOM      8 Cl1  UNL d   1      -1.976   0.751   2.089  0.00  0.00    -0.070 Cl
ENDROOT
TORSDOF 0
ENDMDL
