MODEL 1
REMARK minimizedAffinity 3.04849172
REMARK minimizedRMSD -1
REMARK  0 active torsions:
REMARK  status: ('A' for Active; 'I' for Inactive)
ROOT
ATOM      1  C   UNL d   1       0.476   2.341   0.886  0.00  0.00     0.020 A 
ATOM      2  C1  UNL d   1      -0.237   1.333   0.238  0.00  0.00     0.020 A 
ATOM      3  C2  UNL d   1      -0.863   0.331   0.983  0.00  0.00     0.034 A 
ATOM      4  C3  UNL d   1      -0.777   0.335   2.380  0.00  0.00     0.017 A 
ATOM      5  C4  UNL d   1      -0.061   1.347   3.030  0.00  0.00     0.017 A 
ATOM      6  C5  UNL d   1       0.563   2.348   2.279  0.00  0.00     0.034 A 
ATOM      7 Cl   UNL d   1       0.089   1.418   4.750  0.00  0.00    -0.070 Cl
ATOM      8 Cl1  UNL d   1      -1.576  -0.935   3.237  0.00  0.00    -0.070 Cl
ENDROOT
TORSDOF 0
ENDMDL
