MODEL 1
REMARK minimizedAffinity -3.99659967
REMARK minimizedRMSD -1
REMARK  0 active torsions:
REMARK  status: ('A' for Active; 'I' for Inactive)
ROOT
ATOM      1  C   UNL d   1       4.202   4.343  -3.143  0.00  0.00     0.020 A 
ATOM      2  C1  UNL d   1       4.493   4.509  -4.497  0.00  0.00     0.020 A 
ATOM      3  C2  UNL d   1       3.523   5.022  -5.361  0.00  0.00     0.034 A 
ATOM      4  C3  UNL d   1       2.259   5.370  -4.873  0.00  0.00     0.017 A 
ATOM      5  C4  UNL d   1       1.968   5.203  -3.514  0.00  0.00     0.017 A 
ATOM      6  C5  UNL d   1       2.942   4.689  -2.653  0.00  0.00     0.034 A 
ATOM      7 Cl   UNL d   1       0.430   5.611  -2.839  0.00  0.00    -0.070 Cl
ATOM      8 Cl1  UNL d   1       1.109   5.999  -5.999  0.00  0.00    -0.070 Cl
ENDROOT
TORSDOF 0
ENDMDL
