MODEL 1
REMARK minimizedAffinity -2.58872747
REMARK minimizedRMSD -1
REMARK  0 active torsions:
REMARK  status: ('A' for Active; 'I' for Inactive)
ROOT
ATOM      1  C   UNL d   1       0.300  -1.681  -0.070  0.00  0.00     0.077 C 
ATOM      2  C1  UNL d   1      -0.027  -0.291   0.389  0.00  0.00    -0.074 A 
ATOM      3  C2  UNL d   1      -1.341   0.072   0.701  0.00  0.00    -0.005 A 
ATOM      4  C3  UNL d   1      -1.629   1.366   1.135  0.00  0.00     0.006 A 
ATOM      5  C4  UNL d   1      -0.608   2.309   1.261  0.00  0.00    -0.005 A 
ATOM      6  C5  UNL d   1       0.712   1.964   0.954  0.00  0.00    -0.074 A 
ATOM      7  C6  UNL d   1       1.823   2.962   1.092  0.00  0.00     0.077 C 
ATOM      8  C7  UNL d   1       0.995   0.660   0.525  0.00  0.00    -0.001 A 
ENDROOT
TORSDOF 0
ENDMDL
