MODEL 1
REMARK minimizedAffinity -4.5714407
REMARK minimizedRMSD -1
REMARK  0 active torsions:
REMARK  status: ('A' for Active; 'I' for Inactive)
ROOT
ATOM      1  C   UNL d   1       3.086   1.954   0.918  0.00  0.00     0.077 C 
ATOM      2  C1  UNL d   1       1.653   1.538   0.762  0.00  0.00    -0.074 A 
ATOM      3  C2  UNL d   1       0.613   2.445   0.985  0.00  0.00    -0.005 A 
ATOM      4  C3  UNL d   1      -0.714   2.046   0.826  0.00  0.00     0.006 A 
ATOM      5  C4  UNL d   1      -1.014   0.738   0.443  0.00  0.00    -0.005 A 
ATOM      6  C5  UNL d   1       0.014  -0.182   0.214  0.00  0.00    -0.074 A 
ATOM      7  C6  UNL d   1      -0.291  -1.589  -0.208  0.00  0.00     0.077 C 
ATOM      8  C7  UNL d   1       1.345   0.228   0.369  0.00  0.00    -0.001 A 
ENDROOT
TORSDOF 0
ENDMDL
