MODEL 1
REMARK minimizedAffinity 0.73252517
REMARK minimizedRMSD -1
REMARK  0 active torsions:
REMARK  status: ('A' for Active; 'I' for Inactive)
ROOT
ATOM      1  C   UNL d   1       2.572   1.817   1.049  0.00  0.00     0.077 C 
ATOM      2  C1  UNL d   1       1.138   1.456   0.796  0.00  0.00    -0.074 A 
ATOM      3  C2  UNL d   1       0.136   2.432   0.821  0.00  0.00    -0.005 A 
ATOM      4  C3  UNL d   1      -1.192   2.083   0.574  0.00  0.00     0.006 A 
ATOM      5  C4  UNL d   1      -1.530   0.757   0.300  0.00  0.00    -0.005 A 
ATOM      6  C5  UNL d   1      -0.542  -0.232   0.270  0.00  0.00    -0.074 A 
ATOM      7  C6  UNL d   1      -0.887  -1.660  -0.033  0.00  0.00     0.077 C 
ATOM      8  C7  UNL d   1       0.791   0.128   0.512  0.00  0.00    -0.001 A 
ENDROOT
TORSDOF 0
ENDMDL
