MODEL 1
REMARK minimizedAffinity -4.11920118
REMARK minimizedRMSD -1
REMARK  0 active torsions:
REMARK  status: ('A' for Active; 'I' for Inactive)
ROOT
ATOM      1  C   UNL d   1      -0.596  -2.360  -3.336  0.00  0.00     0.077 C 
ATOM      2  C1  UNL d   1      -0.294  -1.904  -1.939  0.00  0.00    -0.074 A 
ATOM      3  C2  UNL d   1       0.202  -2.797  -0.983  0.00  0.00    -0.005 A 
ATOM      4  C3  UNL d   1       0.487  -2.356   0.309  0.00  0.00     0.006 A 
ATOM      5  C4  UNL d   1       0.280  -1.021   0.658  0.00  0.00    -0.005 A 
ATOM      6  C5  UNL d   1      -0.214  -0.114  -0.285  0.00  0.00    -0.074 A 
ATOM      7  C6  UNL d   1      -0.432   1.327   0.071  0.00  0.00     0.077 C 
ATOM      8  C7  UNL d   1      -0.492  -0.562  -1.583  0.00  0.00    -0.001 A 
ENDROOT
TORSDOF 0
ENDMDL
