MODEL 1
REMARK minimizedAffinity -3.03008151
REMARK minimizedRMSD -1
REMARK  0 active torsions:
REMARK  status: ('A' for Active; 'I' for Inactive)
ROOT
ATOM      1  C   UNL d   1      -3.461   1.568   0.312  0.00  0.00     0.077 C 
ATOM      2  C1  UNL d   1      -1.983   1.312   0.345  0.00  0.00    -0.074 A 
ATOM      3  C2  UNL d   1      -1.071   2.372   0.358  0.00  0.00    -0.005 A 
ATOM      4  C3  UNL d   1       0.300   2.119   0.398  0.00  0.00     0.006 A 
ATOM      5  C4  UNL d   1       0.772   0.806   0.427  0.00  0.00    -0.005 A 
ATOM      6  C5  UNL d   1      -0.126  -0.267   0.416  0.00  0.00    -0.074 A 
ATOM      7  C6  UNL d   1       0.364  -1.684   0.456  0.00  0.00     0.077 C 
ATOM      8  C7  UNL d   1      -1.502  -0.004   0.382  0.00  0.00    -0.001 A 
ENDROOT
TORSDOF 0
ENDMDL
