MODEL 1
REMARK minimizedAffinity -2.26233864
REMARK minimizedRMSD -1
REMARK  0 active torsions:
REMARK  status: ('A' for Active; 'I' for Inactive)
ROOT
ATOM      1  C   UNL d   1      -1.991  -2.740  -1.882  0.00  0.00     0.077 C 
ATOM      2  C1  UNL d   1      -1.138  -1.888  -0.989  0.00  0.00    -0.074 A 
ATOM      3  C2  UNL d   1       0.082  -2.362  -0.495  0.00  0.00    -0.005 A 
ATOM      4  C3  UNL d   1       0.869  -1.554   0.326  0.00  0.00     0.006 A 
ATOM      5  C4  UNL d   1       0.444  -0.268   0.662  0.00  0.00    -0.005 A 
ATOM      6  C5  UNL d   1      -0.772   0.222   0.176  0.00  0.00    -0.074 A 
ATOM      7  C6  UNL d   1      -1.238   1.606   0.519  0.00  0.00     0.077 C 
ATOM      8  C7  UNL d   1      -1.554  -0.592  -0.654  0.00  0.00    -0.001 A 
ENDROOT
TORSDOF 0
ENDMDL
