MODEL 1
REMARK minimizedAffinity -0.849942565
REMARK minimizedRMSD -1
REMARK  0 active torsions:
REMARK  status: ('A' for Active; 'I' for Inactive)
ROOT
ATOM      1  C   UNL d   1       0.372   3.409   0.310  0.00  0.00     0.077 C 
ATOM      2  C1  UNL d   1      -0.283   2.071   0.485  0.00  0.00    -0.074 A 
ATOM      3  C2  UNL d   1      -1.513   1.953   1.140  0.00  0.00    -0.005 A 
ATOM      4  C3  UNL d   1      -2.115   0.703   1.287  0.00  0.00     0.006 A 
ATOM      5  C4  UNL d   1      -1.493  -0.440   0.782  0.00  0.00    -0.005 A 
ATOM      6  C5  UNL d   1      -0.263  -0.341   0.124  0.00  0.00    -0.074 A 
ATOM      7  C6  UNL d   1       0.414  -1.558  -0.433  0.00  0.00     0.077 C 
ATOM      8  C7  UNL d   1       0.332   0.919  -0.026  0.00  0.00    -0.001 A 
ENDROOT
TORSDOF 0
ENDMDL
