MODEL 1
REMARK minimizedAffinity -4.83606195
REMARK minimizedRMSD -1
REMARK  0 active torsions:
REMARK  status: ('A' for Active; 'I' for Inactive)
ROOT
ATOM      1  C   UNL d   1       0.015  -1.607  -0.512  0.00  0.00     0.077 C 
ATOM      2  C1  UNL d   1       0.071  -0.197  -0.002  0.00  0.00    -0.074 A 
ATOM      3  C2  UNL d   1      -1.100   0.539   0.204  0.00  0.00    -0.005 A 
ATOM      4  C3  UNL d   1      -1.032   1.846   0.688  0.00  0.00     0.006 A 
ATOM      5  C4  UNL d   1       0.204   2.428   0.969  0.00  0.00    -0.005 A 
ATOM      6  C5  UNL d   1       1.385   1.706   0.769  0.00  0.00    -0.074 A 
ATOM      7  C6  UNL d   1       2.722   2.314   1.076  0.00  0.00     0.077 C 
ATOM      8  C7  UNL d   1       1.309   0.392   0.290  0.00  0.00    -0.001 A 
ENDROOT
TORSDOF 0
ENDMDL
