MODEL 1
REMARK minimizedAffinity -3.30472064
REMARK minimizedRMSD -1
REMARK  0 active torsions:
REMARK  status: ('A' for Active; 'I' for Inactive)
ROOT
ATOM      1  C   UNL d   1      -0.271  -2.011  -0.391  0.00  0.00     0.077 C 
ATOM      2  C1  UNL d   1      -0.040  -0.587   0.021  0.00  0.00    -0.074 A 
ATOM      3  C2  UNL d   1      -1.099   0.325   0.084  0.00  0.00    -0.005 A 
ATOM      4  C3  UNL d   1      -0.869   1.643   0.478  0.00  0.00     0.006 A 
ATOM      5  C4  UNL d   1       0.418   2.062   0.813  0.00  0.00    -0.005 A 
ATOM      6  C5  UNL d   1       1.489   1.164   0.758  0.00  0.00    -0.074 A 
ATOM      7  C6  UNL d   1       2.878   1.596   1.125  0.00  0.00     0.077 C 
ATOM      8  C7  UNL d   1       1.250  -0.160   0.368  0.00  0.00    -0.001 A 
ENDROOT
TORSDOF 0
ENDMDL
