MODEL 1
REMARK minimizedAffinity 0.401800245
REMARK minimizedRMSD -1
REMARK  0 active torsions:
REMARK  status: ('A' for Active; 'I' for Inactive)
ROOT
ATOM      1  C   UNL d   1      -0.301  -1.438  -0.236  0.00  0.00     0.077 C 
ATOM      2  C1  UNL d   1      -0.236  -0.031   0.280  0.00  0.00    -0.074 A 
ATOM      3  C2  UNL d   1      -1.376   0.779   0.306  0.00  0.00    -0.005 A 
ATOM      4  C3  UNL d   1      -1.301   2.082   0.798  0.00  0.00     0.006 A 
ATOM      5  C4  UNL d   1      -0.088   2.588   1.266  0.00  0.00    -0.005 A 
ATOM      6  C5  UNL d   1       1.062   1.793   1.249  0.00  0.00    -0.074 A 
ATOM      7  C6  UNL d   1       2.371   2.318   1.758  0.00  0.00     0.077 C 
ATOM      8  C7  UNL d   1       0.978   0.482   0.760  0.00  0.00    -0.001 A 
ENDROOT
TORSDOF 0
ENDMDL
