MODEL 1
REMARK minimizedAffinity -2.0712769
REMARK minimizedRMSD -1
REMARK  0 active torsions:
REMARK  status: ('A' for Active; 'I' for Inactive)
ROOT
ATOM      1  C   UNL d   1      -0.980  -2.139  -0.286  0.00  0.00     0.077 C 
ATOM      2  C1  UNL d   1      -0.006  -1.012  -0.106  0.00  0.00    -0.074 A 
ATOM      3  C2  UNL d   1       1.368  -1.219  -0.259  0.00  0.00    -0.005 A 
ATOM      4  C3  UNL d   1       2.261  -0.160  -0.098  0.00  0.00     0.006 A 
ATOM      5  C4  UNL d   1       1.789   1.115   0.217  0.00  0.00    -0.005 A 
ATOM      6  C5  UNL d   1       0.418   1.341   0.374  0.00  0.00    -0.074 A 
ATOM      7  C6  UNL d   1      -0.107   2.707   0.703  0.00  0.00     0.077 C 
ATOM      8  C7  UNL d   1      -0.473   0.273   0.203  0.00  0.00    -0.001 A 
ENDROOT
TORSDOF 0
ENDMDL
