MODEL 1
REMARK minimizedAffinity -5.35343456
REMARK minimizedRMSD -1
REMARK  0 active torsions:
REMARK  status: ('A' for Active; 'I' for Inactive)
ROOT
ATOM      1  C   UNL d   1       0.641  -1.590  -0.396  0.00  0.00     0.077 C 
ATOM      2  C1  UNL d   1       0.639  -0.131  -0.050  0.00  0.00    -0.074 A 
ATOM      3  C2  UNL d   1      -0.534   0.626  -0.134  0.00  0.00    -0.005 A 
ATOM      4  C3  UNL d   1      -0.523   1.980   0.201  0.00  0.00     0.006 A 
ATOM      5  C4  UNL d   1       0.659   2.590   0.621  0.00  0.00    -0.005 A 
ATOM      6  C5  UNL d   1       1.842   1.849   0.712  0.00  0.00    -0.074 A 
ATOM      7  C6  UNL d   1       3.119   2.487   1.171  0.00  0.00     0.077 C 
ATOM      8  C7  UNL d   1       1.821   0.488   0.381  0.00  0.00    -0.001 A 
ENDROOT
TORSDOF 0
ENDMDL
