MODEL 1
REMARK minimizedAffinity -3.72212768
REMARK minimizedRMSD -1
REMARK  0 active torsions:
REMARK  status: ('A' for Active; 'I' for Inactive)
ROOT
ATOM      1  C   UNL d   1       2.835   2.288   1.255  0.00  0.00     0.077 C 
ATOM      2  C1  UNL d   1       1.449   1.781   0.992  0.00  0.00    -0.074 A 
ATOM      3  C2  UNL d   1       0.342   2.630   1.090  0.00  0.00    -0.005 A 
ATOM      4  C3  UNL d   1      -0.941   2.146   0.833  0.00  0.00     0.006 A 
ATOM      5  C4  UNL d   1      -1.130   0.811   0.477  0.00  0.00    -0.005 A 
ATOM      6  C5  UNL d   1      -0.035  -0.053   0.373  0.00  0.00    -0.074 A 
ATOM      7  C6  UNL d   1      -0.219  -1.489  -0.019  0.00  0.00     0.077 C 
ATOM      8  C7  UNL d   1       1.252   0.442   0.625  0.00  0.00    -0.001 A 
ENDROOT
TORSDOF 0
ENDMDL
