MODEL 1
REMARK minimizedAffinity 1.18481255
REMARK minimizedRMSD -1
REMARK  0 active torsions:
REMARK  status: ('A' for Active; 'I' for Inactive)
ROOT
ATOM      1  C   UNL d   1      -0.021  -3.012  -3.236  0.00  0.00     0.077 C 
ATOM      2  C1  UNL d   1      -0.343  -2.511  -1.859  0.00  0.00    -0.074 A 
ATOM      3  C2  UNL d   1      -0.981  -3.335  -0.926  0.00  0.00    -0.005 A 
ATOM      4  C3  UNL d   1      -1.265  -2.858   0.354  0.00  0.00     0.006 A 
ATOM      5  C4  UNL d   1      -0.915  -1.556   0.713  0.00  0.00    -0.005 A 
ATOM      6  C5  UNL d   1      -0.276  -0.719  -0.207  0.00  0.00    -0.074 A 
ATOM      7  C6  UNL d   1       0.115   0.680   0.166  0.00  0.00     0.077 C 
ATOM      8  C7  UNL d   1       0.012  -1.207  -1.488  0.00  0.00    -0.001 A 
ENDROOT
TORSDOF 0
ENDMDL
