MODEL 1
REMARK minimizedAffinity -4.09233284
REMARK minimizedRMSD -1
REMARK  0 active torsions:
REMARK  status: ('A' for Active; 'I' for Inactive)
ROOT
ATOM      1  C   UNL d   1      -1.227   1.120   0.095  0.00  0.00     0.077 C 
ATOM      2  C1  UNL d   1      -0.686  -0.210  -0.337  0.00  0.00    -0.074 A 
ATOM      3  C2  UNL d   1       0.173  -0.940   0.491  0.00  0.00    -0.005 A 
ATOM      4  C3  UNL d   1       0.662  -2.180   0.080  0.00  0.00     0.006 A 
ATOM      5  C4  UNL d   1       0.296  -2.702  -1.161  0.00  0.00    -0.005 A 
ATOM      6  C5  UNL d   1      -0.563  -1.987  -2.002  0.00  0.00    -0.074 A 
ATOM      7  C6  UNL d   1      -0.973  -2.539  -3.335  0.00  0.00     0.077 C 
ATOM      8  C7  UNL d   1      -1.055  -0.745  -1.579  0.00  0.00    -0.001 A 
ENDROOT
TORSDOF 0
ENDMDL
