MODEL 1
REMARK minimizedAffinity -4.65172625
REMARK minimizedRMSD -1
REMARK  0 active torsions:
REMARK  status: ('A' for Active; 'I' for Inactive)
ROOT
ATOM      1  C   UNL d   1       0.947  -0.896   2.875  0.00  0.00     0.020 A 
ATOM      2  C1  UNL d   1       1.877  -0.411   1.956  0.00  0.00     0.020 A 
ATOM      3  C2  UNL d   1       1.449   0.069   0.717  0.00  0.00     0.034 A 
ATOM      4  C3  UNL d   1       0.087   0.067   0.393  0.00  0.00     0.017 A 
ATOM      5  C4  UNL d   1      -0.845  -0.420   1.316  0.00  0.00     0.017 A 
ATOM      6  C5  UNL d   1      -0.411  -0.900   2.555  0.00  0.00     0.034 A 
ATOM      7 Cl   UNL d   1      -2.542  -0.455   0.988  0.00  0.00    -0.070 Cl
ATOM      8 Cl1  UNL d   1      -0.371   0.676  -1.158  0.00  0.00    -0.070 Cl
ENDROOT
TORSDOF 0
ENDMDL
