MODEL 1
REMARK minimizedAffinity -3.09893227
REMARK minimizedRMSD -1
REMARK  0 active torsions:
REMARK  status: ('A' for Active; 'I' for Inactive)
ROOT
ATOM      1  C   UNL d   1      -0.995  -0.593   2.674  0.00  0.00     0.020 A 
ATOM      2  C1  UNL d   1       0.142  -1.265   3.123  0.00  0.00     0.020 A 
ATOM      3  C2  UNL d   1       1.280  -1.328   2.316  0.00  0.00     0.034 A 
ATOM      4  C3  UNL d   1       1.283  -0.720   1.056  0.00  0.00     0.017 A 
ATOM      5  C4  UNL d   1       0.142  -0.047   0.606  0.00  0.00     0.017 A 
ATOM      6  C5  UNL d   1      -0.995   0.014   1.418  0.00  0.00     0.034 A 
ATOM      7 Cl   UNL d   1       0.071   0.728  -0.938  0.00  0.00    -0.070 Cl
ATOM      8 Cl1  UNL d   1       2.725  -0.838   0.111  0.00  0.00    -0.070 Cl
ENDROOT
TORSDOF 0
ENDMDL
