MODEL 1
REMARK minimizedAffinity -2.28146887
REMARK minimizedRMSD -1
REMARK  0 active torsions:
REMARK  status: ('A' for Active; 'I' for Inactive)
ROOT
ATOM      1  C   UNL d   1       0.536  -0.786   2.979  0.00  0.00     0.020 A 
ATOM      2  C1  UNL d   1       1.480  -0.003   2.317  0.00  0.00     0.020 A 
ATOM      3  C2  UNL d   1       1.178   0.553   1.072  0.00  0.00     0.034 A 
ATOM      4  C3  UNL d   1      -0.072   0.326   0.485  0.00  0.00     0.017 A 
ATOM      5  C4  UNL d   1      -1.020  -0.461   1.151  0.00  0.00     0.017 A 
ATOM      6  C5  UNL d   1      -0.711  -1.015   2.397  0.00  0.00     0.034 A 
ATOM      7 Cl   UNL d   1      -2.583  -0.786   0.490  0.00  0.00    -0.070 Cl
ATOM      8 Cl1  UNL d   1      -0.379   1.045  -1.056  0.00  0.00    -0.070 Cl
ENDROOT
TORSDOF 0
ENDMDL
