MODEL 1
REMARK minimizedAffinity -0.597794414
REMARK minimizedRMSD -1
REMARK  0 active torsions:
REMARK  status: ('A' for Active; 'I' for Inactive)
ROOT
ATOM      1  C   UNL d   1       0.215   3.804  -4.505  0.00  0.00     0.020 A 
ATOM      2  C1  UNL d   1       1.190   3.214  -3.701  0.00  0.00     0.020 A 
ATOM      3  C2  UNL d   1       0.813   2.437  -2.604  0.00  0.00     0.034 A 
ATOM      4  C3  UNL d   1      -0.542   2.248  -2.307  0.00  0.00     0.017 A 
ATOM      5  C4  UNL d   1      -1.519   2.840  -3.114  0.00  0.00     0.017 A 
ATOM      6  C5  UNL d   1      -1.136   3.618  -4.212  0.00  0.00     0.034 A 
ATOM      7 Cl   UNL d   1      -3.210   2.652  -2.811  0.00  0.00    -0.070 Cl
ATOM      8 Cl1  UNL d   1      -0.935   1.274  -0.935  0.00  0.00    -0.070 Cl
ENDROOT
TORSDOF 0
ENDMDL
