MODEL 1
REMARK minimizedAffinity 3.51074696
REMARK minimizedRMSD -1
REMARK  0 active torsions:
REMARK  status: ('A' for Active; 'I' for Inactive)
ROOT
ATOM      1  C   UNL d   1       2.941  -1.273  -0.762  0.00  0.00     0.020 A 
ATOM      2  C1  UNL d   1       1.823  -1.309  -1.593  0.00  0.00     0.020 A 
ATOM      3  C2  UNL d   1       0.609  -0.774  -1.155  0.00  0.00     0.034 A 
ATOM      4  C3  UNL d   1       0.511  -0.201   0.118  0.00  0.00     0.017 A 
ATOM      5  C4  UNL d   1       1.635  -0.165   0.952  0.00  0.00     0.017 A 
ATOM      6  C5  UNL d   1       2.847  -0.702   0.508  0.00  0.00     0.034 A 
ATOM      7 Cl   UNL d   1       1.592   0.525   2.536  0.00  0.00    -0.070 Cl
ATOM      8 Cl1  UNL d   1      -1.020   0.441   0.594  0.00  0.00    -0.070 Cl
ENDROOT
TORSDOF 0
ENDMDL
