MODEL 1
REMARK minimizedAffinity -2.15087533
REMARK minimizedRMSD -1
REMARK  0 active torsions:
REMARK  status: ('A' for Active; 'I' for Inactive)
ROOT
ATOM      1  C   UNL d   1       0.527   0.221  -0.518  0.00  0.00     0.020 A 
ATOM      2  C1  UNL d   1       1.307  -0.142   0.579  0.00  0.00     0.020 A 
ATOM      3  C2  UNL d   1       0.750  -0.900   1.612  0.00  0.00     0.034 A 
ATOM      4  C3  UNL d   1      -0.591  -1.296   1.550  0.00  0.00     0.017 A 
ATOM      5  C4  UNL d   1      -1.373  -0.931   0.448  0.00  0.00     0.017 A 
ATOM      6  C5  UNL d   1      -0.810  -0.172  -0.583  0.00  0.00     0.034 A 
ATOM      7 Cl   UNL d   1      -3.035  -1.382   0.301  0.00  0.00    -0.070 Cl
ATOM      8 Cl1  UNL d   1      -1.214  -2.232   2.862  0.00  0.00    -0.070 Cl
ENDROOT
TORSDOF 0
ENDMDL
