MODEL 1
REMARK minimizedAffinity 3.56567287
REMARK minimizedRMSD -1
REMARK  0 active torsions:
REMARK  status: ('A' for Active; 'I' for Inactive)
ROOT
ATOM      1  C   UNL d   1       1.644   4.564  -3.038  0.00  0.00     0.020 A 
ATOM      2  C1  UNL d   1       2.018   4.018  -4.265  0.00  0.00     0.020 A 
ATOM      3  C2  UNL d   1       1.161   3.136  -4.927  0.00  0.00     0.034 A 
ATOM      4  C3  UNL d   1      -0.074   2.798  -4.363  0.00  0.00     0.017 A 
ATOM      5  C4  UNL d   1      -0.449   3.347  -3.131  0.00  0.00     0.017 A 
ATOM      6  C5  UNL d   1       0.413   4.229  -2.472  0.00  0.00     0.034 A 
ATOM      7 Cl   UNL d   1      -1.957   2.978  -2.372  0.00  0.00    -0.070 Cl
ATOM      8 Cl1  UNL d   1      -1.084   1.702  -5.237  0.00  0.00    -0.070 Cl
ENDROOT
TORSDOF 0
ENDMDL
