MODEL 1
REMARK minimizedAffinity -5.33745623
REMARK minimizedRMSD -1
REMARK  1 active torsions:
REMARK  status: ('A' for Active; 'I' for Inactive)
REMARK    1  A    between atoms: C3_4  and  O_7 
ROOT
ATOM      1  C   UNL d   1      -0.212  -1.160   1.520  0.00  0.00    -0.033 A 
ATOM      2  C1  UNL d   1      -0.404  -0.083   0.651  0.00  0.00     0.039 A 
ATOM      3  C2  UNL d   1      -1.604   0.047  -0.049  0.00  0.00    -0.080 A 
ATOM      4  C3  UNL d   1      -2.605  -0.905   0.127  0.00  0.00     0.150 A 
ATOM      5  C4  UNL d   1      -2.423  -1.978   0.994  0.00  0.00    -0.007 A 
ATOM      6  C5  UNL d   1      -1.223  -2.106   1.692  0.00  0.00     0.039 A 
ENDROOT
BRANCH   4   7
ATOM      7  O   UNL d   1      -3.792  -0.824  -0.538  0.00  0.00    -0.526 OA
ATOM      8  H5  UNL d   1      -3.764  -0.048  -1.122  0.00  0.00     0.418 HD
ENDBRANCH   4   7
TORSDOF 1
ENDMDL
