MODEL 1
REMARK minimizedAffinity 1.99387109
REMARK minimizedRMSD -1
REMARK  1 active torsions:
REMARK  status: ('A' for Active; 'I' for Inactive)
REMARK    1  A    between atoms: C3_4  and  O_7 
ROOT
ATOM      1  C   UNL d   1      -0.283  -1.427   1.296  0.00  0.00    -0.033 A 
ATOM      2  C1  UNL d   1      -1.301  -1.345   0.344  0.00  0.00     0.039 A 
ATOM      3  C2  UNL d   1      -1.072  -0.698  -0.872  0.00  0.00    -0.080 A 
ATOM      4  C3  UNL d   1       0.178  -0.138  -1.123  0.00  0.00     0.150 A 
ATOM      5  C4  UNL d   1       1.197  -0.219  -0.180  0.00  0.00    -0.007 A 
ATOM      6  C5  UNL d   1       0.966  -0.865   1.034  0.00  0.00     0.039 A 
ENDROOT
BRANCH   4   7
ATOM      7  O   UNL d   1       0.447   0.509  -2.292  0.00  0.00    -0.526 OA
ATOM      8  H5  UNL d   1      -0.359   0.511  -2.835  0.00  0.00     0.418 HD
ENDBRANCH   4   7
TORSDOF 1
ENDMDL
