MODEL 1
REMARK minimizedAffinity -4.40613174
REMARK minimizedRMSD -1
REMARK  1 active torsions:
REMARK  status: ('A' for Active; 'I' for Inactive)
REMARK    1  A    between atoms: C3_4  and  O_7 
ROOT
ATOM      1  C   UNL d   1       0.623  -0.411   1.707  0.00  0.00    -0.033 A 
ATOM      2  C1  UNL d   1       1.068  -0.084   0.424  0.00  0.00     0.039 A 
ATOM      3  C2  UNL d   1       1.559   1.195   0.159  0.00  0.00    -0.080 A 
ATOM      4  C3  UNL d   1       1.602   2.137   1.184  0.00  0.00     0.150 A 
ATOM      5  C4  UNL d   1       1.164   1.817   2.465  0.00  0.00    -0.007 A 
ATOM      6  C5  UNL d   1       0.673   0.539   2.727  0.00  0.00     0.039 A 
ENDROOT
BRANCH   4   7
ATOM      7  O   UNL d   1       2.069   3.400   0.972  0.00  0.00    -0.526 OA
ATOM      8  H5  UNL d   1       2.309   3.486   0.034  0.00  0.00     0.418 HD
ENDBRANCH   4   7
TORSDOF 1
ENDMDL
