MODEL 1
REMARK minimizedAffinity -3.50149322
REMARK minimizedRMSD -1
REMARK  1 active torsions:
REMARK  status: ('A' for Active; 'I' for Inactive)
REMARK    1  A    between atoms: C3_4  and  O_7 
ROOT
ATOM      1  C   UNL d   1       0.295  -0.821   0.620  0.00  0.00    -0.033 A 
ATOM      2  C1  UNL d   1       1.110   0.153   0.039  0.00  0.00     0.039 A 
ATOM      3  C2  UNL d   1       1.653   1.171   0.825  0.00  0.00    -0.080 A 
ATOM      4  C3  UNL d   1       1.374   1.204   2.188  0.00  0.00     0.150 A 
ATOM      5  C4  UNL d   1       0.567   0.235   2.774  0.00  0.00    -0.007 A 
ATOM      6  C5  UNL d   1       0.025  -0.781   1.988  0.00  0.00     0.039 A 
ENDROOT
BRANCH   4   7
ATOM      7  O   UNL d   1       1.878   2.181   2.995  0.00  0.00    -0.526 OA
ATOM      8  H5  UNL d   1       2.393   2.796   2.448  0.00  0.00     0.418 HD
ENDBRANCH   4   7
TORSDOF 1
ENDMDL
