MODEL 1
REMARK minimizedAffinity -4.20159435
REMARK minimizedRMSD -1
REMARK  1 active torsions:
REMARK  status: ('A' for Active; 'I' for Inactive)
REMARK    1  A    between atoms: C3_4  and  O_7 
ROOT
ATOM      1  C   UNL d   1       1.875   1.515   1.140  0.00  0.00    -0.033 A 
ATOM      2  C1  UNL d   1       2.377   0.554   0.261  0.00  0.00     0.039 A 
ATOM      3  C2  UNL d   1       2.132  -0.802   0.493  0.00  0.00    -0.080 A 
ATOM      4  C3  UNL d   1       1.385  -1.181   1.605  0.00  0.00     0.150 A 
ATOM      5  C4  UNL d   1       0.879  -0.228   2.482  0.00  0.00    -0.007 A 
ATOM      6  C5  UNL d   1       1.125   1.125   2.250  0.00  0.00     0.039 A 
ENDROOT
BRANCH   4   7
ATOM      7  O   UNL d   1       1.125  -2.491   1.875  0.00  0.00    -0.526 OA
ATOM      8  H5  UNL d   1       1.561  -3.037   1.200  0.00  0.00     0.418 HD
ENDBRANCH   4   7
TORSDOF 1
ENDMDL
