MODEL 1
REMARK minimizedAffinity -3.41896868
REMARK minimizedRMSD -1
REMARK  1 active torsions:
REMARK  status: ('A' for Active; 'I' for Inactive)
REMARK    1  A    between atoms: C3_4  and  O_7 
ROOT
ATOM      1  C   UNL d   1      -0.842   0.460  -1.822  0.00  0.00    -0.033 A 
ATOM      2  C1  UNL d   1       0.372   0.721  -1.183  0.00  0.00     0.039 A 
ATOM      3  C2  UNL d   1       0.791  -0.084  -0.122  0.00  0.00    -0.080 A 
ATOM      4  C3  UNL d   1      -0.010  -1.145   0.289  0.00  0.00     0.150 A 
ATOM      5  C4  UNL d   1      -1.218  -1.413  -0.346  0.00  0.00    -0.007 A 
ATOM      6  C5  UNL d   1      -1.636  -0.608  -1.405  0.00  0.00     0.039 A 
ENDROOT
BRANCH   4   7
ATOM      7  O   UNL d   1       0.355  -1.956   1.322  0.00  0.00    -0.526 OA
ATOM      8  H5  UNL d   1       1.198  -1.633   1.683  0.00  0.00     0.418 HD
ENDBRANCH   4   7
TORSDOF 1
ENDMDL
