MODEL 1
REMARK minimizedAffinity -0.871463478
REMARK minimizedRMSD -1
REMARK  1 active torsions:
REMARK  status: ('A' for Active; 'I' for Inactive)
REMARK    1  A    between atoms: C3_4  and  O_7 
ROOT
ATOM      1  C   UNL d   1      -0.900   0.371  -1.486  0.00  0.00    -0.033 A 
ATOM      2  C1  UNL d   1      -1.754  -0.662  -1.095  0.00  0.00     0.039 A 
ATOM      3  C2  UNL d   1      -1.373  -1.538  -0.077  0.00  0.00    -0.080 A 
ATOM      4  C3  UNL d   1      -0.138  -1.370   0.542  0.00  0.00     0.150 A 
ATOM      5  C4  UNL d   1       0.717  -0.341   0.160  0.00  0.00    -0.007 A 
ATOM      6  C5  UNL d   1       0.335   0.532  -0.858  0.00  0.00     0.039 A 
ENDROOT
BRANCH   4   7
ATOM      7  O   UNL d   1       0.280  -2.203   1.537  0.00  0.00    -0.526 OA
ATOM      8  H5  UNL d   1      -0.400  -2.883   1.675  0.00  0.00     0.418 HD
ENDBRANCH   4   7
TORSDOF 1
ENDMDL
