MODEL 1
REMARK minimizedAffinity -3.75817037
REMARK minimizedRMSD -1
REMARK  1 active torsions:
REMARK  status: ('A' for Active; 'I' for Inactive)
REMARK    1  A    between atoms: C3_4  and  O_7 
ROOT
ATOM      1  C   UNL d   1      -0.135  -0.576   0.278  0.00  0.00    -0.033 A 
ATOM      2  C1  UNL d   1      -0.904   0.491   0.748  0.00  0.00     0.039 A 
ATOM      3  C2  UNL d   1      -0.291   1.565   1.395  0.00  0.00    -0.080 A 
ATOM      4  C3  UNL d   1       1.091   1.561   1.566  0.00  0.00     0.150 A 
ATOM      5  C4  UNL d   1       1.864   0.504   1.097  0.00  0.00    -0.007 A 
ATOM      6  C5  UNL d   1       1.250  -0.568   0.451  0.00  0.00     0.039 A 
ENDROOT
BRANCH   4   7
ATOM      7  O   UNL d   1       1.734   2.584   2.196  0.00  0.00    -0.526 OA
ATOM      8  H5  UNL d   1       1.070   3.230   2.491  0.00  0.00     0.418 HD
ENDBRANCH   4   7
TORSDOF 1
ENDMDL
