MODEL 1
REMARK minimizedAffinity -5.33682632
REMARK minimizedRMSD -1
REMARK  1 active torsions:
REMARK  status: ('A' for Active; 'I' for Inactive)
REMARK    1  A    between atoms: C3_4  and  O_7 
ROOT
ATOM      1  C   UNL d   1      -2.907  -2.375   0.013  0.00  0.00    -0.033 A 
ATOM      2  C1  UNL d   1      -2.615  -1.108  -0.498  0.00  0.00     0.039 A 
ATOM      3  C2  UNL d   1      -1.586  -0.349   0.061  0.00  0.00    -0.080 A 
ATOM      4  C3  UNL d   1      -0.856  -0.866   1.127  0.00  0.00     0.150 A 
ATOM      5  C4  UNL d   1      -1.138  -2.129   1.638  0.00  0.00    -0.007 A 
ATOM      6  C5  UNL d   1      -2.167  -2.886   1.080  0.00  0.00     0.039 A 
ENDROOT
BRANCH   4   7
ATOM      7  O   UNL d   1       0.155  -0.160   1.708  0.00  0.00    -0.526 OA
ATOM      8  H5  UNL d   1       0.218   0.705   1.270  0.00  0.00     0.418 HD
ENDBRANCH   4   7
TORSDOF 1
ENDMDL
