MODEL 1
REMARK minimizedAffinity -4.69442415
REMARK minimizedRMSD -1
REMARK  1 active torsions:
REMARK  status: ('A' for Active; 'I' for Inactive)
REMARK    1  A    between atoms: C3_4  and  O_7 
ROOT
ATOM      1  C   UNL d   1      -2.366  -1.302   0.149  0.00  0.00    -0.033 A 
ATOM      2  C1  UNL d   1      -1.424  -1.371   1.178  0.00  0.00     0.039 A 
ATOM      3  C2  UNL d   1      -0.301  -0.541   1.155  0.00  0.00    -0.080 A 
ATOM      4  C3  UNL d   1      -0.133   0.352   0.101  0.00  0.00     0.150 A 
ATOM      5  C4  UNL d   1      -1.069   0.429  -0.924  0.00  0.00    -0.007 A 
ATOM      6  C5  UNL d   1      -2.189  -0.401  -0.901  0.00  0.00     0.039 A 
ENDROOT
BRANCH   4   7
ATOM      7  O   UNL d   1       0.949   1.179   0.034  0.00  0.00    -0.526 OA
ATOM      8  H5  UNL d   1       1.525   0.995   0.794  0.00  0.00     0.418 HD
ENDBRANCH   4   7
TORSDOF 1
ENDMDL
