MODEL 1
REMARK minimizedAffinity -4.71290874
REMARK minimizedRMSD -1
REMARK  1 active torsions:
REMARK  status: ('A' for Active; 'I' for Inactive)
REMARK    1  A    between atoms: C3_4  and  O_7 
ROOT
ATOM      1  C   UNL d   1      -1.866  -0.151  -0.920  0.00  0.00    -0.033 A 
ATOM      2  C1  UNL d   1      -2.089  -0.765   0.314  0.00  0.00     0.039 A 
ATOM      3  C2  UNL d   1      -1.048  -0.881   1.237  0.00  0.00    -0.080 A 
ATOM      4  C3  UNL d   1       0.210  -0.379   0.914  0.00  0.00     0.150 A 
ATOM      5  C4  UNL d   1       0.439   0.236  -0.312  0.00  0.00    -0.007 A 
ATOM      6  C5  UNL d   1      -0.602   0.350  -1.233  0.00  0.00     0.039 A 
ENDROOT
BRANCH   4   7
ATOM      7  O   UNL d   1       1.259  -0.474   1.780  0.00  0.00    -0.526 OA
ATOM      8  H5  UNL d   1       0.960  -0.948   2.574  0.00  0.00     0.418 HD
ENDBRANCH   4   7
TORSDOF 1
ENDMDL
