MODEL 1
REMARK minimizedAffinity -5.18429756
REMARK minimizedRMSD -1
REMARK  1 active torsions:
REMARK  status: ('A' for Active; 'I' for Inactive)
REMARK    1  A    between atoms: C3_4  and  O_7 
ROOT
ATOM      1  C   UNL d   1      -2.986  -1.310   0.031  0.00  0.00    -0.033 A 
ATOM      2  C1  UNL d   1      -2.473  -0.533  -1.010  0.00  0.00     0.039 A 
ATOM      3  C2  UNL d   1      -1.191   0.012  -0.910  0.00  0.00    -0.080 A 
ATOM      4  C3  UNL d   1      -0.433  -0.229   0.232  0.00  0.00     0.150 A 
ATOM      5  C4  UNL d   1      -0.936  -1.005   1.271  0.00  0.00    -0.007 A 
ATOM      6  C5  UNL d   1      -2.217  -1.547   1.171  0.00  0.00     0.039 A 
ENDROOT
BRANCH   4   7
ATOM      7  O   UNL d   1       0.821   0.286   0.377  0.00  0.00    -0.526 OA
ATOM      8  H5  UNL d   1       1.025   0.824  -0.406  0.00  0.00     0.418 HD
ENDBRANCH   4   7
TORSDOF 1
ENDMDL
