MODEL 1
REMARK minimizedAffinity -4.17104435
REMARK minimizedRMSD -1
REMARK  1 active torsions:
REMARK  status: ('A' for Active; 'I' for Inactive)
REMARK    1  A    between atoms: C3_4  and  O_7 
ROOT
ATOM      1  C   UNL d   1       1.197   0.136  -0.276  0.00  0.00    -0.033 A 
ATOM      2  C1  UNL d   1       0.566   0.611  -1.427  0.00  0.00     0.039 A 
ATOM      3  C2  UNL d   1      -0.799   0.386  -1.621  0.00  0.00    -0.080 A 
ATOM      4  C3  UNL d   1      -1.520  -0.312  -0.656  0.00  0.00     0.150 A 
ATOM      5  C4  UNL d   1      -0.898  -0.784   0.496  0.00  0.00    -0.007 A 
ATOM      6  C5  UNL d   1       0.465  -0.559   0.687  0.00  0.00     0.039 A 
ENDROOT
BRANCH   4   7
ATOM      7  O   UNL d   1      -2.852  -0.560  -0.803  0.00  0.00    -0.526 OA
ATOM      8  H5  UNL d   1      -3.140  -0.200  -1.658  0.00  0.00     0.418 HD
ENDBRANCH   4   7
TORSDOF 1
ENDMDL
