MODEL 1
REMARK minimizedAffinity -5.48620415
REMARK minimizedRMSD -1
REMARK  1 active torsions:
REMARK  status: ('A' for Active; 'I' for Inactive)
REMARK    1  A    between atoms: C3_4  and  O_7 
ROOT
ATOM      1  C   UNL d   1       0.348  -1.428   1.270  0.00  0.00    -0.033 A 
ATOM      2  C1  UNL d   1       0.317  -0.376   0.352  0.00  0.00     0.039 A 
ATOM      3  C2  UNL d   1      -0.809  -0.180  -0.450  0.00  0.00    -0.080 A 
ATOM      4  C3  UNL d   1      -1.895  -1.041  -0.325  0.00  0.00     0.150 A 
ATOM      5  C4  UNL d   1      -1.873  -2.089   0.590  0.00  0.00    -0.007 A 
ATOM      6  C5  UNL d   1      -0.747  -2.284   1.389  0.00  0.00     0.039 A 
ENDROOT
BRANCH   4   7
ATOM      7  O   UNL d   1      -3.014  -0.893  -1.090  0.00  0.00    -0.526 OA
ATOM      8  H5  UNL d   1      -2.876  -0.146  -1.696  0.00  0.00     0.418 HD
ENDBRANCH   4   7
TORSDOF 1
ENDMDL
