MODEL 1
REMARK minimizedAffinity -2.85084176
REMARK minimizedRMSD -1
REMARK  1 active torsions:
REMARK  status: ('A' for Active; 'I' for Inactive)
REMARK    1  A    between atoms: C3_4  and  O_7 
ROOT
ATOM      1  C   UNL d   1       2.572   2.264   1.181  0.00  0.00    -0.033 A 
ATOM      2  C1  UNL d   1       2.569   1.357   0.120  0.00  0.00     0.039 A 
ATOM      3  C2  UNL d   1       1.593   0.361   0.053  0.00  0.00    -0.080 A 
ATOM      4  C3  UNL d   1       0.627   0.283   1.053  0.00  0.00     0.150 A 
ATOM      5  C4  UNL d   1       0.621   1.186   2.111  0.00  0.00    -0.007 A 
ATOM      6  C5  UNL d   1       1.598   2.180   2.176  0.00  0.00     0.039 A 
ENDROOT
BRANCH   4   7
ATOM      7  O   UNL d   1      -0.343  -0.674   1.033  0.00  0.00    -0.526 OA
ATOM      8  H5  UNL d   1      -0.198  -1.245   0.260  0.00  0.00     0.418 HD
ENDBRANCH   4   7
TORSDOF 1
ENDMDL
