MODEL 1
REMARK minimizedAffinity -0.380751163
REMARK minimizedRMSD -1
REMARK  1 active torsions:
REMARK  status: ('A' for Active; 'I' for Inactive)
REMARK    1  A    between atoms: C3_4  and  O_7 
ROOT
ATOM      1  C   UNL d   1       0.101   0.517  -1.356  0.00  0.00    -0.033 A 
ATOM      2  C1  UNL d   1      -1.125   0.465  -2.022  0.00  0.00     0.039 A 
ATOM      3  C2  UNL d   1      -2.032  -0.559  -1.742  0.00  0.00    -0.080 A 
ATOM      4  C3  UNL d   1      -1.701  -1.523  -0.794  0.00  0.00     0.150 A 
ATOM      5  C4  UNL d   1      -0.483  -1.476  -0.124  0.00  0.00    -0.007 A 
ATOM      6  C5  UNL d   1       0.421  -0.453  -0.406  0.00  0.00     0.039 A 
ENDROOT
BRANCH   4   7
ATOM      7  O   UNL d   1      -2.551  -2.545  -0.490  0.00  0.00    -0.526 OA
ATOM      8  H5  UNL d   1      -3.341  -2.465  -1.051  0.00  0.00     0.418 HD
ENDBRANCH   4   7
TORSDOF 1
ENDMDL
