MODEL 1
REMARK minimizedAffinity -4.4807682
REMARK minimizedRMSD -1
REMARK  1 active torsions:
REMARK  status: ('A' for Active; 'I' for Inactive)
REMARK    1  A    between atoms: C3_4  and  O_7 
ROOT
ATOM      1  C   UNL d   1       0.015  -0.755   1.963  0.00  0.00    -0.033 A 
ATOM      2  C1  UNL d   1       1.117  -0.517   1.139  0.00  0.00     0.039 A 
ATOM      3  C2  UNL d   1       0.926  -0.090  -0.177  0.00  0.00    -0.080 A 
ATOM      4  C3  UNL d   1      -0.368   0.095  -0.655  0.00  0.00     0.150 A 
ATOM      5  C4  UNL d   1      -1.469  -0.137   0.162  0.00  0.00    -0.007 A 
ATOM      6  C5  UNL d   1      -1.278  -0.564   1.475  0.00  0.00     0.039 A 
ENDROOT
BRANCH   4   7
ATOM      7  O   UNL d   1      -0.603   0.506  -1.934  0.00  0.00    -0.526 OA
ATOM      8  H5  UNL d   1       0.250   0.599  -2.389  0.00  0.00     0.418 HD
ENDBRANCH   4   7
TORSDOF 1
ENDMDL
