MODEL 1
REMARK minimizedAffinity -1.3966924
REMARK minimizedRMSD -1
REMARK  0 active torsions:
REMARK  status: ('A' for Active; 'I' for Inactive)
ROOT
ATOM      1  C   UNL d   1       0.328  -4.027  -3.015  0.00  0.00     0.023 A 
ATOM      2  C1  UNL d   1       1.202  -4.064  -1.929  0.00  0.00     0.003 A 
ATOM      3  C2  UNL d   1       1.207  -3.023  -0.998  0.00  0.00     0.048 A 
ATOM      4  C3  UNL d   1       0.334  -1.948  -1.159  0.00  0.00     0.023 A 
ATOM      5  C4  UNL d   1      -0.544  -1.907  -2.244  0.00  0.00     0.048 A 
ATOM      6  C5  UNL d   1      -0.544  -2.950  -3.172  0.00  0.00     0.003 A 
ATOM      7  I   UNL d   1       0.338  -0.397   0.224  0.00  0.00    -0.146 I 
ENDROOT
TORSDOF 0
ENDMDL
