MODEL 1
REMARK minimizedAffinity -3.99633884
REMARK minimizedRMSD -1
REMARK  0 active torsions:
REMARK  status: ('A' for Active; 'I' for Inactive)
ROOT
ATOM      1  C   UNL d   1      -1.446   1.614   1.531  0.00  0.00     0.023 A 
ATOM      2  C1  UNL d   1      -1.049   0.426   2.145  0.00  0.00     0.003 A 
ATOM      3  C2  UNL d   1      -0.229  -0.474   1.461  0.00  0.00     0.048 A 
ATOM      4  C3  UNL d   1       0.191  -0.179   0.164  0.00  0.00     0.023 A 
ATOM      5  C4  UNL d   1      -0.203   1.009  -0.453  0.00  0.00     0.048 A 
ATOM      6  C5  UNL d   1      -1.024   1.905   0.234  0.00  0.00     0.003 A 
ATOM      7  I   UNL d   1       1.411  -1.518  -0.855  0.00  0.00    -0.146 I 
ENDROOT
TORSDOF 0
ENDMDL
