MODEL 1
REMARK minimizedAffinity -2.15756369
REMARK minimizedRMSD -1
REMARK  0 active torsions:
REMARK  status: ('A' for Active; 'I' for Inactive)
ROOT
ATOM      1  C   UNL d   1      -2.150   2.652   1.665  0.00  0.00     0.023 A 
ATOM      2  C1  UNL d   1      -1.089   2.142   2.414  0.00  0.00     0.003 A 
ATOM      3  C2  UNL d   1      -0.284   1.129   1.887  0.00  0.00     0.048 A 
ATOM      4  C3  UNL d   1      -0.546   0.631   0.611  0.00  0.00     0.023 A 
ATOM      5  C4  UNL d   1      -1.606   1.139  -0.142  0.00  0.00     0.048 A 
ATOM      6  C5  UNL d   1      -2.408   2.151   0.389  0.00  0.00     0.003 A 
ATOM      7  I   UNL d   1       0.649  -0.876  -0.175  0.00  0.00    -0.146 I 
ENDROOT
TORSDOF 0
ENDMDL
