MODEL 1
REMARK minimizedAffinity -1.57191801
REMARK minimizedRMSD -1
REMARK  0 active torsions:
REMARK  status: ('A' for Active; 'I' for Inactive)
ROOT
ATOM      1  C   UNL d   1      -1.885   2.050   1.240  0.00  0.00     0.023 A 
ATOM      2  C1  UNL d   1      -1.308   2.318  -0.002  0.00  0.00     0.003 A 
ATOM      3  C2  UNL d   1      -0.390   1.423  -0.554  0.00  0.00     0.048 A 
ATOM      4  C3  UNL d   1      -0.055   0.260   0.140  0.00  0.00     0.023 A 
ATOM      5  C4  UNL d   1      -0.631  -0.013   1.381  0.00  0.00     0.048 A 
ATOM      6  C5  UNL d   1      -1.547   0.886   1.930  0.00  0.00     0.003 A 
ATOM      7  I   UNL d   1       1.311  -1.075  -0.681  0.00  0.00    -0.146 I 
ENDROOT
TORSDOF 0
ENDMDL
