MODEL 1
REMARK minimizedAffinity -4.39384317
REMARK minimizedRMSD -1
REMARK  0 active torsions:
REMARK  status: ('A' for Active; 'I' for Inactive)
ROOT
ATOM      1  C   UNL d   1      -1.520   1.631   1.704  0.00  0.00     0.023 A 
ATOM      2  C1  UNL d   1      -1.523   1.734   0.313  0.00  0.00     0.003 A 
ATOM      3  C2  UNL d   1      -0.766   0.846  -0.455  0.00  0.00     0.048 A 
ATOM      4  C3  UNL d   1      -0.010  -0.142   0.174  0.00  0.00     0.023 A 
ATOM      5  C4  UNL d   1      -0.005  -0.249   1.566  0.00  0.00     0.048 A 
ATOM      6  C5  UNL d   1      -0.762   0.641   2.330  0.00  0.00     0.003 A 
ATOM      7  I   UNL d   1       1.116  -1.464  -0.968  0.00  0.00    -0.146 I 
ENDROOT
TORSDOF 0
ENDMDL
