MODEL 1
REMARK minimizedAffinity -2.56172156
REMARK minimizedRMSD -1
REMARK  0 active torsions:
REMARK  status: ('A' for Active; 'I' for Inactive)
ROOT
ATOM      1  C   UNL d   1       1.115  -5.152  -1.811  0.00  0.00     0.023 A 
ATOM      2  C1  UNL d   1       0.273  -4.294  -2.518  0.00  0.00     0.003 A 
ATOM      3  C2  UNL d   1       0.313  -2.919  -2.277  0.00  0.00     0.048 A 
ATOM      4  C3  UNL d   1       1.198  -2.409  -1.328  0.00  0.00     0.023 A 
ATOM      5  C4  UNL d   1       2.043  -3.264  -0.619  0.00  0.00     0.048 A 
ATOM      6  C5  UNL d   1       1.999  -4.637  -0.863  0.00  0.00     0.003 A 
ATOM      7  I   UNL d   1       1.259  -0.363  -0.967  0.00  0.00    -0.146 I 
ENDROOT
TORSDOF 0
ENDMDL
