MODEL 1
REMARK minimizedAffinity -3.54248571
REMARK minimizedRMSD -1
REMARK  0 active torsions:
REMARK  status: ('A' for Active; 'I' for Inactive)
ROOT
ATOM      1  C   UNL d   1      -1.677   1.939   1.787  0.00  0.00     0.023 A 
ATOM      2  C1  UNL d   1      -1.156   0.784   2.371  0.00  0.00     0.003 A 
ATOM      3  C2  UNL d   1      -0.342  -0.071   1.624  0.00  0.00     0.048 A 
ATOM      4  C3  UNL d   1      -0.053   0.235   0.295  0.00  0.00     0.023 A 
ATOM      5  C4  UNL d   1      -0.571   1.390  -0.293  0.00  0.00     0.048 A 
ATOM      6  C5  UNL d   1      -1.385   2.242   0.457  0.00  0.00     0.003 A 
ATOM      7  I   UNL d   1       1.158  -1.036  -0.817  0.00  0.00    -0.146 I 
ENDROOT
TORSDOF 0
ENDMDL
