MODEL 1
REMARK minimizedAffinity -4.12801313
REMARK minimizedRMSD -1
REMARK  0 active torsions:
REMARK  status: ('A' for Active; 'I' for Inactive)
ROOT
ATOM      1  C   UNL d   1      -1.608   2.060   1.895  0.00  0.00     0.023 A 
ATOM      2  C1  UNL d   1      -1.529   2.218   0.512  0.00  0.00     0.003 A 
ATOM      3  C2  UNL d   1      -0.803   1.305  -0.256  0.00  0.00     0.048 A 
ATOM      4  C3  UNL d   1      -0.158   0.237   0.366  0.00  0.00     0.023 A 
ATOM      5  C4  UNL d   1      -0.234   0.075   1.750  0.00  0.00     0.048 A 
ATOM      6  C5  UNL d   1      -0.961   0.990   2.514  0.00  0.00     0.003 A 
ATOM      7  I   UNL d   1       0.923  -1.123  -0.775  0.00  0.00    -0.146 I 
ENDROOT
TORSDOF 0
ENDMDL
