MODEL 1
REMARK minimizedAffinity -4.06495428
REMARK minimizedRMSD -1
REMARK  0 active torsions:
REMARK  status: ('A' for Active; 'I' for Inactive)
ROOT
ATOM      1  C   UNL d   1      -2.121   2.825   1.319  0.00  0.00     0.023 A 
ATOM      2  C1  UNL d   1      -1.121   3.060   0.375  0.00  0.00     0.003 A 
ATOM      3  C2  UNL d   1      -0.307   2.010  -0.057  0.00  0.00     0.048 A 
ATOM      4  C3  UNL d   1      -0.499   0.729   0.459  0.00  0.00     0.023 A 
ATOM      5  C4  UNL d   1      -1.500   0.489   1.402  0.00  0.00     0.048 A 
ATOM      6  C5  UNL d   1      -2.310   1.542   1.832  0.00  0.00     0.003 A 
ATOM      7  I   UNL d   1       0.711  -0.834  -0.183  0.00  0.00    -0.146 I 
ENDROOT
TORSDOF 0
ENDMDL
