MODEL 1
REMARK minimizedAffinity -2.5782454
REMARK minimizedRMSD -1
REMARK  0 active torsions:
REMARK  status: ('A' for Active; 'I' for Inactive)
ROOT
ATOM      1  C   UNL d   1       0.006   0.809  -0.420  0.00  0.00     0.023 A 
ATOM      2  C1  UNL d   1      -0.006   0.477  -1.775  0.00  0.00     0.003 A 
ATOM      3  C2  UNL d   1       0.393  -0.795  -2.187  0.00  0.00     0.048 A 
ATOM      4  C3  UNL d   1       0.801  -1.733  -1.239  0.00  0.00     0.023 A 
ATOM      5  C4  UNL d   1       0.814  -1.407   0.118  0.00  0.00     0.048 A 
ATOM      6  C5  UNL d   1       0.415  -0.132   0.525  0.00  0.00     0.003 A 
ATOM      7  I   UNL d   1       1.395  -3.629  -1.851  0.00  0.00    -0.146 I 
ENDROOT
TORSDOF 0
ENDMDL
