MODEL 1
REMARK minimizedAffinity -3.19294405
REMARK minimizedRMSD -1
REMARK  0 active torsions:
REMARK  status: ('A' for Active; 'I' for Inactive)
ROOT
ATOM      1  C   UNL d   1       0.939  -4.504  -2.886  0.00  0.00     0.023 A 
ATOM      2  C1  UNL d   1       1.140  -4.594  -1.508  0.00  0.00     0.003 A 
ATOM      3  C2  UNL d   1       1.075  -3.446  -0.715  0.00  0.00     0.048 A 
ATOM      4  C3  UNL d   1       0.808  -2.212  -1.306  0.00  0.00     0.023 A 
ATOM      5  C4  UNL d   1       0.606  -2.117  -2.684  0.00  0.00     0.048 A 
ATOM      6  C5  UNL d   1       0.672  -3.267  -3.473  0.00  0.00     0.003 A 
ATOM      7  I   UNL d   1       0.710  -0.503  -0.128  0.00  0.00    -0.146 I 
ENDROOT
TORSDOF 0
ENDMDL
