MODEL 1
REMARK minimizedAffinity -4.02400303
REMARK minimizedRMSD -1
REMARK  0 active torsions:
REMARK  status: ('A' for Active; 'I' for Inactive)
ROOT
ATOM      1  C   UNL d   1       0.821  -0.112   3.487  0.00  0.00     0.077 C 
ATOM      2  C1  UNL d   1       0.152   0.500   2.293  0.00  0.00    -0.074 A 
ATOM      3  C2  UNL d   1      -0.809   1.505   2.443  0.00  0.00    -0.005 A 
ATOM      4  C3  UNL d   1      -1.415   2.072   1.323  0.00  0.00     0.006 A 
ATOM      5  C4  UNL d   1      -1.069   1.640   0.042  0.00  0.00    -0.005 A 
ATOM      6  C5  UNL d   1      -0.109   0.636  -0.128  0.00  0.00    -0.074 A 
ATOM      7  C6  UNL d   1       0.282   0.167  -1.498  0.00  0.00     0.077 C 
ATOM      8  C7  UNL d   1       0.501   0.077   1.002  0.00  0.00    -0.001 A 
ENDROOT
TORSDOF 0
ENDMDL
