MODEL 1
REMARK minimizedAffinity -5.45871782
REMARK minimizedRMSD -1
REMARK  0 active torsions:
REMARK  status: ('A' for Active; 'I' for Inactive)
ROOT
ATOM      1  C   UNL d   1      -0.753   2.992  -2.002  0.00  0.00     0.077 C 
ATOM      2  C1  UNL d   1      -0.774   2.678  -0.536  0.00  0.00    -0.074 A 
ATOM      3  C2  UNL d   1      -1.204   3.628   0.396  0.00  0.00    -0.005 A 
ATOM      4  C3  UNL d   1      -1.228   3.318   1.756  0.00  0.00     0.006 A 
ATOM      5  C4  UNL d   1      -0.822   2.058   2.197  0.00  0.00    -0.005 A 
ATOM      6  C5  UNL d   1      -0.389   1.095   1.279  0.00  0.00    -0.074 A 
ATOM      7  C6  UNL d   1       0.042  -0.267   1.735  0.00  0.00     0.077 C 
ATOM      8  C7  UNL d   1      -0.375   1.412  -0.086  0.00  0.00    -0.001 A 
ENDROOT
TORSDOF 0
ENDMDL
