MODEL 1
REMARK minimizedAffinity -3.2138629
REMARK minimizedRMSD -1
REMARK  0 active torsions:
REMARK  status: ('A' for Active; 'I' for Inactive)
ROOT
ATOM      1  C   UNL d   1       0.400  -1.444  -1.306  0.00  0.00     0.077 C 
ATOM      2  C1  UNL d   1       0.354  -0.000  -0.903  0.00  0.00    -0.074 A 
ATOM      3  C2  UNL d   1       0.178   1.007  -1.857  0.00  0.00    -0.005 A 
ATOM      4  C3  UNL d   1       0.128   2.345  -1.466  0.00  0.00     0.006 A 
ATOM      5  C4  UNL d   1       0.253   2.689  -0.120  0.00  0.00    -0.005 A 
ATOM      6  C5  UNL d   1       0.428   1.695   0.849  0.00  0.00    -0.074 A 
ATOM      7  C6  UNL d   1       0.554   2.046   2.301  0.00  0.00     0.077 C 
ATOM      8  C7  UNL d   1       0.471   0.352   0.448  0.00  0.00    -0.001 A 
ENDROOT
TORSDOF 0
ENDMDL
