MODEL 1
REMARK minimizedAffinity -5.47898006
REMARK minimizedRMSD -1
REMARK  0 active torsions:
REMARK  status: ('A' for Active; 'I' for Inactive)
ROOT
ATOM      1  C   UNL d   1      -1.928   2.219   1.730  0.00  0.00     0.077 C 
ATOM      2  C1  UNL d   1      -0.759   1.330   1.427  0.00  0.00    -0.074 A 
ATOM      3  C2  UNL d   1       0.247   1.116   2.376  0.00  0.00    -0.005 A 
ATOM      4  C3  UNL d   1       1.324   0.280   2.083  0.00  0.00     0.006 A 
ATOM      5  C4  UNL d   1       1.406  -0.350   0.841  0.00  0.00    -0.005 A 
ATOM      6  C5  UNL d   1       0.410  -0.149  -0.120  0.00  0.00    -0.074 A 
ATOM      7  C6  UNL d   1       0.479  -0.827  -1.456  0.00  0.00     0.077 C 
ATOM      8  C7  UNL d   1      -0.672   0.687   0.184  0.00  0.00    -0.001 A 
ENDROOT
TORSDOF 0
ENDMDL
