MODEL 1
REMARK minimizedAffinity -5.19490194
REMARK minimizedRMSD -1
REMARK  0 active torsions:
REMARK  status: ('A' for Active; 'I' for Inactive)
ROOT
ATOM      1  C   UNL d   1       1.973  -0.661   2.791  0.00  0.00     0.077 C 
ATOM      2  C1  UNL d   1       1.008  -0.136   1.770  0.00  0.00    -0.074 A 
ATOM      3  C2  UNL d   1       0.985  -0.652   0.470  0.00  0.00    -0.005 A 
ATOM      4  C3  UNL d   1       0.075  -0.160  -0.466  0.00  0.00     0.006 A 
ATOM      5  C4  UNL d   1      -0.820   0.850  -0.112  0.00  0.00    -0.005 A 
ATOM      6  C5  UNL d   1      -0.813   1.377   1.184  0.00  0.00    -0.074 A 
ATOM      7  C6  UNL d   1      -1.775   2.456   1.584  0.00  0.00     0.077 C 
ATOM      8  C7  UNL d   1       0.100   0.873   2.120  0.00  0.00    -0.001 A 
ENDROOT
TORSDOF 0
ENDMDL
