MODEL 1
REMARK minimizedAffinity 2.98809314
REMARK minimizedRMSD -1
REMARK  0 active torsions:
REMARK  status: ('A' for Active; 'I' for Inactive)
ROOT
ATOM      1  C   UNL d   1       1.288  -0.911   0.060  0.00  0.00     0.077 C 
ATOM      2  C1  UNL d   1       1.127  -0.330   1.433  0.00  0.00    -0.074 A 
ATOM      3  C2  UNL d   1       0.777   1.012   1.610  0.00  0.00    -0.005 A 
ATOM      4  C3  UNL d   1       0.621   1.535   2.893  0.00  0.00     0.006 A 
ATOM      5  C4  UNL d   1       0.814   0.723   4.011  0.00  0.00    -0.005 A 
ATOM      6  C5  UNL d   1       1.164  -0.622   3.854  0.00  0.00    -0.074 A 
ATOM      7  C6  UNL d   1       1.365  -1.511   5.045  0.00  0.00     0.077 C 
ATOM      8  C7  UNL d   1       1.311  -1.142   2.561  0.00  0.00    -0.001 A 
ENDROOT
TORSDOF 0
ENDMDL
