MODEL 1
REMARK minimizedAffinity -2.48755717
REMARK minimizedRMSD -1
REMARK  0 active torsions:
REMARK  status: ('A' for Active; 'I' for Inactive)
ROOT
ATOM      1  C   UNL d   1      -3.096   1.416  -0.632  0.00  0.00     0.077 C 
ATOM      2  C1  UNL d   1      -1.724   0.848  -0.414  0.00  0.00    -0.074 A 
ATOM      3  C2  UNL d   1      -1.001   0.289  -1.472  0.00  0.00    -0.005 A 
ATOM      4  C3  UNL d   1       0.277  -0.226  -1.256  0.00  0.00     0.006 A 
ATOM      5  C4  UNL d   1       0.844  -0.188   0.018  0.00  0.00    -0.005 A 
ATOM      6  C5  UNL d   1       0.136   0.368   1.089  0.00  0.00    -0.074 A 
ATOM      7  C6  UNL d   1       0.734   0.426   2.463  0.00  0.00     0.077 C 
ATOM      8  C7  UNL d   1      -1.145   0.890   0.862  0.00  0.00    -0.001 A 
ENDROOT
TORSDOF 0
ENDMDL
