MODEL 1
REMARK minimizedAffinity -4.8165884
REMARK minimizedRMSD -1
REMARK  0 active torsions:
REMARK  status: ('A' for Active; 'I' for Inactive)
ROOT
ATOM      1  C   UNL d   1       0.771  -0.193   2.487  0.00  0.00     0.077 C 
ATOM      2  C1  UNL d   1       0.060   0.764   1.578  0.00  0.00    -0.074 A 
ATOM      3  C2  UNL d   1      -0.862   1.687   2.083  0.00  0.00    -0.005 A 
ATOM      4  C3  UNL d   1      -1.509   2.577   1.226  0.00  0.00     0.006 A 
ATOM      5  C4  UNL d   1      -1.241   2.554  -0.143  0.00  0.00    -0.005 A 
ATOM      6  C5  UNL d   1      -0.322   1.639  -0.667  0.00  0.00    -0.074 A 
ATOM      7  C6  UNL d   1      -0.016   1.607  -2.135  0.00  0.00     0.077 C 
ATOM      8  C7  UNL d   1       0.329   0.752   0.202  0.00  0.00    -0.001 A 
ENDROOT
TORSDOF 0
ENDMDL
