MODEL 1
REMARK minimizedAffinity 1.46432281
REMARK minimizedRMSD -1
REMARK  1 active torsions:
REMARK  status: ('A' for Active; 'I' for Inactive)
REMARK    1  A    between atoms: N_2  and  C1_3 
ROOT
ATOM      1  C1  UNL d   1       0.954   0.480   0.006  0.00  0.00     0.143 A 
ATOM      2  C2  UNL d   1       0.105  -0.589  -0.301  0.00  0.00    -0.057 A 
ATOM      3  C3  UNL d   1       0.592  -1.898  -0.401  0.00  0.00     0.033 A 
ATOM      4  C4  UNL d   1       1.948  -2.157  -0.223  0.00  0.00    -0.042 A 
ATOM      5  C5  UNL d   1       2.814  -1.107   0.058  0.00  0.00     0.033 A 
ATOM      6  C6  UNL d   1       2.320   0.197   0.163  0.00  0.00    -0.057 A 
ENDROOT
BRANCH   1   7
ATOM      7  N   UNL d   1       0.547   1.816   0.022  0.00  0.00    -0.732 N 
ATOM      8  C   UNL d   1       0.225   2.474   1.270  0.00  0.00     0.284 C 
ATOM      9  H3  UNL d   1       1.079   2.392  -0.626  0.00  0.00     0.395 HD
ENDBRANCH   1   7
TORSDOF 1
ENDMDL
