MODEL 1
REMARK minimizedAffinity -1.00870407
REMARK minimizedRMSD -1
REMARK  1 active torsions:
REMARK  status: ('A' for Active; 'I' for Inactive)
REMARK    1  A    between atoms: N_2  and  C1_3 
ROOT
ATOM      1  C1  UNL d   1      -1.443  -0.115   0.836  0.00  0.00     0.143 A 
ATOM      2  C2  UNL d   1      -0.611   0.665   0.025  0.00  0.00    -0.057 A 
ATOM      3  C3  UNL d   1       0.374   0.080  -0.780  0.00  0.00     0.033 A 
ATOM      4  C4  UNL d   1       0.564  -1.298  -0.766  0.00  0.00    -0.042 A 
ATOM      5  C5  UNL d   1      -0.234  -2.090   0.051  0.00  0.00     0.033 A 
ATOM      6  C6  UNL d   1      -1.221  -1.501   0.847  0.00  0.00    -0.057 A 
ENDROOT
BRANCH   1   7
ATOM      7  N   UNL d   1      -2.374   0.415   1.732  0.00  0.00    -0.732 N 
ATOM      8  C   UNL d   1      -3.787   0.400   1.422  0.00  0.00     0.284 C 
ATOM      9  H3  UNL d   1      -2.158   0.183   2.699  0.00  0.00     0.395 HD
ENDBRANCH   1   7
TORSDOF 1
ENDMDL
