MODEL 1
REMARK minimizedAffinity -0.325951368
REMARK minimizedRMSD -1
REMARK  1 active torsions:
REMARK  status: ('A' for Active; 'I' for Inactive)
REMARK    1  A    between atoms: N_2  and  C1_3 
ROOT
ATOM      1  C1  UNL d   1      -0.956   0.271  -0.034  0.00  0.00     0.143 A 
ATOM      2  C2  UNL d   1       0.282   0.871  -0.286  0.00  0.00    -0.057 A 
ATOM      3  C3  UNL d   1       1.427   0.101  -0.526  0.00  0.00     0.033 A 
ATOM      4  C4  UNL d   1       1.358  -1.288  -0.490  0.00  0.00    -0.042 A 
ATOM      5  C5  UNL d   1       0.143  -1.906  -0.216  0.00  0.00     0.033 A 
ATOM      6  C6  UNL d   1      -0.998  -1.131   0.016  0.00  0.00    -0.057 A 
ENDROOT
BRANCH   1   7
ATOM      7  N   UNL d   1      -2.109   0.981   0.310  0.00  0.00    -0.732 N 
ATOM      8  C   UNL d   1      -3.406   0.559  -0.173  0.00  0.00     0.284 C 
ATOM      9  H3  UNL d   1      -2.105   1.282   1.282  0.00  0.00     0.395 HD
ENDBRANCH   1   7
TORSDOF 1
ENDMDL
