MODEL 1
REMARK minimizedAffinity -2.70033836
REMARK minimizedRMSD -1
REMARK  1 active torsions:
REMARK  status: ('A' for Active; 'I' for Inactive)
REMARK    1  A    between atoms: N_2  and  C1_3 
ROOT
ATOM      1  C1  UNL d   1       1.187  -0.472   0.579  0.00  0.00     0.143 A 
ATOM      2  C2  UNL d   1       0.915   0.898   0.652  0.00  0.00    -0.057 A 
ATOM      3  C3  UNL d   1      -0.280   1.430   0.154  0.00  0.00     0.033 A 
ATOM      4  C4  UNL d   1      -1.216   0.600  -0.456  0.00  0.00    -0.042 A 
ATOM      5  C5  UNL d   1      -0.956  -0.761  -0.562  0.00  0.00     0.033 A 
ATOM      6  C6  UNL d   1       0.237  -1.287  -0.056  0.00  0.00    -0.057 A 
ENDROOT
BRANCH   1   7
ATOM      7  N   UNL d   1       2.399  -1.047   0.968  0.00  0.00    -0.732 N 
ATOM      8  C   UNL d   1       3.411  -1.369  -0.016  0.00  0.00     0.284 C 
ATOM      9  H3  UNL d   1       2.767  -0.637   1.823  0.00  0.00     0.395 HD
ENDBRANCH   1   7
TORSDOF 1
ENDMDL
