MODEL 1
REMARK minimizedAffinity 0.887181401
REMARK minimizedRMSD -1
REMARK  1 active torsions:
REMARK  status: ('A' for Active; 'I' for Inactive)
REMARK    1  A    between atoms: N_2  and  C1_3 
ROOT
ATOM      1  C1  UNL d   1       1.224   0.307  -0.458  0.00  0.00     0.143 A 
ATOM      2  C2  UNL d   1       1.998  -0.852  -0.586  0.00  0.00    -0.057 A 
ATOM      3  C3  UNL d   1       1.402  -2.114  -0.693  0.00  0.00     0.033 A 
ATOM      4  C4  UNL d   1       0.017  -2.243  -0.643  0.00  0.00    -0.042 A 
ATOM      5  C5  UNL d   1      -0.770  -1.107  -0.491  0.00  0.00     0.033 A 
ATOM      6  C6  UNL d   1      -0.169   0.151  -0.392  0.00  0.00    -0.057 A 
ENDROOT
BRANCH   1   7
ATOM      7  N   UNL d   1       1.760   1.580  -0.249  0.00  0.00    -0.732 N 
ATOM      8  C   UNL d   1       0.931   2.656   0.252  0.00  0.00     0.284 C 
ATOM      9  H3  UNL d   1       2.691   1.548   0.160  0.00  0.00     0.395 HD
ENDBRANCH   1   7
TORSDOF 1
ENDMDL
