MODEL 1
REMARK minimizedAffinity -3.98184681
REMARK minimizedRMSD -1
REMARK  1 active torsions:
REMARK  status: ('A' for Active; 'I' for Inactive)
REMARK    1  A    between atoms: N_2  and  C1_3 
ROOT
ATOM      1  C1  UNL d   1       1.419  -0.756   0.067  0.00  0.00     0.143 A 
ATOM      2  C2  UNL d   1       2.519   0.097   0.201  0.00  0.00    -0.057 A 
ATOM      3  C3  UNL d   1       2.376   1.487   0.105  0.00  0.00     0.033 A 
ATOM      4  C4  UNL d   1       1.131   2.047  -0.156  0.00  0.00    -0.042 A 
ATOM      5  C5  UNL d   1       0.027   1.217  -0.318  0.00  0.00     0.033 A 
ATOM      6  C6  UNL d   1       0.175  -0.169  -0.215  0.00  0.00    -0.057 A 
ENDROOT
BRANCH   1   7
ATOM      7  N   UNL d   1       1.513  -2.150   0.053  0.00  0.00    -0.732 N 
ATOM      8  C   UNL d   1       0.419  -2.958  -0.441  0.00  0.00     0.284 C 
ATOM      9  H3  UNL d   1       2.433  -2.475  -0.235  0.00  0.00     0.395 HD
ENDBRANCH   1   7
TORSDOF 1
ENDMDL
