MODEL 1
REMARK minimizedAffinity -4.84130955
REMARK minimizedRMSD -1
REMARK  1 active torsions:
REMARK  status: ('A' for Active; 'I' for Inactive)
REMARK    1  A    between atoms: N_2  and  C1_3 
ROOT
ATOM      1  C1  UNL d   1       0.424   0.748   0.152  0.00  0.00     0.143 A 
ATOM      2  C2  UNL d   1       0.613  -0.621  -0.065  0.00  0.00    -0.057 A 
ATOM      3  C3  UNL d   1       1.897  -1.177  -0.119  0.00  0.00     0.033 A 
ATOM      4  C4  UNL d   1       3.019  -0.365   0.016  0.00  0.00    -0.042 A 
ATOM      5  C5  UNL d   1       2.855   1.002   0.208  0.00  0.00     0.033 A 
ATOM      6  C6  UNL d   1       1.570   1.550   0.267  0.00  0.00    -0.057 A 
ENDROOT
BRANCH   1   7
ATOM      7  N   UNL d   1      -0.824   1.376   0.118  0.00  0.00    -0.732 N 
ATOM      8  C   UNL d   1      -2.036   0.599  -0.031  0.00  0.00     0.284 C 
ATOM      9  H3  UNL d   1      -0.896   2.134   0.792  0.00  0.00     0.395 HD
ENDBRANCH   1   7
TORSDOF 1
ENDMDL
