MODEL 1
REMARK minimizedAffinity -4.78243303
REMARK minimizedRMSD -1
REMARK  1 active torsions:
REMARK  status: ('A' for Active; 'I' for Inactive)
REMARK    1  A    between atoms: N_2  and  C1_3 
ROOT
ATOM      1  C1  UNL d   1      -0.403   0.098  -0.284  0.00  0.00     0.143 A 
ATOM      2  C2  UNL d   1      -0.027  -1.246  -0.373  0.00  0.00    -0.057 A 
ATOM      3  C3  UNL d   1       1.311  -1.637  -0.239  0.00  0.00     0.033 A 
ATOM      4  C4  UNL d   1       2.303  -0.682  -0.041  0.00  0.00    -0.042 A 
ATOM      5  C5  UNL d   1       1.956   0.662   0.026  0.00  0.00     0.033 A 
ATOM      6  C6  UNL d   1       0.617   1.045  -0.102  0.00  0.00    -0.057 A 
ENDROOT
BRANCH   1   7
ATOM      7  N   UNL d   1      -1.703   0.559  -0.507  0.00  0.00    -0.732 N 
ATOM      8  C   UNL d   1      -2.547   0.950   0.602  0.00  0.00     0.284 C 
ATOM      9  H3  UNL d   1      -1.763   1.176  -1.313  0.00  0.00     0.395 HD
ENDBRANCH   1   7
TORSDOF 1
ENDMDL
