MODEL 1
REMARK minimizedAffinity -3.27716446
REMARK minimizedRMSD -1
REMARK  1 active torsions:
REMARK  status: ('A' for Active; 'I' for Inactive)
REMARK    1  A    between atoms: N_2  and  C1_3 
ROOT
ATOM      1  C1  UNL d   1      -1.283   0.322  -0.146  0.00  0.00     0.143 A 
ATOM      2  C2  UNL d   1      -0.424   0.123   0.940  0.00  0.00    -0.057 A 
ATOM      3  C3  UNL d   1       0.707  -0.695   0.831  0.00  0.00     0.033 A 
ATOM      4  C4  UNL d   1       0.985  -1.353  -0.362  0.00  0.00    -0.042 A 
ATOM      5  C5  UNL d   1       0.132  -1.189  -1.448  0.00  0.00     0.033 A 
ATOM      6  C6  UNL d   1      -0.993  -0.367  -1.335  0.00  0.00    -0.057 A 
ENDROOT
BRANCH   1   7
ATOM      7  N   UNL d   1      -2.477   1.043  -0.072  0.00  0.00    -0.732 N 
ATOM      8  C   UNL d   1      -3.176   1.185   1.187  0.00  0.00     0.284 C 
ATOM      9  H3  UNL d   1      -2.453   1.892  -0.632  0.00  0.00     0.395 HD
ENDBRANCH   1   7
TORSDOF 1
ENDMDL
