MODEL 1
REMARK minimizedAffinity -5.68848658
REMARK minimizedRMSD -1
REMARK  0 active torsions:
REMARK  status: ('A' for Active; 'I' for Inactive)
ROOT
ATOM      1  C4' PXY d   1      -1.791   4.007   5.852  0.00  0.00     0.077 C 
ATOM      2  C1' PXY d   1      -4.118   0.614   1.791  0.00  0.00     0.077 C 
ATOM      3  C1  PXY d   1      -3.516   1.513   2.854  0.00  0.00    -0.082 A 
ATOM      4  C2  PXY d   1      -2.252   1.352   3.208  0.00  0.00     0.003 A 
ATOM      5  C3  PXY d   1      -1.701   2.134   4.190  0.00  0.00     0.003 A 
ATOM      6  C4  PXY d   1      -2.437   3.129   4.777  0.00  0.00    -0.082 A 
ATOM      7  C5  PXY d   1      -3.725   3.307   4.413  0.00  0.00     0.003 A 
ATOM      8  C6  PXY d   1      -4.277   2.475   3.444  0.00  0.00     0.003 A 
ENDROOT
TORSDOF 0
ENDMDL
