MODEL 1
REMARK minimizedAffinity -2.06650281
REMARK minimizedRMSD -1
REMARK  0 active torsions:
REMARK  status: ('A' for Active; 'I' for Inactive)
ROOT
ATOM      1  C4' PXY d   1       0.068  -1.519  -0.630  0.00  0.00     0.077 C 
ATOM      2  C1' PXY d   1      -3.808   1.423   2.490  0.00  0.00     0.077 C 
ATOM      3  C1  PXY d   1      -2.784   0.662   1.670  0.00  0.00    -0.082 A 
ATOM      4  C2  PXY d   1      -3.140  -0.451   1.049  0.00  0.00     0.003 A 
ATOM      5  C3  PXY d   1      -2.219  -1.168   0.330  0.00  0.00     0.003 A 
ATOM      6  C4  PXY d   1      -0.934  -0.714   0.201  0.00  0.00    -0.082 A 
ATOM      7  C5  PXY d   1      -0.566   0.426   0.823  0.00  0.00     0.003 A 
ATOM      8  C6  PXY d   1      -1.505   1.118   1.582  0.00  0.00     0.003 A 
ENDROOT
TORSDOF 0
ENDMDL
