MODEL 1
REMARK minimizedAffinity -4.32758427
REMARK minimizedRMSD -1
REMARK  0 active torsions:
REMARK  status: ('A' for Active; 'I' for Inactive)
ROOT
ATOM      1  C4' PXY d   1      -1.352  -0.233   2.007  0.00  0.00     0.077 C 
ATOM      2  C1' PXY d   1       1.714   0.057  -2.885  0.00  0.00     0.077 C 
ATOM      3  C1  PXY d   1       0.917  -0.009  -1.597  0.00  0.00    -0.082 A 
ATOM      4  C2  PXY d   1       0.306  -1.134  -1.263  0.00  0.00     0.003 A 
ATOM      5  C3  PXY d   1      -0.445  -1.202  -0.118  0.00  0.00     0.003 A 
ATOM      6  C4  PXY d   1      -0.529  -0.123   0.720  0.00  0.00    -0.082 A 
ATOM      7  C5  PXY d   1       0.100   1.025   0.392  0.00  0.00     0.003 A 
ATOM      8  C6  PXY d   1       0.824   1.086  -0.796  0.00  0.00     0.003 A 
ENDROOT
TORSDOF 0
ENDMDL
