MODEL 1
REMARK minimizedAffinity -2.81644487
REMARK minimizedRMSD -1
REMARK  0 active torsions:
REMARK  status: ('A' for Active; 'I' for Inactive)
ROOT
ATOM      1  C4' PXY d   1      -3.744   2.213   3.240  0.00  0.00     0.077 C 
ATOM      2  C1' PXY d   1      -0.480  -1.838   0.719  0.00  0.00     0.077 C 
ATOM      3  C1  PXY d   1      -1.346  -0.779   1.373  0.00  0.00    -0.082 A 
ATOM      4  C2  PXY d   1      -0.785   0.313   1.865  0.00  0.00     0.003 A 
ATOM      5  C3  PXY d   1      -1.550   1.266   2.488  0.00  0.00     0.003 A 
ATOM      6  C4  PXY d   1      -2.909   1.123   2.562  0.00  0.00    -0.082 A 
ATOM      7  C5  PXY d   1      -3.491   0.016   2.054  0.00  0.00     0.003 A 
ATOM      8  C6  PXY d   1      -2.692  -0.958   1.462  0.00  0.00     0.003 A 
ENDROOT
TORSDOF 0
ENDMDL
