MODEL 1
REMARK minimizedAffinity -1.24242914
REMARK minimizedRMSD -1
REMARK  0 active torsions:
REMARK  status: ('A' for Active; 'I' for Inactive)
ROOT
ATOM      1  C4' PXY d   1      -1.725   0.499   2.193  0.00  0.00     0.077 C 
ATOM      2  C1' PXY d   1       2.369   1.056  -1.849  0.00  0.00     0.077 C 
ATOM      3  C1  PXY d   1       1.289   0.901  -0.797  0.00  0.00    -0.082 A 
ATOM      4  C2  PXY d   1       1.104   1.860   0.096  0.00  0.00     0.003 A 
ATOM      5  C3  PXY d   1       0.153   1.723   1.074  0.00  0.00     0.003 A 
ATOM      6  C4  PXY d   1      -0.653   0.616   1.107  0.00  0.00    -0.082 A 
ATOM      7  C5  PXY d   1      -0.478  -0.361   0.193  0.00  0.00     0.003 A 
ATOM      8  C6  PXY d   1       0.521  -0.221  -0.767  0.00  0.00     0.003 A 
ENDROOT
TORSDOF 0
ENDMDL
