MODEL 1
REMARK minimizedAffinity 3.40188217
REMARK minimizedRMSD -1
REMARK  0 active torsions:
REMARK  status: ('A' for Active; 'I' for Inactive)
ROOT
ATOM      1  C4' PXY d   1      -0.062  -3.244  -0.000  0.00  0.00     0.077 C 
ATOM      2  C1' PXY d   1       0.980   2.440   0.122  0.00  0.00     0.077 C 
ATOM      3  C1  PXY d   1       0.700   0.950   0.101  0.00  0.00    -0.082 A 
ATOM      4  C2  PXY d   1       1.512   0.142  -0.560  0.00  0.00     0.003 A 
ATOM      5  C3  PXY d   1       1.256  -1.204  -0.616  0.00  0.00     0.003 A 
ATOM      6  C4  PXY d   1       0.187  -1.735   0.056  0.00  0.00    -0.082 A 
ATOM      7  C5  PXY d   1      -0.640  -0.917   0.742  0.00  0.00     0.003 A 
ATOM      8  C6  PXY d   1      -0.385   0.451   0.752  0.00  0.00     0.003 A 
ENDROOT
TORSDOF 0
ENDMDL
