MODEL 1
REMARK minimizedAffinity -2.83362126
REMARK minimizedRMSD -1
REMARK  0 active torsions:
REMARK  status: ('A' for Active; 'I' for Inactive)
ROOT
ATOM      1  C4' PXY d   1       0.639  -0.812  -1.801  0.00  0.00     0.077 C 
ATOM      2  C1' PXY d   1      -1.756   0.467   3.302  0.00  0.00     0.077 C 
ATOM      3  C1  PXY d   1      -1.122   0.144   1.963  0.00  0.00    -0.082 A 
ATOM      4  C2  PXY d   1      -1.663  -0.785   1.191  0.00  0.00     0.003 A 
ATOM      5  C3  PXY d   1      -1.085  -1.113  -0.009  0.00  0.00     0.003 A 
ATOM      6  C4  PXY d   1       0.028  -0.446  -0.446  0.00  0.00    -0.082 A 
ATOM      7  C5  PXY d   1       0.580   0.510   0.331  0.00  0.00     0.003 A 
ATOM      8  C6  PXY d   1       0.001   0.799   1.564  0.00  0.00     0.003 A 
ENDROOT
TORSDOF 0
ENDMDL
