MODEL 1
REMARK minimizedAffinity -5.51073503
REMARK minimizedRMSD -1
REMARK  0 active torsions:
REMARK  status: ('A' for Active; 'I' for Inactive)
ROOT
ATOM      1  C4' PXY d   1       1.489  -0.036  -3.020  0.00  0.00     0.077 C 
ATOM      2  C1' PXY d   1      -0.652  -0.669   2.312  0.00  0.00     0.077 C 
ATOM      3  C1  PXY d   1      -0.087  -0.516   0.914  0.00  0.00    -0.082 A 
ATOM      4  C2  PXY d   1       0.284   0.680   0.486  0.00  0.00     0.003 A 
ATOM      5  C3  PXY d   1       0.767   0.842  -0.787  0.00  0.00     0.003 A 
ATOM      6  C4  PXY d   1       0.922  -0.240  -1.612  0.00  0.00    -0.082 A 
ATOM      7  C5  PXY d   1       0.556  -1.465  -1.179  0.00  0.00     0.003 A 
ATOM      8  C6  PXY d   1       0.029  -1.602   0.102  0.00  0.00     0.003 A 
ENDROOT
TORSDOF 0
ENDMDL
