MODEL 1
REMARK minimizedAffinity -3.8442235
REMARK minimizedRMSD -1
REMARK  0 active torsions:
REMARK  status: ('A' for Active; 'I' for Inactive)
ROOT
ATOM      1  C4' PXY d   1      -4.860   5.926  -5.968  0.00  0.00     0.077 C 
ATOM      2  C1' PXY d   1      -4.878   0.157  -5.608  0.00  0.00     0.077 C 
ATOM      3  C1  PXY d   1      -4.862   1.670  -5.696  0.00  0.00    -0.082 A 
ATOM      4  C2  PXY d   1      -5.999   2.328  -5.857  0.00  0.00     0.003 A 
ATOM      5  C3  PXY d   1      -5.999   3.694  -5.970  0.00  0.00     0.003 A 
ATOM      6  C4  PXY d   1      -4.830   4.398  -5.865  0.00  0.00    -0.082 A 
ATOM      7  C5  PXY d   1      -3.667   3.735  -5.690  0.00  0.00     0.003 A 
ATOM      8  C6  PXY d   1      -3.684   2.345  -5.618  0.00  0.00     0.003 A 
ENDROOT
TORSDOF 0
ENDMDL
