MODEL 1
REMARK minimizedAffinity -3.4352634
REMARK minimizedRMSD -1
REMARK  0 active torsions:
REMARK  status: ('A' for Active; 'I' for Inactive)
ROOT
ATOM      1  C4' PXY d   1       2.151  -0.665  -2.946  0.00  0.00     0.077 C 
ATOM      2  C1' PXY d   1      -1.190   0.465   1.633  0.00  0.00     0.077 C 
ATOM      3  C1  PXY d   1      -0.314   0.156   0.435  0.00  0.00    -0.082 A 
ATOM      4  C2  PXY d   1       0.446   1.108  -0.082  0.00  0.00     0.003 A 
ATOM      5  C3  PXY d   1       1.220   0.855  -1.185  0.00  0.00     0.003 A 
ATOM      6  C4  PXY d   1       1.258  -0.400  -1.731  0.00  0.00    -0.082 A 
ATOM      7  C5  PXY d   1       0.494  -1.380  -1.202  0.00  0.00     0.003 A 
ATOM      8  C6  PXY d   1      -0.317  -1.091  -0.108  0.00  0.00     0.003 A 
ENDROOT
TORSDOF 0
ENDMDL
