MODEL 1
REMARK minimizedAffinity 2.44581461
REMARK minimizedRMSD -1
REMARK  0 active torsions:
REMARK  status: ('A' for Active; 'I' for Inactive)
ROOT
ATOM      1  C4' PXY d   1      -0.183   1.425   2.897  0.00  0.00     0.077 C 
ATOM      2  C1' PXY d   1       2.664  -0.091  -1.900  0.00  0.00     0.077 C 
ATOM      3  C1  PXY d   1       1.929   0.309  -0.636  0.00  0.00    -0.082 A 
ATOM      4  C2  PXY d   1       0.728  -0.190  -0.392  0.00  0.00     0.003 A 
ATOM      5  C3  PXY d   1       0.035   0.186   0.730  0.00  0.00     0.003 A 
ATOM      6  C4  PXY d   1       0.600   1.041   1.639  0.00  0.00    -0.082 A 
ATOM      7  C5  PXY d   1       1.829   1.547   1.402  0.00  0.00     0.003 A 
ATOM      8  C6  PXY d   1       2.498   1.185   0.237  0.00  0.00     0.003 A 
ENDROOT
TORSDOF 0
ENDMDL
