MODEL 1
REMARK minimizedAffinity -5.26432753
REMARK minimizedRMSD -1
REMARK  0 active torsions:
REMARK  status: ('A' for Active; 'I' for Inactive)
ROOT
ATOM      1  C4' PXY d   1       1.774  -0.176  -3.126  0.00  0.00     0.077 C 
ATOM      2  C1' PXY d   1      -0.862   0.292   1.997  0.00  0.00     0.077 C 
ATOM      3  C1  PXY d   1      -0.170   0.156   0.655  0.00  0.00    -0.082 A 
ATOM      4  C2  PXY d   1       0.446   1.202   0.129  0.00  0.00     0.003 A 
ATOM      5  C3  PXY d   1       1.050   1.106  -1.099  0.00  0.00     0.003 A 
ATOM      6  C4  PXY d   1       1.069  -0.087  -1.770  0.00  0.00    -0.082 A 
ATOM      7  C5  PXY d   1       0.452  -1.162  -1.234  0.00  0.00     0.003 A 
ATOM      8  C6  PXY d   1      -0.191  -1.033  -0.006  0.00  0.00     0.003 A 
ENDROOT
TORSDOF 0
ENDMDL
