MODEL 1
REMARK minimizedAffinity -4.32173395
REMARK minimizedRMSD -1
REMARK  0 active torsions:
REMARK  status: ('A' for Active; 'I' for Inactive)
ROOT
ATOM      1  C4' PXY d   1      -1.708   0.389   2.370  0.00  0.00     0.077 C 
ATOM      2  C1' PXY d   1       2.262   0.476  -1.831  0.00  0.00     0.077 C 
ATOM      3  C1  PXY d   1       1.215   0.443  -0.735  0.00  0.00    -0.082 A 
ATOM      4  C2  PXY d   1       0.968   1.537  -0.034  0.00  0.00     0.003 A 
ATOM      5  C3  PXY d   1       0.047   1.516   0.982  0.00  0.00     0.003 A 
ATOM      6  C4  PXY d   1      -0.666   0.378   1.248  0.00  0.00    -0.082 A 
ATOM      7  C5  PXY d   1      -0.427  -0.739   0.529  0.00  0.00     0.003 A 
ATOM      8  C6  PXY d   1       0.541  -0.709  -0.470  0.00  0.00     0.003 A 
ENDROOT
TORSDOF 0
ENDMDL
