MODEL 1
REMARK minimizedAffinity -1.79689944
REMARK minimizedRMSD -1
REMARK  0 active torsions:
REMARK  status: ('A' for Active; 'I' for Inactive)
ROOT
ATOM      1  C4' PXY d   1       1.007  -0.893  -1.772  0.00  0.00     0.077 C 
ATOM      2  C1' PXY d   1      -1.792   1.087   2.883  0.00  0.00     0.077 C 
ATOM      3  C1  PXY d   1      -1.057   0.580   1.657  0.00  0.00    -0.082 A 
ATOM      4  C2  PXY d   1      -1.177  -0.689   1.301  0.00  0.00     0.003 A 
ATOM      5  C3  PXY d   1      -0.495  -1.172   0.214  0.00  0.00     0.003 A 
ATOM      6  C4  PXY d   1       0.276  -0.335  -0.547  0.00  0.00    -0.082 A 
ATOM      7  C5  PXY d   1       0.395   0.963  -0.197  0.00  0.00     0.003 A 
ATOM      8  C6  PXY d   1      -0.273   1.424   0.934  0.00  0.00     0.003 A 
ENDROOT
TORSDOF 0
ENDMDL
