MODEL 1
REMARK minimizedAffinity -4.94672918
REMARK minimizedRMSD -1
REMARK  0 active torsions:
REMARK  status: ('A' for Active; 'I' for Inactive)
ROOT
ATOM      1  C4' PXY d   1      -1.572   0.360   1.526  0.00  0.00     0.077 C 
ATOM      2  C1' PXY d   1       1.929   0.047  -3.063  0.00  0.00     0.077 C 
ATOM      3  C1  PXY d   1       1.004   0.119  -1.865  0.00  0.00    -0.082 A 
ATOM      4  C2  PXY d   1       0.902   1.249  -1.184  0.00  0.00     0.003 A 
ATOM      5  C3  PXY d   1       0.094   1.323  -0.078  0.00  0.00     0.003 A 
ATOM      6  C4  PXY d   1      -0.658   0.244   0.303  0.00  0.00    -0.082 A 
ATOM      7  C5  PXY d   1      -0.567  -0.909  -0.392  0.00  0.00     0.003 A 
ATOM      8  C6  PXY d   1       0.290  -0.976  -1.487  0.00  0.00     0.003 A 
ENDROOT
TORSDOF 0
ENDMDL
