MODEL 1
REMARK minimizedAffinity -2.93899226
REMARK minimizedRMSD -1
REMARK  0 active torsions:
REMARK  status: ('A' for Active; 'I' for Inactive)
ROOT
ATOM      1  C4' PXY d   1      -3.515   5.768  -5.744  0.00  0.00     0.077 C 
ATOM      2  C1' PXY d   1      -4.602   0.094  -5.930  0.00  0.00     0.077 C 
ATOM      3  C1  PXY d   1      -4.306   1.579  -5.874  0.00  0.00    -0.082 A 
ATOM      4  C2  PXY d   1      -5.296   2.449  -6.000  0.00  0.00     0.003 A 
ATOM      5  C3  PXY d   1      -5.042   3.796  -5.984  0.00  0.00     0.003 A 
ATOM      6  C4  PXY d   1      -3.769   4.259  -5.785  0.00  0.00    -0.082 A 
ATOM      7  C5  PXY d   1      -2.755   3.378  -5.645  0.00  0.00     0.003 A 
ATOM      8  C6  PXY d   1      -3.028   2.014  -5.705  0.00  0.00     0.003 A 
ENDROOT
TORSDOF 0
ENDMDL
