MODEL 1
REMARK minimizedAffinity -4.23590708
REMARK minimizedRMSD -1
REMARK  0 active torsions:
REMARK  status: ('A' for Active; 'I' for Inactive)
ROOT
ATOM      1  C4' PXY d   1       1.769  -0.248  -3.022  0.00  0.00     0.077 C 
ATOM      2  C1' PXY d   1      -1.000   0.328   2.019  0.00  0.00     0.077 C 
ATOM      3  C1  PXY d   1      -0.273   0.190   0.695  0.00  0.00    -0.082 A 
ATOM      4  C2  PXY d   1      -0.375  -0.936   0.008  0.00  0.00     0.003 A 
ATOM      5  C3  PXY d   1       0.301  -1.090  -1.175  0.00  0.00     0.003 A 
ATOM      6  C4  PXY d   1       1.046  -0.060  -1.686  0.00  0.00    -0.082 A 
ATOM      7  C5  PXY d   1       1.145   1.095  -0.996  0.00  0.00     0.003 A 
ATOM      8  C6  PXY d   1       0.485   1.216   0.223  0.00  0.00     0.003 A 
ENDROOT
TORSDOF 0
ENDMDL
