MODEL 1
REMARK minimizedAffinity -5.33765459
REMARK minimizedRMSD -1
REMARK  0 active torsions:
REMARK  status: ('A' for Active; 'I' for Inactive)
ROOT
ATOM      1  C4' PXY d   1      -1.193   0.144   1.625  0.00  0.00     0.077 C 
ATOM      2  C1' PXY d   1       2.419  -0.702  -2.808  0.00  0.00     0.077 C 
ATOM      3  C1  PXY d   1       1.479  -0.470  -1.642  0.00  0.00    -0.082 A 
ATOM      4  C2  PXY d   1       0.737  -1.468  -1.191  0.00  0.00     0.003 A 
ATOM      5  C3  PXY d   1      -0.142  -1.268  -0.158  0.00  0.00     0.003 A 
ATOM      6  C4  PXY d   1      -0.223  -0.046   0.455  0.00  0.00    -0.082 A 
ATOM      7  C5  PXY d   1       0.539   0.975   0.009  0.00  0.00     0.003 A 
ATOM      8  C6  PXY d   1       1.394   0.761  -1.068  0.00  0.00     0.003 A 
ENDROOT
TORSDOF 0
ENDMDL
