MODEL 1
REMARK minimizedAffinity -5.27171803
REMARK minimizedRMSD -1
REMARK  0 active torsions:
REMARK  status: ('A' for Active; 'I' for Inactive)
ROOT
ATOM      1  C4' PXY d   1      -2.409   0.397   1.462  0.00  0.00     0.077 C 
ATOM      2  C1' PXY d   1       2.393   0.642  -1.747  0.00  0.00     0.077 C 
ATOM      3  C1  PXY d   1       1.141   0.579  -0.894  0.00  0.00    -0.082 A 
ATOM      4  C2  PXY d   1       0.050   0.005  -1.376  0.00  0.00     0.003 A 
ATOM      5  C3  PXY d   1      -1.100  -0.033  -0.630  0.00  0.00     0.003 A 
ATOM      6  C4  PXY d   1      -1.119   0.475   0.641  0.00  0.00    -0.082 A 
ATOM      7  C5  PXY d   1      -0.008   1.053   1.143  0.00  0.00     0.003 A 
ATOM      8  C6  PXY d   1       1.138   1.118   0.355  0.00  0.00     0.003 A 
ENDROOT
TORSDOF 0
ENDMDL
