MODEL 1
REMARK minimizedAffinity 8.08273029
REMARK minimizedRMSD -1
REMARK  1 active torsions:
REMARK  status: ('A' for Active; 'I' for Inactive)
REMARK    1  A    between atoms: C1_2  and  C2_3 
ROOT
ATOM      1  C2  UNL d   1       0.678   2.884  -0.192  0.00  0.00    -0.081 A 
ATOM      2  C3  UNL d   1       1.517   1.808   0.125  0.00  0.00     0.006 A 
ATOM      3  C4  UNL d   1       0.992   0.523   0.280  0.00  0.00     0.002 A 
ATOM      4  C5  UNL d   1      -0.377   0.290   0.115  0.00  0.00    -0.080 A 
ATOM      5  C6  UNL d   1      -0.948  -1.090   0.249  0.00  0.00     0.076 C 
ATOM      6  C7  UNL d   1      -1.218   1.367  -0.184  0.00  0.00     0.002 A 
ATOM      7  C8  UNL d   1      -0.694   2.653  -0.339  0.00  0.00     0.006 A 
ENDROOT
BRANCH   1   8
ATOM      8  C1  UNL d   1       1.249   4.259  -0.424  0.00  0.00     0.054 C 
ATOM      9  C   UNL d   1       1.137   4.665  -1.886  0.00  0.00     0.018 C 
ENDBRANCH   1   8
TORSDOF 1
ENDMDL
