MODEL 1
REMARK minimizedAffinity -2.83163857
REMARK minimizedRMSD -1
REMARK  1 active torsions:
REMARK  status: ('A' for Active; 'I' for Inactive)
REMARK    1  A    between atoms: C1_2  and  C2_3 
ROOT
ATOM      1  C2  UNL d   1       3.479  -5.932  -1.578  0.00  0.00    -0.081 A 
ATOM      2  C3  UNL d   1       2.141  -5.995  -1.988  0.00  0.00     0.006 A 
ATOM      3  C4  UNL d   1       1.817  -5.999  -3.347  0.00  0.00     0.002 A 
ATOM      4  C5  UNL d   1       2.823  -5.947  -4.317  0.00  0.00    -0.080 A 
ATOM      5  C6  UNL d   1       2.489  -5.980  -5.779  0.00  0.00     0.076 C 
ATOM      6  C7  UNL d   1       4.158  -5.866  -3.908  0.00  0.00     0.002 A 
ATOM      7  C8  UNL d   1       4.483  -5.863  -2.550  0.00  0.00     0.006 A 
ENDROOT
BRANCH   1   8
ATOM      8  C1  UNL d   1       3.835  -5.994  -0.115  0.00  0.00     0.054 C 
ATOM      9  C   UNL d   1       2.589  -6.000   0.759  0.00  0.00     0.018 C 
ENDBRANCH   1   8
TORSDOF 1
ENDMDL
