MODEL 1
REMARK minimizedAffinity 4.11578274
REMARK minimizedRMSD -1
REMARK  1 active torsions:
REMARK  status: ('A' for Active; 'I' for Inactive)
REMARK    1  A    between atoms: C1_2  and  C2_3 
ROOT
ATOM      1  C2  UNL d   1       3.583  -5.867  -1.854  0.00  0.00    -0.081 A 
ATOM      2  C3  UNL d   1       2.305  -5.998  -1.298  0.00  0.00     0.006 A 
ATOM      3  C4  UNL d   1       2.122  -5.925   0.085  0.00  0.00     0.002 A 
ATOM      4  C5  UNL d   1       3.213  -5.712   0.934  0.00  0.00    -0.080 A 
ATOM      5  C6  UNL d   1       3.027  -5.601   2.418  0.00  0.00     0.076 C 
ATOM      6  C7  UNL d   1       4.493  -5.598   0.381  0.00  0.00     0.002 A 
ATOM      7  C8  UNL d   1       4.676  -5.671  -1.002  0.00  0.00     0.006 A 
ENDROOT
BRANCH   1   8
ATOM      8  C1  UNL d   1       3.775  -5.880  -3.349  0.00  0.00     0.054 C 
ATOM      9  C   UNL d   1       2.443  -5.997  -4.076  0.00  0.00     0.018 C 
ENDBRANCH   1   8
TORSDOF 1
ENDMDL
