MODEL 1
REMARK minimizedAffinity 1.74977791
REMARK minimizedRMSD -1
REMARK  1 active torsions:
REMARK  status: ('A' for Active; 'I' for Inactive)
REMARK    1  A    between atoms: C1_2  and  C2_3 
ROOT
ATOM      1  C2  UNL d   1       4.120  -5.987  -1.691  0.00  0.00    -0.081 A 
ATOM      2  C3  UNL d   1       5.208  -5.995  -2.573  0.00  0.00     0.006 A 
ATOM      3  C4  UNL d   1       5.000  -6.000  -3.954  0.00  0.00     0.002 A 
ATOM      4  C5  UNL d   1       3.702  -5.990  -4.476  0.00  0.00    -0.080 A 
ATOM      5  C6  UNL d   1       3.465  -5.965  -5.957  0.00  0.00     0.076 C 
ATOM      6  C7  UNL d   1       2.615  -6.000  -3.595  0.00  0.00     0.002 A 
ATOM      7  C8  UNL d   1       2.823  -5.995  -2.214  0.00  0.00     0.006 A 
ENDROOT
BRANCH   1   8
ATOM      8  C1  UNL d   1       4.342  -5.916  -0.201  0.00  0.00     0.054 C 
ATOM      9  C   UNL d   1       3.025  -6.000   0.558  0.00  0.00     0.018 C 
ENDBRANCH   1   8
TORSDOF 1
ENDMDL
