MODEL 1
REMARK minimizedAffinity 1.63495994
REMARK minimizedRMSD -1
REMARK  1 active torsions:
REMARK  status: ('A' for Active; 'I' for Inactive)
REMARK    1  A    between atoms: C1_2  and  C2_3 
ROOT
ATOM      1  C2  UNL d   1       2.162  -4.580   2.392  0.00  0.00    -0.081 A 
ATOM      2  C3  UNL d   1       2.971  -4.383   3.518  0.00  0.00     0.006 A 
ATOM      3  C4  UNL d   1       2.895  -3.194   4.246  0.00  0.00     0.002 A 
ATOM      4  C5  UNL d   1       2.003  -2.185   3.866  0.00  0.00    -0.080 A 
ATOM      5  C6  UNL d   1       1.890  -0.915   4.657  0.00  0.00     0.076 C 
ATOM      6  C7  UNL d   1       1.207  -2.374   2.731  0.00  0.00     0.002 A 
ATOM      7  C8  UNL d   1       1.284  -3.563   2.002  0.00  0.00     0.006 A 
ENDROOT
BRANCH   1   8
ATOM      8  C1  UNL d   1       2.195  -5.887   1.643  0.00  0.00     0.054 C 
ATOM      9  C   UNL d   1       3.039  -5.780   0.381  0.00  0.00     0.018 C 
ENDBRANCH   1   8
TORSDOF 1
ENDMDL
