MODEL 1
REMARK minimizedAffinity 6.98406076
REMARK minimizedRMSD -1
REMARK  1 active torsions:
REMARK  status: ('A' for Active; 'I' for Inactive)
REMARK    1  A    between atoms: C1_2  and  C2_3 
ROOT
ATOM      1  C2  UNL d   1       2.995  -5.644   0.838  0.00  0.00    -0.081 A 
ATOM      2  C3  UNL d   1       2.354  -5.637  -0.407  0.00  0.00     0.006 A 
ATOM      3  C4  UNL d   1       3.096  -5.739  -1.586  0.00  0.00     0.002 A 
ATOM      4  C5  UNL d   1       4.489  -5.858  -1.540  0.00  0.00    -0.080 A 
ATOM      5  C6  UNL d   1       5.295  -5.999  -2.797  0.00  0.00     0.076 C 
ATOM      6  C7  UNL d   1       5.131  -5.848  -0.297  0.00  0.00     0.002 A 
ATOM      7  C8  UNL d   1       4.390  -5.745   0.882  0.00  0.00     0.006 A 
ENDROOT
BRANCH   1   8
ATOM      8  C1  UNL d   1       2.192  -5.599   2.113  0.00  0.00     0.054 C 
ATOM      9  C   UNL d   1       2.299  -4.238   2.786  0.00  0.00     0.018 C 
ENDBRANCH   1   8
TORSDOF 1
ENDMDL
