MODEL 1
REMARK minimizedAffinity 7.53497505
REMARK minimizedRMSD -1
REMARK  1 active torsions:
REMARK  status: ('A' for Active; 'I' for Inactive)
REMARK    1  A    between atoms: C1_2  and  C2_3 
ROOT
ATOM      1  C2  UNL d   1       3.162  -1.874   2.902  0.00  0.00    -0.081 A 
ATOM      2  C3  UNL d   1       2.919  -0.518   2.650  0.00  0.00     0.006 A 
ATOM      3  C4  UNL d   1       1.723  -0.112   2.054  0.00  0.00     0.002 A 
ATOM      4  C5  UNL d   1       0.748  -1.052   1.707  0.00  0.00    -0.080 A 
ATOM      5  C6  UNL d   1      -0.553  -0.627   1.094  0.00  0.00     0.076 C 
ATOM      6  C7  UNL d   1       0.998  -2.409   1.942  0.00  0.00     0.002 A 
ATOM      7  C8  UNL d   1       2.194  -2.815   2.538  0.00  0.00     0.006 A 
ENDROOT
BRANCH   1   8
ATOM      8  C1  UNL d   1       4.424  -2.309   3.603  0.00  0.00     0.054 C 
ATOM      9  C   UNL d   1       5.653  -2.049   2.744  0.00  0.00     0.018 C 
ENDBRANCH   1   8
TORSDOF 1
ENDMDL
