MODEL 1
REMARK minimizedAffinity 17.1416988
REMARK minimizedRMSD -1
REMARK  1 active torsions:
REMARK  status: ('A' for Active; 'I' for Inactive)
REMARK    1  A    between atoms: C1_2  and  C2_3 
ROOT
ATOM      1  C2  UNL d   1       0.654  -1.831   3.533  0.00  0.00    -0.081 A 
ATOM      2  C3  UNL d   1       1.392  -1.493   2.393  0.00  0.00     0.006 A 
ATOM      3  C4  UNL d   1       2.781  -1.361   2.462  0.00  0.00     0.002 A 
ATOM      4  C5  UNL d   1       3.455  -1.572   3.670  0.00  0.00    -0.080 A 
ATOM      5  C6  UNL d   1       4.949  -1.462   3.751  0.00  0.00     0.076 C 
ATOM      6  C7  UNL d   1       2.716  -1.892   4.813  0.00  0.00     0.002 A 
ATOM      7  C8  UNL d   1       1.327  -2.024   4.745  0.00  0.00     0.006 A 
ENDROOT
BRANCH   1   8
ATOM      8  C1  UNL d   1      -0.837  -2.038   3.448  0.00  0.00     0.054 C 
ATOM      9  C   UNL d   1      -1.450  -2.226   4.828  0.00  0.00     0.018 C 
ENDBRANCH   1   8
TORSDOF 1
ENDMDL
