MODEL 1
REMARK minimizedAffinity 8.40680027
REMARK minimizedRMSD -1
REMARK  1 active torsions:
REMARK  status: ('A' for Active; 'I' for Inactive)
REMARK    1  A    between atoms: C1_2  and  C2_3 
ROOT
ATOM      1  C2  UNL d   1       0.143   0.339   0.502  0.00  0.00    -0.081 A 
ATOM      2  C3  UNL d   1       0.125   0.834   1.812  0.00  0.00     0.006 A 
ATOM      3  C4  UNL d   1       0.940   0.268   2.795  0.00  0.00     0.002 A 
ATOM      4  C5  UNL d   1       1.793  -0.796   2.483  0.00  0.00    -0.080 A 
ATOM      5  C6  UNL d   1       2.696  -1.393   3.522  0.00  0.00     0.076 C 
ATOM      6  C7  UNL d   1       1.799  -1.303   1.179  0.00  0.00     0.002 A 
ATOM      7  C8  UNL d   1       0.983  -0.737   0.196  0.00  0.00     0.006 A 
ENDROOT
BRANCH   1   8
ATOM      8  C1  UNL d   1      -0.687   0.989  -0.575  0.00  0.00     0.054 C 
ATOM      9  C   UNL d   1      -1.094  -0.016  -1.642  0.00  0.00     0.018 C 
ENDBRANCH   1   8
TORSDOF 1
ENDMDL
