MODEL 1
REMARK minimizedAffinity -1.52150762
REMARK minimizedRMSD -1
REMARK  1 active torsions:
REMARK  status: ('A' for Active; 'I' for Inactive)
REMARK    1  A    between atoms: C1_2  and  C2_3 
ROOT
ATOM      1  C2  UNL d   1      -5.025   2.983  -2.153  0.00  0.00    -0.081 A 
ATOM      2  C3  UNL d   1      -5.843   2.746  -3.265  0.00  0.00     0.006 A 
ATOM      3  C4  UNL d   1      -6.000   3.725  -4.249  0.00  0.00     0.002 A 
ATOM      4  C5  UNL d   1      -5.337   4.952  -4.143  0.00  0.00    -0.080 A 
ATOM      5  C6  UNL d   1      -5.473   5.999  -5.208  0.00  0.00     0.076 C 
ATOM      6  C7  UNL d   1      -4.534   5.195  -3.023  0.00  0.00     0.002 A 
ATOM      7  C8  UNL d   1      -4.377   4.218  -2.038  0.00  0.00     0.006 A 
ENDROOT
BRANCH   1   8
ATOM      8  C1  UNL d   1      -4.802   1.906  -1.122  0.00  0.00     0.054 C 
ATOM      9  C   UNL d   1      -3.357   1.886  -0.647  0.00  0.00     0.018 C 
ENDBRANCH   1   8
TORSDOF 1
ENDMDL
