MODEL 1
REMARK minimizedAffinity 3.21804357
REMARK minimizedRMSD -1
REMARK  1 active torsions:
REMARK  status: ('A' for Active; 'I' for Inactive)
REMARK    1  A    between atoms: C1_2  and  C2_3 
ROOT
ATOM      1  C2  UNL d   1       0.667  -0.530   0.541  0.00  0.00    -0.081 A 
ATOM      2  C3  UNL d   1       0.494   0.821   0.217  0.00  0.00     0.006 A 
ATOM      3  C4  UNL d   1      -0.752   1.295  -0.200  0.00  0.00     0.002 A 
ATOM      4  C5  UNL d   1      -1.847   0.429  -0.293  0.00  0.00    -0.080 A 
ATOM      5  C6  UNL d   1      -3.197   0.932  -0.710  0.00  0.00     0.076 C 
ATOM      6  C7  UNL d   1      -1.670  -0.924   0.014  0.00  0.00     0.002 A 
ATOM      7  C8  UNL d   1      -0.425  -1.399   0.430  0.00  0.00     0.006 A 
ENDROOT
BRANCH   1   8
ATOM      8  C1  UNL d   1       1.992  -1.032   1.053  0.00  0.00     0.054 C 
ATOM      9  C   UNL d   1       2.026  -1.052   2.574  0.00  0.00     0.018 C 
ENDBRANCH   1   8
TORSDOF 1
ENDMDL
