MODEL 1
REMARK minimizedAffinity 7.61236763
REMARK minimizedRMSD -1
REMARK  1 active torsions:
REMARK  status: ('A' for Active; 'I' for Inactive)
REMARK    1  A    between atoms: C1_2  and  C2_3 
ROOT
ATOM      1  C2  UNL d   1       0.819  -0.083   1.692  0.00  0.00    -0.081 A 
ATOM      2  C3  UNL d   1       0.519   1.274   1.520  0.00  0.00     0.006 A 
ATOM      3  C4  UNL d   1      -0.590   1.664   0.765  0.00  0.00     0.002 A 
ATOM      4  C5  UNL d   1      -1.420   0.705   0.176  0.00  0.00    -0.080 A 
ATOM      5  C6  UNL d   1      -2.631   1.109  -0.612  0.00  0.00     0.076 C 
ATOM      6  C7  UNL d   1      -1.111  -0.651   0.334  0.00  0.00     0.002 A 
ATOM      7  C8  UNL d   1      -0.002  -1.041   1.088  0.00  0.00     0.006 A 
ENDROOT
BRANCH   1   8
ATOM      8  C1  UNL d   1       1.976  -0.508   2.559  0.00  0.00     0.054 C 
ATOM      9  C   UNL d   1       1.498  -0.998   3.919  0.00  0.00     0.018 C 
ENDBRANCH   1   8
TORSDOF 1
ENDMDL
