MODEL 1
REMARK minimizedAffinity 9.34160042
REMARK minimizedRMSD -1
REMARK  0 active torsions:
REMARK  status: ('A' for Active; 'I' for Inactive)
ROOT
ATOM      1  C4' PXY d   1       0.761   3.172   1.498  0.00  0.00     0.077 C 
ATOM      2  C1' PXY d   1      -0.839   5.996  -3.286  0.00  0.00     0.077 C 
ATOM      3  C1  PXY d   1      -0.429   5.247  -2.033  0.00  0.00    -0.082 A 
ATOM      4  C2  PXY d   1       0.296   5.861  -1.111  0.00  0.00     0.003 A 
ATOM      5  C3  PXY d   1       0.702   5.189   0.013  0.00  0.00     0.003 A 
ATOM      6  C4  PXY d   1       0.317   3.892   0.222  0.00  0.00    -0.082 A 
ATOM      7  C5  PXY d   1      -0.432   3.262  -0.709  0.00  0.00     0.003 A 
ATOM      8  C6  PXY d   1      -0.799   3.949  -1.862  0.00  0.00     0.003 A 
ENDROOT
TORSDOF 0
ENDMDL
