MODEL 1
REMARK minimizedAffinity 6.23872995
REMARK minimizedRMSD -1
REMARK  0 active torsions:
REMARK  status: ('A' for Active; 'I' for Inactive)
ROOT
ATOM      1  C4' PXY d   1      -0.724   3.399  -1.772  0.00  0.00     0.077 C 
ATOM      2  C1' PXY d   1       1.876   3.104   3.383  0.00  0.00     0.077 C 
ATOM      3  C1  PXY d   1       1.190   3.169   2.032  0.00  0.00    -0.082 A 
ATOM      4  C2  PXY d   1       1.616   4.031   1.123  0.00  0.00     0.003 A 
ATOM      5  C3  PXY d   1       0.986   4.125  -0.092  0.00  0.00     0.003 A 
ATOM      6  C4  PXY d   1      -0.056   3.292  -0.398  0.00  0.00    -0.082 A 
ATOM      7  C5  PXY d   1      -0.490   2.403   0.520  0.00  0.00     0.003 A 
ATOM      8  C6  PXY d   1       0.136   2.352   1.762  0.00  0.00     0.003 A 
ENDROOT
TORSDOF 0
ENDMDL
