MODEL 1
REMARK minimizedAffinity 5.89998102
REMARK minimizedRMSD -1
REMARK  0 active torsions:
REMARK  status: ('A' for Active; 'I' for Inactive)
ROOT
ATOM      1  C4' PXY d   1       1.668   2.254   1.776  0.00  0.00     0.077 C 
ATOM      2  C1' PXY d   1      -1.905   3.987  -2.425  0.00  0.00     0.077 C 
ATOM      3  C1  PXY d   1      -0.967   3.521  -1.330  0.00  0.00    -0.082 A 
ATOM      4  C2  PXY d   1      -1.029   4.081  -0.133  0.00  0.00     0.003 A 
ATOM      5  C3  PXY d   1      -0.166   3.694   0.860  0.00  0.00     0.003 A 
ATOM      6  C4  PXY d   1       0.734   2.686   0.642  0.00  0.00    -0.082 A 
ATOM      7  C5  PXY d   1       0.796   2.101  -0.573  0.00  0.00     0.003 A 
ATOM      8  C6  PXY d   1      -0.060   2.537  -1.580  0.00  0.00     0.003 A 
ENDROOT
TORSDOF 0
ENDMDL
