MODEL 1
REMARK minimizedAffinity 0.464538395
REMARK minimizedRMSD -1
REMARK  0 active torsions:
REMARK  status: ('A' for Active; 'I' for Inactive)
ROOT
ATOM      1  C4' PXY d   1      -4.120   4.387  -6.000  0.00  0.00     0.077 C 
ATOM      2  C1' PXY d   1      -5.660   1.999  -0.966  0.00  0.00     0.077 C 
ATOM      3  C1  PXY d   1      -5.250   2.635  -2.279  0.00  0.00    -0.082 A 
ATOM      4  C2  PXY d   1      -5.999   2.456  -3.355  0.00  0.00     0.003 A 
ATOM      5  C3  PXY d   1      -5.626   2.997  -4.558  0.00  0.00     0.003 A 
ATOM      6  C4  PXY d   1      -4.501   3.773  -4.650  0.00  0.00    -0.082 A 
ATOM      7  C5  PXY d   1      -3.737   3.968  -3.555  0.00  0.00     0.003 A 
ATOM      8  C6  PXY d   1      -4.111   3.376  -2.352  0.00  0.00     0.003 A 
ENDROOT
TORSDOF 0
ENDMDL
