MODEL 1
REMARK minimizedAffinity 6.16425276
REMARK minimizedRMSD -1
REMARK  0 active torsions:
REMARK  status: ('A' for Active; 'I' for Inactive)
ROOT
ATOM      1  C4' PXY d   1       1.215   5.133  -1.240  0.00  0.00     0.077 C 
ATOM      2  C1' PXY d   1       0.060   1.835   3.365  0.00  0.00     0.077 C 
ATOM      3  C1  PXY d   1       0.351   2.697   2.152  0.00  0.00    -0.082 A 
ATOM      4  C2  PXY d   1       1.605   2.953   1.818  0.00  0.00     0.003 A 
ATOM      5  C3  PXY d   1       1.887   3.757   0.743  0.00  0.00     0.003 A 
ATOM      6  C4  PXY d   1       0.874   4.260  -0.029  0.00  0.00    -0.082 A 
ATOM      7  C5  PXY d   1      -0.408   3.995   0.299  0.00  0.00     0.003 A 
ATOM      8  C6  PXY d   1      -0.673   3.210   1.418  0.00  0.00     0.003 A 
ENDROOT
TORSDOF 0
ENDMDL
