MODEL 1
REMARK minimizedAffinity -1.00688362
REMARK minimizedRMSD -1
REMARK  0 active torsions:
REMARK  status: ('A' for Active; 'I' for Inactive)
ROOT
ATOM      1  C4' PXY d   1      -4.127   4.174  -6.000  0.00  0.00     0.077 C 
ATOM      2  C1' PXY d   1      -5.700   1.697  -1.019  0.00  0.00     0.077 C 
ATOM      3  C1  PXY d   1      -5.275   2.343  -2.323  0.00  0.00    -0.082 A 
ATOM      4  C2  PXY d   1      -5.999   3.327  -2.832  0.00  0.00     0.003 A 
ATOM      5  C3  PXY d   1      -5.647   3.900  -4.027  0.00  0.00     0.003 A 
ATOM      6  C4  PXY d   1      -4.513   3.499  -4.681  0.00  0.00    -0.082 A 
ATOM      7  C5  PXY d   1      -3.763   2.503  -4.162  0.00  0.00     0.003 A 
ATOM      8  C6  PXY d   1      -4.160   1.906  -2.970  0.00  0.00     0.003 A 
ENDROOT
TORSDOF 0
ENDMDL
