MODEL 1
REMARK minimizedAffinity 1.25548208
REMARK minimizedRMSD -1
REMARK  0 active torsions:
REMARK  status: ('A' for Active; 'I' for Inactive)
ROOT
ATOM      1  C4' PXY d   1       1.117   6.000  -2.907  0.00  0.00     0.077 C 
ATOM      2  C1' PXY d   1      -1.130   2.409   1.026  0.00  0.00     0.077 C 
ATOM      3  C1  PXY d   1      -0.552   3.350  -0.013  0.00  0.00    -0.082 A 
ATOM      4  C2  PXY d   1       0.760   3.425  -0.170  0.00  0.00     0.003 A 
ATOM      5  C3  PXY d   1       1.301   4.294  -1.082  0.00  0.00     0.003 A 
ATOM      6  C4  PXY d   1       0.489   5.057  -1.878  0.00  0.00    -0.082 A 
ATOM      7  C5  PXY d   1      -0.850   4.979  -1.731  0.00  0.00     0.003 A 
ATOM      8  C6  PXY d   1      -1.378   4.120  -0.771  0.00  0.00     0.003 A 
ENDROOT
TORSDOF 0
ENDMDL
