MODEL 1
REMARK minimizedAffinity 4.98832226
REMARK minimizedRMSD -1
REMARK  0 active torsions:
REMARK  status: ('A' for Active; 'I' for Inactive)
ROOT
ATOM      1  C4' PXY d   1      -5.999   1.494  -1.110  0.00  0.00     0.077 C 
ATOM      2  C1' PXY d   1      -3.699   4.222  -5.658  0.00  0.00     0.077 C 
ATOM      3  C1  PXY d   1      -4.308   3.518  -4.462  0.00  0.00    -0.082 A 
ATOM      4  C2  PXY d   1      -3.735   2.426  -3.984  0.00  0.00     0.003 A 
ATOM      5  C3  PXY d   1      -4.290   1.758  -2.923  0.00  0.00     0.003 A 
ATOM      6  C4  PXY d   1      -5.414   2.244  -2.310  0.00  0.00    -0.082 A 
ATOM      7  C5  PXY d   1      -5.999   3.364  -2.785  0.00  0.00     0.003 A 
ATOM      8  C6  PXY d   1      -5.443   4.003  -3.889  0.00  0.00     0.003 A 
ENDROOT
TORSDOF 0
ENDMDL
