MODEL 1
REMARK minimizedAffinity 4.48349333
REMARK minimizedRMSD -1
REMARK  0 active torsions:
REMARK  status: ('A' for Active; 'I' for Inactive)
ROOT
ATOM      1  C4' PXY d   1      -0.091  -3.531  -1.966  0.00  0.00     0.077 C 
ATOM      2  C1' PXY d   1       0.185   2.127  -0.816  0.00  0.00     0.077 C 
ATOM      3  C1  PXY d   1       0.103   0.642  -1.109  0.00  0.00    -0.082 A 
ATOM      4  C2  PXY d   1       1.163   0.010  -1.588  0.00  0.00     0.003 A 
ATOM      5  C3  PXY d   1       1.096  -1.326  -1.889  0.00  0.00     0.003 A 
ATOM      6  C4  PXY d   1      -0.051  -2.034  -1.647  0.00  0.00    -0.082 A 
ATOM      7  C5  PXY d   1      -1.132  -1.399  -1.149  0.00  0.00     0.003 A 
ATOM      8  C6  PXY d   1      -1.057  -0.033  -0.889  0.00  0.00     0.003 A 
ENDROOT
TORSDOF 0
ENDMDL
