MODEL 1
REMARK minimizedAffinity 6.84639883
REMARK minimizedRMSD -1
REMARK  0 active torsions:
REMARK  status: ('A' for Active; 'I' for Inactive)
ROOT
ATOM      1  C4' PXY d   1      -1.326   5.594  -0.692  0.00  0.00     0.077 C 
ATOM      2  C1' PXY d   1       1.575   1.565   2.268  0.00  0.00     0.077 C 
ATOM      3  C1  PXY d   1       0.826   2.627   1.488  0.00  0.00    -0.082 A 
ATOM      4  C2  PXY d   1      -0.436   2.890   1.787  0.00  0.00     0.003 A 
ATOM      5  C3  PXY d   1      -1.139   3.825   1.072  0.00  0.00     0.003 A 
ATOM      6  C4  PXY d   1      -0.528   4.536   0.074  0.00  0.00    -0.082 A 
ATOM      7  C5  PXY d   1       0.763   4.282  -0.230  0.00  0.00     0.003 A 
ATOM      8  C6  PXY d   1       1.446   3.300   0.481  0.00  0.00     0.003 A 
ENDROOT
TORSDOF 0
ENDMDL
