MODEL 1
REMARK minimizedAffinity 4.11544228
REMARK minimizedRMSD -1
REMARK  0 active torsions:
REMARK  status: ('A' for Active; 'I' for Inactive)
ROOT
ATOM      1  C4' PXY d   1      -3.375   5.488  -5.363  0.00  0.00     0.077 C 
ATOM      2  C1' PXY d   1      -6.000   1.875  -1.693  0.00  0.00     0.077 C 
ATOM      3  C1  PXY d   1      -5.320   2.819  -2.665  0.00  0.00    -0.082 A 
ATOM      4  C2  PXY d   1      -4.066   3.185  -2.453  0.00  0.00     0.003 A 
ATOM      5  C3  PXY d   1      -3.446   4.063  -3.304  0.00  0.00     0.003 A 
ATOM      6  C4  PXY d   1      -4.098   4.530  -4.414  0.00  0.00    -0.082 A 
ATOM      7  C5  PXY d   1      -5.374   4.152  -4.643  0.00  0.00     0.003 A 
ATOM      8  C6  PXY d   1      -5.999   3.293  -3.745  0.00  0.00     0.003 A 
ENDROOT
TORSDOF 0
ENDMDL
