MODEL 1
REMARK minimizedAffinity 2.32622862
REMARK minimizedRMSD -1
REMARK  0 active torsions:
REMARK  status: ('A' for Active; 'I' for Inactive)
ROOT
ATOM      1  C4' PXY d   1      -3.640   5.102  -6.000  0.00  0.00     0.077 C 
ATOM      2  C1' PXY d   1      -6.000   1.285  -2.356  0.00  0.00     0.077 C 
ATOM      3  C1  PXY d   1      -5.387   2.280  -3.322  0.00  0.00    -0.082 A 
ATOM      4  C2  PXY d   1      -4.270   2.909  -2.992  0.00  0.00     0.003 A 
ATOM      5  C3  PXY d   1      -3.720   3.835  -3.839  0.00  0.00     0.003 A 
ATOM      6  C4  PXY d   1      -4.289   4.082  -5.060  0.00  0.00    -0.082 A 
ATOM      7  C5  PXY d   1      -5.422   3.436  -5.408  0.00  0.00     0.003 A 
ATOM      8  C6  PXY d   1      -5.988   2.530  -4.516  0.00  0.00     0.003 A 
ENDROOT
TORSDOF 0
ENDMDL
