MODEL 1
REMARK minimizedAffinity 0.459366441
REMARK minimizedRMSD -1
REMARK  0 active torsions:
REMARK  status: ('A' for Active; 'I' for Inactive)
ROOT
ATOM      1  C4' PXY d   1       0.322   1.381   2.516  0.00  0.00     0.077 C 
ATOM      2  C1' PXY d   1      -0.529   5.759  -1.161  0.00  0.00     0.077 C 
ATOM      3  C1  PXY d   1      -0.310   4.603  -0.205  0.00  0.00    -0.082 A 
ATOM      4  C2  PXY d   1      -0.311   4.823   1.099  0.00  0.00     0.003 A 
ATOM      5  C3  PXY d   1      -0.083   3.794   1.976  0.00  0.00     0.003 A 
ATOM      6  C4  PXY d   1       0.096   2.517   1.515  0.00  0.00    -0.082 A 
ATOM      7  C5  PXY d   1       0.087   2.282   0.186  0.00  0.00     0.003 A 
ATOM      8  C6  PXY d   1      -0.105   3.348  -0.689  0.00  0.00     0.003 A 
ENDROOT
TORSDOF 0
ENDMDL
