MODEL 1
REMARK minimizedAffinity -5.20714092
REMARK minimizedRMSD -1
REMARK  0 active torsions:
REMARK  status: ('A' for Active; 'I' for Inactive)
ROOT
ATOM      1  C4' PXY d   1       0.352  -0.763  -1.968  0.00  0.00     0.077 C 
ATOM      2  C1' PXY d   1      -0.409   1.351   3.358  0.00  0.00     0.077 C 
ATOM      3  C1  PXY d   1      -0.222   0.792   1.961  0.00  0.00    -0.082 A 
ATOM      4  C2  PXY d   1       0.993   0.481   1.539  0.00  0.00     0.003 A 
ATOM      5  C3  PXY d   1       1.184   0.004   0.268  0.00  0.00     0.003 A 
ATOM      6  C4  PXY d   1       0.115  -0.205  -0.562  0.00  0.00    -0.082 A 
ATOM      7  C5  PXY d   1      -1.129   0.101  -0.135  0.00  0.00     0.003 A 
ATOM      8  C6  PXY d   1      -1.297   0.622   1.145  0.00  0.00     0.003 A 
ENDROOT
TORSDOF 0
ENDMDL
