MODEL 1
REMARK minimizedAffinity -2.83177543
REMARK minimizedRMSD -1
REMARK  0 active torsions:
REMARK  status: ('A' for Active; 'I' for Inactive)
ROOT
ATOM      1  C4' PXY d   1      -3.109  -1.304  -0.235  0.00  0.00     0.077 C 
ATOM      2  C1' PXY d   1      -0.623   1.905   3.880  0.00  0.00     0.077 C 
ATOM      3  C1  PXY d   1      -1.270   1.071   2.792  0.00  0.00    -0.082 A 
ATOM      4  C2  PXY d   1      -2.306   0.303   3.086  0.00  0.00     0.003 A 
ATOM      5  C3  PXY d   1      -2.884  -0.481   2.121  0.00  0.00     0.003 A 
ATOM      6  C4  PXY d   1      -2.430  -0.439   0.830  0.00  0.00    -0.082 A 
ATOM      7  C5  PXY d   1      -1.380   0.351   0.520  0.00  0.00     0.003 A 
ATOM      8  C6  PXY d   1      -0.781   1.108   1.523  0.00  0.00     0.003 A 
ENDROOT
TORSDOF 0
ENDMDL
