MODEL 1
REMARK minimizedAffinity -3.24548864
REMARK minimizedRMSD -1
REMARK  0 active torsions:
REMARK  status: ('A' for Active; 'I' for Inactive)
ROOT
ATOM      1  C4' PXY d   1      -0.737   1.057   2.831  0.00  0.00     0.077 C 
ATOM      2  C1' PXY d   1       0.960  -0.508  -2.469  0.00  0.00     0.077 C 
ATOM      3  C1  PXY d   1       0.522  -0.107  -1.074  0.00  0.00    -0.082 A 
ATOM      4  C2  PXY d   1      -0.592   0.588  -0.913  0.00  0.00     0.003 A 
ATOM      5  C3  PXY d   1      -0.986   0.986   0.339  0.00  0.00     0.003 A 
ATOM      6  C4  PXY d   1      -0.261   0.623   1.442  0.00  0.00    -0.082 A 
ATOM      7  C5  PXY d   1       0.871  -0.096   1.286  0.00  0.00     0.003 A 
ATOM      8  C6  PXY d   1       1.276  -0.455   0.004  0.00  0.00     0.003 A 
ENDROOT
TORSDOF 0
ENDMDL
