MODEL 1
REMARK minimizedAffinity -3.81238365
REMARK minimizedRMSD -1
REMARK  0 active torsions:
REMARK  status: ('A' for Active; 'I' for Inactive)
ROOT
ATOM      1  C4' PXY d   1      -1.475   1.409   2.829  0.00  0.00     0.077 C 
ATOM      2  C1' PXY d   1       0.902  -0.825  -1.943  0.00  0.00     0.077 C 
ATOM      3  C1  PXY d   1       0.289  -0.243  -0.685  0.00  0.00    -0.082 A 
ATOM      4  C2  PXY d   1      -1.025  -0.121  -0.594  0.00  0.00     0.003 A 
ATOM      5  C3  PXY d   1      -1.595   0.433   0.524  0.00  0.00     0.003 A 
ATOM      6  C4  PXY d   1      -0.814   0.818   1.581  0.00  0.00    -0.082 A 
ATOM      7  C5  PXY d   1       0.528   0.687   1.500  0.00  0.00     0.003 A 
ATOM      8  C6  PXY d   1       1.088   0.160   0.340  0.00  0.00     0.003 A 
ENDROOT
TORSDOF 0
ENDMDL
