MODEL 1
REMARK minimizedAffinity -3.35287237
REMARK minimizedRMSD -1
REMARK  0 active torsions:
REMARK  status: ('A' for Active; 'I' for Inactive)
ROOT
ATOM      1  C4' PXY d   1      -3.117  -0.029  -0.151  0.00  0.00     0.077 C 
ATOM      2  C1' PXY d   1       2.114   0.857   2.143  0.00  0.00     0.077 C 
ATOM      3  C1  PXY d   1       0.748   0.626   1.529  0.00  0.00    -0.082 A 
ATOM      4  C2  PXY d   1      -0.339   0.940   2.215  0.00  0.00     0.003 A 
ATOM      5  C3  PXY d   1      -1.584   0.708   1.688  0.00  0.00     0.003 A 
ATOM      6  C4  PXY d   1      -1.716   0.197   0.425  0.00  0.00    -0.082 A 
ATOM      7  C5  PXY d   1      -0.612  -0.117  -0.285  0.00  0.00     0.003 A 
ATOM      8  C6  PXY d   1       0.641   0.088   0.284  0.00  0.00     0.003 A 
ENDROOT
TORSDOF 0
ENDMDL
