MODEL 1
REMARK minimizedAffinity 1.32033908
REMARK minimizedRMSD -1
REMARK  0 active torsions:
REMARK  status: ('A' for Active; 'I' for Inactive)
ROOT
ATOM      1  C4' PXY d   1       1.852   0.913  -3.753  0.00  0.00     0.077 C 
ATOM      2  C1' PXY d   1      -0.694  -0.844   1.129  0.00  0.00     0.077 C 
ATOM      3  C1  PXY d   1      -0.025  -0.396  -0.155  0.00  0.00    -0.082 A 
ATOM      4  C2  PXY d   1       0.572   0.784  -0.204  0.00  0.00     0.003 A 
ATOM      5  C3  PXY d   1       1.155   1.218  -1.366  0.00  0.00     0.003 A 
ATOM      6  C4  PXY d   1       1.172   0.415  -2.475  0.00  0.00    -0.082 A 
ATOM      7  C5  PXY d   1       0.574  -0.794  -2.430  0.00  0.00     0.003 A 
ATOM      8  C6  PXY d   1      -0.048  -1.200  -1.252  0.00  0.00     0.003 A 
ENDROOT
TORSDOF 0
ENDMDL
