MODEL 1
REMARK minimizedAffinity -4.63064861
REMARK minimizedRMSD -1
REMARK  0 active torsions:
REMARK  status: ('A' for Active; 'I' for Inactive)
ROOT
ATOM      1  C4' PXY d   1      -0.606   1.134   3.339  0.00  0.00     0.077 C 
ATOM      2  C1' PXY d   1       0.104  -0.834  -2.050  0.00  0.00     0.077 C 
ATOM      3  C1  PXY d   1      -0.094  -0.313  -0.640  0.00  0.00    -0.082 A 
ATOM      4  C2  PXY d   1       0.959  -0.107   0.135  0.00  0.00     0.003 A 
ATOM      5  C3  PXY d   1       0.796   0.334   1.423  0.00  0.00     0.003 A 
ATOM      6  C4  PXY d   1      -0.454   0.618   1.906  0.00  0.00    -0.082 A 
ATOM      7  C5  PXY d   1      -1.532   0.420   1.118  0.00  0.00     0.003 A 
ATOM      8  C6  PXY d   1      -1.348  -0.067  -0.173  0.00  0.00     0.003 A 
ENDROOT
TORSDOF 0
ENDMDL
