MODEL 1
REMARK minimizedAffinity -3.81011844
REMARK minimizedRMSD -1
REMARK  0 active torsions:
REMARK  status: ('A' for Active; 'I' for Inactive)
ROOT
ATOM      1  C4' PXY d   1       0.658  -0.406  -2.170  0.00  0.00     0.077 C 
ATOM      2  C1' PXY d   1      -0.941   1.593   3.013  0.00  0.00     0.077 C 
ATOM      3  C1  PXY d   1      -0.532   1.061   1.653  0.00  0.00    -0.082 A 
ATOM      4  C2  PXY d   1       0.739   1.105   1.288  0.00  0.00     0.003 A 
ATOM      5  C3  PXY d   1       1.121   0.658   0.050  0.00  0.00     0.003 A 
ATOM      6  C4  PXY d   1       0.201   0.111  -0.803  0.00  0.00    -0.082 A 
ATOM      7  C5  PXY d   1      -1.096   0.052  -0.435  0.00  0.00     0.003 A 
ATOM      8  C6  PXY d   1      -1.470   0.549   0.810  0.00  0.00     0.003 A 
ENDROOT
TORSDOF 0
ENDMDL
