MODEL 1
REMARK minimizedAffinity -5.24574471
REMARK minimizedRMSD -1
REMARK  0 active torsions:
REMARK  status: ('A' for Active; 'I' for Inactive)
ROOT
ATOM      1  C4' PXY d   1      -1.189   1.609   2.975  0.00  0.00     0.077 C 
ATOM      2  C1' PXY d   1       0.441  -1.070  -1.881  0.00  0.00     0.077 C 
ATOM      3  C1  PXY d   1       0.002  -0.365  -0.613  0.00  0.00    -0.082 A 
ATOM      4  C2  PXY d   1       0.913   0.129   0.210  0.00  0.00     0.003 A 
ATOM      5  C3  PXY d   1       0.534   0.741   1.377  0.00  0.00     0.003 A 
ATOM      6  C4  PXY d   1      -0.792   0.897   1.679  0.00  0.00    -0.082 A 
ATOM      7  C5  PXY d   1      -1.728   0.406   0.839  0.00  0.00     0.003 A 
ATOM      8  C6  PXY d   1      -1.322  -0.249  -0.320  0.00  0.00     0.003 A 
ENDROOT
TORSDOF 0
ENDMDL
