MODEL 1
REMARK minimizedAffinity -4.04261351
REMARK minimizedRMSD -1
REMARK  0 active torsions:
REMARK  status: ('A' for Active; 'I' for Inactive)
ROOT
ATOM      1  C4' PXY d   1      -3.501   0.049  -0.650  0.00  0.00     0.077 C 
ATOM      2  C1' PXY d   1       1.006   0.374   2.956  0.00  0.00     0.077 C 
ATOM      3  C1  PXY d   1      -0.169   0.295   2.001  0.00  0.00    -0.082 A 
ATOM      4  C2  PXY d   1      -1.393   0.141   2.481  0.00  0.00     0.003 A 
ATOM      5  C3  PXY d   1      -2.463   0.036   1.630  0.00  0.00     0.003 A 
ATOM      6  C4  PXY d   1      -2.286   0.143   0.277  0.00  0.00    -0.082 A 
ATOM      7  C5  PXY d   1      -1.042   0.311  -0.220  0.00  0.00     0.003 A 
ATOM      8  C6  PXY d   1       0.036   0.374   0.658  0.00  0.00     0.003 A 
ENDROOT
TORSDOF 0
ENDMDL
