MODEL 1
REMARK minimizedAffinity -3.45870519
REMARK minimizedRMSD -1
REMARK  0 active torsions:
REMARK  status: ('A' for Active; 'I' for Inactive)
ROOT
ATOM      1  C4' PXY d   1      -3.094   0.284   0.078  0.00  0.00     0.077 C 
ATOM      2  C1' PXY d   1       2.200   0.256   2.399  0.00  0.00     0.077 C 
ATOM      3  C1  PXY d   1       0.806   0.261   1.802  0.00  0.00    -0.082 A 
ATOM      4  C2  PXY d   1       0.643  -0.023   0.520  0.00  0.00     0.003 A 
ATOM      5  C3  PXY d   1      -0.607   0.008  -0.043  0.00  0.00     0.003 A 
ATOM      6  C4  PXY d   1      -1.707   0.281   0.725  0.00  0.00    -0.082 A 
ATOM      7  C5  PXY d   1      -1.549   0.561   2.036  0.00  0.00     0.003 A 
ATOM      8  C6  PXY d   1      -0.268   0.564   2.580  0.00  0.00     0.003 A 
ENDROOT
TORSDOF 0
ENDMDL
