MODEL 1
REMARK minimizedAffinity -2.04863262
REMARK minimizedRMSD -1
REMARK  0 active torsions:
REMARK  status: ('A' for Active; 'I' for Inactive)
ROOT
ATOM      1  C4' PXY d   1      -2.946  -1.530   3.173  0.00  0.00     0.077 C 
ATOM      2  C1' PXY d   1      -0.702   3.369   1.081  0.00  0.00     0.077 C 
ATOM      3  C1  PXY d   1      -1.301   2.086   1.621  0.00  0.00    -0.082 A 
ATOM      4  C2  PXY d   1      -0.969   1.669   2.832  0.00  0.00     0.003 A 
ATOM      5  C3  PXY d   1      -1.476   0.494   3.324  0.00  0.00     0.003 A 
ATOM      6  C4  PXY d   1      -2.373  -0.235   2.590  0.00  0.00    -0.082 A 
ATOM      7  C5  PXY d   1      -2.725   0.189   1.357  0.00  0.00     0.003 A 
ATOM      8  C6  PXY d   1      -2.167   1.364   0.860  0.00  0.00     0.003 A 
ENDROOT
TORSDOF 0
ENDMDL
