MODEL 1
REMARK minimizedAffinity -2.29847574
REMARK minimizedRMSD -1
REMARK  0 active torsions:
REMARK  status: ('A' for Active; 'I' for Inactive)
ROOT
ATOM      1  C4' PXY d   1      -1.570  -1.415  -6.000  0.00  0.00     0.077 C 
ATOM      2  C1' PXY d   1       2.854   0.964  -3.140  0.00  0.00     0.077 C 
ATOM      3  C1  PXY d   1       1.690   0.334  -3.879  0.00  0.00    -0.082 A 
ATOM      4  C2  PXY d   1       1.725   0.244  -5.199  0.00  0.00     0.003 A 
ATOM      5  C3  PXY d   1       0.667  -0.294  -5.886  0.00  0.00     0.003 A 
ATOM      6  C4  PXY d   1      -0.414  -0.795  -5.211  0.00  0.00    -0.082 A 
ATOM      7  C5  PXY d   1      -0.453  -0.716  -3.864  0.00  0.00     0.003 A 
ATOM      8  C6  PXY d   1       0.613  -0.129  -3.188  0.00  0.00     0.003 A 
ENDROOT
TORSDOF 0
ENDMDL
