MODEL 1
REMARK minimizedAffinity -4.25773954
REMARK minimizedRMSD -1
REMARK  0 active torsions:
REMARK  status: ('A' for Active; 'I' for Inactive)
ROOT
ATOM      1  C4' PXY d   1      -3.059  -1.365  -0.564  0.00  0.00     0.077 C 
ATOM      2  C1' PXY d   1       0.932   1.403   2.571  0.00  0.00     0.077 C 
ATOM      3  C1  PXY d   1      -0.109   0.682   1.738  0.00  0.00    -0.082 A 
ATOM      4  C2  PXY d   1      -1.270   0.353   2.283  0.00  0.00     0.003 A 
ATOM      5  C3  PXY d   1      -2.210  -0.327   1.553  0.00  0.00     0.003 A 
ATOM      6  C4  PXY d   1      -1.981  -0.628   0.237  0.00  0.00    -0.082 A 
ATOM      7  C5  PXY d   1      -0.804  -0.287  -0.329  0.00  0.00     0.003 A 
ATOM      8  C6  PXY d   1       0.154   0.367   0.441  0.00  0.00     0.003 A 
ENDROOT
TORSDOF 0
ENDMDL
