MODEL 1
REMARK minimizedAffinity -4.17109776
REMARK minimizedRMSD -1
REMARK  0 active torsions:
REMARK  status: ('A' for Active; 'I' for Inactive)
ROOT
ATOM      1  C4' PXY d   1      -1.435   0.191   0.464  0.00  0.00     0.077 C 
ATOM      2  C1' PXY d   1       2.132  -0.127  -4.073  0.00  0.00     0.077 C 
ATOM      3  C1  PXY d   1       1.201  -0.055  -2.879  0.00  0.00    -0.082 A 
ATOM      4  C2  PXY d   1       0.085   0.651  -2.961  0.00  0.00     0.003 A 
ATOM      5  C3  PXY d   1      -0.752   0.752  -1.880  0.00  0.00     0.003 A 
ATOM      6  C4  PXY d   1      -0.470   0.082  -0.720  0.00  0.00    -0.082 A 
ATOM      7  C5  PXY d   1       0.661  -0.648  -0.631  0.00  0.00     0.003 A 
ATOM      8  C6  PXY d   1       1.519  -0.705  -1.726  0.00  0.00     0.003 A 
ENDROOT
TORSDOF 0
ENDMDL
