MODEL 1
REMARK minimizedAffinity -3.79656863
REMARK minimizedRMSD -1
REMARK  0 active torsions:
REMARK  status: ('A' for Active; 'I' for Inactive)
ROOT
ATOM      1  C4' PXY d   1       0.001  -0.880  -2.279  0.00  0.00     0.077 C 
ATOM      2  C1' PXY d   1      -0.842   1.857   2.743  0.00  0.00     0.077 C 
ATOM      3  C1  PXY d   1      -0.610   1.145   1.424  0.00  0.00    -0.082 A 
ATOM      4  C2  PXY d   1      -1.641   0.654   0.755  0.00  0.00     0.003 A 
ATOM      5  C3  PXY d   1      -1.446  -0.020  -0.423  0.00  0.00     0.003 A 
ATOM      6  C4  PXY d   1      -0.188  -0.146  -0.948  0.00  0.00    -0.082 A 
ATOM      7  C5  PXY d   1       0.868   0.361  -0.277  0.00  0.00     0.003 A 
ATOM      8  C6  PXY d   1       0.653   1.006   0.938  0.00  0.00     0.003 A 
ENDROOT
TORSDOF 0
ENDMDL
