MODEL 1
REMARK minimizedAffinity 8.15699482
REMARK minimizedRMSD -1
REMARK  1 active torsions:
REMARK  status: ('A' for Active; 'I' for Inactive)
REMARK    1  A    between atoms: C1_2  and  C2_3 
ROOT
ATOM      1  C2  UNL d   1       1.604  -4.504   4.669  0.00  0.00    -0.073 A 
ATOM      2  C3  UNL d   1       1.417  -5.032   3.386  0.00  0.00    -0.002 A 
ATOM      3  C4  UNL d   1       1.543  -4.215   2.262  0.00  0.00     0.004 A 
ATOM      4  C5  UNL d   1       1.862  -2.865   2.408  0.00  0.00    -0.004 A 
ATOM      5  C6  UNL d   1       2.064  -2.321   3.680  0.00  0.00    -0.075 A 
ATOM      6  C7  UNL d   1       2.406  -0.871   3.854  0.00  0.00     0.076 C 
ATOM      7  C8  UNL d   1       1.934  -3.148   4.804  0.00  0.00     0.001 A 
ENDROOT
BRANCH   1   8
ATOM      8  C1  UNL d   1       1.475  -5.384   5.885  0.00  0.00     0.053 C 
ATOM      9  C   UNL d   1       0.090  -5.999   6.000  0.00  0.00     0.018 C 
ENDBRANCH   1   8
TORSDOF 1
ENDMDL
