MODEL 1
REMARK minimizedAffinity 9.9672699
REMARK minimizedRMSD -1
REMARK  1 active torsions:
REMARK  status: ('A' for Active; 'I' for Inactive)
REMARK    1  A    between atoms: C1_2  and  C2_3 
ROOT
ATOM      1  C2  UNL d   1       1.855  -0.346   2.210  0.00  0.00    -0.073 A 
ATOM      2  C3  UNL d   1       1.263   0.513   3.142  0.00  0.00    -0.002 A 
ATOM      3  C4  UNL d   1       1.424   1.895   3.030  0.00  0.00     0.004 A 
ATOM      4  C5  UNL d   1       2.172   2.431   1.981  0.00  0.00    -0.004 A 
ATOM      5  C6  UNL d   1       2.761   1.589   1.032  0.00  0.00    -0.075 A 
ATOM      6  C7  UNL d   1       3.570   2.150  -0.101  0.00  0.00     0.076 C 
ATOM      7  C8  UNL d   1       2.596   0.203   1.154  0.00  0.00     0.001 A 
ENDROOT
BRANCH   1   8
ATOM      8  C1  UNL d   1       1.678  -1.838   2.324  0.00  0.00     0.053 C 
ATOM      9  C   UNL d   1       0.774  -2.218   3.486  0.00  0.00     0.018 C 
ENDBRANCH   1   8
TORSDOF 1
ENDMDL
