MODEL 1
REMARK minimizedAffinity 6.47856379
REMARK minimizedRMSD -1
REMARK  1 active torsions:
REMARK  status: ('A' for Active; 'I' for Inactive)
REMARK    1  A    between atoms: C1_2  and  C2_3 
ROOT
ATOM      1  C2  UNL d   1       1.655  -0.384   2.610  0.00  0.00    -0.073 A 
ATOM      2  C3  UNL d   1       1.423   0.254   3.834  0.00  0.00    -0.002 A 
ATOM      3  C4  UNL d   1       1.922   1.536   4.066  0.00  0.00     0.004 A 
ATOM      4  C5  UNL d   1       2.651   2.196   3.077  0.00  0.00    -0.004 A 
ATOM      5  C6  UNL d   1       2.883   1.580   1.843  0.00  0.00    -0.075 A 
ATOM      6  C7  UNL d   1       3.666   2.276   0.768  0.00  0.00     0.076 C 
ATOM      7  C8  UNL d   1       2.380   0.291   1.618  0.00  0.00     0.001 A 
ENDROOT
BRANCH   1   8
ATOM      8  C1  UNL d   1       1.112  -1.766   2.351  0.00  0.00     0.053 C 
ATOM      9  C   UNL d   1       1.966  -2.844   3.000  0.00  0.00     0.018 C 
ENDBRANCH   1   8
TORSDOF 1
ENDMDL
