MODEL 1
REMARK minimizedAffinity 7.72283745
REMARK minimizedRMSD -1
REMARK  0 active torsions:
REMARK  status: ('A' for Active; 'I' for Inactive)
ROOT
ATOM      1  C4' PXY d   1      -5.434   3.262   3.110  0.00  0.00     0.077 C 
ATOM      2  C1' PXY d   1      -1.175  -0.365   1.655  0.00  0.00     0.077 C 
ATOM      3  C1  PXY d   1      -2.283   0.594   2.042  0.00  0.00    -0.082 A 
ATOM      4  C2  PXY d   1      -3.520   0.145   2.176  0.00  0.00     0.003 A 
ATOM      5  C3  PXY d   1      -4.540   1.004   2.494  0.00  0.00     0.003 A 
ATOM      6  C4  PXY d   1      -4.282   2.328   2.730  0.00  0.00    -0.082 A 
ATOM      7  C5  PXY d   1      -3.021   2.792   2.605  0.00  0.00     0.003 A 
ATOM      8  C6  PXY d   1      -2.007   1.912   2.241  0.00  0.00     0.003 A 
ENDROOT
TORSDOF 0
ENDMDL
