MODEL 1
REMARK minimizedAffinity 16.6811466
REMARK minimizedRMSD -1
REMARK  0 active torsions:
REMARK  status: ('A' for Active; 'I' for Inactive)
ROOT
ATOM      1  C4' PXY d   1      -1.340  -2.998  -6.000  0.00  0.00     0.077 C 
ATOM      2  C1' PXY d   1       2.389   0.501  -3.305  0.00  0.00     0.077 C 
ATOM      3  C1  PXY d   1       1.403  -0.407  -4.012  0.00  0.00    -0.082 A 
ATOM      4  C2  PXY d   1       1.501  -1.718  -3.868  0.00  0.00     0.003 A 
ATOM      5  C3  PXY d   1       0.637  -2.555  -4.526  0.00  0.00     0.003 A 
ATOM      6  C4  PXY d   1      -0.371  -2.043  -5.297  0.00  0.00    -0.082 A 
ATOM      7  C5  PXY d   1      -0.485  -0.706  -5.440  0.00  0.00     0.003 A 
ATOM      8  C6  PXY d   1       0.427   0.126  -4.797  0.00  0.00     0.003 A 
ENDROOT
TORSDOF 0
ENDMDL
