MODEL 1
REMARK minimizedAffinity 4.12608576
REMARK minimizedRMSD -1
REMARK  0 active torsions:
REMARK  status: ('A' for Active; 'I' for Inactive)
ROOT
ATOM      1  C4' PXY d   1      -4.124   2.844   2.692  0.00  0.00     0.077 C 
ATOM      2  C1' PXY d   1      -0.999  -1.739   1.066  0.00  0.00     0.077 C 
ATOM      3  C1  PXY d   1      -1.808  -0.532   1.498  0.00  0.00    -0.082 A 
ATOM      4  C2  PXY d   1      -3.125  -0.624   1.582  0.00  0.00     0.003 A 
ATOM      5  C3  PXY d   1      -3.875   0.467   1.940  0.00  0.00     0.003 A 
ATOM      6  C4  PXY d   1      -3.266   1.649   2.269  0.00  0.00    -0.082 A 
ATOM      7  C5  PXY d   1      -1.921   1.747   2.196  0.00  0.00     0.003 A 
ATOM      8  C6  PXY d   1      -1.182   0.640   1.790  0.00  0.00     0.003 A 
ENDROOT
TORSDOF 0
ENDMDL
