MODEL 1
REMARK minimizedAffinity 6.71119595
REMARK minimizedRMSD -1
REMARK  0 active torsions:
REMARK  status: ('A' for Active; 'I' for Inactive)
ROOT
ATOM      1  C4' PXY d   1       0.558   5.821  -4.882  0.00  0.00     0.077 C 
ATOM      2  C1' PXY d   1       5.998   3.882  -4.643  0.00  0.00     0.077 C 
ATOM      3  C1  PXY d   1       4.570   4.386  -4.718  0.00  0.00    -0.082 A 
ATOM      4  C2  PXY d   1       4.181   5.370  -3.923  0.00  0.00     0.003 A 
ATOM      5  C3  PXY d   1       2.885   5.817  -3.955  0.00  0.00     0.003 A 
ATOM      6  C4  PXY d   1       1.992   5.287  -4.847  0.00  0.00    -0.082 A 
ATOM      7  C5  PXY d   1       2.384   4.290  -5.669  0.00  0.00     0.003 A 
ATOM      8  C6  PXY d   1       3.693   3.823  -5.592  0.00  0.00     0.003 A 
ENDROOT
TORSDOF 0
ENDMDL
