MODEL 1
REMARK minimizedAffinity 12.5067835
REMARK minimizedRMSD -1
REMARK  0 active torsions:
REMARK  status: ('A' for Active; 'I' for Inactive)
ROOT
ATOM      1  C4' PXY d   1      -1.117  -2.995  -6.000  0.00  0.00     0.077 C 
ATOM      2  C1' PXY d   1       2.444   0.646  -3.265  0.00  0.00     0.077 C 
ATOM      3  C1  PXY d   1       1.501  -0.299  -3.984  0.00  0.00    -0.082 A 
ATOM      4  C2  PXY d   1       1.574  -1.599  -3.749  0.00  0.00     0.003 A 
ATOM      5  C3  PXY d   1       0.751  -2.471  -4.414  0.00  0.00     0.003 A 
ATOM      6  C4  PXY d   1      -0.192  -2.003  -5.290  0.00  0.00    -0.082 A 
ATOM      7  C5  PXY d   1      -0.279  -0.677  -5.527  0.00  0.00     0.003 A 
ATOM      8  C6  PXY d   1       0.593   0.188  -4.872  0.00  0.00     0.003 A 
ENDROOT
TORSDOF 0
ENDMDL
