MODEL 1
REMARK minimizedAffinity 10.4458532
REMARK minimizedRMSD -1
REMARK  0 active torsions:
REMARK  status: ('A' for Active; 'I' for Inactive)
ROOT
ATOM      1  C4' PXY d   1      -1.124  -2.914  -5.996  0.00  0.00     0.077 C 
ATOM      2  C1' PXY d   1       1.973   0.960  -3.027  0.00  0.00     0.077 C 
ATOM      3  C1  PXY d   1       1.153  -0.046  -3.809  0.00  0.00    -0.082 A 
ATOM      4  C2  PXY d   1       1.158  -1.318  -3.446  0.00  0.00     0.003 A 
ATOM      5  C3  PXY d   1       0.447  -2.247  -4.162  0.00  0.00     0.003 A 
ATOM      6  C4  PXY d   1      -0.319  -1.861  -5.229  0.00  0.00    -0.082 A 
ATOM      7  C5  PXY d   1      -0.338  -0.564  -5.600  0.00  0.00     0.003 A 
ATOM      8  C6  PXY d   1       0.423   0.357  -4.885  0.00  0.00     0.003 A 
ENDROOT
TORSDOF 0
ENDMDL
