MODEL 1
REMARK minimizedAffinity 15.5450821
REMARK minimizedRMSD -1
REMARK  0 active torsions:
REMARK  status: ('A' for Active; 'I' for Inactive)
ROOT
ATOM      1  C4' PXY d   1      -2.246   0.659   1.407  0.00  0.00     0.077 C 
ATOM      2  C1' PXY d   1      -4.836  -4.257  -0.188  0.00  0.00     0.077 C 
ATOM      3  C1  PXY d   1      -4.148  -2.974   0.238  0.00  0.00    -0.082 A 
ATOM      4  C2  PXY d   1      -4.813  -1.831   0.197  0.00  0.00     0.003 A 
ATOM      5  C3  PXY d   1      -4.197  -0.657   0.548  0.00  0.00     0.003 A 
ATOM      6  C4  PXY d   1      -2.903  -0.662   0.996  0.00  0.00    -0.082 A 
ATOM      7  C5  PXY d   1      -2.221  -1.825   1.051  0.00  0.00     0.003 A 
ATOM      8  C6  PXY d   1      -2.852  -3.000   0.651  0.00  0.00     0.003 A 
ENDROOT
TORSDOF 0
ENDMDL
