MODEL 1
REMARK minimizedAffinity 5.92266035
REMARK minimizedRMSD -1
REMARK  0 active torsions:
REMARK  status: ('A' for Active; 'I' for Inactive)
ROOT
ATOM      1  C4' PXY d   1      -3.647   1.897   1.124  0.00  0.00     0.077 C 
ATOM      2  C1' PXY d   1       0.133  -1.609   3.737  0.00  0.00     0.077 C 
ATOM      3  C1  PXY d   1      -0.850  -0.680   3.053  0.00  0.00    -0.082 A 
ATOM      4  C2  PXY d   1      -2.139  -0.977   3.053  0.00  0.00     0.003 A 
ATOM      5  C3  PXY d   1      -3.038  -0.164   2.412  0.00  0.00     0.003 A 
ATOM      6  C4  PXY d   1      -2.620   0.993   1.810  0.00  0.00    -0.082 A 
ATOM      7  C5  PXY d   1      -1.307   1.308   1.816  0.00  0.00     0.003 A 
ATOM      8  C6  PXY d   1      -0.406   0.449   2.436  0.00  0.00     0.003 A 
ENDROOT
TORSDOF 0
ENDMDL
