MODEL 1
REMARK minimizedAffinity 3.46390939
REMARK minimizedRMSD -1
REMARK  0 active torsions:
REMARK  status: ('A' for Active; 'I' for Inactive)
ROOT
ATOM      1  C4' PXY d   1      -5.983  -1.922  -0.431  0.00  0.00     0.077 C 
ATOM      2  C1' PXY d   1      -5.248  -3.316  -5.992  0.00  0.00     0.077 C 
ATOM      3  C1  PXY d   1      -5.433  -2.940  -4.535  0.00  0.00    -0.082 A 
ATOM      4  C2  PXY d   1      -5.796  -3.866  -3.662  0.00  0.00     0.003 A 
ATOM      5  C3  PXY d   1      -5.998  -3.536  -2.347  0.00  0.00     0.003 A 
ATOM      6  C4  PXY d   1      -5.775  -2.258  -1.910  0.00  0.00    -0.082 A 
ATOM      7  C5  PXY d   1      -5.394  -1.310  -2.793  0.00  0.00     0.003 A 
ATOM      8  C6  PXY d   1      -5.234  -1.656  -4.132  0.00  0.00     0.003 A 
ENDROOT
TORSDOF 0
ENDMDL
