MODEL 1
REMARK minimizedAffinity 7.75581646
REMARK minimizedRMSD -1
REMARK  0 active torsions:
REMARK  status: ('A' for Active; 'I' for Inactive)
ROOT
ATOM      1  C4' PXY d   1       3.341   2.434  -5.997  0.00  0.00     0.077 C 
ATOM      2  C1' PXY d   1      -0.299  -1.946  -5.005  0.00  0.00     0.077 C 
ATOM      3  C1  PXY d   1       0.647  -0.792  -5.273  0.00  0.00    -0.082 A 
ATOM      4  C2  PXY d   1       1.941  -0.939  -5.040  0.00  0.00     0.003 A 
ATOM      5  C3  PXY d   1       2.806   0.104  -5.247  0.00  0.00     0.003 A 
ATOM      6  C4  PXY d   1       2.350   1.293  -5.749  0.00  0.00    -0.082 A 
ATOM      7  C5  PXY d   1       1.032   1.448  -6.000  0.00  0.00     0.003 A 
ATOM      8  C6  PXY d   1       0.165   0.390  -5.744  0.00  0.00     0.003 A 
ENDROOT
TORSDOF 0
ENDMDL
