MODEL 1
REMARK minimizedAffinity 6.28813171
REMARK minimizedRMSD -1
REMARK  0 active torsions:
REMARK  status: ('A' for Active; 'I' for Inactive)
ROOT
ATOM      1  C4' PXY d   1       3.388   0.099  -5.998  0.00  0.00     0.077 C 
ATOM      2  C1' PXY d   1       3.282   5.417  -3.736  0.00  0.00     0.077 C 
ATOM      3  C1  PXY d   1       3.306   4.017  -4.317  0.00  0.00    -0.082 A 
ATOM      4  C2  PXY d   1       4.062   3.760  -5.373  0.00  0.00     0.003 A 
ATOM      5  C3  PXY d   1       4.071   2.508  -5.931  0.00  0.00     0.003 A 
ATOM      6  C4  PXY d   1       3.340   1.495  -5.371  0.00  0.00    -0.082 A 
ATOM      7  C5  PXY d   1       2.575   1.746  -4.288  0.00  0.00     0.003 A 
ATOM      8  C6  PXY d   1       2.547   3.034  -3.761  0.00  0.00     0.003 A 
ENDROOT
TORSDOF 0
ENDMDL
