MODEL 1
REMARK minimizedAffinity 12.5781326
REMARK minimizedRMSD -1
REMARK  0 active torsions:
REMARK  status: ('A' for Active; 'I' for Inactive)
ROOT
ATOM      1  C4' PXY d   1      -1.991  -2.026   3.820  0.00  0.00     0.077 C 
ATOM      2  C1' PXY d   1      -1.988   1.580  -0.697  0.00  0.00     0.077 C 
ATOM      3  C1  PXY d   1      -2.000   0.630   0.484  0.00  0.00    -0.082 A 
ATOM      4  C2  PXY d   1      -1.258   0.897   1.546  0.00  0.00     0.003 A 
ATOM      5  C3  PXY d   1      -1.233   0.032   2.610  0.00  0.00     0.003 A 
ATOM      6  C4  PXY d   1      -2.016  -1.091   2.609  0.00  0.00    -0.082 A 
ATOM      7  C5  PXY d   1      -2.784  -1.365   1.533  0.00  0.00     0.003 A 
ATOM      8  C6  PXY d   1      -2.764  -0.495   0.446  0.00  0.00     0.003 A 
ENDROOT
TORSDOF 0
ENDMDL
