MODEL 1
REMARK minimizedAffinity 10.8853254
REMARK minimizedRMSD -1
REMARK  0 active torsions:
REMARK  status: ('A' for Active; 'I' for Inactive)
ROOT
ATOM      1  C4' PXY d   1      -5.997   2.986   2.098  0.00  0.00     0.077 C 
ATOM      2  C1' PXY d   1      -0.758   0.589   2.576  0.00  0.00     0.077 C 
ATOM      3  C1  PXY d   1      -2.134   1.211   2.439  0.00  0.00    -0.082 A 
ATOM      4  C2  PXY d   1      -2.406   2.343   3.070  0.00  0.00     0.003 A 
ATOM      5  C3  PXY d   1      -3.654   2.903   2.983  0.00  0.00     0.003 A 
ATOM      6  C4  PXY d   1      -4.619   2.327   2.200  0.00  0.00    -0.082 A 
ATOM      7  C5  PXY d   1      -4.346   1.178   1.545  0.00  0.00     0.003 A 
ATOM      8  C6  PXY d   1      -3.085   0.604   1.679  0.00  0.00     0.003 A 
ENDROOT
TORSDOF 0
ENDMDL
