MODEL 1
REMARK minimizedAffinity 10.2886734
REMARK minimizedRMSD -1
REMARK  0 active torsions:
REMARK  status: ('A' for Active; 'I' for Inactive)
ROOT
ATOM      1  C4' PXY d   1      -3.931   3.193   1.264  0.00  0.00     0.077 C 
ATOM      2  C1' PXY d   1       1.311   1.616   3.120  0.00  0.00     0.077 C 
ATOM      3  C1  PXY d   1      -0.063   2.021   2.623  0.00  0.00    -0.082 A 
ATOM      4  C2  PXY d   1      -0.537   3.221   2.918  0.00  0.00     0.003 A 
ATOM      5  C3  PXY d   1      -1.791   3.591   2.504  0.00  0.00     0.003 A 
ATOM      6  C4  PXY d   1      -2.545   2.745   1.736  0.00  0.00    -0.082 A 
ATOM      7  C5  PXY d   1      -2.064   1.524   1.422  0.00  0.00     0.003 A 
ATOM      8  C6  PXY d   1      -0.806   1.151   1.887  0.00  0.00     0.003 A 
ENDROOT
TORSDOF 0
ENDMDL
