MODEL 1
REMARK minimizedAffinity 16.1864834
REMARK minimizedRMSD -1
REMARK  0 active torsions:
REMARK  status: ('A' for Active; 'I' for Inactive)
ROOT
ATOM      1  C4' PXY d   1      -5.092   4.879   5.991  0.00  0.00     0.077 C 
ATOM      2  C1' PXY d   1      -5.700   4.936   0.243  0.00  0.00     0.077 C 
ATOM      3  C1  PXY d   1      -5.541   4.934   1.751  0.00  0.00    -0.082 A 
ATOM      4  C2  PXY d   1      -4.972   3.899   2.347  0.00  0.00     0.003 A 
ATOM      5  C3  PXY d   1      -4.850   3.867   3.712  0.00  0.00     0.003 A 
ATOM      6  C4  PXY d   1      -5.265   4.928   4.471  0.00  0.00    -0.082 A 
ATOM      7  C5  PXY d   1      -5.836   5.993   3.869  0.00  0.00     0.003 A 
ATOM      8  C6  PXY d   1      -5.989   5.988   2.485  0.00  0.00     0.003 A 
ENDROOT
TORSDOF 0
ENDMDL
