MODEL 1
REMARK minimizedAffinity 7.50419331
REMARK minimizedRMSD -1
REMARK  0 active torsions:
REMARK  status: ('A' for Active; 'I' for Inactive)
ROOT
ATOM      1  C4' PXY d   1      -4.658   3.409   0.807  0.00  0.00     0.077 C 
ATOM      2  C1' PXY d   1       0.670   2.057   2.595  0.00  0.00     0.077 C 
ATOM      3  C1  PXY d   1      -0.725   2.405   2.115  0.00  0.00    -0.082 A 
ATOM      4  C2  PXY d   1      -1.332   3.480   2.592  0.00  0.00     0.003 A 
ATOM      5  C3  PXY d   1      -2.606   3.791   2.193  0.00  0.00     0.003 A 
ATOM      6  C4  PXY d   1      -3.246   3.024   1.256  0.00  0.00    -0.082 A 
ATOM      7  C5  PXY d   1      -2.629   1.932   0.757  0.00  0.00     0.003 A 
ATOM      8  C6  PXY d   1      -1.352   1.610   1.206  0.00  0.00     0.003 A 
ENDROOT
TORSDOF 0
ENDMDL
