MODEL 1
REMARK minimizedAffinity 14.3816996
REMARK minimizedRMSD -1
REMARK  0 active torsions:
REMARK  status: ('A' for Active; 'I' for Inactive)
ROOT
ATOM      1  C4' PXY d   1      -2.833   0.367   1.037  0.00  0.00     0.077 C 
ATOM      2  C1' PXY d   1      -4.559  -5.065   0.073  0.00  0.00     0.077 C 
ATOM      3  C1  PXY d   1      -4.118  -3.636   0.321  0.00  0.00    -0.082 A 
ATOM      4  C2  PXY d   1      -2.828  -3.355   0.406  0.00  0.00     0.003 A 
ATOM      5  C3  PXY d   1      -2.412  -2.074   0.662  0.00  0.00     0.003 A 
ATOM      6  C4  PXY d   1      -3.324  -1.060   0.779  0.00  0.00    -0.082 A 
ATOM      7  C5  PXY d   1      -4.642  -1.336   0.682  0.00  0.00     0.003 A 
ATOM      8  C6  PXY d   1      -5.045  -2.650   0.463  0.00  0.00     0.003 A 
ENDROOT
TORSDOF 0
ENDMDL
