MODEL 1
REMARK minimizedAffinity 11.3031197
REMARK minimizedRMSD -1
REMARK  0 active torsions:
REMARK  status: ('A' for Active; 'I' for Inactive)
ROOT
ATOM      1  C4' PXY d   1       1.950  -0.685  -4.000  0.00  0.00     0.077 C 
ATOM      2  C1' PXY d   1       5.048   4.018  -5.302  0.00  0.00     0.077 C 
ATOM      3  C1  PXY d   1       4.240   2.785  -4.948  0.00  0.00    -0.082 A 
ATOM      4  C2  PXY d   1       3.861   1.955  -5.906  0.00  0.00     0.003 A 
ATOM      5  C3  PXY d   1       3.103   0.852  -5.608  0.00  0.00     0.003 A 
ATOM      6  C4  PXY d   1       2.775   0.567  -4.310  0.00  0.00    -0.082 A 
ATOM      7  C5  PXY d   1       3.167   1.404  -3.326  0.00  0.00     0.003 A 
ATOM      8  C6  PXY d   1       3.901   2.540  -3.654  0.00  0.00     0.003 A 
ENDROOT
TORSDOF 0
ENDMDL
