MODEL 1
REMARK minimizedAffinity 11.0952425
REMARK minimizedRMSD -1
REMARK  0 active torsions:
REMARK  status: ('A' for Active; 'I' for Inactive)
ROOT
ATOM      1  C4' PXY d   1      -4.965  -5.659  -0.567  0.00  0.00     0.077 C 
ATOM      2  C1' PXY d   1      -2.570  -0.652   1.048  0.00  0.00     0.077 C 
ATOM      3  C1  PXY d   1      -3.210  -1.960   0.627  0.00  0.00    -0.082 A 
ATOM      4  C2  PXY d   1      -2.519  -3.085   0.716  0.00  0.00     0.003 A 
ATOM      5  C3  PXY d   1      -3.071  -4.272   0.310  0.00  0.00     0.003 A 
ATOM      6  C4  PXY d   1      -4.363  -4.316  -0.144  0.00  0.00    -0.082 A 
ATOM      7  C5  PXY d   1      -5.078  -3.175  -0.228  0.00  0.00     0.003 A 
ATOM      8  C6  PXY d   1      -4.485  -1.974   0.151  0.00  0.00     0.003 A 
ENDROOT
TORSDOF 0
ENDMDL
