MODEL 1
REMARK minimizedAffinity 8.19730568
REMARK minimizedRMSD -1
REMARK  0 active torsions:
REMARK  status: ('A' for Active; 'I' for Inactive)
ROOT
ATOM      1  C4' PXY d   1      -1.487  -3.246   0.638  0.00  0.00     0.077 C 
ATOM      2  C1' PXY d   1      -3.841   2.005   1.187  0.00  0.00     0.077 C 
ATOM      3  C1  PXY d   1      -3.235   0.622   1.042  0.00  0.00    -0.082 A 
ATOM      4  C2  PXY d   1      -2.023   0.386   1.518  0.00  0.00     0.003 A 
ATOM      5  C3  PXY d   1      -1.448  -0.849   1.367  0.00  0.00     0.003 A 
ATOM      6  C4  PXY d   1      -2.141  -1.868   0.771  0.00  0.00    -0.082 A 
ATOM      7  C5  PXY d   1      -3.383  -1.638   0.293  0.00  0.00     0.003 A 
ATOM      8  C6  PXY d   1      -3.933  -0.366   0.419  0.00  0.00     0.003 A 
ENDROOT
TORSDOF 0
ENDMDL
