MODEL 1
REMARK minimizedAffinity -2.42460084
REMARK minimizedRMSD -1
REMARK  0 active torsions:
REMARK  status: ('A' for Active; 'I' for Inactive)
ROOT
ATOM      1  C   UNL d   1      -1.607   2.539   0.351  0.00  0.00    -0.002 A 
ATOM      2  C1  UNL d   1      -1.443   1.643  -0.696  0.00  0.00     0.010 A 
ATOM      3  C2  UNL d   1      -0.491   0.624  -0.616  0.00  0.00     0.041 A 
ATOM      4  C3  UNL d   1       0.299   0.519   0.545  0.00  0.00    -0.075 A 
ATOM      5  S   UNL d   1       1.526  -0.649   0.865  0.00  0.00     0.015 SA
ATOM      6  C4  UNL d   1       1.861   0.013   2.400  0.00  0.00     0.022 A 
ATOM      7  C5  UNL d   1       1.065   1.099   2.677  0.00  0.00     0.026 A 
ATOM      8  C6  UNL d   1       0.152   1.408   1.613  0.00  0.00    -0.082 A 
ATOM      9  C7  UNL d   1      -0.821   2.431   1.502  0.00  0.00     0.045 A 
ENDROOT
TORSDOF 0
ENDMDL
