MODEL 1
REMARK minimizedAffinity 2.28986788
REMARK minimizedRMSD -1
REMARK  0 active torsions:
REMARK  status: ('A' for Active; 'I' for Inactive)
ROOT
ATOM      1  C   UNL d   1      -0.334   1.781   1.531  0.00  0.00    -0.002 A 
ATOM      2  C1  UNL d   1      -0.754   1.097   0.399  0.00  0.00     0.010 A 
ATOM      3  C2  UNL d   1       0.044   0.100  -0.166  0.00  0.00     0.041 A 
ATOM      4  C3  UNL d   1       1.283  -0.202   0.433  0.00  0.00    -0.075 A 
ATOM      5  S   UNL d   1       2.427  -1.384  -0.084  0.00  0.00     0.015 SA
ATOM      6  C4  UNL d   1       3.500  -1.009   1.185  0.00  0.00     0.022 A 
ATOM      7  C5  UNL d   1       3.014  -0.009   1.993  0.00  0.00     0.026 A 
ATOM      8  C6  UNL d   1       1.728   0.473   1.573  0.00  0.00    -0.082 A 
ATOM      9  C7  UNL d   1       0.896   1.479   2.122  0.00  0.00     0.045 A 
ENDROOT
TORSDOF 0
ENDMDL
