MODEL 1
REMARK minimizedAffinity -2.96344686
REMARK minimizedRMSD -1
REMARK  1 active torsions:
REMARK  status: ('A' for Active; 'I' for Inactive)
REMARK    1  A    between atoms: C3_4  and  O_7 
ROOT
ATOM      1  C   UNL d   1      -2.130   1.687  -2.784  0.00  0.00    -0.033 A 
ATOM      2  C1  UNL d   1      -0.874   1.958  -2.238  0.00  0.00     0.039 A 
ATOM      3  C2  UNL d   1      -0.480   1.344  -1.048  0.00  0.00    -0.080 A 
ATOM      4  C3  UNL d   1      -1.351   0.462  -0.414  0.00  0.00     0.150 A 
ATOM      5  C4  UNL d   1      -2.602   0.184  -0.953  0.00  0.00    -0.007 A 
ATOM      6  C5  UNL d   1      -2.994   0.799  -2.142  0.00  0.00     0.039 A 
ENDROOT
BRANCH   4   7
ATOM      7  O   UNL d   1      -1.013  -0.158   0.753  0.00  0.00    -0.526 OA
ATOM      8  H5  UNL d   1      -0.132   0.152   1.021  0.00  0.00     0.418 HD
ENDBRANCH   4   7
TORSDOF 1
ENDMDL
