MODEL 1
REMARK minimizedAffinity -1.78536367
REMARK minimizedRMSD -1
REMARK  1 active torsions:
REMARK  status: ('A' for Active; 'I' for Inactive)
REMARK    1  A    between atoms: C3_4  and  O_7 
ROOT
ATOM      1  C   UNL d   1       1.260   0.665  -1.004  0.00  0.00    -0.033 A 
ATOM      2  C1  UNL d   1       0.041   1.345  -0.962  0.00  0.00     0.039 A 
ATOM      3  C2  UNL d   1      -0.907   1.024   0.012  0.00  0.00    -0.080 A 
ATOM      4  C3  UNL d   1      -0.623   0.023   0.937  0.00  0.00     0.150 A 
ATOM      5  C4  UNL d   1       0.590  -0.656   0.903  0.00  0.00    -0.007 A 
ATOM      6  C5  UNL d   1       1.535  -0.335  -0.070  0.00  0.00     0.039 A 
ENDROOT
BRANCH   4   7
ATOM      7  O   UNL d   1      -1.519  -0.329   1.903  0.00  0.00    -0.526 OA
ATOM      8  H5  UNL d   1      -2.323   0.204   1.785  0.00  0.00     0.418 HD
ENDBRANCH   4   7
TORSDOF 1
ENDMDL
