MODEL 1
REMARK minimizedAffinity -0.473267168
REMARK minimizedRMSD -1
REMARK  1 active torsions:
REMARK  status: ('A' for Active; 'I' for Inactive)
REMARK    1  A    between atoms: C3_4  and  O_7 
ROOT
ATOM      1  C   UNL d   1      -0.611   1.086  -0.481  0.00  0.00    -0.033 A 
ATOM      2  C1  UNL d   1       0.560   1.128  -1.239  0.00  0.00     0.039 A 
ATOM      3  C2  UNL d   1       1.652   0.332  -0.885  0.00  0.00    -0.080 A 
ATOM      4  C3  UNL d   1       1.558  -0.500   0.227  0.00  0.00     0.150 A 
ATOM      5  C4  UNL d   1       0.392  -0.549   0.985  0.00  0.00    -0.007 A 
ATOM      6  C5  UNL d   1      -0.696   0.247   0.630  0.00  0.00     0.039 A 
ENDROOT
BRANCH   4   7
ATOM      7  O   UNL d   1       2.598  -1.292   0.615  0.00  0.00    -0.526 OA
ATOM      8  H5  UNL d   1       3.346  -1.132   0.015  0.00  0.00     0.418 HD
ENDBRANCH   4   7
TORSDOF 1
ENDMDL
