MODEL 1
REMARK minimizedAffinity -1.91605258
REMARK minimizedRMSD -1
REMARK  1 active torsions:
REMARK  status: ('A' for Active; 'I' for Inactive)
REMARK    1  A    between atoms: C3_4  and  O_7 
ROOT
ATOM      1  C   UNL d   1      -0.684   1.018  -0.080  0.00  0.00    -0.033 A 
ATOM      2  C1  UNL d   1      -0.933  -0.085   0.739  0.00  0.00     0.039 A 
ATOM      3  C2  UNL d   1       0.085  -1.002   1.008  0.00  0.00    -0.080 A 
ATOM      4  C3  UNL d   1       1.346  -0.804   0.454  0.00  0.00     0.150 A 
ATOM      5  C4  UNL d   1       1.603   0.295  -0.359  0.00  0.00    -0.007 A 
ATOM      6  C5  UNL d   1       0.585   1.209  -0.628  0.00  0.00     0.039 A 
ENDROOT
BRANCH   4   7
ATOM      7  O   UNL d   1       2.370  -1.674   0.684  0.00  0.00    -0.526 OA
ATOM      8  H5  UNL d   1       2.039  -2.400   1.240  0.00  0.00     0.418 HD
ENDBRANCH   4   7
TORSDOF 1
ENDMDL
