MODEL 1
REMARK minimizedAffinity -0.64602536
REMARK minimizedRMSD -1
REMARK  1 active torsions:
REMARK  status: ('A' for Active; 'I' for Inactive)
REMARK    1  A    between atoms: C3_4  and  O_7 
ROOT
ATOM      1  C   UNL d   1      -2.158   1.834  -2.620  0.00  0.00    -0.033 A 
ATOM      2  C1  UNL d   1      -2.568   0.675  -1.957  0.00  0.00     0.039 A 
ATOM      3  C2  UNL d   1      -1.749   0.099  -0.984  0.00  0.00    -0.080 A 
ATOM      4  C3  UNL d   1      -0.525   0.690  -0.684  0.00  0.00     0.150 A 
ATOM      5  C4  UNL d   1      -0.112   1.847  -1.338  0.00  0.00    -0.007 A 
ATOM      6  C5  UNL d   1      -0.931   2.420  -2.309  0.00  0.00     0.039 A 
ENDROOT
BRANCH   4   7
ATOM      7  O   UNL d   1       0.310   0.162   0.255  0.00  0.00    -0.526 OA
ATOM      8  H5  UNL d   1      -0.093  -0.651   0.603  0.00  0.00     0.418 HD
ENDBRANCH   4   7
TORSDOF 1
ENDMDL
