MODEL 1
REMARK minimizedAffinity -2.38989806
REMARK minimizedRMSD -1
REMARK  1 active torsions:
REMARK  status: ('A' for Active; 'I' for Inactive)
REMARK    1  A    between atoms: C3_4  and  O_7 
ROOT
ATOM      1  C   UNL d   1       1.166   0.629  -0.523  0.00  0.00    -0.033 A 
ATOM      2  C1  UNL d   1       1.434  -0.420   0.358  0.00  0.00     0.039 A 
ATOM      3  C2  UNL d   1       0.433  -0.894   1.208  0.00  0.00    -0.080 A 
ATOM      4  C3  UNL d   1      -0.830  -0.311   1.166  0.00  0.00     0.150 A 
ATOM      5  C4  UNL d   1      -1.106   0.733   0.289  0.00  0.00    -0.007 A 
ATOM      6  C5  UNL d   1      -0.104   1.205  -0.559  0.00  0.00     0.039 A 
ENDROOT
BRANCH   4   7
ATOM      7  O   UNL d   1      -1.838  -0.736   1.980  0.00  0.00    -0.526 OA
ATOM      8  H5  UNL d   1      -1.495  -1.442   2.552  0.00  0.00     0.418 HD
ENDBRANCH   4   7
TORSDOF 1
ENDMDL
