MODEL 1
REMARK minimizedAffinity -3.44793797
REMARK minimizedRMSD -1
REMARK  1 active torsions:
REMARK  status: ('A' for Active; 'I' for Inactive)
REMARK    1  A    between atoms: C3_4  and  O_7 
ROOT
ATOM      1  C   UNL d   1       2.317  -0.765  -0.174  0.00  0.00    -0.033 A 
ATOM      2  C1  UNL d   1       1.445   0.233  -0.616  0.00  0.00     0.039 A 
ATOM      3  C2  UNL d   1       0.229   0.440   0.038  0.00  0.00    -0.080 A 
ATOM      4  C3  UNL d   1      -0.102  -0.355   1.132  0.00  0.00     0.150 A 
ATOM      5  C4  UNL d   1       0.763  -1.348   1.579  0.00  0.00    -0.007 A 
ATOM      6  C5  UNL d   1       1.976  -1.554   0.924  0.00  0.00     0.039 A 
ENDROOT
BRANCH   4   7
ATOM      7  O   UNL d   1      -1.280  -0.194   1.799  0.00  0.00    -0.526 OA
ATOM      8  H5  UNL d   1      -1.788   0.509   1.361  0.00  0.00     0.418 HD
ENDBRANCH   4   7
TORSDOF 1
ENDMDL
