MODEL 1
REMARK minimizedAffinity -4.0700717
REMARK minimizedRMSD -1
REMARK  1 active torsions:
REMARK  status: ('A' for Active; 'I' for Inactive)
REMARK    1  A    between atoms: C3_4  and  O_7 
ROOT
ATOM      1  C   UNL d   1       2.223  -0.025  -0.307  0.00  0.00    -0.033 A 
ATOM      2  C1  UNL d   1       1.191   0.709  -0.894  0.00  0.00     0.039 A 
ATOM      3  C2  UNL d   1      -0.138   0.331  -0.693  0.00  0.00    -0.080 A 
ATOM      4  C3  UNL d   1      -0.421  -0.781   0.096  0.00  0.00     0.150 A 
ATOM      5  C4  UNL d   1       0.602  -1.514   0.687  0.00  0.00    -0.007 A 
ATOM      6  C5  UNL d   1       1.929  -1.136   0.485  0.00  0.00     0.039 A 
ENDROOT
BRANCH   4   7
ATOM      7  O   UNL d   1      -1.702  -1.191   0.316  0.00  0.00    -0.526 OA
ATOM      8  H5  UNL d   1      -2.302  -0.606  -0.178  0.00  0.00     0.418 HD
ENDBRANCH   4   7
TORSDOF 1
ENDMDL
