MODEL 1
REMARK minimizedAffinity -5.4223299
REMARK minimizedRMSD -1
REMARK  1 active torsions:
REMARK  status: ('A' for Active; 'I' for Inactive)
REMARK    1  A    between atoms: C3_4  and  O_7 
ROOT
ATOM      1  C   UNL d   1      -1.402  -1.013   1.466  0.00  0.00    -0.033 A 
ATOM      2  C1  UNL d   1      -0.544  -0.687   0.414  0.00  0.00     0.039 A 
ATOM      3  C2  UNL d   1       0.607  -1.445   0.189  0.00  0.00    -0.080 A 
ATOM      4  C3  UNL d   1       0.886  -2.527   1.020  0.00  0.00     0.150 A 
ATOM      5  C4  UNL d   1       0.033  -2.860   2.067  0.00  0.00    -0.007 A 
ATOM      6  C5  UNL d   1      -1.115  -2.101   2.291  0.00  0.00     0.039 A 
ENDROOT
BRANCH   4   7
ATOM      7  O   UNL d   1       1.999  -3.293   0.842  0.00  0.00    -0.526 OA
ATOM      8  H5  UNL d   1       2.509  -2.928   0.100  0.00  0.00     0.418 HD
ENDBRANCH   4   7
TORSDOF 1
ENDMDL
