MODEL 1
REMARK minimizedAffinity -3.60429907
REMARK minimizedRMSD -1
REMARK  1 active torsions:
REMARK  status: ('A' for Active; 'I' for Inactive)
REMARK    1  A    between atoms: C3_4  and  O_7 
ROOT
ATOM      1  C   UNL d   1       0.913   0.594  -0.617  0.00  0.00    -0.033 A 
ATOM      2  C1  UNL d   1       1.267  -0.399   0.299  0.00  0.00     0.039 A 
ATOM      3  C2  UNL d   1       0.366  -0.788   1.292  0.00  0.00    -0.080 A 
ATOM      4  C3  UNL d   1      -0.885  -0.179   1.356  0.00  0.00     0.150 A 
ATOM      5  C4  UNL d   1      -1.245   0.808   0.444  0.00  0.00    -0.007 A 
ATOM      6  C5  UNL d   1      -0.343   1.196  -0.545  0.00  0.00     0.039 A 
ENDROOT
BRANCH   4   7
ATOM      7  O   UNL d   1      -1.796  -0.522   2.310  0.00  0.00    -0.526 OA
ATOM      8  H5  UNL d   1      -1.398  -1.195   2.888  0.00  0.00     0.418 HD
ENDBRANCH   4   7
TORSDOF 1
ENDMDL
