MODEL 1
REMARK minimizedAffinity -4.50549889
REMARK minimizedRMSD -1
REMARK  1 active torsions:
REMARK  status: ('A' for Active; 'I' for Inactive)
REMARK    1  A    between atoms: C3_4  and  O_7 
ROOT
ATOM      1  C   UNL d   1      -1.790  -0.281   0.395  0.00  0.00    -0.033 A 
ATOM      2  C1  UNL d   1      -2.913  -0.534  -0.396  0.00  0.00     0.039 A 
ATOM      3  C2  UNL d   1      -3.033   0.064  -1.651  0.00  0.00    -0.080 A 
ATOM      4  C3  UNL d   1      -2.026   0.912  -2.104  0.00  0.00     0.150 A 
ATOM      5  C4  UNL d   1      -0.903   1.165  -1.323  0.00  0.00    -0.007 A 
ATOM      6  C5  UNL d   1      -0.785   0.568  -0.069  0.00  0.00     0.039 A 
ENDROOT
BRANCH   4   7
ATOM      7  O   UNL d   1      -2.101   1.522  -3.321  0.00  0.00    -0.526 OA
ATOM      8  H5  UNL d   1      -2.945   1.277  -3.736  0.00  0.00     0.418 HD
ENDBRANCH   4   7
TORSDOF 1
ENDMDL
