MODEL 1
REMARK minimizedAffinity -0.262778014
REMARK minimizedRMSD -1
REMARK  1 active torsions:
REMARK  status: ('A' for Active; 'I' for Inactive)
REMARK    1  A    between atoms: C3_4  and  O_7 
ROOT
ATOM      1  C   UNL d   1      -1.172  -1.235   3.214  0.00  0.00    -0.033 A 
ATOM      2  C1  UNL d   1      -2.087  -0.672   2.323  0.00  0.00     0.039 A 
ATOM      3  C2  UNL d   1      -1.649  -0.158   1.101  0.00  0.00    -0.080 A 
ATOM      4  C3  UNL d   1      -0.295  -0.215   0.782  0.00  0.00     0.150 A 
ATOM      5  C4  UNL d   1       0.622  -0.778   1.664  0.00  0.00    -0.007 A 
ATOM      6  C5  UNL d   1       0.182  -1.290   2.884  0.00  0.00     0.039 A 
ENDROOT
BRANCH   4   7
ATOM      7  O   UNL d   1       0.181   0.278  -0.396  0.00  0.00    -0.526 OA
ATOM      8  H5  UNL d   1      -0.562   0.662  -0.892  0.00  0.00     0.418 HD
ENDBRANCH   4   7
TORSDOF 1
ENDMDL
