MODEL 1
REMARK minimizedAffinity -2.70852566
REMARK minimizedRMSD -1
REMARK  1 active torsions:
REMARK  status: ('A' for Active; 'I' for Inactive)
REMARK    1  A    between atoms: C3_4  and  O_7 
ROOT
ATOM      1  C   UNL d   1      -2.847   1.077  -2.399  0.00  0.00    -0.033 A 
ATOM      2  C1  UNL d   1      -3.360   0.081  -1.565  0.00  0.00     0.039 A 
ATOM      3  C2  UNL d   1      -2.713  -0.230  -0.367  0.00  0.00    -0.080 A 
ATOM      4  C3  UNL d   1      -1.558   0.462  -0.014  0.00  0.00     0.150 A 
ATOM      5  C4  UNL d   1      -1.044   1.458  -0.838  0.00  0.00    -0.007 A 
ATOM      6  C5  UNL d   1      -1.690   1.766  -2.035  0.00  0.00     0.039 A 
ENDROOT
BRANCH   4   7
ATOM      7  O   UNL d   1      -0.890   0.191   1.143  0.00  0.00    -0.526 OA
ATOM      8  H5  UNL d   1      -1.344  -0.539   1.596  0.00  0.00     0.418 HD
ENDBRANCH   4   7
TORSDOF 1
ENDMDL
