MODEL 1
REMARK minimizedAffinity -0.887537599
REMARK minimizedRMSD -1
REMARK  0 active torsions:
REMARK  status: ('A' for Active; 'I' for Inactive)
ROOT
ATOM      1  C   UNL d   1      -0.573  -0.504  -0.356  0.00  0.00     0.124 A 
ATOM      2  C1  UNL d   1       0.160  -1.195  -1.312  0.00  0.00     0.062 A 
ATOM      3  C2  UNL d   1       1.494  -1.514  -1.075  0.00  0.00     0.162 A 
ATOM      4  C3  UNL d   1       2.104  -1.144   0.124  0.00  0.00    -0.034 A 
ATOM      5  C4  UNL d   1       1.361  -0.448   1.079  0.00  0.00     0.162 A 
ATOM      6  C5  UNL d   1       0.028  -0.132   0.838  0.00  0.00     0.062 A 
ATOM      7  F   UNL d   1      -0.678   0.536   1.762  0.00  0.00    -0.097 F 
ATOM      8  F1  UNL d   1       1.917  -0.077   2.242  0.00  0.00    -0.096 F 
ATOM      9  I   UNL d   1       4.099  -1.619   0.481  0.00  0.00    -0.060 I 
ATOM     10  F2  UNL d   1       2.178  -2.182  -2.016  0.00  0.00    -0.096 F 
ATOM     11  F3  UNL d   1      -0.418  -1.555  -2.466  0.00  0.00    -0.097 F 
ATOM     12  F4  UNL d   1      -1.856  -0.197  -0.587  0.00  0.00    -0.092 F 
ENDROOT
TORSDOF 0
ENDMDL
