MODEL 1
REMARK minimizedAffinity -1.9005177
REMARK minimizedRMSD -1
REMARK  0 active torsions:
REMARK  status: ('A' for Active; 'I' for Inactive)
ROOT
ATOM      1  C   UNL d   1       1.405   0.405  -0.432  0.00  0.00     0.124 A 
ATOM      2  C1  UNL d   1       1.358  -0.092   0.863  0.00  0.00     0.062 A 
ATOM      3  C2  UNL d   1       0.133  -0.384   1.457  0.00  0.00     0.162 A 
ATOM      4  C3  UNL d   1      -1.055  -0.181   0.754  0.00  0.00    -0.034 A 
ATOM      5  C4  UNL d   1      -0.999   0.319  -0.548  0.00  0.00     0.162 A 
ATOM      6  C5  UNL d   1       0.227   0.610  -1.136  0.00  0.00     0.062 A 
ATOM      7  F   UNL d   1       0.271   1.089  -2.388  0.00  0.00    -0.097 F 
ATOM      8  F1  UNL d   1      -2.122   0.526  -1.251  0.00  0.00    -0.096 F 
ATOM      9  I   UNL d   1      -2.888  -0.617   1.638  0.00  0.00    -0.060 I 
ATOM     10  F2  UNL d   1       0.117  -0.862   2.710  0.00  0.00    -0.096 F 
ATOM     11  F3  UNL d   1       2.495  -0.289   1.546  0.00  0.00    -0.097 F 
ATOM     12  F4  UNL d   1       2.585   0.686  -1.000  0.00  0.00    -0.092 F 
ENDROOT
TORSDOF 0
ENDMDL
