MODEL 1
REMARK minimizedAffinity 17.9740448
REMARK minimizedRMSD -1
REMARK  0 active torsions:
REMARK  status: ('A' for Active; 'I' for Inactive)
ROOT
ATOM      1  C   UNL d   1       1.920   0.463  -0.982  0.00  0.00     0.124 A 
ATOM      2  C1  UNL d   1       1.598  -0.682  -0.267  0.00  0.00     0.062 A 
ATOM      3  C2  UNL d   1       0.320  -0.840   0.262  0.00  0.00     0.162 A 
ATOM      4  C3  UNL d   1      -0.646   0.149   0.078  0.00  0.00    -0.034 A 
ATOM      5  C4  UNL d   1      -0.314   1.298  -0.642  0.00  0.00     0.162 A 
ATOM      6  C5  UNL d   1       0.964   1.452  -1.169  0.00  0.00     0.062 A 
ATOM      7  F   UNL d   1       1.273   2.559  -1.859  0.00  0.00    -0.097 F 
ATOM      8  F1  UNL d   1      -1.219   2.269  -0.838  0.00  0.00    -0.096 F 
ATOM      9  I   UNL d   1      -2.557  -0.084   0.868  0.00  0.00    -0.060 I 
ATOM     10  F2  UNL d   1       0.037  -1.957   0.949  0.00  0.00    -0.096 F 
ATOM     11  F3  UNL d   1       2.520  -1.638  -0.085  0.00  0.00    -0.097 F 
ATOM     12  F4  UNL d   1       3.150   0.614  -1.490  0.00  0.00    -0.092 F 
ENDROOT
TORSDOF 0
ENDMDL
