MODEL 1
REMARK minimizedAffinity 9.31139755
REMARK minimizedRMSD -1
REMARK  0 active torsions:
REMARK  status: ('A' for Active; 'I' for Inactive)
ROOT
ATOM      1  C   UNL d   1       4.110   3.023   1.974  0.00  0.00     0.124 A 
ATOM      2  C1  UNL d   1       4.947   4.107   2.198  0.00  0.00     0.062 A 
ATOM      3  C2  UNL d   1       4.716   4.959   3.274  0.00  0.00     0.162 A 
ATOM      4  C3  UNL d   1       3.643   4.729   4.136  0.00  0.00    -0.034 A 
ATOM      5  C4  UNL d   1       2.806   3.637   3.904  0.00  0.00     0.162 A 
ATOM      6  C5  UNL d   1       3.041   2.789   2.826  0.00  0.00     0.062 A 
ATOM      7  F   UNL d   1       2.231   1.741   2.611  0.00  0.00    -0.097 F 
ATOM      8  F1  UNL d   1       1.765   3.386   4.713  0.00  0.00    -0.096 F 
ATOM      9  I   UNL d   1       3.295   6.000   5.747  0.00  0.00    -0.060 I 
ATOM     10  F2  UNL d   1       5.541   5.999   3.467  0.00  0.00    -0.096 F 
ATOM     11  F3  UNL d   1       5.980   4.336   1.375  0.00  0.00    -0.097 F 
ATOM     12  F4  UNL d   1       4.334   2.206   0.937  0.00  0.00    -0.092 F 
ENDROOT
TORSDOF 0
ENDMDL
