MODEL 1
REMARK minimizedAffinity 9.52164841
REMARK minimizedRMSD -1
REMARK  0 active torsions:
REMARK  status: ('A' for Active; 'I' for Inactive)
ROOT
ATOM      1  C   UNL d   1      -2.353  -0.459   0.499  0.00  0.00     0.124 A 
ATOM      2  C1  UNL d   1      -1.727  -0.710  -0.714  0.00  0.00     0.062 A 
ATOM      3  C2  UNL d   1      -0.337  -0.742  -0.791  0.00  0.00     0.162 A 
ATOM      4  C3  UNL d   1       0.436  -0.523   0.349  0.00  0.00    -0.034 A 
ATOM      5  C4  UNL d   1      -0.201  -0.270   1.566  0.00  0.00     0.162 A 
ATOM      6  C5  UNL d   1      -1.590  -0.239   1.637  0.00  0.00     0.062 A 
ATOM      7  F   UNL d   1      -2.193   0.004   2.810  0.00  0.00    -0.097 F 
ATOM      8  F1  UNL d   1       0.512  -0.056   2.681  0.00  0.00    -0.096 F 
ATOM      9  I   UNL d   1       2.514  -0.570   0.238  0.00  0.00    -0.060 I 
ATOM     10  F2  UNL d   1       0.241  -0.987  -1.976  0.00  0.00    -0.096 F 
ATOM     11  F3  UNL d   1      -2.462  -0.922  -1.815  0.00  0.00    -0.097 F 
ATOM     12  F4  UNL d   1      -3.690  -0.428   0.570  0.00  0.00    -0.092 F 
ENDROOT
TORSDOF 0
ENDMDL
