MODEL 1
REMARK minimizedAffinity 15.1427736
REMARK minimizedRMSD -1
REMARK  0 active torsions:
REMARK  status: ('A' for Active; 'I' for Inactive)
ROOT
ATOM      1  C   UNL d   1       1.056  -0.851   1.048  0.00  0.00     0.124 A 
ATOM      2  C1  UNL d   1       0.526  -1.222   2.276  0.00  0.00     0.062 A 
ATOM      3  C2  UNL d   1      -0.851  -1.345   2.436  0.00  0.00     0.162 A 
ATOM      4  C3  UNL d   1      -1.709  -1.099   1.364  0.00  0.00    -0.034 A 
ATOM      5  C4  UNL d   1      -1.168  -0.725   0.132  0.00  0.00     0.162 A 
ATOM      6  C5  UNL d   1       0.209  -0.603  -0.022  0.00  0.00     0.062 A 
ATOM      7  F   UNL d   1       0.719  -0.245  -1.210  0.00  0.00    -0.097 F 
ATOM      8  F1  UNL d   1      -1.964  -0.480  -0.920  0.00  0.00    -0.096 F 
ATOM      9  I   UNL d   1      -3.769  -1.282   1.598  0.00  0.00    -0.060 I 
ATOM     10  F2  UNL d   1      -1.336  -1.705   3.634  0.00  0.00    -0.096 F 
ATOM     11  F3  UNL d   1       1.342  -1.461   3.313  0.00  0.00    -0.097 F 
ATOM     12  F4  UNL d   1       2.381  -0.732   0.898  0.00  0.00    -0.092 F 
ENDROOT
TORSDOF 0
ENDMDL
