MODEL 1
REMARK minimizedAffinity 3.34309793
REMARK minimizedRMSD -1
REMARK  0 active torsions:
REMARK  status: ('A' for Active; 'I' for Inactive)
ROOT
ATOM      1  C   UNL d   1      -0.585  -0.646   0.894  0.00  0.00     0.124 A 
ATOM      2  C1  UNL d   1      -0.018  -1.377   1.929  0.00  0.00     0.062 A 
ATOM      3  C2  UNL d   1       1.099  -2.173   1.694  0.00  0.00     0.162 A 
ATOM      4  C3  UNL d   1       1.658  -2.242   0.418  0.00  0.00    -0.034 A 
ATOM      5  C4  UNL d   1       1.082  -1.505  -0.618  0.00  0.00     0.162 A 
ATOM      6  C5  UNL d   1      -0.035  -0.711  -0.378  0.00  0.00     0.062 A 
ATOM      7  F   UNL d   1      -0.581  -0.006  -1.380  0.00  0.00    -0.097 F 
ATOM      8  F1  UNL d   1       1.594  -1.549  -1.857  0.00  0.00    -0.096 F 
ATOM      9  I   UNL d   1       3.328  -3.432   0.062  0.00  0.00    -0.060 I 
ATOM     10  F2  UNL d   1       1.626  -2.868   2.713  0.00  0.00    -0.096 F 
ATOM     11  F3  UNL d   1      -0.548  -1.317   3.159  0.00  0.00    -0.097 F 
ATOM     12  F4  UNL d   1      -1.660   0.118   1.123  0.00  0.00    -0.092 F 
ENDROOT
TORSDOF 0
ENDMDL
