MODEL 1
REMARK minimizedAffinity 8.56421566
REMARK minimizedRMSD -1
REMARK  0 active torsions:
REMARK  status: ('A' for Active; 'I' for Inactive)
ROOT
ATOM      1  C   UNL d   1      -1.697  -0.125   1.692  0.00  0.00     0.124 A 
ATOM      2  C1  UNL d   1      -0.976  -0.778   2.684  0.00  0.00     0.062 A 
ATOM      3  C2  UNL d   1       0.196  -1.456   2.365  0.00  0.00     0.162 A 
ATOM      4  C3  UNL d   1       0.657  -1.486   1.049  0.00  0.00    -0.034 A 
ATOM      5  C4  UNL d   1      -0.073  -0.828   0.057  0.00  0.00     0.162 A 
ATOM      6  C5  UNL d   1      -1.245  -0.151   0.381  0.00  0.00     0.062 A 
ATOM      7  F   UNL d   1      -1.939   0.478  -0.578  0.00  0.00    -0.097 F 
ATOM      8  F1  UNL d   1       0.341  -0.836  -1.218  0.00  0.00    -0.096 F 
ATOM      9  I   UNL d   1       2.410  -2.500   0.568  0.00  0.00    -0.060 I 
ATOM     10  F2  UNL d   1       0.872  -2.078   3.343  0.00  0.00    -0.096 F 
ATOM     11  F3  UNL d   1      -1.412  -0.755   3.952  0.00  0.00    -0.097 F 
ATOM     12  F4  UNL d   1      -2.825   0.526   2.002  0.00  0.00    -0.092 F 
ENDROOT
TORSDOF 0
ENDMDL
