MODEL 1
REMARK minimizedAffinity 12.9536686
REMARK minimizedRMSD -1
REMARK  0 active torsions:
REMARK  status: ('A' for Active; 'I' for Inactive)
ROOT
ATOM      1  C   UNL d   1       1.660  -1.378   0.466  0.00  0.00     0.124 A 
ATOM      2  C1  UNL d   1       0.843  -1.276  -0.651  0.00  0.00     0.062 A 
ATOM      3  C2  UNL d   1      -0.508  -0.971  -0.505  0.00  0.00     0.162 A 
ATOM      4  C3  UNL d   1      -1.050  -0.766   0.763  0.00  0.00    -0.034 A 
ATOM      5  C4  UNL d   1      -0.222  -0.872   1.882  0.00  0.00     0.162 A 
ATOM      6  C5  UNL d   1       1.127  -1.176   1.731  0.00  0.00     0.062 A 
ATOM      7  F   UNL d   1       1.915  -1.275   2.812  0.00  0.00    -0.097 F 
ATOM      8  F1  UNL d   1      -0.710  -0.680   3.117  0.00  0.00    -0.096 F 
ATOM      9  I   UNL d   1      -3.068  -0.310   0.986  0.00  0.00    -0.060 I 
ATOM     10  F2  UNL d   1      -1.274  -0.878  -1.602  0.00  0.00    -0.096 F 
ATOM     11  F3  UNL d   1       1.355  -1.471  -1.875  0.00  0.00    -0.097 F 
ATOM     12  F4  UNL d   1       2.958  -1.673   0.323  0.00  0.00    -0.092 F 
ENDROOT
TORSDOF 0
ENDMDL
