MODEL 1
REMARK minimizedAffinity 4.97582722
REMARK minimizedRMSD -1
REMARK  0 active torsions:
REMARK  status: ('A' for Active; 'I' for Inactive)
ROOT
ATOM      1  C   UNL d   1       1.188   1.871   1.527  0.00  0.00     0.023 A 
ATOM      2  C1  UNL d   1       2.448   1.316   1.753  0.00  0.00     0.003 A 
ATOM      3  C2  UNL d   1       3.418   1.350   0.748  0.00  0.00     0.048 A 
ATOM      4  C3  UNL d   1       3.121   1.942  -0.479  0.00  0.00     0.023 A 
ATOM      5  C4  UNL d   1       1.862   2.499  -0.709  0.00  0.00     0.048 A 
ATOM      6  C5  UNL d   1       0.895   2.461   0.297  0.00  0.00     0.003 A 
ATOM      7  I   UNL d   1       4.562   1.994  -1.976  0.00  0.00    -0.146 I 
ENDROOT
TORSDOF 0
ENDMDL
