MODEL 1
REMARK minimizedAffinity 7.40854979
REMARK minimizedRMSD -1
REMARK  0 active torsions:
REMARK  status: ('A' for Active; 'I' for Inactive)
ROOT
ATOM      1  C   UNL d   1       1.149  -5.984  -4.626  0.00  0.00     0.023 A 
ATOM      2  C1  UNL d   1       1.933  -5.877  -3.478  0.00  0.00     0.003 A 
ATOM      3  C2  UNL d   1       3.323  -5.786  -3.585  0.00  0.00     0.048 A 
ATOM      4  C3  UNL d   1       3.921  -5.802  -4.845  0.00  0.00     0.023 A 
ATOM      5  C4  UNL d   1       3.140  -5.908  -5.997  0.00  0.00     0.048 A 
ATOM      6  C5  UNL d   1       1.751  -5.999  -5.884  0.00  0.00     0.003 A 
ATOM      7  I   UNL d   1       5.988  -5.667  -5.008  0.00  0.00    -0.146 I 
ENDROOT
TORSDOF 0
ENDMDL
