MODEL 1
REMARK minimizedAffinity 8.31059933
REMARK minimizedRMSD -1
REMARK  0 active torsions:
REMARK  status: ('A' for Active; 'I' for Inactive)
ROOT
ATOM      1  C   UNL d   1       3.083   1.653   3.172  0.00  0.00     0.023 A 
ATOM      2  C1  UNL d   1       4.475   1.695   3.109  0.00  0.00     0.003 A 
ATOM      3  C2  UNL d   1       5.112   1.999   1.904  0.00  0.00     0.048 A 
ATOM      4  C3  UNL d   1       4.350   2.260   0.766  0.00  0.00     0.023 A 
ATOM      5  C4  UNL d   1       2.956   2.220   0.825  0.00  0.00     0.048 A 
ATOM      6  C5  UNL d   1       2.324   1.915   2.032  0.00  0.00     0.003 A 
ATOM      7  I   UNL d   1       5.295   2.711  -1.029  0.00  0.00    -0.146 I 
ENDROOT
TORSDOF 0
ENDMDL
