MODEL 1
REMARK minimizedAffinity 10.5451126
REMARK minimizedRMSD -1
REMARK  0 active torsions:
REMARK  status: ('A' for Active; 'I' for Inactive)
ROOT
ATOM      1  C   UNL d   1       0.439   2.314   0.393  0.00  0.00     0.023 A 
ATOM      2  C1  UNL d   1       1.597   3.037   0.105  0.00  0.00     0.003 A 
ATOM      3  C2  UNL d   1       2.672   3.021   0.997  0.00  0.00     0.048 A 
ATOM      4  C3  UNL d   1       2.582   2.279   2.174  0.00  0.00     0.023 A 
ATOM      5  C4  UNL d   1       1.426   1.553   2.466  0.00  0.00     0.048 A 
ATOM      6  C5  UNL d   1       0.354   1.573   1.572  0.00  0.00     0.003 A 
ATOM      7  I   UNL d   1       4.180   2.253   3.503  0.00  0.00    -0.146 I 
ENDROOT
TORSDOF 0
ENDMDL
