MODEL 1
REMARK minimizedAffinity 4.85342789
REMARK minimizedRMSD -1
REMARK  0 active torsions:
REMARK  status: ('A' for Active; 'I' for Inactive)
ROOT
ATOM      1  C   UNL d   1      -1.945   2.523   1.112  0.00  0.00     0.023 A 
ATOM      2  C1  UNL d   1      -1.109   2.979   0.093  0.00  0.00     0.003 A 
ATOM      3  C2  UNL d   1       0.277   2.871   0.225  0.00  0.00     0.048 A 
ATOM      4  C3  UNL d   1       0.820   2.305   1.377  0.00  0.00     0.023 A 
ATOM      5  C4  UNL d   1      -0.013   1.846   2.399  0.00  0.00     0.048 A 
ATOM      6  C5  UNL d   1      -1.398   1.957   2.264  0.00  0.00     0.003 A 
ATOM      7  I   UNL d   1       2.883   2.143   1.575  0.00  0.00    -0.146 I 
ENDROOT
TORSDOF 0
ENDMDL
