MODEL 1
REMARK minimizedAffinity 5.57085562
REMARK minimizedRMSD -1
REMARK  0 active torsions:
REMARK  status: ('A' for Active; 'I' for Inactive)
ROOT
ATOM      1  C   UNL d   1       3.230   1.406   2.134  0.00  0.00     0.023 A 
ATOM      2  C1  UNL d   1       2.661   1.422   0.860  0.00  0.00     0.003 A 
ATOM      3  C2  UNL d   1       1.320   1.777   0.698  0.00  0.00     0.048 A 
ATOM      4  C3  UNL d   1       0.554   2.116   1.813  0.00  0.00     0.023 A 
ATOM      5  C4  UNL d   1       1.120   2.102   3.089  0.00  0.00     0.048 A 
ATOM      6  C5  UNL d   1       2.461   1.745   3.247  0.00  0.00     0.003 A 
ATOM      7  I   UNL d   1      -1.441   2.645   1.574  0.00  0.00    -0.146 I 
ENDROOT
TORSDOF 0
ENDMDL
