MODEL 1
REMARK minimizedAffinity 9.62038898
REMARK minimizedRMSD -1
REMARK  0 active torsions:
REMARK  status: ('A' for Active; 'I' for Inactive)
ROOT
ATOM      1  C   UNL d   1       1.556   2.481   0.919  0.00  0.00     0.023 A 
ATOM      2  C1  UNL d   1       0.221   2.635   0.544  0.00  0.00     0.003 A 
ATOM      3  C2  UNL d   1      -0.632   1.530   0.527  0.00  0.00     0.048 A 
ATOM      4  C3  UNL d   1      -0.145   0.274   0.887  0.00  0.00     0.023 A 
ATOM      5  C4  UNL d   1       1.190   0.116   1.264  0.00  0.00     0.048 A 
ATOM      6  C5  UNL d   1       2.040   1.223   1.278  0.00  0.00     0.003 A 
ATOM      7  I   UNL d   1      -1.413  -1.372   0.863  0.00  0.00    -0.146 I 
ENDROOT
TORSDOF 0
ENDMDL
