MODEL 1
REMARK minimizedAffinity 4.21863699
REMARK minimizedRMSD -1
REMARK  0 active torsions:
REMARK  status: ('A' for Active; 'I' for Inactive)
ROOT
ATOM      1  C   UNL d   1       3.377  -5.743  -5.994  0.00  0.00     0.023 A 
ATOM      2  C1  UNL d   1       2.006  -6.000  -6.000  0.00  0.00     0.003 A 
ATOM      3  C2  UNL d   1       1.244  -5.760  -4.854  0.00  0.00     0.048 A 
ATOM      4  C3  UNL d   1       1.860  -5.262  -3.706  0.00  0.00     0.023 A 
ATOM      5  C4  UNL d   1       3.232  -5.003  -3.697  0.00  0.00     0.048 A 
ATOM      6  C5  UNL d   1       3.989  -5.245  -4.844  0.00  0.00     0.003 A 
ATOM      7  I   UNL d   1       0.730  -4.903  -2.000  0.00  0.00    -0.146 I 
ENDROOT
TORSDOF 0
ENDMDL
