MODEL 1
REMARK minimizedAffinity 3.56590891
REMARK minimizedRMSD -1
REMARK  0 active torsions:
REMARK  status: ('A' for Active; 'I' for Inactive)
ROOT
ATOM      1  C   UNL d   1       6.000   3.398   0.752  0.00  0.00     0.023 A 
ATOM      2  C1  UNL d   1       5.489   2.250   0.146  0.00  0.00     0.003 A 
ATOM      3  C2  UNL d   1       4.118   1.989   0.186  0.00  0.00     0.048 A 
ATOM      4  C3  UNL d   1       3.263   2.881   0.833  0.00  0.00     0.023 A 
ATOM      5  C4  UNL d   1       3.769   4.031   1.440  0.00  0.00     0.048 A 
ATOM      6  C5  UNL d   1       5.141   4.288   1.398  0.00  0.00     0.003 A 
ATOM      7  I   UNL d   1       1.222   2.495   0.893  0.00  0.00    -0.146 I 
ENDROOT
TORSDOF 0
ENDMDL
