MODEL 1
REMARK minimizedAffinity 7.44849586
REMARK minimizedRMSD -1
REMARK  0 active torsions:
REMARK  status: ('A' for Active; 'I' for Inactive)
ROOT
ATOM      1  C   UNL d   1       5.675   5.914   5.377  0.00  0.00     0.023 A 
ATOM      2  C1  UNL d   1       5.938   4.691   5.994  0.00  0.00     0.003 A 
ATOM      3  C2  UNL d   1       5.452   3.507   5.436  0.00  0.00     0.048 A 
ATOM      4  C3  UNL d   1       4.704   3.553   4.260  0.00  0.00     0.023 A 
ATOM      5  C4  UNL d   1       4.438   4.774   3.639  0.00  0.00     0.048 A 
ATOM      6  C5  UNL d   1       4.926   5.956   4.201  0.00  0.00     0.003 A 
ATOM      7  I   UNL d   1       3.980   1.792   3.427  0.00  0.00    -0.146 I 
ENDROOT
TORSDOF 0
ENDMDL
