MODEL 1
REMARK minimizedAffinity 2.14913464
REMARK minimizedRMSD -1
REMARK  0 active torsions:
REMARK  status: ('A' for Active; 'I' for Inactive)
ROOT
ATOM      1  C   UNL d   1       5.690   6.000   4.981  0.00  0.00     0.023 A 
ATOM      2  C1  UNL d   1       5.222   5.680   3.706  0.00  0.00     0.003 A 
ATOM      3  C2  UNL d   1       4.735   4.399   3.441  0.00  0.00     0.048 A 
ATOM      4  C3  UNL d   1       4.718   3.442   4.455  0.00  0.00     0.023 A 
ATOM      5  C4  UNL d   1       5.185   3.757   5.732  0.00  0.00     0.048 A 
ATOM      6  C5  UNL d   1       5.672   5.040   5.992  0.00  0.00     0.003 A 
ATOM      7  I   UNL d   1       3.994   1.534   4.062  0.00  0.00    -0.146 I 
ENDROOT
TORSDOF 0
ENDMDL
