MODEL 1
REMARK minimizedAffinity -3.53348947
REMARK minimizedRMSD -1
REMARK  0 active torsions:
REMARK  status: ('A' for Active; 'I' for Inactive)
ROOT
ATOM      1  C   UNL d   1      -0.081   1.793  -4.982  0.00  0.00     0.023 A 
ATOM      2  C1  UNL d   1       0.711   1.486  -3.875  0.00  0.00     0.003 A 
ATOM      3  C2  UNL d   1       2.011   1.986  -3.784  0.00  0.00     0.048 A 
ATOM      4  C3  UNL d   1       2.513   2.794  -4.804  0.00  0.00     0.023 A 
ATOM      5  C4  UNL d   1       1.725   3.105  -5.913  0.00  0.00     0.048 A 
ATOM      6  C5  UNL d   1       0.426   2.601  -6.000  0.00  0.00     0.003 A 
ATOM      7  I   UNL d   1       4.449   3.541  -4.671  0.00  0.00    -0.146 I 
ENDROOT
TORSDOF 0
ENDMDL
