MODEL 1
REMARK minimizedAffinity 8.9228096
REMARK minimizedRMSD -1
REMARK  0 active torsions:
REMARK  status: ('A' for Active; 'I' for Inactive)
ROOT
ATOM      1  C   UNL d   1       0.458   2.368   2.993  0.00  0.00     0.023 A 
ATOM      2  C1  UNL d   1      -0.851   2.680   2.623  0.00  0.00     0.003 A 
ATOM      3  C2  UNL d   1      -1.146   2.992   1.295  0.00  0.00     0.048 A 
ATOM      4  C3  UNL d   1      -0.129   2.988   0.341  0.00  0.00     0.023 A 
ATOM      5  C4  UNL d   1       1.181   2.676   0.706  0.00  0.00     0.048 A 
ATOM      6  C5  UNL d   1       1.472   2.366   2.036  0.00  0.00     0.003 A 
ATOM      7  I   UNL d   1      -0.567   3.452  -1.637  0.00  0.00    -0.146 I 
ENDROOT
TORSDOF 0
ENDMDL
