MODEL 1
REMARK minimizedAffinity 3.24593544
REMARK minimizedRMSD -1
REMARK  0 active torsions:
REMARK  status: ('A' for Active; 'I' for Inactive)
ROOT
ATOM      1  C   UNL d   1      -1.527   3.814  -5.056  0.00  0.00     0.023 A 
ATOM      2  C1  UNL d   1      -1.707   5.135  -5.466  0.00  0.00     0.003 A 
ATOM      3  C2  UNL d   1      -2.990   5.615  -5.737  0.00  0.00     0.048 A 
ATOM      4  C3  UNL d   1      -4.089   4.768  -5.596  0.00  0.00     0.023 A 
ATOM      5  C4  UNL d   1      -3.913   3.445  -5.186  0.00  0.00     0.048 A 
ATOM      6  C5  UNL d   1      -2.629   2.970  -4.917  0.00  0.00     0.003 A 
ATOM      7  I   UNL d   1      -6.000   5.479  -6.000  0.00  0.00    -0.146 I 
ENDROOT
TORSDOF 0
ENDMDL
