MODEL 1
REMARK minimizedAffinity 11.0415478
REMARK minimizedRMSD -1
REMARK  0 active torsions:
REMARK  status: ('A' for Active; 'I' for Inactive)
ROOT
ATOM      1  C   UNL d   1      -1.890   2.734   1.933  0.00  0.00     0.023 A 
ATOM      2  C1  UNL d   1      -1.130   2.162   2.953  0.00  0.00     0.003 A 
ATOM      3  C2  UNL d   1       0.196   1.795   2.714  0.00  0.00     0.048 A 
ATOM      4  C3  UNL d   1       0.755   2.003   1.454  0.00  0.00     0.023 A 
ATOM      5  C4  UNL d   1      -0.002   2.575   0.431  0.00  0.00     0.048 A 
ATOM      6  C5  UNL d   1      -1.327   2.941   0.674  0.00  0.00     0.003 A 
ATOM      7  I   UNL d   1       2.729   1.456   1.097  0.00  0.00    -0.146 I 
ENDROOT
TORSDOF 0
ENDMDL
