MODEL 1
REMARK minimizedAffinity 1.44551528
REMARK minimizedRMSD -1
REMARK  0 active torsions:
REMARK  status: ('A' for Active; 'I' for Inactive)
ROOT
ATOM      1  C   UNL d   1       4.315   5.235  -0.624  0.00  0.00     0.023 A 
ATOM      2  C1  UNL d   1       3.225   5.783   0.052  0.00  0.00     0.003 A 
ATOM      3  C2  UNL d   1       3.294   5.999   1.430  0.00  0.00     0.048 A 
ATOM      4  C3  UNL d   1       4.456   5.666   2.125  0.00  0.00     0.023 A 
ATOM      5  C4  UNL d   1       5.550   5.118   1.452  0.00  0.00     0.048 A 
ATOM      6  C5  UNL d   1       5.476   4.902   0.074  0.00  0.00     0.003 A 
ATOM      7  I   UNL d   1       4.562   5.987   4.175  0.00  0.00    -0.146 I 
ENDROOT
TORSDOF 0
ENDMDL
