MODEL 1
REMARK minimizedAffinity 8.71660328
REMARK minimizedRMSD -1
REMARK  0 active torsions:
REMARK  status: ('A' for Active; 'I' for Inactive)
ROOT
ATOM      1  C   UNL d   1       1.643   1.944   0.936  0.00  0.00     0.023 A 
ATOM      2  C1  UNL d   1       0.937   3.142   1.047  0.00  0.00     0.003 A 
ATOM      3  C2  UNL d   1       1.593   4.306   1.454  0.00  0.00     0.048 A 
ATOM      4  C3  UNL d   1       2.956   4.264   1.747  0.00  0.00     0.023 A 
ATOM      5  C4  UNL d   1       3.666   3.068   1.637  0.00  0.00     0.048 A 
ATOM      6  C5  UNL d   1       3.006   1.907   1.231  0.00  0.00     0.003 A 
ATOM      7  I   UNL d   1       3.934   5.995   2.353  0.00  0.00    -0.146 I 
ENDROOT
TORSDOF 0
ENDMDL
