MODEL 1
REMARK minimizedAffinity 5.93968058
REMARK minimizedRMSD -1
REMARK  1 active torsions:
REMARK  status: ('A' for Active; 'I' for Inactive)
REMARK    1  A    between atoms: C1_2  and  C2_3 
ROOT
ATOM      1  C2  UNL d   1       1.476   4.753   3.593  0.00  0.00    -0.073 A 
ATOM      2  C3  UNL d   1       0.510   5.149   4.524  0.00  0.00    -0.002 A 
ATOM      3  C4  UNL d   1       0.891   5.765   5.717  0.00  0.00     0.004 A 
ATOM      4  C5  UNL d   1       2.239   5.996   5.988  0.00  0.00    -0.004 A 
ATOM      5  C6  UNL d   1       3.219   5.618   5.065  0.00  0.00    -0.075 A 
ATOM      6  C7  UNL d   1       4.674   5.858   5.342  0.00  0.00     0.076 C 
ATOM      7  C8  UNL d   1       2.829   4.998   3.870  0.00  0.00     0.001 A 
ENDROOT
BRANCH   1   8
ATOM      8  C1  UNL d   1       1.070   4.094   2.300  0.00  0.00     0.053 C 
ATOM      9  C   UNL d   1       2.272   3.719   1.448  0.00  0.00     0.018 C 
ENDBRANCH   1   8
TORSDOF 1
ENDMDL
