MODEL 1
REMARK minimizedAffinity 8.23898125
REMARK minimizedRMSD -1
REMARK  1 active torsions:
REMARK  status: ('A' for Active; 'I' for Inactive)
REMARK    1  A    between atoms: C1_2  and  C2_3 
ROOT
ATOM      1  C2  UNL d   1       4.218  -4.549   4.881  0.00  0.00    -0.073 A 
ATOM      2  C3  UNL d   1       4.135  -3.713   6.000  0.00  0.00    -0.002 A 
ATOM      3  C4  UNL d   1       3.616  -2.423   5.879  0.00  0.00     0.004 A 
ATOM      4  C5  UNL d   1       3.169  -1.959   4.642  0.00  0.00    -0.004 A 
ATOM      5  C6  UNL d   1       3.233  -2.783   3.514  0.00  0.00    -0.075 A 
ATOM      6  C7  UNL d   1       2.758  -2.298   2.176  0.00  0.00     0.076 C 
ATOM      7  C8  UNL d   1       3.757  -4.076   3.643  0.00  0.00     0.001 A 
ENDROOT
BRANCH   1   8
ATOM      8  C1  UNL d   1       4.771  -5.944   5.007  0.00  0.00     0.053 C 
ATOM      9  C   UNL d   1       5.973  -5.999   5.937  0.00  0.00     0.018 C 
ENDBRANCH   1   8
TORSDOF 1
ENDMDL
