MODEL 1
REMARK minimizedAffinity 6.00437164
REMARK minimizedRMSD -1
REMARK  1 active torsions:
REMARK  status: ('A' for Active; 'I' for Inactive)
REMARK    1  A    between atoms: C1_2  and  C2_3 
ROOT
ATOM      1  C2  UNL d   1      -2.275   0.849   3.084  0.00  0.00    -0.073 A 
ATOM      2  C3  UNL d   1      -0.982   1.095   3.561  0.00  0.00    -0.002 A 
ATOM      3  C4  UNL d   1       0.087   0.303   3.141  0.00  0.00     0.004 A 
ATOM      4  C5  UNL d   1      -0.123  -0.736   2.235  0.00  0.00    -0.004 A 
ATOM      5  C6  UNL d   1      -1.405  -0.990   1.738  0.00  0.00    -0.075 A 
ATOM      6  C7  UNL d   1      -1.648  -2.106   0.765  0.00  0.00     0.076 C 
ATOM      7  C8  UNL d   1      -2.474  -0.192   2.167  0.00  0.00     0.001 A 
ENDROOT
BRANCH   1   8
ATOM      8  C1  UNL d   1      -3.431   1.706   3.530  0.00  0.00     0.053 C 
ATOM      9  C   UNL d   1      -3.284   2.155   4.975  0.00  0.00     0.018 C 
ENDBRANCH   1   8
TORSDOF 1
ENDMDL
