MODEL 1
REMARK minimizedAffinity 8.00258827
REMARK minimizedRMSD -1
REMARK  1 active torsions:
REMARK  status: ('A' for Active; 'I' for Inactive)
REMARK    1  A    between atoms: C1_2  and  C2_3 
ROOT
ATOM      1  C2  UNL d   1       1.968  -0.133  -0.539  0.00  0.00    -0.073 A 
ATOM      2  C3  UNL d   1       2.793   0.932  -0.158  0.00  0.00    -0.002 A 
ATOM      3  C4  UNL d   1       2.503   2.232  -0.574  0.00  0.00     0.004 A 
ATOM      4  C5  UNL d   1       1.383   2.482  -1.367  0.00  0.00    -0.004 A 
ATOM      5  C6  UNL d   1       0.540   1.433  -1.748  0.00  0.00    -0.075 A 
ATOM      6  C7  UNL d   1      -0.667   1.685  -2.604  0.00  0.00     0.076 C 
ATOM      7  C8  UNL d   1       0.840   0.130  -1.329  0.00  0.00     0.001 A 
ENDROOT
BRANCH   1   8
ATOM      8  C1  UNL d   1       2.273  -1.538  -0.088  0.00  0.00     0.053 C 
ATOM      9  C   UNL d   1       1.867  -1.773   1.359  0.00  0.00     0.018 C 
ENDBRANCH   1   8
TORSDOF 1
ENDMDL
