MODEL 1
REMARK minimizedAffinity 5.30832243
REMARK minimizedRMSD -1
REMARK  1 active torsions:
REMARK  status: ('A' for Active; 'I' for Inactive)
REMARK    1  A    between atoms: C1_2  and  C2_3 
ROOT
ATOM      1  C2  UNL d   1       1.212  -1.062   1.028  0.00  0.00    -0.073 A 
ATOM      2  C3  UNL d   1      -0.122  -1.471   0.927  0.00  0.00    -0.002 A 
ATOM      3  C4  UNL d   1      -0.731  -1.588  -0.323  0.00  0.00     0.004 A 
ATOM      4  C5  UNL d   1      -0.011  -1.304  -1.484  0.00  0.00    -0.004 A 
ATOM      5  C6  UNL d   1       1.327  -0.904  -1.404  0.00  0.00    -0.075 A 
ATOM      6  C7  UNL d   1       2.115  -0.593  -2.642  0.00  0.00     0.076 C 
ATOM      7  C8  UNL d   1       1.930  -0.787  -0.144  0.00  0.00     0.001 A 
ENDROOT
BRANCH   1   8
ATOM      8  C1  UNL d   1       1.876  -0.941   2.376  0.00  0.00     0.053 C 
ATOM      9  C   UNL d   1       1.203   0.106   3.250  0.00  0.00     0.018 C 
ENDBRANCH   1   8
TORSDOF 1
ENDMDL
