MODEL 1
REMARK minimizedAffinity 3.74882603
REMARK minimizedRMSD -1
REMARK  1 active torsions:
REMARK  status: ('A' for Active; 'I' for Inactive)
REMARK    1  A    between atoms: C1_2  and  C2_3 
ROOT
ATOM      1  C2  UNL d   1       1.751  -0.869  -0.189  0.00  0.00    -0.073 A 
ATOM      2  C3  UNL d   1       1.166  -1.000  -1.454  0.00  0.00    -0.002 A 
ATOM      3  C4  UNL d   1       1.047   0.109  -2.293  0.00  0.00     0.004 A 
ATOM      4  C5  UNL d   1       1.517   1.355  -1.880  0.00  0.00    -0.004 A 
ATOM      5  C6  UNL d   1       2.116   1.503  -0.625  0.00  0.00    -0.075 A 
ATOM      6  C7  UNL d   1       2.624   2.838  -0.165  0.00  0.00     0.076 C 
ATOM      7  C8  UNL d   1       2.229   0.386   0.213  0.00  0.00     0.001 A 
ENDROOT
BRANCH   1   8
ATOM      8  C1  UNL d   1       1.888  -2.065   0.718  0.00  0.00     0.053 C 
ATOM      9  C   UNL d   1       1.128  -1.881   2.022  0.00  0.00     0.018 C 
ENDBRANCH   1   8
TORSDOF 1
ENDMDL
