MODEL 1
REMARK minimizedAffinity 24.6573963
REMARK minimizedRMSD -1
REMARK  0 active torsions:
REMARK  status: ('A' for Active; 'I' for Inactive)
ROOT
ATOM      1  C   UNL d   1      -5.523   6.000   1.536  0.00  0.00    -0.002 A 
ATOM      2  C1  UNL d   1      -4.172   5.998   1.851  0.00  0.00     0.010 A 
ATOM      3  C2  UNL d   1      -3.219   5.640   0.895  0.00  0.00     0.041 A 
ATOM      4  C3  UNL d   1      -3.652   5.284  -0.397  0.00  0.00    -0.075 A 
ATOM      5  S   UNL d   1      -2.666   4.812  -1.730  0.00  0.00     0.015 SA
ATOM      6  C4  UNL d   1      -4.015   4.603  -2.751  0.00  0.00     0.022 A 
ATOM      7  C5  UNL d   1      -5.197   4.882  -2.106  0.00  0.00     0.026 A 
ATOM      8  C6  UNL d   1      -5.007   5.279  -0.740  0.00  0.00    -0.082 A 
ATOM      9  C7  UNL d   1      -5.948   5.645   0.253  0.00  0.00     0.045 A 
ENDROOT
TORSDOF 0
ENDMDL
