MODEL 1
REMARK minimizedAffinity 19.8811741
REMARK minimizedRMSD -1
REMARK  0 active torsions:
REMARK  status: ('A' for Active; 'I' for Inactive)
ROOT
ATOM      1  C   UNL d   1       0.565  -2.879  -5.999  0.00  0.00    -0.002 A 
ATOM      2  C1  UNL d   1       0.929  -1.540  -6.000  0.00  0.00     0.010 A 
ATOM      3  C2  UNL d   1       2.276  -1.170  -5.999  0.00  0.00     0.041 A 
ATOM      4  C3  UNL d   1       3.259  -2.179  -5.999  0.00  0.00    -0.075 A 
ATOM      5  S   UNL d   1       4.970  -1.963  -5.998  0.00  0.00     0.015 SA
ATOM      6  C4  UNL d   1       5.257  -3.643  -5.998  0.00  0.00     0.022 A 
ATOM      7  C5  UNL d   1       4.088  -4.366  -5.998  0.00  0.00     0.026 A 
ATOM      8  C6  UNL d   1       2.917  -3.534  -5.999  0.00  0.00    -0.082 A 
ATOM      9  C7  UNL d   1       1.544  -3.877  -5.999  0.00  0.00     0.045 A 
ENDROOT
TORSDOF 0
ENDMDL
