MODEL 1
REMARK minimizedAffinity 25.1837749
REMARK minimizedRMSD -1
REMARK  0 active torsions:
REMARK  status: ('A' for Active; 'I' for Inactive)
ROOT
ATOM      1  C   UNL d   1       2.271  -4.153  -1.707  0.00  0.00    -0.002 A 
ATOM      2  C1  UNL d   1       1.432  -5.107  -2.265  0.00  0.00     0.010 A 
ATOM      3  C2  UNL d   1       1.009  -4.994  -3.590  0.00  0.00     0.041 A 
ATOM      4  C3  UNL d   1       1.450  -3.895  -4.355  0.00  0.00    -0.075 A 
ATOM      5  S   UNL d   1       1.063  -3.550  -5.999  0.00  0.00     0.015 SA
ATOM      6  C4  UNL d   1       2.003  -2.129  -6.000  0.00  0.00     0.022 A 
ATOM      7  C5  UNL d   1       2.605  -1.908  -4.784  0.00  0.00     0.026 A 
ATOM      8  C6  UNL d   1       2.297  -2.922  -3.816  0.00  0.00    -0.082 A 
ATOM      9  C7  UNL d   1       2.707  -3.065  -2.468  0.00  0.00     0.045 A 
ENDROOT
TORSDOF 0
ENDMDL
