MODEL 1
REMARK minimizedAffinity 13.2839537
REMARK minimizedRMSD -1
REMARK  0 active torsions:
REMARK  status: ('A' for Active; 'I' for Inactive)
ROOT
ATOM      1  C   UNL d   1       0.277   3.120   1.295  0.00  0.00    -0.002 A 
ATOM      2  C1  UNL d   1      -0.785   2.284   0.979  0.00  0.00     0.010 A 
ATOM      3  C2  UNL d   1      -1.361   2.317  -0.293  0.00  0.00     0.041 A 
ATOM      4  C3  UNL d   1      -0.846   3.211  -1.251  0.00  0.00    -0.075 A 
ATOM      5  S   UNL d   1      -1.391   3.424  -2.873  0.00  0.00     0.015 SA
ATOM      6  C4  UNL d   1      -0.227   4.629  -3.185  0.00  0.00     0.022 A 
ATOM      7  C5  UNL d   1       0.567   4.875  -2.090  0.00  0.00     0.026 A 
ATOM      8  C6  UNL d   1       0.224   4.062  -0.958  0.00  0.00    -0.082 A 
ATOM      9  C7  UNL d   1       0.785   4.005   0.341  0.00  0.00     0.045 A 
ENDROOT
TORSDOF 0
ENDMDL
