MODEL 1
REMARK minimizedAffinity 5.30168867
REMARK minimizedRMSD -1
REMARK  0 active torsions:
REMARK  status: ('A' for Active; 'I' for Inactive)
ROOT
ATOM      1  C   UNL d   1       0.563   5.455  -0.930  0.00  0.00    -0.002 A 
ATOM      2  C1  UNL d   1       1.201   5.999   0.177  0.00  0.00     0.010 A 
ATOM      3  C2  UNL d   1       1.235   5.307   1.389  0.00  0.00     0.041 A 
ATOM      4  C3  UNL d   1       0.613   4.045   1.470  0.00  0.00    -0.075 A 
ATOM      5  S   UNL d   1       0.529   3.016   2.851  0.00  0.00     0.015 SA
ATOM      6  C4  UNL d   1      -0.354   1.829   2.004  0.00  0.00     0.022 A 
ATOM      7  C5  UNL d   1      -0.588   2.193   0.699  0.00  0.00     0.026 A 
ATOM      8  C6  UNL d   1      -0.034   3.476   0.370  0.00  0.00    -0.082 A 
ATOM      9  C7  UNL d   1      -0.052   4.204  -0.845  0.00  0.00     0.045 A 
ENDROOT
TORSDOF 0
ENDMDL
