MODEL 1
REMARK minimizedAffinity 8.68413353
REMARK minimizedRMSD -1
REMARK  0 active torsions:
REMARK  status: ('A' for Active; 'I' for Inactive)
ROOT
ATOM      1  C   UNL d   1      -0.361   4.865  -0.065  0.00  0.00    -0.002 A 
ATOM      2  C1  UNL d   1       0.030   3.888  -0.970  0.00  0.00     0.010 A 
ATOM      3  C2  UNL d   1      -0.002   2.538  -0.616  0.00  0.00     0.041 A 
ATOM      4  C3  UNL d   1      -0.439   2.183   0.675  0.00  0.00    -0.075 A 
ATOM      5  S   UNL d   1      -0.563   0.593   1.330  0.00  0.00     0.015 SA
ATOM      6  C4  UNL d   1      -1.138   1.172   2.826  0.00  0.00     0.022 A 
ATOM      7  C5  UNL d   1      -1.239   2.543   2.843  0.00  0.00     0.026 A 
ATOM      8  C6  UNL d   1      -0.839   3.148   1.604  0.00  0.00    -0.082 A 
ATOM      9  C7  UNL d   1      -0.794   4.509   1.214  0.00  0.00     0.045 A 
ENDROOT
TORSDOF 0
ENDMDL
