MODEL 1
REMARK minimizedAffinity 7.93064737
REMARK minimizedRMSD -1
REMARK  0 active torsions:
REMARK  status: ('A' for Active; 'I' for Inactive)
ROOT
ATOM      1  C   UNL d   1      -0.604   3.020  -1.850  0.00  0.00    -0.002 A 
ATOM      2  C1  UNL d   1      -1.570   2.028  -1.760  0.00  0.00     0.010 A 
ATOM      3  C2  UNL d   1      -1.939   1.506  -0.519  0.00  0.00     0.041 A 
ATOM      4  C3  UNL d   1      -1.317   2.005   0.643  0.00  0.00    -0.075 A 
ATOM      5  S   UNL d   1      -1.610   1.517   2.270  0.00  0.00     0.015 SA
ATOM      6  C4  UNL d   1      -0.460   2.615   2.885  0.00  0.00     0.022 A 
ATOM      7  C5  UNL d   1       0.142   3.344   1.887  0.00  0.00     0.026 A 
ATOM      8  C6  UNL d   1      -0.342   3.004   0.578  0.00  0.00    -0.082 A 
ATOM      9  C7  UNL d   1       0.011   3.512  -0.696  0.00  0.00     0.045 A 
ENDROOT
TORSDOF 0
ENDMDL
