MODEL 1
REMARK minimizedAffinity 16.7256718
REMARK minimizedRMSD -1
REMARK  0 active torsions:
REMARK  status: ('A' for Active; 'I' for Inactive)
ROOT
ATOM      1  C   UNL d   1       1.571  -2.168  -6.000  0.00  0.00    -0.002 A 
ATOM      2  C1  UNL d   1       2.929  -1.882  -6.000  0.00  0.00     0.010 A 
ATOM      3  C2  UNL d   1       3.753  -2.346  -4.972  0.00  0.00     0.041 A 
ATOM      4  C3  UNL d   1       3.184  -3.111  -3.936  0.00  0.00    -0.075 A 
ATOM      5  S   UNL d   1       3.998  -3.786  -2.574  0.00  0.00     0.015 SA
ATOM      6  C4  UNL d   1       2.563  -4.471  -1.961  0.00  0.00     0.022 A 
ATOM      7  C5  UNL d   1       1.479  -4.201  -2.763  0.00  0.00     0.026 A 
ATOM      8  C6  UNL d   1       1.819  -3.414  -3.914  0.00  0.00    -0.082 A 
ATOM      9  C7  UNL d   1       1.010  -2.928  -4.970  0.00  0.00     0.045 A 
ENDROOT
TORSDOF 0
ENDMDL
