MODEL 1
REMARK minimizedAffinity 7.71763468
REMARK minimizedRMSD -1
REMARK  0 active torsions:
REMARK  status: ('A' for Active; 'I' for Inactive)
ROOT
ATOM      1  C   UNL d   1      -0.611   1.379   3.210  0.00  0.00    -0.002 A 
ATOM      2  C1  UNL d   1      -1.046   0.487   2.240  0.00  0.00     0.010 A 
ATOM      3  C2  UNL d   1      -0.953   0.810   0.885  0.00  0.00     0.041 A 
ATOM      4  C3  UNL d   1      -0.409   2.056   0.517  0.00  0.00    -0.075 A 
ATOM      5  S   UNL d   1      -0.195   2.666  -1.081  0.00  0.00     0.015 SA
ATOM      6  C4  UNL d   1       0.479   4.125  -0.514  0.00  0.00     0.022 A 
ATOM      7  C5  UNL d   1       0.547   4.163   0.858  0.00  0.00     0.026 A 
ATOM      8  C6  UNL d   1       0.037   2.970   1.476  0.00  0.00    -0.082 A 
ATOM      9  C7  UNL d   1      -0.071   2.614   2.841  0.00  0.00     0.045 A 
ENDROOT
TORSDOF 0
ENDMDL
