MODEL 1
REMARK minimizedAffinity -0.694059312
REMARK minimizedRMSD -1
REMARK  1 active torsions:
REMARK  status: ('A' for Active; 'I' for Inactive)
REMARK    1  A    between atoms: C1_2  and  C2_3 
ROOT
ATOM      1  C2  UNL d   1      -3.626  -5.089  -4.398  0.00  0.00    -0.073 A 
ATOM      2  C3  UNL d   1      -4.248  -5.929  -5.329  0.00  0.00    -0.002 A 
ATOM      3  C4  UNL d   1      -5.430  -5.534  -5.956  0.00  0.00     0.004 A 
ATOM      4  C5  UNL d   1      -5.998  -4.294  -5.665  0.00  0.00    -0.004 A 
ATOM      5  C6  UNL d   1      -5.386  -3.435  -4.747  0.00  0.00    -0.075 A 
ATOM      6  C7  UNL d   1      -5.985  -2.099  -4.421  0.00  0.00     0.076 C 
ATOM      7  C8  UNL d   1      -4.200  -3.841  -4.119  0.00  0.00     0.001 A 
ENDROOT
BRANCH   1   8
ATOM      8  C1  UNL d   1      -2.346  -5.509  -3.722  0.00  0.00     0.053 C 
ATOM      9  C   UNL d   1      -1.119  -5.102  -4.523  0.00  0.00     0.018 C 
ENDBRANCH   1   8
TORSDOF 1
ENDMDL
