MODEL 1
REMARK minimizedAffinity -2.80918431
REMARK minimizedRMSD -1
REMARK  1 active torsions:
REMARK  status: ('A' for Active; 'I' for Inactive)
REMARK    1  A    between atoms: C1_2  and  C2_3 
ROOT
ATOM      1  C2  UNL d   1      -3.212  -4.298  -4.087  0.00  0.00    -0.073 A 
ATOM      2  C3  UNL d   1      -3.707  -5.597  -4.252  0.00  0.00    -0.002 A 
ATOM      3  C4  UNL d   1      -4.884  -5.817  -4.969  0.00  0.00     0.004 A 
ATOM      4  C5  UNL d   1      -5.573  -4.744  -5.533  0.00  0.00    -0.004 A 
ATOM      5  C6  UNL d   1      -5.088  -3.440  -5.390  0.00  0.00    -0.075 A 
ATOM      6  C7  UNL d   1      -5.820  -2.275  -5.989  0.00  0.00     0.076 C 
ATOM      7  C8  UNL d   1      -3.907  -3.227  -4.666  0.00  0.00     0.001 A 
ENDROOT
BRANCH   1   8
ATOM      8  C1  UNL d   1      -1.938  -4.056  -3.320  0.00  0.00     0.053 C 
ATOM      9  C   UNL d   1      -1.153  -5.339  -3.098  0.00  0.00     0.018 C 
ENDBRANCH   1   8
TORSDOF 1
ENDMDL
