MODEL 1
REMARK minimizedAffinity -2.51500988
REMARK minimizedRMSD -1
REMARK  1 active torsions:
REMARK  status: ('A' for Active; 'I' for Inactive)
REMARK    1  A    between atoms: C1_2  and  C2_3 
ROOT
ATOM      1  C2  UNL d   1      -4.049  -1.947  -4.866  0.00  0.00    -0.073 A 
ATOM      2  C3  UNL d   1      -4.578  -2.564  -3.727  0.00  0.00    -0.002 A 
ATOM      3  C4  UNL d   1      -4.121  -3.822  -3.331  0.00  0.00     0.004 A 
ATOM      4  C5  UNL d   1      -3.128  -4.471  -4.065  0.00  0.00    -0.004 A 
ATOM      5  C6  UNL d   1      -2.579  -3.865  -5.199  0.00  0.00    -0.075 A 
ATOM      6  C7  UNL d   1      -1.511  -4.550  -6.000  0.00  0.00     0.076 C 
ATOM      7  C8  UNL d   1      -3.044  -2.603  -5.592  0.00  0.00     0.001 A 
ENDROOT
BRANCH   1   8
ATOM      8  C1  UNL d   1      -4.535  -0.586  -5.294  0.00  0.00     0.053 C 
ATOM      9  C   UNL d   1      -6.000  -0.368  -4.948  0.00  0.00     0.018 C 
ENDBRANCH   1   8
TORSDOF 1
ENDMDL
