MODEL 1
REMARK minimizedAffinity -2.13324261
REMARK minimizedRMSD -1
REMARK  1 active torsions:
REMARK  status: ('A' for Active; 'I' for Inactive)
REMARK    1  A    between atoms: C1_2  and  C2_3 
ROOT
ATOM      1  C2  UNL d   1      -4.449  -3.301  -4.246  0.00  0.00    -0.073 A 
ATOM      2  C3  UNL d   1      -3.975  -3.061  -5.541  0.00  0.00    -0.002 A 
ATOM      3  C4  UNL d   1      -2.823  -3.702  -6.000  0.00  0.00     0.004 A 
ATOM      4  C5  UNL d   1      -2.140  -4.594  -5.173  0.00  0.00    -0.004 A 
ATOM      5  C6  UNL d   1      -2.605  -4.856  -3.881  0.00  0.00    -0.075 A 
ATOM      6  C7  UNL d   1      -1.880  -5.811  -2.979  0.00  0.00     0.076 C 
ATOM      7  C8  UNL d   1      -3.760  -4.206  -3.426  0.00  0.00     0.001 A 
ENDROOT
BRANCH   1   8
ATOM      8  C1  UNL d   1      -5.695  -2.615  -3.748  0.00  0.00     0.053 C 
ATOM      9  C   UNL d   1      -5.999  -1.347  -4.530  0.00  0.00     0.018 C 
ENDBRANCH   1   8
TORSDOF 1
ENDMDL
