MODEL 1
REMARK minimizedAffinity -1.36257172
REMARK minimizedRMSD -1
REMARK  1 active torsions:
REMARK  status: ('A' for Active; 'I' for Inactive)
REMARK    1  A    between atoms: C1_2  and  C2_3 
ROOT
ATOM      1  C2  UNL d   1      -3.472  -5.291  -5.219  0.00  0.00    -0.073 A 
ATOM      2  C3  UNL d   1      -4.514  -5.811  -5.996  0.00  0.00    -0.002 A 
ATOM      3  C4  UNL d   1      -5.768  -5.199  -5.993  0.00  0.00     0.004 A 
ATOM      4  C5  UNL d   1      -5.991  -4.059  -5.220  0.00  0.00    -0.004 A 
ATOM      5  C6  UNL d   1      -4.960  -3.518  -4.447  0.00  0.00    -0.075 A 
ATOM      6  C7  UNL d   1      -5.184  -2.294  -3.608  0.00  0.00     0.076 C 
ATOM      7  C8  UNL d   1      -3.704  -4.140  -4.453  0.00  0.00     0.001 A 
ENDROOT
BRANCH   1   8
ATOM      8  C1  UNL d   1      -2.114  -5.945  -5.224  0.00  0.00     0.053 C 
ATOM      9  C   UNL d   1      -1.007  -4.962  -4.876  0.00  0.00     0.018 C 
ENDBRANCH   1   8
TORSDOF 1
ENDMDL
