MODEL 1
REMARK minimizedAffinity 0.157160923
REMARK minimizedRMSD -1
REMARK  1 active torsions:
REMARK  status: ('A' for Active; 'I' for Inactive)
REMARK    1  A    between atoms: C1_2  and  C2_3 
ROOT
ATOM      1  C2  UNL d   1      -4.496  -4.010  -4.286  0.00  0.00    -0.073 A 
ATOM      2  C3  UNL d   1      -5.342  -4.706  -5.157  0.00  0.00    -0.002 A 
ATOM      3  C4  UNL d   1      -4.828  -5.693  -5.999  0.00  0.00     0.004 A 
ATOM      4  C5  UNL d   1      -3.468  -5.999  -5.974  0.00  0.00    -0.004 A 
ATOM      5  C6  UNL d   1      -2.609  -5.323  -5.102  0.00  0.00    -0.075 A 
ATOM      6  C7  UNL d   1      -1.142  -5.639  -5.065  0.00  0.00     0.076 C 
ATOM      7  C8  UNL d   1      -3.131  -4.331  -4.262  0.00  0.00     0.001 A 
ENDROOT
BRANCH   1   8
ATOM      8  C1  UNL d   1      -5.047  -2.948  -3.370  0.00  0.00     0.053 C 
ATOM      9  C   UNL d   1      -5.661  -1.791  -4.143  0.00  0.00     0.018 C 
ENDBRANCH   1   8
TORSDOF 1
ENDMDL
