MODEL 1
REMARK minimizedAffinity -3.07647538
REMARK minimizedRMSD -1
REMARK  1 active torsions:
REMARK  status: ('A' for Active; 'I' for Inactive)
REMARK    1  A    between atoms: C1_2  and  C2_3 
ROOT
ATOM      1  C2  UNL d   1      -5.065  -3.353  -5.994  0.00  0.00    -0.073 A 
ATOM      2  C3  UNL d   1      -5.861  -4.504  -5.992  0.00  0.00    -0.002 A 
ATOM      3  C4  UNL d   1      -5.271  -5.769  -5.998  0.00  0.00     0.004 A 
ATOM      4  C5  UNL d   1      -3.882  -5.896  -5.999  0.00  0.00    -0.004 A 
ATOM      5  C6  UNL d   1      -3.070  -4.757  -5.990  0.00  0.00    -0.075 A 
ATOM      6  C7  UNL d   1      -1.574  -4.877  -5.993  0.00  0.00     0.076 C 
ATOM      7  C8  UNL d   1      -3.669  -3.491  -5.986  0.00  0.00     0.001 A 
ENDROOT
BRANCH   1   8
ATOM      8  C1  UNL d   1      -5.697  -1.985  -5.981  0.00  0.00     0.053 C 
ATOM      9  C   UNL d   1      -5.980  -1.501  -4.567  0.00  0.00     0.018 C 
ENDBRANCH   1   8
TORSDOF 1
ENDMDL
