MODEL 1
REMARK minimizedAffinity -3.45569491
REMARK minimizedRMSD -1
REMARK  1 active torsions:
REMARK  status: ('A' for Active; 'I' for Inactive)
REMARK    1  A    between atoms: C1_2  and  C2_3 
ROOT
ATOM      1  C2  UNL d   1      -3.252  -4.862  -5.074  0.00  0.00    -0.073 A 
ATOM      2  C3  UNL d   1      -3.965  -5.870  -5.733  0.00  0.00    -0.002 A 
ATOM      3  C4  UNL d   1      -5.331  -5.724  -5.977  0.00  0.00     0.004 A 
ATOM      4  C5  UNL d   1      -5.996  -4.567  -5.572  0.00  0.00    -0.004 A 
ATOM      5  C6  UNL d   1      -5.299  -3.543  -4.922  0.00  0.00    -0.075 A 
ATOM      6  C7  UNL d   1      -6.000  -2.293  -4.478  0.00  0.00     0.076 C 
ATOM      7  C8  UNL d   1      -3.927  -3.699  -4.679  0.00  0.00     0.001 A 
ENDROOT
BRANCH   1   8
ATOM      8  C1  UNL d   1      -1.775  -5.014  -4.815  0.00  0.00     0.053 C 
ATOM      9  C   UNL d   1      -1.048  -5.629  -6.000  0.00  0.00     0.018 C 
ENDBRANCH   1   8
TORSDOF 1
ENDMDL
