MODEL 1
REMARK minimizedAffinity -3.40191841
REMARK minimizedRMSD -1
REMARK  1 active torsions:
REMARK  status: ('A' for Active; 'I' for Inactive)
REMARK    1  A    between atoms: C1_2  and  C2_3 
ROOT
ATOM      1  C2  UNL d   1      -4.375  -3.615  -4.553  0.00  0.00    -0.073 A 
ATOM      2  C3  UNL d   1      -5.494  -4.370  -4.922  0.00  0.00    -0.002 A 
ATOM      3  C4  UNL d   1      -5.339  -5.555  -5.643  0.00  0.00     0.004 A 
ATOM      4  C5  UNL d   1      -4.065  -6.000  -5.996  0.00  0.00    -0.004 A 
ATOM      5  C6  UNL d   1      -2.933  -5.265  -5.626  0.00  0.00    -0.075 A 
ATOM      6  C7  UNL d   1      -1.556  -5.729  -6.000  0.00  0.00     0.076 C 
ATOM      7  C8  UNL d   1      -3.098  -4.075  -4.904  0.00  0.00     0.001 A 
ENDROOT
BRANCH   1   8
ATOM      8  C1  UNL d   1      -4.538  -2.338  -3.769  0.00  0.00     0.053 C 
ATOM      9  C   UNL d   1      -6.000  -1.953  -3.605  0.00  0.00     0.018 C 
ENDBRANCH   1   8
TORSDOF 1
ENDMDL
