MODEL 1
REMARK minimizedAffinity -3.31690311
REMARK minimizedRMSD -1
REMARK  1 active torsions:
REMARK  status: ('A' for Active; 'I' for Inactive)
REMARK    1  A    between atoms: C1_2  and  C2_3 
ROOT
ATOM      1  C2  UNL d   1      -2.551  -5.062  -4.755  0.00  0.00    -0.073 A 
ATOM      2  C3  UNL d   1      -3.126  -5.997  -5.623  0.00  0.00    -0.002 A 
ATOM      3  C4  UNL d   1      -4.464  -5.879  -6.000  0.00  0.00     0.004 A 
ATOM      4  C5  UNL d   1      -5.238  -4.822  -5.520  0.00  0.00    -0.004 A 
ATOM      5  C6  UNL d   1      -4.678  -3.871  -4.661  0.00  0.00    -0.075 A 
ATOM      6  C7  UNL d   1      -5.497  -2.730  -4.134  0.00  0.00     0.076 C 
ATOM      7  C8  UNL d   1      -3.334  -3.998  -4.285  0.00  0.00     0.001 A 
ENDROOT
BRANCH   1   8
ATOM      8  C1  UNL d   1      -1.104  -5.182  -4.351  0.00  0.00     0.053 C 
ATOM      9  C   UNL d   1      -0.299  -6.000  -5.349  0.00  0.00     0.018 C 
ENDBRANCH   1   8
TORSDOF 1
ENDMDL
