MODEL 1
REMARK minimizedAffinity -3.51627159
REMARK minimizedRMSD -1
REMARK  1 active torsions:
REMARK  status: ('A' for Active; 'I' for Inactive)
REMARK    1  A    between atoms: C1_2  and  C2_3 
ROOT
ATOM      1  C2  UNL d   1      -5.175  -3.257  -4.655  0.00  0.00    -0.073 A 
ATOM      2  C3  UNL d   1      -6.000  -4.101  -5.406  0.00  0.00    -0.002 A 
ATOM      3  C4  UNL d   1      -5.478  -5.251  -6.000  0.00  0.00     0.004 A 
ATOM      4  C5  UNL d   1      -4.130  -5.572  -5.843  0.00  0.00    -0.004 A 
ATOM      5  C6  UNL d   1      -3.292  -4.747  -5.086  0.00  0.00    -0.075 A 
ATOM      6  C7  UNL d   1      -1.838  -5.077  -4.909  0.00  0.00     0.076 C 
ATOM      7  C8  UNL d   1      -3.823  -3.592  -4.495  0.00  0.00     0.001 A 
ENDROOT
BRANCH   1   8
ATOM      8  C1  UNL d   1      -5.735  -2.017  -4.007  0.00  0.00     0.053 C 
ATOM      9  C   UNL d   1      -5.570  -0.789  -4.887  0.00  0.00     0.018 C 
ENDBRANCH   1   8
TORSDOF 1
ENDMDL
