MODEL 1
REMARK minimizedAffinity -1.47061944
REMARK minimizedRMSD -1
REMARK  1 active torsions:
REMARK  status: ('A' for Active; 'I' for Inactive)
REMARK    1  A    between atoms: C1_2  and  C2_3 
ROOT
ATOM      1  C2  UNL d   1      -4.444  -3.168  -4.729  0.00  0.00    -0.073 A 
ATOM      2  C3  UNL d   1      -5.292  -3.942  -5.529  0.00  0.00    -0.002 A 
ATOM      3  C4  UNL d   1      -4.875  -5.188  -5.999  0.00  0.00     0.004 A 
ATOM      4  C5  UNL d   1      -3.610  -5.676  -5.668  0.00  0.00    -0.004 A 
ATOM      5  C6  UNL d   1      -2.753  -4.923  -4.860  0.00  0.00    -0.075 A 
ATOM      6  C7  UNL d   1      -1.389  -5.432  -4.497  0.00  0.00     0.076 C 
ATOM      7  C8  UNL d   1      -3.178  -3.671  -4.394  0.00  0.00     0.001 A 
ENDROOT
BRANCH   1   8
ATOM      8  C1  UNL d   1      -4.892  -1.825  -4.214  0.00  0.00     0.053 C 
ATOM      9  C   UNL d   1      -5.980  -1.215  -5.084  0.00  0.00     0.018 C 
ENDBRANCH   1   8
TORSDOF 1
ENDMDL
