MODEL 1
REMARK minimizedAffinity -3.11501527
REMARK minimizedRMSD -1
REMARK  1 active torsions:
REMARK  status: ('A' for Active; 'I' for Inactive)
REMARK    1  A    between atoms: C1_2  and  C2_3 
ROOT
ATOM      1  C2  UNL d   1      -3.371  -5.084  -5.068  0.00  0.00    -0.073 A 
ATOM      2  C3  UNL d   1      -4.245  -5.989  -5.680  0.00  0.00    -0.002 A 
ATOM      3  C4  UNL d   1      -5.554  -5.611  -5.981  0.00  0.00     0.004 A 
ATOM      4  C5  UNL d   1      -6.000  -4.324  -5.681  0.00  0.00    -0.004 A 
ATOM      5  C6  UNL d   1      -5.137  -3.401  -5.080  0.00  0.00    -0.075 A 
ATOM      6  C7  UNL d   1      -5.602  -2.013  -4.749  0.00  0.00     0.076 C 
ATOM      7  C8  UNL d   1      -3.825  -3.789  -4.778  0.00  0.00     0.001 A 
ENDROOT
BRANCH   1   8
ATOM      8  C1  UNL d   1      -1.954  -5.485  -4.747  0.00  0.00     0.053 C 
ATOM      9  C   UNL d   1      -1.216  -6.000  -5.972  0.00  0.00     0.018 C 
ENDBRANCH   1   8
TORSDOF 1
ENDMDL
