MODEL 1
REMARK minimizedAffinity -1.94749594
REMARK minimizedRMSD -1
REMARK  1 active torsions:
REMARK  status: ('A' for Active; 'I' for Inactive)
REMARK    1  A    between atoms: C1_2  and  C2_3 
ROOT
ATOM      1  C2  UNL d   1      -3.814  -4.388  -4.772  0.00  0.00    -0.073 A 
ATOM      2  C3  UNL d   1      -4.372  -3.972  -5.986  0.00  0.00    -0.002 A 
ATOM      3  C4  UNL d   1      -5.456  -3.094  -6.000  0.00  0.00     0.004 A 
ATOM      4  C5  UNL d   1      -5.989  -2.618  -4.802  0.00  0.00    -0.004 A 
ATOM      5  C6  UNL d   1      -5.437  -3.012  -3.579  0.00  0.00    -0.075 A 
ATOM      6  C7  UNL d   1      -6.000  -2.510  -2.281  0.00  0.00     0.076 C 
ATOM      7  C8  UNL d   1      -4.350  -3.896  -3.573  0.00  0.00     0.001 A 
ENDROOT
BRANCH   1   8
ATOM      8  C1  UNL d   1      -2.639  -5.331  -4.752  0.00  0.00     0.053 C 
ATOM      9  C   UNL d   1      -1.768  -5.183  -5.990  0.00  0.00     0.018 C 
ENDBRANCH   1   8
TORSDOF 1
ENDMDL
