MODEL 1
REMARK minimizedAffinity 8.28488159
REMARK minimizedRMSD -1
REMARK  1 active torsions:
REMARK  status: ('A' for Active; 'I' for Inactive)
REMARK    1  A    between atoms: C1_2  and  C2_3 
ROOT
ATOM      1  C2  UNL d   1      -0.085   5.427   4.708  0.00  0.00    -0.081 A 
ATOM      2  C3  UNL d   1      -0.846   5.603   5.870  0.00  0.00     0.006 A 
ATOM      3  C4  UNL d   1      -2.111   5.021   5.983  0.00  0.00     0.002 A 
ATOM      4  C5  UNL d   1      -2.632   4.248   4.940  0.00  0.00    -0.080 A 
ATOM      5  C6  UNL d   1      -3.975   3.592   5.061  0.00  0.00     0.076 C 
ATOM      6  C7  UNL d   1      -1.879   4.087   3.772  0.00  0.00     0.002 A 
ATOM      7  C8  UNL d   1      -0.615   4.669   3.658  0.00  0.00     0.006 A 
ENDROOT
BRANCH   1   8
ATOM      8  C1  UNL d   1       1.306   6.000   4.609  0.00  0.00     0.054 C 
ATOM      9  C   UNL d   1       2.008   5.986   5.960  0.00  0.00     0.018 C 
ENDBRANCH   1   8
TORSDOF 1
ENDMDL
