MODEL 1
REMARK minimizedAffinity 7.7081852
REMARK minimizedRMSD -1
REMARK  1 active torsions:
REMARK  status: ('A' for Active; 'I' for Inactive)
REMARK    1  A    between atoms: C1_2  and  C2_3 
ROOT
ATOM      1  C2  UNL d   1       1.511  -2.441   1.879  0.00  0.00    -0.081 A 
ATOM      2  C3  UNL d   1       1.774  -1.805   0.659  0.00  0.00     0.006 A 
ATOM      3  C4  UNL d   1       1.826  -0.411   0.583  0.00  0.00     0.002 A 
ATOM      4  C5  UNL d   1       1.623   0.370   1.726  0.00  0.00    -0.080 A 
ATOM      5  C6  UNL d   1       1.705   1.866   1.664  0.00  0.00     0.076 C 
ATOM      6  C7  UNL d   1       1.342  -0.264   2.941  0.00  0.00     0.002 A 
ATOM      7  C8  UNL d   1       1.289  -1.658   3.017  0.00  0.00     0.006 A 
ENDROOT
BRANCH   1   8
ATOM      8  C1  UNL d   1       1.518  -3.945   1.977  0.00  0.00     0.054 C 
ATOM      9  C   UNL d   1       0.211  -4.468   2.553  0.00  0.00     0.018 C 
ENDBRANCH   1   8
TORSDOF 1
ENDMDL
