MODEL 1
REMARK minimizedAffinity 2.51775551
REMARK minimizedRMSD -1
REMARK  1 active torsions:
REMARK  status: ('A' for Active; 'I' for Inactive)
REMARK    1  A    between atoms: C1_2  and  C2_3 
ROOT
ATOM      1  C2  UNL d   1      -1.617   5.591   4.723  0.00  0.00    -0.081 A 
ATOM      2  C3  UNL d   1      -0.946   5.588   5.952  0.00  0.00     0.006 A 
ATOM      3  C4  UNL d   1       0.445   5.706   6.000  0.00  0.00     0.002 A 
ATOM      4  C5  UNL d   1       1.187   5.837   4.821  0.00  0.00    -0.080 A 
ATOM      5  C6  UNL d   1       2.678   5.995   4.861  0.00  0.00     0.076 C 
ATOM      6  C7  UNL d   1       0.519   5.822   3.592  0.00  0.00     0.002 A 
ATOM      7  C8  UNL d   1      -0.872   5.704   3.544  0.00  0.00     0.006 A 
ENDROOT
BRANCH   1   8
ATOM      8  C1  UNL d   1      -3.122   5.529   4.671  0.00  0.00     0.054 C 
ATOM      9  C   UNL d   1      -3.739   5.945   5.998  0.00  0.00     0.018 C 
ENDBRANCH   1   8
TORSDOF 1
ENDMDL
