MODEL 1
REMARK minimizedAffinity 2.42118025
REMARK minimizedRMSD -1
REMARK  1 active torsions:
REMARK  status: ('A' for Active; 'I' for Inactive)
REMARK    1  A    between atoms: C1_2  and  C2_3 
ROOT
ATOM      1  C2  UNL d   1       3.395   5.482   4.830  0.00  0.00    -0.081 A 
ATOM      2  C3  UNL d   1       2.720   5.922   5.975  0.00  0.00     0.006 A 
ATOM      3  C4  UNL d   1       1.324   5.969   6.000  0.00  0.00     0.002 A 
ATOM      4  C5  UNL d   1       0.581   5.569   4.885  0.00  0.00    -0.080 A 
ATOM      5  C6  UNL d   1      -0.919   5.585   4.909  0.00  0.00     0.076 C 
ATOM      6  C7  UNL d   1       1.256   5.145   3.735  0.00  0.00     0.002 A 
ATOM      7  C8  UNL d   1       2.651   5.098   3.709  0.00  0.00     0.006 A 
ENDROOT
BRANCH   1   8
ATOM      8  C1  UNL d   1       4.899   5.369   4.823  0.00  0.00     0.054 C 
ATOM      9  C   UNL d   1       5.352   4.064   4.185  0.00  0.00     0.018 C 
ENDBRANCH   1   8
TORSDOF 1
ENDMDL
