MODEL 1
REMARK minimizedAffinity 2.95728827
REMARK minimizedRMSD -1
REMARK  1 active torsions:
REMARK  status: ('A' for Active; 'I' for Inactive)
REMARK    1  A    between atoms: C1_2  and  C2_3 
ROOT
ATOM      1  C2  UNL d   1      -0.456   4.879   4.757  0.00  0.00    -0.081 A 
ATOM      2  C3  UNL d   1      -0.853   4.313   5.975  0.00  0.00     0.006 A 
ATOM      3  C4  UNL d   1      -1.741   3.235   6.000  0.00  0.00     0.002 A 
ATOM      4  C5  UNL d   1      -2.242   2.701   4.808  0.00  0.00    -0.080 A 
ATOM      5  C6  UNL d   1      -3.173   1.525   4.819  0.00  0.00     0.076 C 
ATOM      6  C7  UNL d   1      -1.860   3.277   3.592  0.00  0.00     0.002 A 
ATOM      7  C8  UNL d   1      -0.972   4.355   3.567  0.00  0.00     0.006 A 
ENDROOT
BRANCH   1   8
ATOM      8  C1  UNL d   1       0.552   5.999   4.725  0.00  0.00     0.054 C 
ATOM      9  C   UNL d   1       1.620   5.813   5.792  0.00  0.00     0.018 C 
ENDBRANCH   1   8
TORSDOF 1
ENDMDL
