MODEL 1
REMARK minimizedAffinity -3.2402215
REMARK minimizedRMSD -1
REMARK  1 active torsions:
REMARK  status: ('A' for Active; 'I' for Inactive)
REMARK    1  A    between atoms: C1_2  and  C2_3 
ROOT
ATOM      1  C2  UNL d   1       1.930   5.324   5.351  0.00  0.00    -0.081 A 
ATOM      2  C3  UNL d   1       2.231   4.192   4.584  0.00  0.00     0.006 A 
ATOM      3  C4  UNL d   1       3.547   3.738   4.477  0.00  0.00     0.002 A 
ATOM      4  C5  UNL d   1       4.584   4.404   5.141  0.00  0.00    -0.080 A 
ATOM      5  C6  UNL d   1       5.997   3.909   5.058  0.00  0.00     0.076 C 
ATOM      6  C7  UNL d   1       4.286   5.545   5.893  0.00  0.00     0.002 A 
ATOM      7  C8  UNL d   1       2.970   5.999   6.000  0.00  0.00     0.006 A 
ENDROOT
BRANCH   1   8
ATOM      8  C1  UNL d   1       0.503   5.777   5.522  0.00  0.00     0.054 C 
ATOM      9  C   UNL d   1      -0.172   5.999   4.175  0.00  0.00     0.018 C 
ENDBRANCH   1   8
TORSDOF 1
ENDMDL
