MODEL 1
REMARK minimizedAffinity -3.78088069
REMARK minimizedRMSD -1
REMARK  1 active torsions:
REMARK  status: ('A' for Active; 'I' for Inactive)
REMARK    1  A    between atoms: C1_2  and  C2_3 
ROOT
ATOM      1  C2  UNL d   1      -2.374   4.289   5.379  0.00  0.00    -0.081 A 
ATOM      2  C3  UNL d   1      -1.273   3.686   5.999  0.00  0.00     0.006 A 
ATOM      3  C4  UNL d   1       0.007   4.227   5.851  0.00  0.00     0.002 A 
ATOM      4  C5  UNL d   1       0.205   5.383   5.088  0.00  0.00    -0.080 A 
ATOM      5  C6  UNL d   1       1.569   5.991   4.946  0.00  0.00     0.076 C 
ATOM      6  C7  UNL d   1      -0.893   5.976   4.455  0.00  0.00     0.002 A 
ATOM      7  C8  UNL d   1      -2.172   5.435   4.602  0.00  0.00     0.006 A 
ENDROOT
BRANCH   1   8
ATOM      8  C1  UNL d   1      -3.765   3.746   5.590  0.00  0.00     0.054 C 
ATOM      9  C   UNL d   1      -3.733   2.262   5.927  0.00  0.00     0.018 C 
ENDBRANCH   1   8
TORSDOF 1
ENDMDL
