MODEL 1
REMARK minimizedAffinity 10.9051485
REMARK minimizedRMSD -1
REMARK  0 active torsions:
REMARK  status: ('A' for Active; 'I' for Inactive)
ROOT
ATOM      1  C2' OXE d   1      -0.464  -5.981   2.553  0.00  0.00     0.078 C 
ATOM      2  C1' OXE d   1      -1.423  -3.540   3.554  0.00  0.00     0.078 C 
ATOM      3  C1  OXE d   1      -1.403  -3.727   2.058  0.00  0.00    -0.078 A 
ATOM      4  C2  OXE d   1      -0.889  -4.907   1.575  0.00  0.00    -0.078 A 
ATOM      5  C3  OXE d   1      -0.898  -5.153   0.205  0.00  0.00     0.003 A 
ATOM      6  C4  OXE d   1      -1.283  -4.150  -0.693  0.00  0.00    -0.002 A 
ATOM      7  C5  OXE d   1      -1.772  -2.927  -0.223  0.00  0.00    -0.002 A 
ATOM      8  C6  OXE d   1      -1.879  -2.716   1.147  0.00  0.00     0.003 A 
ENDROOT
TORSDOF 0
ENDMDL
