MODEL 1
REMARK minimizedAffinity 4.12329674
REMARK minimizedRMSD -1
REMARK  0 active torsions:
REMARK  status: ('A' for Active; 'I' for Inactive)
ROOT
ATOM      1  C2' OXE d   1      -1.899  -1.946   0.669  0.00  0.00     0.078 C 
ATOM      2  C1' OXE d   1      -2.177  -2.920   3.287  0.00  0.00     0.078 C 
ATOM      3  C1  OXE d   1      -1.583  -3.843   2.252  0.00  0.00    -0.078 A 
ATOM      4  C2  OXE d   1      -1.494  -3.374   0.964  0.00  0.00    -0.078 A 
ATOM      5  C3  OXE d   1      -0.903  -4.164  -0.018  0.00  0.00     0.003 A 
ATOM      6  C4  OXE d   1      -0.540  -5.488   0.261  0.00  0.00    -0.002 A 
ATOM      7  C5  OXE d   1      -0.659  -5.998   1.557  0.00  0.00    -0.002 A 
ATOM      8  C6  OXE d   1      -1.138  -5.177   2.572  0.00  0.00     0.003 A 
ENDROOT
TORSDOF 0
ENDMDL
