MODEL 1
REMARK minimizedAffinity 15.4807587
REMARK minimizedRMSD -1
REMARK  0 active torsions:
REMARK  status: ('A' for Active; 'I' for Inactive)
ROOT
ATOM      1  C2' OXE d   1      -2.250  -2.303   0.750  0.00  0.00     0.078 C 
ATOM      2  C1' OXE d   1      -2.511  -3.005   3.455  0.00  0.00     0.078 C 
ATOM      3  C1  OXE d   1      -1.742  -3.940   2.557  0.00  0.00    -0.078 A 
ATOM      4  C2  OXE d   1      -1.659  -3.612   1.225  0.00  0.00    -0.078 A 
ATOM      5  C3  OXE d   1      -0.914  -4.412   0.363  0.00  0.00     0.003 A 
ATOM      6  C4  OXE d   1      -0.379  -5.627   0.808  0.00  0.00    -0.002 A 
ATOM      7  C5  OXE d   1      -0.486  -6.000   2.152  0.00  0.00    -0.002 A 
ATOM      8  C6  OXE d   1      -1.126  -5.149   3.047  0.00  0.00     0.003 A 
ENDROOT
TORSDOF 0
ENDMDL
