MODEL 1
REMARK minimizedAffinity 12.9821768
REMARK minimizedRMSD -1
REMARK  0 active torsions:
REMARK  status: ('A' for Active; 'I' for Inactive)
ROOT
ATOM      1  C2' OXE d   1      -0.484  -4.779   1.523  0.00  0.00     0.078 C 
ATOM      2  C1' OXE d   1      -2.235  -3.295   3.137  0.00  0.00     0.078 C 
ATOM      3  C1  OXE d   1      -1.953  -2.780   1.748  0.00  0.00    -0.078 A 
ATOM      4  C2  OXE d   1      -1.059  -3.488   0.981  0.00  0.00    -0.078 A 
ATOM      5  C3  OXE d   1      -0.804  -3.088  -0.327  0.00  0.00     0.003 A 
ATOM      6  C4  OXE d   1      -1.332  -1.887  -0.817  0.00  0.00    -0.002 A 
ATOM      7  C5  OXE d   1      -2.215  -1.130  -0.039  0.00  0.00    -0.002 A 
ATOM      8  C6  OXE d   1      -2.568  -1.584   1.227  0.00  0.00     0.003 A 
ENDROOT
TORSDOF 0
ENDMDL
