MODEL 1
REMARK minimizedAffinity 11.6516285
REMARK minimizedRMSD -1
REMARK  0 active torsions:
REMARK  status: ('A' for Active; 'I' for Inactive)
ROOT
ATOM      1  C2' OXE d   1      -3.013   0.612  -3.635  0.00  0.00     0.078 C 
ATOM      2  C1' OXE d   1      -0.236   0.579  -4.043  0.00  0.00     0.078 C 
ATOM      3  C1  OXE d   1      -1.024   1.710  -4.655  0.00  0.00    -0.078 A 
ATOM      4  C2  OXE d   1      -2.388   1.693  -4.490  0.00  0.00    -0.078 A 
ATOM      5  C3  OXE d   1      -3.156   2.742  -4.987  0.00  0.00     0.003 A 
ATOM      6  C4  OXE d   1      -2.571   3.732  -5.785  0.00  0.00    -0.002 A 
ATOM      7  C5  OXE d   1      -1.188   3.747  -6.000  0.00  0.00    -0.002 A 
ATOM      8  C6  OXE d   1      -0.397   2.769  -5.408  0.00  0.00     0.003 A 
ENDROOT
TORSDOF 0
ENDMDL
