MODEL 1
REMARK minimizedAffinity 10.0959606
REMARK minimizedRMSD -1
REMARK  0 active torsions:
REMARK  status: ('A' for Active; 'I' for Inactive)
ROOT
ATOM      1  C2' OXE d   1      -2.321  -1.503   0.742  0.00  0.00     0.078 C 
ATOM      2  C1' OXE d   1      -0.554  -1.848  -1.412  0.00  0.00     0.078 C 
ATOM      3  C1  OXE d   1      -0.698  -2.985  -0.431  0.00  0.00    -0.078 A 
ATOM      4  C2  OXE d   1      -1.530  -2.790   0.645  0.00  0.00    -0.078 A 
ATOM      5  C3  OXE d   1      -1.741  -3.827   1.549  0.00  0.00     0.003 A 
ATOM      6  C4  OXE d   1      -0.998  -5.010   1.458  0.00  0.00    -0.002 A 
ATOM      7  C5  OXE d   1      -0.116  -5.213   0.392  0.00  0.00    -0.002 A 
ATOM      8  C6  OXE d   1       0.014  -4.230  -0.583  0.00  0.00     0.003 A 
ENDROOT
TORSDOF 0
ENDMDL
