MODEL 1
REMARK minimizedAffinity 7.84622908
REMARK minimizedRMSD -1
REMARK  0 active torsions:
REMARK  status: ('A' for Active; 'I' for Inactive)
ROOT
ATOM      1  C2' OXE d   1      -3.246  -0.562  -1.334  0.00  0.00     0.078 C 
ATOM      2  C1' OXE d   1      -1.693  -2.194  -3.009  0.00  0.00     0.078 C 
ATOM      3  C1  OXE d   1      -1.728  -2.527  -1.538  0.00  0.00    -0.078 A 
ATOM      4  C2  OXE d   1      -2.452  -1.695  -0.719  0.00  0.00    -0.078 A 
ATOM      5  C3  OXE d   1      -2.562  -1.988   0.637  0.00  0.00     0.003 A 
ATOM      6  C4  OXE d   1      -1.817  -3.032   1.200  0.00  0.00    -0.002 A 
ATOM      7  C5  OXE d   1      -1.041  -3.867   0.389  0.00  0.00    -0.002 A 
ATOM      8  C6  OXE d   1      -1.019  -3.654  -0.985  0.00  0.00     0.003 A 
ENDROOT
TORSDOF 0
ENDMDL
