MODEL 1
REMARK minimizedAffinity 15.2285156
REMARK minimizedRMSD -1
REMARK  0 active torsions:
REMARK  status: ('A' for Active; 'I' for Inactive)
ROOT
ATOM      1  C2' OXE d   1      -2.355  -0.775   5.198  0.00  0.00     0.078 C 
ATOM      2  C1' OXE d   1      -4.988  -1.750   5.194  0.00  0.00     0.078 C 
ATOM      3  C1  OXE d   1      -4.782  -0.280   5.464  0.00  0.00    -0.078 A 
ATOM      4  C2  OXE d   1      -3.488   0.179   5.511  0.00  0.00    -0.078 A 
ATOM      5  C3  OXE d   1      -3.244   1.536   5.702  0.00  0.00     0.003 A 
ATOM      6  C4  OXE d   1      -4.297   2.410   6.000  0.00  0.00    -0.002 A 
ATOM      7  C5  OXE d   1      -5.619   1.955   5.997  0.00  0.00    -0.002 A 
ATOM      8  C6  OXE d   1      -5.882   0.625   5.690  0.00  0.00     0.003 A 
ENDROOT
TORSDOF 0
ENDMDL
