MODEL 1
REMARK minimizedAffinity 16.7156868
REMARK minimizedRMSD -1
REMARK  0 active torsions:
REMARK  status: ('A' for Active; 'I' for Inactive)
ROOT
ATOM      1  C2' OXE d   1       3.355  -0.593  -3.010  0.00  0.00     0.078 C 
ATOM      2  C1' OXE d   1       0.761  -0.443  -1.948  0.00  0.00     0.078 C 
ATOM      3  C1  OXE d   1       1.789   0.532  -1.433  0.00  0.00    -0.078 A 
ATOM      4  C2  OXE d   1       3.068   0.421  -1.924  0.00  0.00    -0.078 A 
ATOM      5  C3  OXE d   1       4.042   1.331  -1.523  0.00  0.00     0.003 A 
ATOM      6  C4  OXE d   1       3.770   2.260  -0.511  0.00  0.00    -0.002 A 
ATOM      7  C5  OXE d   1       2.485   2.363   0.032  0.00  0.00    -0.002 A 
ATOM      8  C6  OXE d   1       1.475   1.537  -0.447  0.00  0.00     0.003 A 
ENDROOT
TORSDOF 0
ENDMDL
