MODEL 1
REMARK minimizedAffinity 11.6587858
REMARK minimizedRMSD -1
REMARK  0 active torsions:
REMARK  status: ('A' for Active; 'I' for Inactive)
ROOT
ATOM      1  C2' OXE d   1      -0.638  -5.640  -1.437  0.00  0.00     0.078 C 
ATOM      2  C1' OXE d   1      -0.240  -3.459   0.285  0.00  0.00     0.078 C 
ATOM      3  C1  OXE d   1      -0.510  -3.167  -1.170  0.00  0.00    -0.078 A 
ATOM      4  C2  OXE d   1      -0.657  -4.241  -2.014  0.00  0.00    -0.078 A 
ATOM      5  C3  OXE d   1      -0.963  -4.028  -3.355  0.00  0.00     0.003 A 
ATOM      6  C4  OXE d   1      -0.969  -2.731  -3.883  0.00  0.00    -0.002 A 
ATOM      7  C5  OXE d   1      -0.782  -1.624  -3.048  0.00  0.00    -0.002 A 
ATOM      8  C6  OXE d   1      -0.594  -1.822  -1.685  0.00  0.00     0.003 A 
ENDROOT
TORSDOF 0
ENDMDL
