MODEL 1
REMARK minimizedAffinity 15.7744551
REMARK minimizedRMSD -1
REMARK  0 active torsions:
REMARK  status: ('A' for Active; 'I' for Inactive)
ROOT
ATOM      1  C2' OXE d   1      -2.435  -4.463   5.039  0.00  0.00     0.078 C 
ATOM      2  C1' OXE d   1      -0.936  -2.119   4.665  0.00  0.00     0.078 C 
ATOM      3  C1  OXE d   1      -2.358  -1.976   5.148  0.00  0.00    -0.078 A 
ATOM      4  C2  OXE d   1      -3.099  -3.125   5.283  0.00  0.00    -0.078 A 
ATOM      5  C3  OXE d   1      -4.398  -3.054   5.777  0.00  0.00     0.003 A 
ATOM      6  C4  OXE d   1      -5.008  -1.812   5.991  0.00  0.00    -0.002 A 
ATOM      7  C5  OXE d   1      -4.284  -0.627   5.821  0.00  0.00    -0.002 A 
ATOM      8  C6  OXE d   1      -2.948  -0.693   5.441  0.00  0.00     0.003 A 
ENDROOT
TORSDOF 0
ENDMDL
