MODEL 1
REMARK minimizedAffinity 11.1117496
REMARK minimizedRMSD -1
REMARK  0 active torsions:
REMARK  status: ('A' for Active; 'I' for Inactive)
ROOT
ATOM      1  C2' OXE d   1      -1.447  -1.009  -0.183  0.00  0.00     0.078 C 
ATOM      2  C1' OXE d   1      -1.117  -2.203  -2.702  0.00  0.00     0.078 C 
ATOM      3  C1  OXE d   1      -0.975  -3.081  -1.484  0.00  0.00    -0.078 A 
ATOM      4  C2  OXE d   1      -1.092  -2.479  -0.254  0.00  0.00    -0.078 A 
ATOM      5  C3  OXE d   1      -1.024  -3.252   0.901  0.00  0.00     0.003 A 
ATOM      6  C4  OXE d   1      -0.685  -4.609   0.827  0.00  0.00    -0.002 A 
ATOM      7  C5  OXE d   1      -0.522  -5.233  -0.414  0.00  0.00    -0.002 A 
ATOM      8  C6  OXE d   1      -0.706  -4.494  -1.577  0.00  0.00     0.003 A 
ENDROOT
TORSDOF 0
ENDMDL
