MODEL 1
REMARK minimizedAffinity 16.5841122
REMARK minimizedRMSD -1
REMARK  0 active torsions:
REMARK  status: ('A' for Active; 'I' for Inactive)
ROOT
ATOM      1  C2' OXE d   1      -1.874   1.576   2.143  0.00  0.00     0.078 C 
ATOM      2  C1' OXE d   1      -1.589  -0.899   0.850  0.00  0.00     0.078 C 
ATOM      3  C1  OXE d   1      -1.616  -0.892   2.358  0.00  0.00    -0.078 A 
ATOM      4  C2  OXE d   1      -1.709   0.328   2.983  0.00  0.00    -0.078 A 
ATOM      5  C3  OXE d   1      -1.793   0.387   4.371  0.00  0.00     0.003 A 
ATOM      6  C4  OXE d   1      -1.629  -0.771   5.141  0.00  0.00    -0.002 A 
ATOM      7  C5  OXE d   1      -1.494  -2.020   4.525  0.00  0.00    -0.002 A 
ATOM      8  C6  OXE d   1      -1.528  -2.102   3.137  0.00  0.00     0.003 A 
ENDROOT
TORSDOF 0
ENDMDL
