MODEL 1
REMARK minimizedAffinity 7.39622927
REMARK minimizedRMSD -1
REMARK  0 active torsions:
REMARK  status: ('A' for Active; 'I' for Inactive)
ROOT
ATOM      1  C2' OXE d   1      -0.350  -0.400   5.998  0.00  0.00     0.078 C 
ATOM      2  C1' OXE d   1      -2.832   0.911   5.978  0.00  0.00     0.078 C 
ATOM      3  C1  OXE d   1      -2.833  -0.597   5.981  0.00  0.00    -0.078 A 
ATOM      4  C2  OXE d   1      -1.614  -1.230   5.943  0.00  0.00    -0.078 A 
ATOM      5  C3  OXE d   1      -1.558  -2.620   6.000  0.00  0.00     0.003 A 
ATOM      6  C4  OXE d   1      -2.732  -3.380   5.939  0.00  0.00    -0.002 A 
ATOM      7  C5  OXE d   1      -3.983  -2.755   5.936  0.00  0.00    -0.002 A 
ATOM      8  C6  OXE d   1      -4.052  -1.368   6.000  0.00  0.00     0.003 A 
ENDROOT
TORSDOF 0
ENDMDL
