MODEL 1
REMARK minimizedAffinity 7.79685307
REMARK minimizedRMSD -1
REMARK  0 active torsions:
REMARK  status: ('A' for Active; 'I' for Inactive)
ROOT
ATOM      1  C2' OXE d   1      -4.066   5.998  -2.611  0.00  0.00     0.078 C 
ATOM      2  C1' OXE d   1      -5.657   5.896  -4.922  0.00  0.00     0.078 C 
ATOM      3  C1  OXE d   1      -4.398   5.065  -4.897  0.00  0.00    -0.078 A 
ATOM      4  C2  OXE d   1      -3.602   5.157  -3.781  0.00  0.00    -0.078 A 
ATOM      5  C3  OXE d   1      -2.458   4.370  -3.683  0.00  0.00     0.003 A 
ATOM      6  C4  OXE d   1      -2.030   3.603  -4.774  0.00  0.00    -0.002 A 
ATOM      7  C5  OXE d   1      -2.806   3.526  -5.935  0.00  0.00    -0.002 A 
ATOM      8  C6  OXE d   1      -4.012   4.216  -5.997  0.00  0.00     0.003 A 
ENDROOT
TORSDOF 0
ENDMDL
