MODEL 1
REMARK minimizedAffinity 18.1558113
REMARK minimizedRMSD -1
REMARK  0 active torsions:
REMARK  status: ('A' for Active; 'I' for Inactive)
ROOT
ATOM      1  C2' OXE d   1      -5.501   5.358  -0.082  0.00  0.00     0.078 C 
ATOM      2  C1' OXE d   1      -5.709   2.655   0.648  0.00  0.00     0.078 C 
ATOM      3  C1  OXE d   1      -5.755   3.687   1.747  0.00  0.00    -0.078 A 
ATOM      4  C2  OXE d   1      -5.606   5.004   1.385  0.00  0.00    -0.078 A 
ATOM      5  C3  OXE d   1      -5.696   5.999   2.354  0.00  0.00     0.003 A 
ATOM      6  C4  OXE d   1      -5.783   5.663   3.710  0.00  0.00    -0.002 A 
ATOM      7  C5  OXE d   1      -5.896   4.325   4.104  0.00  0.00    -0.002 A 
ATOM      8  C6  OXE d   1      -5.927   3.330   3.134  0.00  0.00     0.003 A 
ENDROOT
TORSDOF 0
ENDMDL
