MODEL 1
REMARK minimizedAffinity 9.3208456
REMARK minimizedRMSD -1
REMARK  0 active torsions:
REMARK  status: ('A' for Active; 'I' for Inactive)
ROOT
ATOM      1  C2' OXE d   1      -2.630  -3.181   5.549  0.00  0.00     0.078 C 
ATOM      2  C1' OXE d   1      -0.715  -1.134   5.391  0.00  0.00     0.078 C 
ATOM      3  C1  OXE d   1      -2.152  -0.737   5.622  0.00  0.00    -0.078 A 
ATOM      4  C2  OXE d   1      -3.089  -1.742   5.651  0.00  0.00    -0.078 A 
ATOM      5  C3  OXE d   1      -4.420  -1.435   5.916  0.00  0.00     0.003 A 
ATOM      6  C4  OXE d   1      -4.838  -0.102   5.999  0.00  0.00    -0.002 A 
ATOM      7  C5  OXE d   1      -3.906   0.939   5.932  0.00  0.00    -0.002 A 
ATOM      8  C6  OXE d   1      -2.556   0.638   5.787  0.00  0.00     0.003 A 
ENDROOT
TORSDOF 0
ENDMDL
