MODEL 1
REMARK minimizedAffinity -3.47988248
REMARK minimizedRMSD -1
REMARK  3 active torsions:
REMARK  status: ('A' for Active; 'I' for Inactive)
REMARK    1  A    between atoms: C3'_2  and  C2'_3 
REMARK    2  A    between atoms: C2'_3  and  C1'_4 
REMARK    3  A    between atoms: C1'_4  and  C1_5 
ROOT
ATOM      1  C1  N4B d   1      -0.048  -0.251   0.360  0.00  0.00    -0.075 A 
ATOM      2  C2  N4B d   1      -1.382   0.196   0.486  0.00  0.00     0.002 A 
ATOM      3  C3  N4B d   1      -1.859   0.596   1.710  0.00  0.00     0.002 A 
ATOM      4  C4  N4B d   1      -1.030   0.540   2.821  0.00  0.00    -0.004 A 
ATOM      5  C5  N4B d   1       0.264   0.131   2.686  0.00  0.00     0.002 A 
ATOM      6  C6  N4B d   1       0.758  -0.270   1.461  0.00  0.00     0.002 A 
ENDROOT
BRANCH   1   7
ATOM      7  C1' N4B d   1       0.492  -0.780  -0.941  0.00  0.00     0.057 C 
BRANCH   7   8
ATOM      8  C2' N4B d   1       0.399   0.312  -2.002  0.00  0.00     0.009 C 
BRANCH   8   9
ATOM      9  C3' N4B d   1       0.734  -0.213  -3.388  0.00  0.00     0.004 C 
ATOM     10  C4' N4B d   1       1.544   0.757  -4.196  0.00  0.00     0.003 C 
ENDBRANCH   8   9
ENDBRANCH   7   8
ENDBRANCH   1   7
TORSDOF 3
ENDMDL
