MODEL 1
REMARK minimizedAffinity -0.995418966
REMARK minimizedRMSD -1
REMARK  3 active torsions:
REMARK  status: ('A' for Active; 'I' for Inactive)
REMARK    1  A    between atoms: C3'_2  and  C2'_3 
REMARK    2  A    between atoms: C2'_3  and  C1'_4 
REMARK    3  A    between atoms: C1'_4  and  C1_5 
ROOT
ATOM      1  C1  N4B d   1       0.006   0.146   1.348  0.00  0.00    -0.075 A 
ATOM      2  C2  N4B d   1      -0.915   0.323   2.404  0.00  0.00     0.002 A 
ATOM      3  C3  N4B d   1      -0.540   0.046   3.696  0.00  0.00     0.002 A 
ATOM      4  C4  N4B d   1       0.739  -0.425   3.953  0.00  0.00    -0.004 A 
ATOM      5  C5  N4B d   1       1.630  -0.569   2.930  0.00  0.00     0.002 A 
ATOM      6  C6  N4B d   1       1.268  -0.291   1.627  0.00  0.00     0.002 A 
ENDROOT
BRANCH   1   7
ATOM      7  C1' N4B d   1      -0.385   0.354  -0.090  0.00  0.00     0.057 C 
BRANCH   7   8
ATOM      8  C2' N4B d   1       0.291  -0.709  -0.951  0.00  0.00     0.009 C 
BRANCH   8   9
ATOM      9  C3' N4B d   1       1.046  -0.098  -2.119  0.00  0.00     0.004 C 
ATOM     10  C4' N4B d   1       0.506  -0.529  -3.449  0.00  0.00     0.003 C 
ENDBRANCH   8   9
ENDBRANCH   7   8
ENDBRANCH   1   7
TORSDOF 3
ENDMDL
