MODEL 1
REMARK minimizedAffinity -2.45259333
REMARK minimizedRMSD -1
REMARK  3 active torsions:
REMARK  status: ('A' for Active; 'I' for Inactive)
REMARK    1  A    between atoms: C3'_2  and  C2'_3 
REMARK    2  A    between atoms: C2'_3  and  C1'_4 
REMARK    3  A    between atoms: C1'_4  and  C1_5 
ROOT
ATOM      1  C1  N4B d   1       0.912  -0.312  -1.671  0.00  0.00    -0.075 A 
ATOM      2  C2  N4B d   1       2.065   0.307  -2.200  0.00  0.00     0.002 A 
ATOM      3  C3  N4B d   1       2.119   0.634  -3.533  0.00  0.00     0.002 A 
ATOM      4  C4  N4B d   1       1.043   0.337  -4.356  0.00  0.00    -0.004 A 
ATOM      5  C5  N4B d   1      -0.078  -0.237  -3.831  0.00  0.00     0.002 A 
ATOM      6  C6  N4B d   1      -0.147  -0.568  -2.493  0.00  0.00     0.002 A 
ENDROOT
BRANCH   1   7
ATOM      7  C1' N4B d   1       0.840  -0.766  -0.238  0.00  0.00     0.057 C 
BRANCH   7   8
ATOM      8  C2' N4B d   1      -0.268   0.002   0.476  0.00  0.00     0.009 C 
BRANCH   8   9
ATOM      9  C3' N4B d   1      -0.000   0.132   1.966  0.00  0.00     0.004 C 
ATOM     10  C4' N4B d   1      -1.254   0.086   2.787  0.00  0.00     0.003 C 
ENDBRANCH   8   9
ENDBRANCH   7   8
ENDBRANCH   1   7
TORSDOF 3
ENDMDL
