MODEL 1
REMARK minimizedAffinity -4.42972851
REMARK minimizedRMSD -1
REMARK  3 active torsions:
REMARK  status: ('A' for Active; 'I' for Inactive)
REMARK    1  A    between atoms: C3'_2  and  C2'_3 
REMARK    2  A    between atoms: C2'_3  and  C1'_4 
REMARK    3  A    between atoms: C1'_4  and  C1_5 
ROOT
ATOM      1  C1  N4B d   1      -0.201   0.370  -0.215  0.00  0.00    -0.075 A 
ATOM      2  C2  N4B d   1       0.003  -0.098   1.102  0.00  0.00     0.002 A 
ATOM      3  C3  N4B d   1      -0.947   0.132   2.067  0.00  0.00     0.002 A 
ATOM      4  C4  N4B d   1      -2.095   0.840   1.744  0.00  0.00    -0.004 A 
ATOM      5  C5  N4B d   1      -2.296   1.266   0.464  0.00  0.00     0.002 A 
ATOM      6  C6  N4B d   1      -1.352   1.039  -0.517  0.00  0.00     0.002 A 
ENDROOT
BRANCH   1   7
ATOM      7  C1' N4B d   1       0.847   0.218  -1.283  0.00  0.00     0.057 C 
BRANCH   7   8
ATOM      8  C2' N4B d   1       0.238  -0.498  -2.485  0.00  0.00     0.009 C 
BRANCH   8   9
ATOM      9  C3' N4B d   1       0.722   0.088  -3.800  0.00  0.00     0.004 C 
ATOM     10  C4' N4B d   1       1.789   1.125  -3.617  0.00  0.00     0.003 C 
ENDBRANCH   8   9
ENDBRANCH   7   8
ENDBRANCH   1   7
TORSDOF 3
ENDMDL
