MODEL 1
REMARK minimizedAffinity 0.0673030019
REMARK minimizedRMSD -1
REMARK  3 active torsions:
REMARK  status: ('A' for Active; 'I' for Inactive)
REMARK    1  A    between atoms: C3'_2  and  C2'_3 
REMARK    2  A    between atoms: C2'_3  and  C1'_4 
REMARK    3  A    between atoms: C1'_4  and  C1_5 
ROOT
ATOM      1  C1  N4B d   1      -0.177  -0.223   0.690  0.00  0.00    -0.075 A 
ATOM      2  C2  N4B d   1      -0.169  -1.619   0.901  0.00  0.00     0.002 A 
ATOM      3  C3  N4B d   1       0.255  -2.461  -0.098  0.00  0.00     0.002 A 
ATOM      4  C4  N4B d   1       0.654  -1.933  -1.317  0.00  0.00    -0.004 A 
ATOM      5  C5  N4B d   1       0.667  -0.582  -1.503  0.00  0.00     0.002 A 
ATOM      6  C6  N4B d   1       0.248   0.277  -0.507  0.00  0.00     0.002 A 
ENDROOT
BRANCH   1   7
ATOM      7  C1' N4B d   1      -0.713   0.733   1.722  0.00  0.00     0.057 C 
BRANCH   7   8
ATOM      8  C2' N4B d   1      -2.103   0.276   2.154  0.00  0.00     0.009 C 
BRANCH   8   9
ATOM      9  C3' N4B d   1      -3.192   1.193   1.626  0.00  0.00     0.004 C 
ATOM     10  C4' N4B d   1      -4.489   0.478   1.390  0.00  0.00     0.003 C 
ENDBRANCH   8   9
ENDBRANCH   7   8
ENDBRANCH   1   7
TORSDOF 3
ENDMDL
