MODEL 1
REMARK minimizedAffinity -3.75568414
REMARK minimizedRMSD -1
REMARK  3 active torsions:
REMARK  status: ('A' for Active; 'I' for Inactive)
REMARK    1  A    between atoms: C3'_2  and  C2'_3 
REMARK    2  A    between atoms: C2'_3  and  C1'_4 
REMARK    3  A    between atoms: C1'_4  and  C1_5 
ROOT
ATOM      1  C1  N4B d   1       0.289  -0.449  -0.323  0.00  0.00    -0.075 A 
ATOM      2  C2  N4B d   1       0.639   0.875  -0.665  0.00  0.00     0.002 A 
ATOM      3  C3  N4B d   1       1.723   1.112  -1.475  0.00  0.00     0.002 A 
ATOM      4  C4  N4B d   1       2.479   0.045  -1.937  0.00  0.00    -0.004 A 
ATOM      5  C5  N4B d   1       2.119  -1.233  -1.623  0.00  0.00     0.002 A 
ATOM      6  C6  N4B d   1       1.030  -1.485  -0.814  0.00  0.00     0.002 A 
ENDROOT
BRANCH   1   7
ATOM      7  C1' N4B d   1      -0.836  -0.753   0.628  0.00  0.00     0.057 C 
BRANCH   7   8
ATOM      8  C2' N4B d   1      -0.638   0.050   1.910  0.00  0.00     0.009 C 
BRANCH   8   9
ATOM      9  C3' N4B d   1      -1.961   0.418   2.560  0.00  0.00     0.004 C 
ATOM     10  C4' N4B d   1      -3.103  -0.419   2.067  0.00  0.00     0.003 C 
ENDBRANCH   8   9
ENDBRANCH   7   8
ENDBRANCH   1   7
TORSDOF 3
ENDMDL
