MODEL 1
REMARK minimizedAffinity -3.52942014
REMARK minimizedRMSD -1
REMARK  3 active torsions:
REMARK  status: ('A' for Active; 'I' for Inactive)
REMARK    1  A    between atoms: C3'_2  and  C2'_3 
REMARK    2  A    between atoms: C2'_3  and  C1'_4 
REMARK    3  A    between atoms: C1'_4  and  C1_5 
ROOT
ATOM      1  C1  N4B d   1       0.703   0.322  -0.692  0.00  0.00    -0.075 A 
ATOM      2  C2  N4B d   1       1.505   1.234   0.029  0.00  0.00     0.002 A 
ATOM      3  C3  N4B d   1       2.813   1.436  -0.338  0.00  0.00     0.002 A 
ATOM      4  C4  N4B d   1       3.344   0.726  -1.405  0.00  0.00    -0.004 A 
ATOM      5  C5  N4B d   1       2.555  -0.133  -2.111  0.00  0.00     0.002 A 
ATOM      6  C6  N4B d   1       1.238  -0.343  -1.757  0.00  0.00     0.002 A 
ENDROOT
BRANCH   1   7
ATOM      7  C1' N4B d   1      -0.707   0.004  -0.275  0.00  0.00     0.057 C 
BRANCH   7   8
ATOM      8  C2' N4B d   1      -0.729  -0.316   1.216  0.00  0.00     0.009 C 
BRANCH   8   9
ATOM      9  C3' N4B d   1      -2.051   0.066   1.860  0.00  0.00     0.004 C 
ATOM     10  C4' N4B d   1      -3.204  -0.004   0.904  0.00  0.00     0.003 C 
ENDBRANCH   8   9
ENDBRANCH   7   8
ENDBRANCH   1   7
TORSDOF 3
ENDMDL
