MODEL 1
REMARK minimizedAffinity -5.05212402
REMARK minimizedRMSD -1
REMARK  3 active torsions:
REMARK  status: ('A' for Active; 'I' for Inactive)
REMARK    1  A    between atoms: C3'_2  and  C2'_3 
REMARK    2  A    between atoms: C2'_3  and  C1'_4 
REMARK    3  A    between atoms: C1'_4  and  C1_5 
ROOT
ATOM      1  C1  N4B d   1       0.174  -0.142  -0.279  0.00  0.00    -0.075 A 
ATOM      2  C2  N4B d   1       0.666   1.148   0.020  0.00  0.00     0.002 A 
ATOM      3  C3  N4B d   1       1.547   1.761  -0.836  0.00  0.00     0.002 A 
ATOM      4  C4  N4B d   1       1.964   1.100  -1.982  0.00  0.00    -0.004 A 
ATOM      5  C5  N4B d   1       1.465  -0.135  -2.275  0.00  0.00     0.002 A 
ATOM      6  C6  N4B d   1       0.575  -0.762  -1.426  0.00  0.00     0.002 A 
ENDROOT
BRANCH   1   7
ATOM      7  C1' N4B d   1      -0.725  -0.888   0.669  0.00  0.00     0.057 C 
BRANCH   7   8
ATOM      8  C2' N4B d   1      -1.495   0.115   1.524  0.00  0.00     0.009 C 
BRANCH   8   9
ATOM      9  C3' N4B d   1      -2.989   0.064   1.254  0.00  0.00     0.004 C 
ATOM     10  C4' N4B d   1      -3.731   1.209   1.875  0.00  0.00     0.003 C 
ENDBRANCH   8   9
ENDBRANCH   7   8
ENDBRANCH   1   7
TORSDOF 3
ENDMDL
