MODEL 1
REMARK minimizedAffinity -4.95307112
REMARK minimizedRMSD -1
REMARK  3 active torsions:
REMARK  status: ('A' for Active; 'I' for Inactive)
REMARK    1  A    between atoms: C3'_2  and  C2'_3 
REMARK    2  A    between atoms: C2'_3  and  C1'_4 
REMARK    3  A    between atoms: C1'_4  and  C1_5 
ROOT
ATOM      1  C1  N4B d   1       0.600   0.709  -0.419  0.00  0.00    -0.075 A 
ATOM      2  C2  N4B d   1       1.947   1.090  -0.600  0.00  0.00     0.002 A 
ATOM      3  C3  N4B d   1       2.616   0.723  -1.742  0.00  0.00     0.002 A 
ATOM      4  C4  N4B d   1       1.967  -0.037  -2.704  0.00  0.00    -0.004 A 
ATOM      5  C5  N4B d   1       0.657  -0.379  -2.532  0.00  0.00     0.002 A 
ATOM      6  C6  N4B d   1      -0.029  -0.014  -1.391  0.00  0.00     0.002 A 
ENDROOT
BRANCH   1   7
ATOM      7  C1' N4B d   1      -0.147   1.013   0.851  0.00  0.00     0.057 C 
BRANCH   7   8
ATOM      8  C2' N4B d   1      -1.261  -0.014   1.036  0.00  0.00     0.009 C 
BRANCH   8   9
ATOM      9  C3' N4B d   1      -2.197   0.362   2.171  0.00  0.00     0.004 C 
ATOM     10  C4' N4B d   1      -3.633   0.425   1.743  0.00  0.00     0.003 C 
ENDBRANCH   8   9
ENDBRANCH   7   8
ENDBRANCH   1   7
TORSDOF 3
ENDMDL
