MODEL 1
REMARK minimizedAffinity -1.90393579
REMARK minimizedRMSD -1
REMARK  3 active torsions:
REMARK  status: ('A' for Active; 'I' for Inactive)
REMARK    1  A    between atoms: C3'_2  and  C2'_3 
REMARK    2  A    between atoms: C2'_3  and  C1'_4 
REMARK    3  A    between atoms: C1'_4  and  C1_5 
ROOT
ATOM      1  C1  N4B d   1      -0.860  -0.194   0.884  0.00  0.00    -0.075 A 
ATOM      2  C2  N4B d   1      -0.683  -1.589   0.761  0.00  0.00     0.002 A 
ATOM      3  C3  N4B d   1       0.127  -2.095  -0.226  0.00  0.00     0.002 A 
ATOM      4  C4  N4B d   1       0.753  -1.228  -1.110  0.00  0.00    -0.004 A 
ATOM      5  C5  N4B d   1       0.598   0.119  -0.968  0.00  0.00     0.002 A 
ATOM      6  C6  N4B d   1      -0.211   0.642   0.021  0.00  0.00     0.002 A 
ENDROOT
BRANCH   1   7
ATOM      7  C1' N4B d   1      -1.803   0.402   1.893  0.00  0.00     0.057 C 
BRANCH   7   8
ATOM      8  C2' N4B d   1      -3.209  -0.137   1.643  0.00  0.00     0.009 C 
BRANCH   8   9
ATOM      9  C3' N4B d   1      -4.253   0.967   1.663  0.00  0.00     0.004 C 
ATOM     10  C4' N4B d   1      -3.668   2.313   1.969  0.00  0.00     0.003 C 
ENDBRANCH   8   9
ENDBRANCH   7   8
ENDBRANCH   1   7
TORSDOF 3
ENDMDL
