MODEL 1
REMARK minimizedAffinity -0.641159952
REMARK minimizedRMSD -1
REMARK  0 active torsions:
REMARK  status: ('A' for Active; 'I' for Inactive)
ROOT
ATOM      1  O1  BZF d   1       1.349   0.592  -0.621  0.00  0.00    -0.204 OA
ATOM      2  C2  BZF d   1       0.715   0.276  -1.806  0.00  0.00     0.174 A 
ATOM      3  C3  BZF d   1      -0.436  -0.386  -1.571  0.00  0.00    -0.012 A 
ATOM      4  C3A BZF d   1      -0.573  -0.410  -0.147  0.00  0.00    -0.107 A 
ATOM      5  C4  BZF d   1      -1.521  -0.913   0.697  0.00  0.00     0.055 A 
ATOM      6  C5  BZF d   1      -1.319  -0.834   2.039  0.00  0.00    -0.016 A 
ATOM      7  C6  BZF d   1      -0.180  -0.265   2.570  0.00  0.00     0.022 A 
ATOM      8  C7  BZF d   1       0.786   0.252   1.772  0.00  0.00     0.029 A 
ATOM      9  C7A BZF d   1       0.570   0.204   0.417  0.00  0.00     0.058 A 
ENDROOT
TORSDOF 0
ENDMDL
