MODEL 1
REMARK minimizedAffinity -4.84521914
REMARK minimizedRMSD -1
REMARK  0 active torsions:
REMARK  status: ('A' for Active; 'I' for Inactive)
ROOT
ATOM      1  O1  BZF d   1       0.456  -0.037   2.903  0.00  0.00    -0.204 OA
ATOM      2  C2  BZF d   1      -0.776  -0.583   3.205  0.00  0.00     0.174 A 
ATOM      3  C3  BZF d   1      -1.500  -0.778   2.084  0.00  0.00    -0.012 A 
ATOM      4  C3A BZF d   1      -0.633  -0.411   1.007  0.00  0.00    -0.107 A 
ATOM      5  C4  BZF d   1      -0.775  -0.403  -0.352  0.00  0.00     0.055 A 
ATOM      6  C5  BZF d   1       0.237   0.083  -1.118  0.00  0.00    -0.016 A 
ATOM      7  C6  BZF d   1       1.401   0.571  -0.560  0.00  0.00     0.022 A 
ATOM      8  C7  BZF d   1       1.589   0.579   0.782  0.00  0.00     0.029 A 
ATOM      9  C7A BZF d   1       0.582   0.058   1.557  0.00  0.00     0.058 A 
ENDROOT
TORSDOF 0
ENDMDL
