MODEL 1
REMARK minimizedAffinity -3.69492102
REMARK minimizedRMSD -1
REMARK  0 active torsions:
REMARK  status: ('A' for Active; 'I' for Inactive)
ROOT
ATOM      1  O1  BZF d   1       0.618  -0.080   2.981  0.00  0.00    -0.204 OA
ATOM      2  C2  BZF d   1      -0.561  -0.647   3.427  0.00  0.00     0.174 A 
ATOM      3  C3  BZF d   1      -1.372  -0.940   2.390  0.00  0.00    -0.012 A 
ATOM      4  C3A BZF d   1      -0.619  -0.615   1.218  0.00  0.00    -0.107 A 
ATOM      5  C4  BZF d   1      -0.879  -0.700  -0.119  0.00  0.00     0.055 A 
ATOM      6  C5  BZF d   1       0.041  -0.232  -1.003  0.00  0.00    -0.016 A 
ATOM      7  C6  BZF d   1       1.228   0.332  -0.584  0.00  0.00     0.022 A 
ATOM      8  C7  BZF d   1       1.534   0.434   0.732  0.00  0.00     0.029 A 
ATOM      9  C7A BZF d   1       0.620  -0.069   1.627  0.00  0.00     0.058 A 
ENDROOT
TORSDOF 0
ENDMDL
