MODEL 1
REMARK minimizedAffinity -3.86758661
REMARK minimizedRMSD -1
REMARK  0 active torsions:
REMARK  status: ('A' for Active; 'I' for Inactive)
ROOT
ATOM      1  O1  BZF d   1      -1.121   0.197  -0.944  0.00  0.00    -0.204 OA
ATOM      2  C2  BZF d   1       0.138   0.533  -1.404  0.00  0.00     0.174 A 
ATOM      3  C3  BZF d   1       1.034   0.524  -0.397  0.00  0.00    -0.012 A 
ATOM      4  C3A BZF d   1       0.308   0.071   0.750  0.00  0.00    -0.107 A 
ATOM      5  C4  BZF d   1       0.655  -0.161   2.050  0.00  0.00     0.055 A 
ATOM      6  C5  BZF d   1      -0.309  -0.529   2.935  0.00  0.00    -0.016 A 
ATOM      7  C6  BZF d   1      -1.628  -0.668   2.556  0.00  0.00     0.022 A 
ATOM      8  C7  BZF d   1      -2.019  -0.454   1.276  0.00  0.00     0.029 A 
ATOM      9  C7A BZF d   1      -1.043  -0.114   0.372  0.00  0.00     0.058 A 
ENDROOT
TORSDOF 0
ENDMDL
