MODEL 1
REMARK minimizedAffinity -3.78079867
REMARK minimizedRMSD -1
REMARK  0 active torsions:
REMARK  status: ('A' for Active; 'I' for Inactive)
ROOT
ATOM      1  O1  BZF d   1      -0.792   0.039  -0.852  0.00  0.00    -0.204 OA
ATOM      2  C2  BZF d   1       0.537   0.339  -1.082  0.00  0.00     0.174 A 
ATOM      3  C3  BZF d   1       1.235   0.335   0.071  0.00  0.00    -0.012 A 
ATOM      4  C3A BZF d   1       0.302  -0.078   1.075  0.00  0.00    -0.107 A 
ATOM      5  C4  BZF d   1       0.401  -0.287   2.420  0.00  0.00     0.055 A 
ATOM      6  C5  BZF d   1      -0.715  -0.616   3.122  0.00  0.00    -0.016 A 
ATOM      7  C6  BZF d   1      -1.946  -0.738   2.512  0.00  0.00     0.022 A 
ATOM      8  C7  BZF d   1      -2.094  -0.545   1.179  0.00  0.00     0.029 A 
ATOM      9  C7A BZF d   1      -0.962  -0.245   0.462  0.00  0.00     0.058 A 
ENDROOT
TORSDOF 0
ENDMDL
