MODEL 1
REMARK minimizedAffinity -5.23343754
REMARK minimizedRMSD -1
REMARK  0 active torsions:
REMARK  status: ('A' for Active; 'I' for Inactive)
ROOT
ATOM      1  O1  BZF d   1       0.397   0.049   2.659  0.00  0.00    -0.204 OA
ATOM      2  C2  BZF d   1      -0.692  -0.742   2.968  0.00  0.00     0.174 A 
ATOM      3  C3  BZF d   1      -1.267  -1.223   1.847  0.00  0.00    -0.012 A 
ATOM      4  C3A BZF d   1      -0.432  -0.776   0.774  0.00  0.00    -0.107 A 
ATOM      5  C4  BZF d   1      -0.472  -0.946  -0.580  0.00  0.00     0.055 A 
ATOM      6  C5  BZF d   1       0.452  -0.317  -1.352  0.00  0.00    -0.016 A 
ATOM      7  C6  BZF d   1       1.425   0.493  -0.805  0.00  0.00     0.022 A 
ATOM      8  C7  BZF d   1       1.508   0.689   0.534  0.00  0.00     0.029 A 
ATOM      9  C7A BZF d   1       0.596   0.028   1.319  0.00  0.00     0.058 A 
ENDROOT
TORSDOF 0
ENDMDL
