MODEL 1
REMARK minimizedAffinity -4.60514069
REMARK minimizedRMSD -1
REMARK  0 active torsions:
REMARK  status: ('A' for Active; 'I' for Inactive)
ROOT
ATOM      1  O1  BZF d   1      -1.057   0.700  -1.802  0.00  0.00    -0.204 OA
ATOM      2  C2  BZF d   1       0.134   0.260  -2.348  0.00  0.00     0.174 A 
ATOM      3  C3  BZF d   1       0.851  -0.430  -1.438  0.00  0.00    -0.012 A 
ATOM      4  C3A BZF d   1       0.018  -0.500  -0.277  0.00  0.00    -0.107 A 
ATOM      5  C4  BZF d   1       0.169  -1.072   0.954  0.00  0.00     0.055 A 
ATOM      6  C5  BZF d   1      -0.802  -0.896   1.888  0.00  0.00    -0.016 A 
ATOM      7  C6  BZF d   1      -1.933  -0.151   1.628  0.00  0.00     0.022 A 
ATOM      8  C7  BZF d   1      -2.130   0.432   0.420  0.00  0.00     0.029 A 
ATOM      9  C7A BZF d   1      -1.166   0.228  -0.537  0.00  0.00     0.058 A 
ENDROOT
TORSDOF 0
ENDMDL
