MODEL 1
REMARK minimizedAffinity -3.71798277
REMARK minimizedRMSD -1
REMARK  0 active torsions:
REMARK  status: ('A' for Active; 'I' for Inactive)
ROOT
ATOM      1  O1  BZF d   1       1.022   0.678  -0.774  0.00  0.00    -0.204 OA
ATOM      2  C2  BZF d   1       0.024   0.244  -1.624  0.00  0.00     0.174 A 
ATOM      3  C3  BZF d   1      -0.877  -0.508  -0.959  0.00  0.00    -0.012 A 
ATOM      4  C3A BZF d   1      -0.462  -0.470   0.410  0.00  0.00    -0.107 A 
ATOM      5  C4  BZF d   1      -0.963  -1.013   1.558  0.00  0.00     0.055 A 
ATOM      6  C5  BZF d   1      -0.279  -0.847   2.721  0.00  0.00    -0.016 A 
ATOM      7  C6  BZF d   1       0.910  -0.149   2.770  0.00  0.00     0.022 A 
ATOM      8  C7  BZF d   1       1.444   0.412   1.658  0.00  0.00     0.029 A 
ATOM      9  C7A BZF d   1       0.738   0.274   0.488  0.00  0.00     0.058 A 
ENDROOT
TORSDOF 0
ENDMDL
