MODEL 1
REMARK minimizedAffinity -4.78316212
REMARK minimizedRMSD -1
REMARK  0 active torsions:
REMARK  status: ('A' for Active; 'I' for Inactive)
ROOT
ATOM      1  O1  BZF d   1      -1.661  -0.428   2.317  0.00  0.00    -0.204 OA
ATOM      2  C2  BZF d   1      -0.851  -0.447   3.437  0.00  0.00     0.174 A 
ATOM      3  C3  BZF d   1       0.425  -0.158   3.109  0.00  0.00    -0.012 A 
ATOM      4  C3A BZF d   1       0.395   0.145   1.711  0.00  0.00    -0.107 A 
ATOM      5  C4  BZF d   1       1.351   0.521   0.811  0.00  0.00     0.055 A 
ATOM      6  C5  BZF d   1       1.007   0.668  -0.495  0.00  0.00    -0.016 A 
ATOM      7  C6  BZF d   1      -0.280   0.443  -0.937  0.00  0.00     0.022 A 
ATOM      8  C7  BZF d   1      -1.264   0.074  -0.081  0.00  0.00     0.029 A 
ATOM      9  C7A BZF d   1      -0.927  -0.044   1.245  0.00  0.00     0.058 A 
ENDROOT
TORSDOF 0
ENDMDL
