MODEL 1
REMARK minimizedAffinity -6.33141613
REMARK minimizedRMSD -1
REMARK  0 active torsions:
REMARK  status: ('A' for Active; 'I' for Inactive)
ROOT
ATOM      1  O1  BZF d   1      -1.202   0.017  -0.145  0.00  0.00    -0.204 OA
ATOM      2  C2  BZF d   1       0.166   0.109  -0.316  0.00  0.00     0.174 A 
ATOM      3  C3  BZF d   1       0.798   0.121   0.875  0.00  0.00    -0.012 A 
ATOM      4  C3A BZF d   1      -0.234  -0.063   1.850  0.00  0.00    -0.107 A 
ATOM      5  C4  BZF d   1      -0.233  -0.154   3.212  0.00  0.00     0.055 A 
ATOM      6  C5  BZF d   1      -1.418  -0.258   3.868  0.00  0.00    -0.016 A 
ATOM      7  C6  BZF d   1      -2.622  -0.269   3.195  0.00  0.00     0.022 A 
ATOM      8  C7  BZF d   1      -2.674  -0.186   1.843  0.00  0.00     0.029 A 
ATOM      9  C7A BZF d   1      -1.475  -0.114   1.175  0.00  0.00     0.058 A 
ENDROOT
TORSDOF 0
ENDMDL
