MODEL 1
REMARK minimizedAffinity -3.760216
REMARK minimizedRMSD -1
REMARK  0 active torsions:
REMARK  status: ('A' for Active; 'I' for Inactive)
ROOT
ATOM      1  O1  BZF d   1      -0.925  -0.574   3.168  0.00  0.00    -0.204 OA
ATOM      2  C2  BZF d   1      -1.746  -1.607   2.759  0.00  0.00     0.174 A 
ATOM      3  C3  BZF d   1      -1.796  -1.675   1.413  0.00  0.00    -0.012 A 
ATOM      4  C3A BZF d   1      -0.881  -0.676   0.952  0.00  0.00    -0.107 A 
ATOM      5  C4  BZF d   1      -0.482  -0.270  -0.289  0.00  0.00     0.055 A 
ATOM      6  C5  BZF d   1       0.371   0.782  -0.398  0.00  0.00    -0.016 A 
ATOM      7  C6  BZF d   1       0.839   1.454   0.712  0.00  0.00     0.022 A 
ATOM      8  C7  BZF d   1       0.475   1.086   1.965  0.00  0.00     0.029 A 
ATOM      9  C7A BZF d   1      -0.361   0.002   2.079  0.00  0.00     0.058 A 
ENDROOT
TORSDOF 0
ENDMDL
