MODEL 1
REMARK minimizedAffinity -6.05230284
REMARK minimizedRMSD -1
REMARK  0 active torsions:
REMARK  status: ('A' for Active; 'I' for Inactive)
ROOT
ATOM      1  O1  BZF d   1      -1.134   0.417  -0.591  0.00  0.00    -0.204 OA
ATOM      2  C2  BZF d   1       0.245   0.325  -0.622  0.00  0.00     0.174 A 
ATOM      3  C3  BZF d   1       0.745   0.215   0.626  0.00  0.00    -0.012 A 
ATOM      4  C3A BZF d   1      -0.397   0.147   1.485  0.00  0.00    -0.107 A 
ATOM      5  C4  BZF d   1      -0.550   0.017   2.836  0.00  0.00     0.055 A 
ATOM      6  C5  BZF d   1      -1.800   0.058   3.366  0.00  0.00    -0.016 A 
ATOM      7  C6  BZF d   1      -2.918   0.232   2.577  0.00  0.00     0.022 A 
ATOM      8  C7  BZF d   1      -2.818   0.361   1.232  0.00  0.00     0.029 A 
ATOM      9  C7A BZF d   1      -1.558   0.287   0.689  0.00  0.00     0.058 A 
ENDROOT
TORSDOF 0
ENDMDL
