MODEL 1
REMARK minimizedAffinity -4.2317543
REMARK minimizedRMSD -1
REMARK  0 active torsions:
REMARK  status: ('A' for Active; 'I' for Inactive)
ROOT
ATOM      1  O1  BZF d   1      -1.517  -0.472   2.550  0.00  0.00    -0.204 OA
ATOM      2  C2  BZF d   1      -0.412  -0.522   3.378  0.00  0.00     0.174 A 
ATOM      3  C3  BZF d   1       0.714  -0.241   2.691  0.00  0.00    -0.012 A 
ATOM      4  C3A BZF d   1       0.276   0.090   1.370  0.00  0.00    -0.107 A 
ATOM      5  C4  BZF d   1       0.928   0.472   0.232  0.00  0.00     0.055 A 
ATOM      6  C5  BZF d   1       0.214   0.648  -0.911  0.00  0.00    -0.016 A 
ATOM      7  C6  BZF d   1      -1.150   0.445  -0.954  0.00  0.00     0.022 A 
ATOM      8  C7  BZF d   1      -1.841   0.070   0.150  0.00  0.00     0.029 A 
ATOM      9  C7A BZF d   1      -1.128  -0.076   1.315  0.00  0.00     0.058 A 
ENDROOT
TORSDOF 0
ENDMDL
