MODEL 1
REMARK minimizedAffinity -4.55629349
REMARK minimizedRMSD -1
REMARK  0 active torsions:
REMARK  status: ('A' for Active; 'I' for Inactive)
ROOT
ATOM      1  O1  BZF d   1       0.757  -0.784   1.301  0.00  0.00    -0.204 OA
ATOM      2  C2  BZF d   1       0.019  -1.052   2.438  0.00  0.00     0.174 A 
ATOM      3  C3  BZF d   1      -1.220  -0.528   2.338  0.00  0.00    -0.012 A 
ATOM      4  C3A BZF d   1      -1.289   0.026   1.021  0.00  0.00    -0.107 A 
ATOM      5  C4  BZF d   1      -2.270   0.671   0.324  0.00  0.00     0.055 A 
ATOM      6  C5  BZF d   1      -1.993   1.151  -0.917  0.00  0.00    -0.016 A 
ATOM      7  C6  BZF d   1      -0.745   1.009  -1.488  0.00  0.00     0.022 A 
ATOM      8  C7  BZF d   1       0.259   0.372  -0.838  0.00  0.00     0.029 A 
ATOM      9  C7A BZF d   1      -0.028  -0.143   0.403  0.00  0.00     0.058 A 
ENDROOT
TORSDOF 0
ENDMDL
