MODEL 1
REMARK minimizedAffinity -3.06981611
REMARK minimizedRMSD -1
REMARK  0 active torsions:
REMARK  status: ('A' for Active; 'I' for Inactive)
ROOT
ATOM      1  O1  BZF d   1      -0.707   1.591  -1.672  0.00  0.00    -0.204 OA
ATOM      2  C2  BZF d   1       0.495   1.211  -2.236  0.00  0.00     0.174 A 
ATOM      3  C3  BZF d   1       1.028   0.168  -1.569  0.00  0.00    -0.012 A 
ATOM      4  C3A BZF d   1       0.057  -0.181  -0.578  0.00  0.00    -0.107 A 
ATOM      5  C4  BZF d   1       0.003  -1.148   0.385  0.00  0.00     0.055 A 
ATOM      6  C5  BZF d   1      -1.054  -1.173   1.238  0.00  0.00    -0.016 A 
ATOM      7  C6  BZF d   1      -2.071  -0.244   1.161  0.00  0.00     0.022 A 
ATOM      8  C7  BZF d   1      -2.064   0.731   0.220  0.00  0.00     0.029 A 
ATOM      9  C7A BZF d   1      -1.014   0.738  -0.665  0.00  0.00     0.058 A 
ENDROOT
TORSDOF 0
ENDMDL
