MODEL 1
REMARK minimizedAffinity -2.8671577
REMARK minimizedRMSD -1
REMARK  0 active torsions:
REMARK  status: ('A' for Active; 'I' for Inactive)
ROOT
ATOM      1  O1  BZF d   1      -1.493  -0.228   2.544  0.00  0.00    -0.204 OA
ATOM      2  C2  BZF d   1      -0.738   0.064   3.663  0.00  0.00     0.174 A 
ATOM      3  C3  BZF d   1       0.529   0.373   3.320  0.00  0.00    -0.012 A 
ATOM      4  C3A BZF d   1       0.545   0.358   1.889  0.00  0.00    -0.107 A 
ATOM      5  C4  BZF d   1       1.514   0.600   0.958  0.00  0.00     0.055 A 
ATOM      6  C5  BZF d   1       1.224   0.428  -0.358  0.00  0.00    -0.016 A 
ATOM      7  C6  BZF d   1      -0.022   0.011  -0.778  0.00  0.00     0.022 A 
ATOM      8  C7  BZF d   1      -1.017  -0.237   0.108  0.00  0.00     0.029 A 
ATOM      9  C7A BZF d   1      -0.737  -0.033   1.436  0.00  0.00     0.058 A 
ENDROOT
TORSDOF 0
ENDMDL
