MODEL 1
REMARK minimizedAffinity -2.50460815
REMARK minimizedRMSD -1
REMARK  0 active torsions:
REMARK  status: ('A' for Active; 'I' for Inactive)
ROOT
ATOM      1  O1  BZF d   1       0.813   0.841   0.050  0.00  0.00    -0.204 OA
ATOM      2  C2  BZF d   1       0.163   0.911  -1.167  0.00  0.00     0.174 A 
ATOM      3  C3  BZF d   1      -1.049   0.324  -1.097  0.00  0.00    -0.012 A 
ATOM      4  C3A BZF d   1      -1.202  -0.061   0.273  0.00  0.00    -0.107 A 
ATOM      5  C4  BZF d   1      -2.203  -0.674   0.970  0.00  0.00     0.055 A 
ATOM      6  C5  BZF d   1      -2.008  -0.972   2.281  0.00  0.00    -0.016 A 
ATOM      7  C6  BZF d   1      -0.825  -0.676   2.926  0.00  0.00     0.022 A 
ATOM      8  C7  BZF d   1       0.195  -0.062   2.277  0.00  0.00     0.029 A 
ATOM      9  C7A BZF d   1      -0.011   0.270   0.960  0.00  0.00     0.058 A 
ENDROOT
TORSDOF 0
ENDMDL
