MODEL 1
REMARK minimizedAffinity -1.00724816
REMARK minimizedRMSD -1
REMARK  0 active torsions:
REMARK  status: ('A' for Active; 'I' for Inactive)
ROOT
ATOM      1  O1  BZF d   1      -1.984   0.268  -0.469  0.00  0.00    -0.204 OA
ATOM      2  C2  BZF d   1      -1.407   0.821  -1.595  0.00  0.00     0.174 A 
ATOM      3  C3  BZF d   1      -0.084   1.010  -1.412  0.00  0.00    -0.012 A 
ATOM      4  C3A BZF d   1       0.199   0.460  -0.122  0.00  0.00    -0.107 A 
ATOM      5  C4  BZF d   1       1.342   0.333   0.615  0.00  0.00     0.055 A 
ATOM      6  C5  BZF d   1       1.265  -0.185   1.869  0.00  0.00    -0.016 A 
ATOM      7  C6  BZF d   1       0.064  -0.581   2.419  0.00  0.00     0.022 A 
ATOM      8  C7  BZF d   1      -1.096  -0.480   1.725  0.00  0.00     0.029 A 
ATOM      9  C7A BZF d   1      -1.017   0.013   0.445  0.00  0.00     0.058 A 
ENDROOT
TORSDOF 0
ENDMDL
