MODEL 1
REMARK minimizedAffinity -2.62947083
REMARK minimizedRMSD -1
REMARK  0 active torsions:
REMARK  status: ('A' for Active; 'I' for Inactive)
ROOT
ATOM      1  C   UNL d   1       1.944   0.828  -1.505  0.00  0.00     0.077 C 
ATOM      2  C1  UNL d   1       0.789   0.184  -0.798  0.00  0.00    -0.074 A 
ATOM      3  C2  UNL d   1       0.427  -1.140  -1.068  0.00  0.00    -0.005 A 
ATOM      4  C3  UNL d   1      -0.644  -1.728  -0.396  0.00  0.00     0.006 A 
ATOM      5  C4  UNL d   1      -1.363  -0.999   0.552  0.00  0.00    -0.005 A 
ATOM      6  C5  UNL d   1      -1.016   0.325   0.837  0.00  0.00    -0.074 A 
ATOM      7  C6  UNL d   1      -1.773   1.119   1.860  0.00  0.00     0.077 C 
ATOM      8  C7  UNL d   1       0.066   0.907   0.162  0.00  0.00    -0.001 A 
ENDROOT
TORSDOF 0
ENDMDL
