MODEL 1
REMARK minimizedAffinity -4.25050211
REMARK minimizedRMSD -1
REMARK  0 active torsions:
REMARK  status: ('A' for Active; 'I' for Inactive)
ROOT
ATOM      1  C   UNL d   1       1.725  -0.485  -3.352  0.00  0.00     0.077 C 
ATOM      2  C1  UNL d   1       1.281   0.013  -2.009  0.00  0.00    -0.074 A 
ATOM      3  C2  UNL d   1       1.411   1.363  -1.664  0.00  0.00    -0.005 A 
ATOM      4  C3  UNL d   1       0.985   1.814  -0.415  0.00  0.00     0.006 A 
ATOM      5  C4  UNL d   1       0.426   0.922   0.501  0.00  0.00    -0.005 A 
ATOM      6  C5  UNL d   1       0.288  -0.431   0.174  0.00  0.00    -0.074 A 
ATOM      7  C6  UNL d   1      -0.320  -1.401   1.143  0.00  0.00     0.077 C 
ATOM      8  C7  UNL d   1       0.712  -0.875  -1.086  0.00  0.00    -0.001 A 
ENDROOT
TORSDOF 0
ENDMDL
