MODEL 1
REMARK minimizedAffinity -3.85040283
REMARK minimizedRMSD -1
REMARK  0 active torsions:
REMARK  status: ('A' for Active; 'I' for Inactive)
ROOT
ATOM      1  C   UNL d   1      -3.079   3.600   3.156  0.00  0.00     0.077 C 
ATOM      2  C1  UNL d   1      -3.013   2.201   2.621  0.00  0.00    -0.074 A 
ATOM      3  C2  UNL d   1      -4.179   1.459   2.405  0.00  0.00    -0.005 A 
ATOM      4  C3  UNL d   1      -4.103   0.162   1.898  0.00  0.00     0.006 A 
ATOM      5  C4  UNL d   1      -2.863  -0.406   1.602  0.00  0.00    -0.005 A 
ATOM      6  C5  UNL d   1      -1.687   0.322   1.811  0.00  0.00    -0.074 A 
ATOM      7  C6  UNL d   1      -0.346  -0.269   1.489  0.00  0.00     0.077 C 
ATOM      8  C7  UNL d   1      -1.772   1.627   2.314  0.00  0.00    -0.001 A 
ENDROOT
TORSDOF 0
ENDMDL
