MODEL 1
REMARK minimizedAffinity -3.29594302
REMARK minimizedRMSD -1
REMARK  0 active torsions:
REMARK  status: ('A' for Active; 'I' for Inactive)
ROOT
ATOM      1  C   UNL d   1       2.667  -0.678  -3.512  0.00  0.00     0.077 C 
ATOM      2  C1  UNL d   1       1.930  -0.633  -2.207  0.00  0.00    -0.074 A 
ATOM      3  C2  UNL d   1       1.605   0.588  -1.606  0.00  0.00    -0.005 A 
ATOM      4  C3  UNL d   1       0.911   0.613  -0.396  0.00  0.00     0.006 A 
ATOM      5  C4  UNL d   1       0.535  -0.579   0.224  0.00  0.00    -0.005 A 
ATOM      6  C5  UNL d   1       0.850  -1.809  -0.363  0.00  0.00    -0.074 A 
ATOM      7  C6  UNL d   1       0.446  -3.099   0.286  0.00  0.00     0.077 C 
ATOM      8  C7  UNL d   1       1.542  -1.826  -1.582  0.00  0.00    -0.001 A 
ENDROOT
TORSDOF 0
ENDMDL
