MODEL 1
REMARK minimizedAffinity -5.27952766
REMARK minimizedRMSD -1
REMARK  0 active torsions:
REMARK  status: ('A' for Active; 'I' for Inactive)
ROOT
ATOM      1  C   UNL d   1       1.871  -2.229  -2.478  0.00  0.00     0.077 C 
ATOM      2  C1  UNL d   1       1.586  -1.048  -1.599  0.00  0.00    -0.074 A 
ATOM      3  C2  UNL d   1       2.415   0.078  -1.616  0.00  0.00    -0.005 A 
ATOM      4  C3  UNL d   1       2.132   1.173  -0.800  0.00  0.00     0.006 A 
ATOM      5  C4  UNL d   1       1.018   1.153   0.041  0.00  0.00    -0.005 A 
ATOM      6  C5  UNL d   1       0.177   0.036   0.071  0.00  0.00    -0.074 A 
ATOM      7  C6  UNL d   1      -1.029   0.003   0.962  0.00  0.00     0.077 C 
ATOM      8  C7  UNL d   1       0.465  -1.057  -0.757  0.00  0.00    -0.001 A 
ENDROOT
TORSDOF 0
ENDMDL
