MODEL 1
REMARK minimizedAffinity -4.66423845
REMARK minimizedRMSD -1
REMARK  0 active torsions:
REMARK  status: ('A' for Active; 'I' for Inactive)
ROOT
ATOM      1  C   UNL d   1       4.565   0.768  -1.251  0.00  0.00     0.077 C 
ATOM      2  C1  UNL d   1       3.113   0.400  -1.335  0.00  0.00    -0.074 A 
ATOM      3  C2  UNL d   1       2.587  -0.191  -2.488  0.00  0.00    -0.005 A 
ATOM      4  C3  UNL d   1       1.237  -0.536  -2.548  0.00  0.00     0.006 A 
ATOM      5  C4  UNL d   1       0.401  -0.294  -1.458  0.00  0.00    -0.005 A 
ATOM      6  C5  UNL d   1       0.909   0.296  -0.296  0.00  0.00    -0.074 A 
ATOM      7  C6  UNL d   1       0.027   0.554   0.889  0.00  0.00     0.077 C 
ATOM      8  C7  UNL d   1       2.269   0.633  -0.241  0.00  0.00    -0.001 A 
ENDROOT
TORSDOF 0
ENDMDL
