MODEL 1
REMARK minimizedAffinity -3.85053849
REMARK minimizedRMSD -1
REMARK  0 active torsions:
REMARK  status: ('A' for Active; 'I' for Inactive)
ROOT
ATOM      1  C   UNL d   1      -1.415   0.665   2.171  0.00  0.00     0.077 C 
ATOM      2  C1  UNL d   1      -0.680  -0.223   1.211  0.00  0.00    -0.074 A 
ATOM      3  C2  UNL d   1      -0.530  -1.590   1.468  0.00  0.00    -0.005 A 
ATOM      4  C3  UNL d   1       0.148  -2.405   0.561  0.00  0.00     0.006 A 
ATOM      5  C4  UNL d   1       0.680  -1.863  -0.609  0.00  0.00    -0.005 A 
ATOM      6  C5  UNL d   1       0.538  -0.499  -0.884  0.00  0.00    -0.074 A 
ATOM      7  C6  UNL d   1       1.096   0.097  -2.142  0.00  0.00     0.077 C 
ATOM      8  C7  UNL d   1      -0.149   0.312   0.029  0.00  0.00    -0.001 A 
ENDROOT
TORSDOF 0
ENDMDL
