MODEL 1
REMARK minimizedAffinity -2.61370516
REMARK minimizedRMSD -1
REMARK  0 active torsions:
REMARK  status: ('A' for Active; 'I' for Inactive)
ROOT
ATOM      1  C   UNL d   1       0.802  -0.144  -1.688  0.00  0.00     0.077 C 
ATOM      2  C1  UNL d   1      -0.149  -0.186  -0.530  0.00  0.00    -0.074 A 
ATOM      3  C2  UNL d   1       0.175  -0.876   0.643  0.00  0.00    -0.005 A 
ATOM      4  C3  UNL d   1      -0.716  -0.898   1.716  0.00  0.00     0.006 A 
ATOM      5  C4  UNL d   1      -1.938  -0.231   1.627  0.00  0.00    -0.005 A 
ATOM      6  C5  UNL d   1      -2.280   0.465   0.464  0.00  0.00    -0.074 A 
ATOM      7  C6  UNL d   1      -3.585   1.195   0.356  0.00  0.00     0.077 C 
ATOM      8  C7  UNL d   1      -1.376   0.488  -0.608  0.00  0.00    -0.001 A 
ENDROOT
TORSDOF 0
ENDMDL
