MODEL 1
REMARK minimizedAffinity -4.16209841
REMARK minimizedRMSD -1
REMARK  0 active torsions:
REMARK  status: ('A' for Active; 'I' for Inactive)
ROOT
ATOM      1  C   UNL d   1       1.469  -0.040  -2.581  0.00  0.00     0.077 C 
ATOM      2  C1  UNL d   1       0.661  -0.554  -1.427  0.00  0.00    -0.074 A 
ATOM      3  C2  UNL d   1       0.572  -1.926  -1.166  0.00  0.00    -0.005 A 
ATOM      4  C3  UNL d   1      -0.176  -2.389  -0.084  0.00  0.00     0.006 A 
ATOM      5  C4  UNL d   1      -0.842  -1.487   0.747  0.00  0.00    -0.005 A 
ATOM      6  C5  UNL d   1      -0.764  -0.112   0.503  0.00  0.00    -0.074 A 
ATOM      7  C6  UNL d   1      -1.465   0.871   1.392  0.00  0.00     0.077 C 
ATOM      8  C7  UNL d   1      -0.005   0.346  -0.583  0.00  0.00    -0.001 A 
ENDROOT
TORSDOF 0
ENDMDL
