MODEL 1
REMARK minimizedAffinity -1.5025655
REMARK minimizedRMSD -1
REMARK  0 active torsions:
REMARK  status: ('A' for Active; 'I' for Inactive)
ROOT
ATOM      1  C   UNL d   1      -1.319   0.790   1.450  0.00  0.00     0.077 C 
ATOM      2  C1  UNL d   1      -0.380  -0.041   0.628  0.00  0.00    -0.074 A 
ATOM      3  C2  UNL d   1      -0.392  -1.437   0.715  0.00  0.00    -0.005 A 
ATOM      4  C3  UNL d   1       0.481  -2.198  -0.063  0.00  0.00     0.006 A 
ATOM      5  C4  UNL d   1       1.374  -1.571  -0.934  0.00  0.00    -0.005 A 
ATOM      6  C5  UNL d   1       1.399  -0.176  -1.035  0.00  0.00    -0.074 A 
ATOM      7  C6  UNL d   1       2.345   0.512  -1.973  0.00  0.00     0.077 C 
ATOM      8  C7  UNL d   1       0.514   0.580  -0.255  0.00  0.00    -0.001 A 
ENDROOT
TORSDOF 0
ENDMDL
