MODEL 1
REMARK minimizedAffinity -3.43344903
REMARK minimizedRMSD -1
REMARK  0 active torsions:
REMARK  status: ('A' for Active; 'I' for Inactive)
ROOT
ATOM      1  C   UNL d   1      -2.983   3.607   4.083  0.00  0.00     0.077 C 
ATOM      2  C1  UNL d   1      -3.121   2.392   3.214  0.00  0.00    -0.074 A 
ATOM      3  C2  UNL d   1      -4.354   2.045   2.653  0.00  0.00    -0.005 A 
ATOM      4  C3  UNL d   1      -4.464   0.918   1.839  0.00  0.00     0.006 A 
ATOM      5  C4  UNL d   1      -3.344   0.128   1.577  0.00  0.00    -0.005 A 
ATOM      6  C5  UNL d   1      -2.102   0.460   2.129  0.00  0.00    -0.074 A 
ATOM      7  C6  UNL d   1      -0.886  -0.373   1.850  0.00  0.00     0.077 C 
ATOM      8  C7  UNL d   1      -1.998   1.598   2.940  0.00  0.00    -0.001 A 
ENDROOT
TORSDOF 0
ENDMDL
