MODEL 1
REMARK minimizedAffinity -4.50943661
REMARK minimizedRMSD -1
REMARK  0 active torsions:
REMARK  status: ('A' for Active; 'I' for Inactive)
ROOT
ATOM      1  C   UNL d   1      -3.189   3.483   3.486  0.00  0.00     0.077 C 
ATOM      2  C1  UNL d   1      -3.149   2.188   2.730  0.00  0.00    -0.074 A 
ATOM      3  C2  UNL d   1      -4.328   1.514   2.396  0.00  0.00    -0.005 A 
ATOM      4  C3  UNL d   1      -4.276   0.315   1.685  0.00  0.00     0.006 A 
ATOM      5  C4  UNL d   1      -3.046  -0.220   1.301  0.00  0.00    -0.005 A 
ATOM      6  C5  UNL d   1      -1.857   0.440   1.625  0.00  0.00    -0.074 A 
ATOM      7  C6  UNL d   1      -0.527  -0.117   1.211  0.00  0.00     0.077 C 
ATOM      8  C7  UNL d   1      -1.918   1.648   2.334  0.00  0.00    -0.001 A 
ENDROOT
TORSDOF 0
ENDMDL
