MODEL 1
REMARK minimizedAffinity -3.64194751
REMARK minimizedRMSD -1
REMARK  0 active torsions:
REMARK  status: ('A' for Active; 'I' for Inactive)
ROOT
ATOM      1  C   UNL d   1      -0.342  -0.262   1.253  0.00  0.00     0.077 C 
ATOM      2  C1  UNL d   1      -1.689   0.368   1.456  0.00  0.00    -0.074 A 
ATOM      3  C2  UNL d   1      -2.856  -0.287   1.050  0.00  0.00    -0.005 A 
ATOM      4  C3  UNL d   1      -4.102   0.307   1.254  0.00  0.00     0.006 A 
ATOM      5  C4  UNL d   1      -4.193   1.558   1.865  0.00  0.00    -0.005 A 
ATOM      6  C5  UNL d   1      -3.036   2.227   2.278  0.00  0.00    -0.074 A 
ATOM      7  C6  UNL d   1      -3.116   3.568   2.945  0.00  0.00     0.077 C 
ATOM      8  C7  UNL d   1      -1.788   1.621   2.076  0.00  0.00    -0.001 A 
ENDROOT
TORSDOF 0
ENDMDL
