MODEL 1
REMARK minimizedAffinity -5.48435688
REMARK minimizedRMSD -1
REMARK  0 active torsions:
REMARK  status: ('A' for Active; 'I' for Inactive)
ROOT
ATOM      1  C   UNL d   1       0.711   0.342  -2.684  0.00  0.00     0.077 C 
ATOM      2  C1  UNL d   1       0.301  -0.199  -1.346  0.00  0.00    -0.074 A 
ATOM      3  C2  UNL d   1       0.721  -1.464  -0.923  0.00  0.00    -0.005 A 
ATOM      4  C3  UNL d   1       0.339  -1.949   0.328  0.00  0.00     0.006 A 
ATOM      5  C4  UNL d   1      -0.465  -1.176   1.167  0.00  0.00    -0.005 A 
ATOM      6  C5  UNL d   1      -0.893   0.092   0.760  0.00  0.00    -0.074 A 
ATOM      7  C6  UNL d   1      -1.749   0.940   1.653  0.00  0.00     0.077 C 
ATOM      8  C7  UNL d   1      -0.500   0.576  -0.495  0.00  0.00    -0.001 A 
ENDROOT
TORSDOF 0
ENDMDL
