MODEL 1
REMARK minimizedAffinity -0.996647656
REMARK minimizedRMSD -1
REMARK  0 active torsions:
REMARK  status: ('A' for Active; 'I' for Inactive)
ROOT
ATOM      1  C   UNL d   1       2.175   1.249  -1.234  0.00  0.00     0.077 C 
ATOM      2  C1  UNL d   1       1.123   0.413  -0.568  0.00  0.00    -0.074 A 
ATOM      3  C2  UNL d   1       1.306  -0.962  -0.384  0.00  0.00    -0.005 A 
ATOM      4  C3  UNL d   1       0.322  -1.724   0.245  0.00  0.00     0.006 A 
ATOM      5  C4  UNL d   1      -0.852  -1.121   0.697  0.00  0.00    -0.005 A 
ATOM      6  C5  UNL d   1      -1.052   0.252   0.523  0.00  0.00    -0.074 A 
ATOM      7  C6  UNL d   1      -2.305   0.917   1.011  0.00  0.00     0.077 C 
ATOM      8  C7  UNL d   1      -0.056   1.013  -0.104  0.00  0.00    -0.001 A 
ENDROOT
TORSDOF 0
ENDMDL
