MODEL 1
REMARK minimizedAffinity -4.98284912
REMARK minimizedRMSD -1
REMARK  0 active torsions:
REMARK  status: ('A' for Active; 'I' for Inactive)
ROOT
ATOM      1  C   UNL d   1       1.161  -0.200  -2.928  0.00  0.00     0.077 C 
ATOM      2  C1  UNL d   1       0.880  -0.264  -1.456  0.00  0.00    -0.074 A 
ATOM      3  C2  UNL d   1       0.052  -1.258  -0.924  0.00  0.00    -0.005 A 
ATOM      4  C3  UNL d   1      -0.193  -1.310   0.448  0.00  0.00     0.006 A 
ATOM      5  C4  UNL d   1       0.386  -0.369   1.301  0.00  0.00    -0.005 A 
ATOM      6  C5  UNL d   1       1.217   0.631   0.788  0.00  0.00    -0.074 A 
ATOM      7  C6  UNL d   1       1.855   1.644   1.692  0.00  0.00     0.077 C 
ATOM      8  C7  UNL d   1       1.464   0.673  -0.591  0.00  0.00    -0.001 A 
ENDROOT
TORSDOF 0
ENDMDL
