MODEL 1
REMARK minimizedAffinity -0.759502828
REMARK minimizedRMSD -1
REMARK  1 active torsions:
REMARK  status: ('A' for Active; 'I' for Inactive)
REMARK    1  A    between atoms: C1_2  and  C2_3 
ROOT
ATOM      1  C2  UNL d   1       3.927  -1.032   0.953  0.00  0.00    -0.076 A 
ATOM      2  C3  UNL d   1       4.144  -2.404   1.171  0.00  0.00     0.004 A 
ATOM      3  C4  UNL d   1       3.079  -3.302   1.212  0.00  0.00    -0.003 A 
ATOM      4  C5  UNL d   1       1.778  -2.842   1.036  0.00  0.00     0.000 A 
ATOM      5  C6  UNL d   1       1.546  -1.487   0.801  0.00  0.00     0.000 A 
ATOM      6  C7  UNL d   1       2.610  -0.571   0.741  0.00  0.00    -0.073 A 
ATOM      7  C8  UNL d   1       2.301   0.879   0.491  0.00  0.00     0.078 C 
ENDROOT
BRANCH   1   8
ATOM      8  C1  UNL d   1       5.119  -0.103   0.946  0.00  0.00     0.053 C 
ATOM      9  C   UNL d   1       6.000  -0.293  -0.279  0.00  0.00     0.018 C 
ENDBRANCH   1   8
TORSDOF 1
ENDMDL
