MODEL 1
REMARK minimizedAffinity 4.60876179
REMARK minimizedRMSD -1
REMARK  1 active torsions:
REMARK  status: ('A' for Active; 'I' for Inactive)
REMARK    1  A    between atoms: C1_2  and  C2_3 
ROOT
ATOM      1  C2  UNL d   1       0.962  -2.343   1.454  0.00  0.00    -0.076 A 
ATOM      2  C3  UNL d   1       0.434  -2.443   2.753  0.00  0.00     0.004 A 
ATOM      3  C4  UNL d   1      -0.722  -1.754   3.113  0.00  0.00    -0.003 A 
ATOM      4  C5  UNL d   1      -1.370  -0.952   2.180  0.00  0.00     0.000 A 
ATOM      5  C6  UNL d   1      -0.871  -0.855   0.881  0.00  0.00     0.000 A 
ATOM      6  C7  UNL d   1       0.285  -1.557   0.497  0.00  0.00    -0.073 A 
ATOM      7  C8  UNL d   1       0.782  -1.410  -0.915  0.00  0.00     0.078 C 
ENDROOT
BRANCH   1   8
ATOM      8  C1  UNL d   1       2.234  -3.092   1.128  0.00  0.00     0.053 C 
ATOM      9  C   UNL d   1       1.983  -4.561   0.824  0.00  0.00     0.018 C 
ENDBRANCH   1   8
TORSDOF 1
ENDMDL
