MODEL 1
REMARK minimizedAffinity 4.3987112
REMARK minimizedRMSD -1
REMARK  1 active torsions:
REMARK  status: ('A' for Active; 'I' for Inactive)
REMARK    1  A    between atoms: C1_2  and  C2_3 
ROOT
ATOM      1  C2  UNL d   1       1.334  -2.609   1.311  0.00  0.00    -0.076 A 
ATOM      2  C3  UNL d   1       0.650  -3.817   1.539  0.00  0.00     0.004 A 
ATOM      3  C4  UNL d   1       1.132  -5.021   1.029  0.00  0.00    -0.003 A 
ATOM      4  C5  UNL d   1       2.306  -5.038   0.283  0.00  0.00     0.000 A 
ATOM      5  C6  UNL d   1       3.006  -3.852   0.062  0.00  0.00     0.000 A 
ATOM      6  C7  UNL d   1       2.543  -2.632   0.583  0.00  0.00    -0.073 A 
ATOM      7  C8  UNL d   1       3.334  -1.383   0.309  0.00  0.00     0.078 C 
ENDROOT
BRANCH   1   8
ATOM      8  C1  UNL d   1       0.749  -1.330   1.866  0.00  0.00     0.053 C 
ATOM      9  C   UNL d   1       0.041  -1.542   3.195  0.00  0.00     0.018 C 
ENDBRANCH   1   8
TORSDOF 1
ENDMDL
