MODEL 1
REMARK minimizedAffinity -1.03308892
REMARK minimizedRMSD -1
REMARK  2 active torsions:
REMARK  status: ('A' for Active; 'I' for Inactive)
REMARK    1  A    between atoms: C1_2  and  C2_3 
REMARK    2  A    between atoms: C2_3  and  C3_4 
ROOT
ATOM      1  C3  UNL d   1      -5.732  -2.134  -4.251  0.00  0.00    -0.075 A 
ATOM      2  C4  UNL d   1      -5.752  -0.738  -4.384  0.00  0.00     0.002 A 
ATOM      3  C5  UNL d   1      -5.880   0.079  -3.260  0.00  0.00     0.002 A 
ATOM      4  C6  UNL d   1      -6.000  -0.488  -1.993  0.00  0.00    -0.004 A 
ATOM      5  C7  UNL d   1      -5.998  -1.874  -1.851  0.00  0.00     0.002 A 
ATOM      6  C8  UNL d   1      -5.865  -2.694  -2.973  0.00  0.00     0.002 A 
ENDROOT
BRANCH   1   7
ATOM      7  C2  UNL d   1      -5.564  -3.023  -5.460  0.00  0.00     0.056 C 
BRANCH   7   8
ATOM      8  C1  UNL d   1      -4.121  -3.480  -5.703  0.00  0.00     0.007 C 
ATOM      9  C   UNL d   1      -4.004  -4.972  -5.985  0.00  0.00     0.009 C 
ENDBRANCH   7   8
ENDBRANCH   1   7
TORSDOF 2
ENDMDL
