MODEL 1
REMARK minimizedAffinity 3.27358556
REMARK minimizedRMSD -1
REMARK  2 active torsions:
REMARK  status: ('A' for Active; 'I' for Inactive)
REMARK    1  A    between atoms: C1_2  and  C2_3 
REMARK    2  A    between atoms: C2_3  and  C3_4 
ROOT
ATOM      1  C3  UNL d   1       2.773  -1.475   0.814  0.00  0.00    -0.075 A 
ATOM      2  C4  UNL d   1       3.436  -2.641   0.400  0.00  0.00     0.002 A 
ATOM      3  C5  UNL d   1       4.812  -2.776   0.585  0.00  0.00     0.002 A 
ATOM      4  C6  UNL d   1       5.543  -1.748   1.175  0.00  0.00    -0.004 A 
ATOM      5  C7  UNL d   1       4.899  -0.579   1.574  0.00  0.00     0.002 A 
ATOM      6  C8  UNL d   1       3.521  -0.442   1.394  0.00  0.00     0.002 A 
ENDROOT
BRANCH   1   7
ATOM      7  C2  UNL d   1       1.280  -1.334   0.643  0.00  0.00     0.056 C 
BRANCH   7   8
ATOM      8  C1  UNL d   1       0.477  -2.533   1.159  0.00  0.00     0.007 C 
ATOM      9  C   UNL d   1       0.471  -2.643   2.678  0.00  0.00     0.009 C 
ENDBRANCH   7   8
ENDBRANCH   1   7
TORSDOF 2
ENDMDL
