MODEL 1
REMARK minimizedAffinity 1.11181712
REMARK minimizedRMSD -1
REMARK  2 active torsions:
REMARK  status: ('A' for Active; 'I' for Inactive)
REMARK    1  A    between atoms: C1_2  and  C2_3 
REMARK    2  A    between atoms: C2_3  and  C3_4 
ROOT
ATOM      1  C3  UNL d   1       0.181  -0.566   0.686  0.00  0.00    -0.075 A 
ATOM      2  C4  UNL d   1      -0.464  -1.355   1.650  0.00  0.00     0.002 A 
ATOM      3  C5  UNL d   1       0.177  -2.464   2.202  0.00  0.00     0.002 A 
ATOM      4  C6  UNL d   1       1.464  -2.805   1.790  0.00  0.00    -0.004 A 
ATOM      5  C7  UNL d   1       2.107  -2.039   0.820  0.00  0.00     0.002 A 
ATOM      6  C8  UNL d   1       1.470  -0.926   0.270  0.00  0.00     0.002 A 
ENDROOT
BRANCH   1   7
ATOM      7  C2  UNL d   1      -0.496   0.653   0.107  0.00  0.00     0.056 C 
BRANCH   7   8
ATOM      8  C1  UNL d   1      -2.011   0.693   0.335  0.00  0.00     0.007 C 
ATOM      9  C   UNL d   1      -2.807   0.076  -0.807  0.00  0.00     0.009 C 
ENDBRANCH   7   8
ENDBRANCH   1   7
TORSDOF 2
ENDMDL
