MODEL 1
REMARK minimizedAffinity -0.739765882
REMARK minimizedRMSD -1
REMARK  2 active torsions:
REMARK  status: ('A' for Active; 'I' for Inactive)
REMARK    1  A    between atoms: C1_2  and  C2_3 
REMARK    2  A    between atoms: C2_3  and  C3_4 
ROOT
ATOM      1  C3  UNL d   1       0.202  -2.019   1.768  0.00  0.00    -0.075 A 
ATOM      2  C4  UNL d   1      -0.548  -0.921   1.321  0.00  0.00     0.002 A 
ATOM      3  C5  UNL d   1      -0.099  -0.146   0.251  0.00  0.00     0.002 A 
ATOM      4  C6  UNL d   1       1.107  -0.451  -0.377  0.00  0.00    -0.004 A 
ATOM      5  C7  UNL d   1       1.868  -1.529   0.070  0.00  0.00     0.002 A 
ATOM      6  C8  UNL d   1       1.419  -2.309   1.138  0.00  0.00     0.002 A 
ENDROOT
BRANCH   1   7
ATOM      7  C2  UNL d   1      -0.292  -2.880   2.907  0.00  0.00     0.056 C 
BRANCH   7   8
ATOM      8  C1  UNL d   1       0.628  -2.882   4.132  0.00  0.00     0.007 C 
ATOM      9  C   UNL d   1       1.570  -4.078   4.173  0.00  0.00     0.009 C 
ENDBRANCH   7   8
ENDBRANCH   1   7
TORSDOF 2
ENDMDL
