MODEL 1
REMARK minimizedAffinity 3.13830113
REMARK minimizedRMSD -1
REMARK  2 active torsions:
REMARK  status: ('A' for Active; 'I' for Inactive)
REMARK    1  A    between atoms: C1_2  and  C2_3 
REMARK    2  A    between atoms: C2_3  and  C3_4 
ROOT
ATOM      1  C3  UNL d   1       2.437  -0.074   0.618  0.00  0.00    -0.075 A 
ATOM      2  C4  UNL d   1       1.593   1.045   0.584  0.00  0.00     0.002 A 
ATOM      3  C5  UNL d   1       0.207   0.886   0.571  0.00  0.00     0.002 A 
ATOM      4  C6  UNL d   1      -0.351  -0.391   0.581  0.00  0.00    -0.004 A 
ATOM      5  C7  UNL d   1       0.478  -1.510   0.598  0.00  0.00     0.002 A 
ATOM      6  C8  UNL d   1       1.866  -1.354   0.616  0.00  0.00     0.002 A 
ENDROOT
BRANCH   1   7
ATOM      7  C2  UNL d   1       3.938   0.091   0.662  0.00  0.00     0.056 C 
BRANCH   7   8
ATOM      8  C1  UNL d   1       4.639  -0.837   1.659  0.00  0.00     0.007 C 
ATOM      9  C   UNL d   1       6.000  -1.320   1.175  0.00  0.00     0.009 C 
ENDBRANCH   7   8
ENDBRANCH   1   7
TORSDOF 2
ENDMDL
