MODEL 1
REMARK minimizedAffinity 0.580648601
REMARK minimizedRMSD -1
REMARK  2 active torsions:
REMARK  status: ('A' for Active; 'I' for Inactive)
REMARK    1  A    between atoms: C1_2  and  C2_3 
REMARK    2  A    between atoms: C2_3  and  C3_4 
ROOT
ATOM      1  C3  UNL d   1      -1.615  -0.785  -0.414  0.00  0.00    -0.075 A 
ATOM      2  C4  UNL d   1      -2.764   0.013  -0.510  0.00  0.00     0.002 A 
ATOM      3  C5  UNL d   1      -3.854  -0.403  -1.275  0.00  0.00     0.002 A 
ATOM      4  C6  UNL d   1      -3.805  -1.614  -1.961  0.00  0.00    -0.004 A 
ATOM      5  C7  UNL d   1      -2.662  -2.408  -1.887  0.00  0.00     0.002 A 
ATOM      6  C8  UNL d   1      -1.572  -1.996  -1.118  0.00  0.00     0.002 A 
ENDROOT
BRANCH   1   7
ATOM      7  C2  UNL d   1      -0.443  -0.354   0.435  0.00  0.00     0.056 C 
BRANCH   7   8
ATOM      8  C1  UNL d   1       0.923  -0.705  -0.162  0.00  0.00     0.007 C 
ATOM      9  C   UNL d   1       1.762  -1.600   0.742  0.00  0.00     0.009 C 
ENDBRANCH   7   8
ENDBRANCH   1   7
TORSDOF 2
ENDMDL
