MODEL 1
REMARK minimizedAffinity 3.94446158
REMARK minimizedRMSD -1
REMARK  2 active torsions:
REMARK  status: ('A' for Active; 'I' for Inactive)
REMARK    1  A    between atoms: C1_2  and  C2_3 
REMARK    2  A    between atoms: C2_3  and  C3_4 
ROOT
ATOM      1  C3  UNL d   1       0.373  -2.182   2.333  0.00  0.00    -0.075 A 
ATOM      2  C4  UNL d   1      -0.678  -1.985   3.241  0.00  0.00     0.002 A 
ATOM      3  C5  UNL d   1      -0.631  -2.554   4.514  0.00  0.00     0.002 A 
ATOM      4  C6  UNL d   1       0.460  -3.335   4.891  0.00  0.00    -0.004 A 
ATOM      5  C7  UNL d   1       1.501  -3.552   3.991  0.00  0.00     0.002 A 
ATOM      6  C8  UNL d   1       1.459  -2.979   2.719  0.00  0.00     0.002 A 
ENDROOT
BRANCH   1   7
ATOM      7  C2  UNL d   1       0.342  -1.544   0.965  0.00  0.00     0.056 C 
BRANCH   7   8
ATOM      8  C1  UNL d   1      -0.669  -0.400   0.833  0.00  0.00     0.007 C 
ATOM      9  C   UNL d   1      -0.017   0.947   0.553  0.00  0.00     0.009 C 
ENDBRANCH   7   8
ENDBRANCH   1   7
TORSDOF 2
ENDMDL
