MODEL 1
REMARK minimizedAffinity 7.16546535
REMARK minimizedRMSD -1
REMARK  2 active torsions:
REMARK  status: ('A' for Active; 'I' for Inactive)
REMARK    1  A    between atoms: C1_2  and  C2_3 
REMARK    2  A    between atoms: C2_3  and  C3_4 
ROOT
ATOM      1  C3  UNL d   1      -0.070  -2.562   2.621  0.00  0.00    -0.075 A 
ATOM      2  C4  UNL d   1       1.252  -3.026   2.685  0.00  0.00     0.002 A 
ATOM      3  C5  UNL d   1       1.781  -3.495   3.887  0.00  0.00     0.002 A 
ATOM      4  C6  UNL d   1       1.001  -3.498   5.041  0.00  0.00    -0.004 A 
ATOM      5  C7  UNL d   1      -0.309  -3.024   4.994  0.00  0.00     0.002 A 
ATOM      6  C8  UNL d   1      -0.842  -2.558   3.791  0.00  0.00     0.002 A 
ENDROOT
BRANCH   1   7
ATOM      7  C2  UNL d   1      -0.658  -2.080   1.317  0.00  0.00     0.056 C 
BRANCH   7   8
ATOM      8  C1  UNL d   1       0.027  -0.834   0.747  0.00  0.00     0.007 C 
ATOM      9  C   UNL d   1       1.020  -1.149  -0.364  0.00  0.00     0.009 C 
ENDBRANCH   7   8
ENDBRANCH   1   7
TORSDOF 2
ENDMDL
