MODEL 1
REMARK minimizedAffinity 5.61148453
REMARK minimizedRMSD -1
REMARK  2 active torsions:
REMARK  status: ('A' for Active; 'I' for Inactive)
REMARK    1  A    between atoms: C1_2  and  C2_3 
REMARK    2  A    between atoms: C2_3  and  C3_4 
ROOT
ATOM      1  C3  UNL d   1      -1.932   2.378  -1.894  0.00  0.00    -0.075 A 
ATOM      2  C4  UNL d   1      -2.593   2.449  -3.129  0.00  0.00     0.002 A 
ATOM      3  C5  UNL d   1      -1.874   2.659  -4.307  0.00  0.00     0.002 A 
ATOM      4  C6  UNL d   1      -0.489   2.809  -4.263  0.00  0.00    -0.004 A 
ATOM      5  C7  UNL d   1       0.176   2.756  -3.040  0.00  0.00     0.002 A 
ATOM      6  C8  UNL d   1      -0.541   2.542  -1.861  0.00  0.00     0.002 A 
ENDROOT
BRANCH   1   7
ATOM      7  C2  UNL d   1      -2.701   2.122  -0.620  0.00  0.00     0.056 C 
BRANCH   7   8
ATOM      8  C1  UNL d   1      -2.782   0.643  -0.227  0.00  0.00     0.007 C 
ATOM      9  C   UNL d   1      -4.154   0.031  -0.471  0.00  0.00     0.009 C 
ENDBRANCH   7   8
ENDBRANCH   1   7
TORSDOF 2
ENDMDL
