MODEL 1
REMARK minimizedAffinity 2.52919602
REMARK minimizedRMSD -1
REMARK  2 active torsions:
REMARK  status: ('A' for Active; 'I' for Inactive)
REMARK    1  A    between atoms: C1_2  and  C2_3 
REMARK    2  A    between atoms: C2_3  and  C3_4 
ROOT
ATOM      1  C3  UNL d   1      -0.935  -1.516  -0.067  0.00  0.00    -0.075 A 
ATOM      2  C4  UNL d   1      -0.776  -0.164   0.270  0.00  0.00     0.002 A 
ATOM      3  C5  UNL d   1       0.431   0.298   0.796  0.00  0.00     0.002 A 
ATOM      4  C6  UNL d   1       1.489  -0.585   1.000  0.00  0.00    -0.004 A 
ATOM      5  C7  UNL d   1       1.337  -1.933   0.683  0.00  0.00     0.002 A 
ATOM      6  C8  UNL d   1       0.132  -2.398   0.153  0.00  0.00     0.002 A 
ENDROOT
BRANCH   1   7
ATOM      7  C2  UNL d   1      -2.229  -2.016  -0.664  0.00  0.00     0.056 C 
BRANCH   7   8
ATOM      8  C1  UNL d   1      -3.406  -1.049  -0.502  0.00  0.00     0.007 C 
ATOM      9  C   UNL d   1      -4.509  -1.268  -1.529  0.00  0.00     0.009 C 
ENDBRANCH   7   8
ENDBRANCH   1   7
TORSDOF 2
ENDMDL
