MODEL 1
REMARK minimizedAffinity -2.35651898
REMARK minimizedRMSD -1
REMARK  2 active torsions:
REMARK  status: ('A' for Active; 'I' for Inactive)
REMARK    1  A    between atoms: C1_2  and  C2_3 
REMARK    2  A    between atoms: C2_3  and  C3_4 
ROOT
ATOM      1  C3  UNL d   1       1.508   2.629  -3.727  0.00  0.00    -0.075 A 
ATOM      2  C4  UNL d   1       2.765   3.218  -3.926  0.00  0.00     0.002 A 
ATOM      3  C5  UNL d   1       3.907   2.663  -3.348  0.00  0.00     0.002 A 
ATOM      4  C6  UNL d   1       3.805   1.521  -2.556  0.00  0.00    -0.004 A 
ATOM      5  C7  UNL d   1       2.559   0.938  -2.337  0.00  0.00     0.002 A 
ATOM      6  C8  UNL d   1       1.416   1.488  -2.919  0.00  0.00     0.002 A 
ENDROOT
BRANCH   1   7
ATOM      7  C2  UNL d   1       0.272   3.207  -4.375  0.00  0.00     0.056 C 
BRANCH   7   8
ATOM      8  C1  UNL d   1      -0.688   3.886  -3.392  0.00  0.00     0.007 C 
ATOM      9  C   UNL d   1      -2.112   3.356  -3.481  0.00  0.00     0.009 C 
ENDBRANCH   7   8
ENDBRANCH   1   7
TORSDOF 2
ENDMDL
