MODEL 1
REMARK minimizedAffinity -2.6816442
REMARK minimizedRMSD -1
REMARK  2 active torsions:
REMARK  status: ('A' for Active; 'I' for Inactive)
REMARK    1  A    between atoms: C1_2  and  C2_3 
REMARK    2  A    between atoms: C2_3  and  C3_4 
ROOT
ATOM      1  C3  UNL d   1      -4.072  -3.487  -5.932  0.00  0.00    -0.075 A 
ATOM      2  C4  UNL d   1      -4.832  -4.664  -5.996  0.00  0.00     0.002 A 
ATOM      3  C5  UNL d   1      -4.214  -5.911  -5.906  0.00  0.00     0.002 A 
ATOM      4  C6  UNL d   1      -2.832  -5.999  -5.761  0.00  0.00    -0.004 A 
ATOM      5  C7  UNL d   1      -2.065  -4.837  -5.713  0.00  0.00     0.002 A 
ATOM      6  C8  UNL d   1      -2.680  -3.587  -5.798  0.00  0.00     0.002 A 
ENDROOT
BRANCH   1   7
ATOM      7  C2  UNL d   1      -4.737  -2.133  -5.999  0.00  0.00     0.056 C 
BRANCH   7   8
ATOM      8  C1  UNL d   1      -4.043  -1.055  -5.160  0.00  0.00     0.007 C 
ATOM      9  C   UNL d   1      -4.307  -1.195  -3.666  0.00  0.00     0.009 C 
ENDBRANCH   7   8
ENDBRANCH   1   7
TORSDOF 2
ENDMDL
