MODEL 1
REMARK minimizedAffinity -0.267238587
REMARK minimizedRMSD -1
REMARK  2 active torsions:
REMARK  status: ('A' for Active; 'I' for Inactive)
REMARK    1  A    between atoms: C1_2  and  C2_3 
REMARK    2  A    between atoms: C2_3  and  C3_4 
ROOT
ATOM      1  C3  UNL d   1       0.151  -2.196   2.393  0.00  0.00    -0.075 A 
ATOM      2  C4  UNL d   1      -0.619  -2.077   3.559  0.00  0.00     0.002 A 
ATOM      3  C5  UNL d   1      -0.162  -2.606   4.767  0.00  0.00     0.002 A 
ATOM      4  C6  UNL d   1       1.062  -3.269   4.821  0.00  0.00    -0.004 A 
ATOM      5  C7  UNL d   1       1.827  -3.409   3.665  0.00  0.00     0.002 A 
ATOM      6  C8  UNL d   1       1.375  -2.876   2.457  0.00  0.00     0.002 A 
ENDROOT
BRANCH   1   7
ATOM      7  C2  UNL d   1      -0.324  -1.600   1.090  0.00  0.00     0.056 C 
BRANCH   7   8
ATOM      8  C1  UNL d   1       0.759  -0.834   0.323  0.00  0.00     0.007 C 
ATOM      9  C   UNL d   1       0.837   0.638   0.704  0.00  0.00     0.009 C 
ENDBRANCH   7   8
ENDBRANCH   1   7
TORSDOF 2
ENDMDL
