MODEL 1
REMARK minimizedAffinity 1.83546364
REMARK minimizedRMSD -1
REMARK  2 active torsions:
REMARK  status: ('A' for Active; 'I' for Inactive)
REMARK    1  A    between atoms: C1_2  and  C2_3 
REMARK    2  A    between atoms: C2_3  and  C3_4 
ROOT
ATOM      1  C3  UNL d   1      -3.725  -3.810  -5.371  0.00  0.00    -0.075 A 
ATOM      2  C4  UNL d   1      -2.508  -3.505  -4.743  0.00  0.00     0.002 A 
ATOM      3  C5  UNL d   1      -1.467  -4.433  -4.727  0.00  0.00     0.002 A 
ATOM      4  C6  UNL d   1      -1.631  -5.679  -5.328  0.00  0.00    -0.004 A 
ATOM      5  C7  UNL d   1      -2.841  -6.000  -5.940  0.00  0.00     0.002 A 
ATOM      6  C8  UNL d   1      -3.883  -5.071  -5.961  0.00  0.00     0.002 A 
ENDROOT
BRANCH   1   7
ATOM      7  C2  UNL d   1      -4.845  -2.799  -5.417  0.00  0.00     0.056 C 
BRANCH   7   8
ATOM      8  C1  UNL d   1      -4.447  -1.404  -4.925  0.00  0.00     0.007 C 
ATOM      9  C   UNL d   1      -4.610  -1.228  -3.422  0.00  0.00     0.009 C 
ENDBRANCH   7   8
ENDBRANCH   1   7
TORSDOF 2
ENDMDL
