MODEL 1
REMARK minimizedAffinity -2.06969547
REMARK minimizedRMSD -1
REMARK  1 active torsions:
REMARK  status: ('A' for Active; 'I' for Inactive)
REMARK    1  A    between atoms: C1_2  and  C2_3 
ROOT
ATOM      1  C2  UNL d   1       0.093  -0.317  -0.073  0.00  0.00    -0.076 A 
ATOM      2  C3  UNL d   1       1.199  -0.022   0.743  0.00  0.00     0.004 A 
ATOM      3  C4  UNL d   1       1.027   0.508   2.021  0.00  0.00    -0.003 A 
ATOM      4  C5  UNL d   1      -0.254   0.752   2.503  0.00  0.00     0.000 A 
ATOM      5  C6  UNL d   1      -1.363   0.450   1.714  0.00  0.00     0.000 A 
ATOM      6  C7  UNL d   1      -1.208  -0.100   0.430  0.00  0.00    -0.073 A 
ATOM      7  C8  UNL d   1      -2.439  -0.402  -0.380  0.00  0.00     0.078 C 
ENDROOT
BRANCH   1   8
ATOM      8  C1  UNL d   1       0.341  -0.865  -1.460  0.00  0.00     0.053 C 
ATOM      9  C   UNL d   1       0.887   0.187  -2.413  0.00  0.00     0.018 C 
ENDBRANCH   1   8
TORSDOF 1
ENDMDL
