MODEL 1
REMARK minimizedAffinity -2.87456989
REMARK minimizedRMSD -1
REMARK  1 active torsions:
REMARK  status: ('A' for Active; 'I' for Inactive)
REMARK    1  A    between atoms: C1_2  and  C2_3 
ROOT
ATOM      1  C2  UNL d   1      -0.108  -0.188  -0.002  0.00  0.00    -0.076 A 
ATOM      2  C3  UNL d   1      -1.416   0.324   0.058  0.00  0.00     0.004 A 
ATOM      3  C4  UNL d   1      -1.900   0.921   1.221  0.00  0.00    -0.003 A 
ATOM      4  C5  UNL d   1      -1.085   1.015   2.343  0.00  0.00     0.000 A 
ATOM      5  C6  UNL d   1       0.221   0.528   2.296  0.00  0.00     0.000 A 
ATOM      6  C7  UNL d   1       0.731  -0.061   1.126  0.00  0.00    -0.073 A 
ATOM      7  C8  UNL d   1       2.144  -0.575   1.133  0.00  0.00     0.078 C 
ENDROOT
BRANCH   1   8
ATOM      8  C1  UNL d   1       0.354  -0.848  -1.282  0.00  0.00     0.053 C 
ATOM      9  C   UNL d   1       0.841   0.158  -2.313  0.00  0.00     0.018 C 
ENDBRANCH   1   8
TORSDOF 1
ENDMDL
