MODEL 1
REMARK minimizedAffinity -2.95998693
REMARK minimizedRMSD -1
REMARK  1 active torsions:
REMARK  status: ('A' for Active; 'I' for Inactive)
REMARK    1  A    between atoms: C1_2  and  C2_3 
ROOT
ATOM      1  C2  UNL d   1      -0.428   0.470   0.804  0.00  0.00    -0.076 A 
ATOM      2  C3  UNL d   1       0.959   0.372   1.012  0.00  0.00     0.004 A 
ATOM      3  C4  UNL d   1       1.780  -0.269   0.086  0.00  0.00    -0.003 A 
ATOM      4  C5  UNL d   1       1.228  -0.823  -1.064  0.00  0.00     0.000 A 
ATOM      5  C6  UNL d   1      -0.144  -0.720  -1.295  0.00  0.00     0.000 A 
ATOM      6  C7  UNL d   1      -0.983  -0.062  -0.380  0.00  0.00    -0.073 A 
ATOM      7  C8  UNL d   1      -2.456   0.014  -0.677  0.00  0.00     0.078 C 
ENDROOT
BRANCH   1   8
ATOM      8  C1  UNL d   1      -1.271   1.153   1.856  0.00  0.00     0.053 C 
ATOM      9  C   UNL d   1      -2.134   0.174   2.637  0.00  0.00     0.018 C 
ENDBRANCH   1   8
TORSDOF 1
ENDMDL
