MODEL 1
REMARK minimizedAffinity -2.76257443
REMARK minimizedRMSD -1
REMARK  1 active torsions:
REMARK  status: ('A' for Active; 'I' for Inactive)
REMARK    1  A    between atoms: C1_2  and  C2_3 
ROOT
ATOM      1  C2  UNL d   1      -0.092  -0.189   0.449  0.00  0.00    -0.076 A 
ATOM      2  C3  UNL d   1      -1.489  -0.065   0.552  0.00  0.00     0.004 A 
ATOM      3  C4  UNL d   1      -2.092   0.270   1.763  0.00  0.00    -0.003 A 
ATOM      4  C5  UNL d   1      -1.308   0.487   2.891  0.00  0.00     0.000 A 
ATOM      5  C6  UNL d   1       0.080   0.386   2.803  0.00  0.00     0.000 A 
ATOM      6  C7  UNL d   1       0.705   0.065   1.586  0.00  0.00    -0.073 A 
ATOM      7  C8  UNL d   1       2.205  -0.038   1.550  0.00  0.00     0.078 C 
ENDROOT
BRANCH   1   8
ATOM      8  C1  UNL d   1       0.504  -0.582  -0.884  0.00  0.00     0.053 C 
ATOM      9  C   UNL d   1       0.435   0.542  -1.907  0.00  0.00     0.018 C 
ENDBRANCH   1   8
TORSDOF 1
ENDMDL
