MODEL 1
REMARK minimizedAffinity -3.46827626
REMARK minimizedRMSD -1
REMARK  1 active torsions:
REMARK  status: ('A' for Active; 'I' for Inactive)
REMARK    1  A    between atoms: C1_2  and  C2_3 
ROOT
ATOM      1  C2  UNL d   1      -0.452   0.420   0.217  0.00  0.00    -0.076 A 
ATOM      2  C3  UNL d   1       0.411   1.192   1.013  0.00  0.00     0.004 A 
ATOM      3  C4  UNL d   1       0.037   1.597   2.293  0.00  0.00    -0.003 A 
ATOM      4  C5  UNL d   1      -1.206   1.235   2.799  0.00  0.00     0.000 A 
ATOM      5  C6  UNL d   1      -2.069   0.454   2.030  0.00  0.00     0.000 A 
ATOM      6  C7  UNL d   1      -1.700   0.024   0.743  0.00  0.00    -0.073 A 
ATOM      7  C8  UNL d   1      -2.672  -0.812  -0.045  0.00  0.00     0.078 C 
ENDROOT
BRANCH   1   8
ATOM      8  C1  UNL d   1      -0.003   0.034  -1.175  0.00  0.00     0.053 C 
ATOM      9  C   UNL d   1       0.721  -1.304  -1.203  0.00  0.00     0.018 C 
ENDBRANCH   1   8
TORSDOF 1
ENDMDL
