MODEL 1
REMARK minimizedAffinity -4.25717497
REMARK minimizedRMSD -1
REMARK  1 active torsions:
REMARK  status: ('A' for Active; 'I' for Inactive)
REMARK    1  A    between atoms: C1_2  and  C2_3 
ROOT
ATOM      1  C2  UNL d   1       0.023   0.012   0.186  0.00  0.00    -0.076 A 
ATOM      2  C3  UNL d   1      -1.354   0.269   0.065  0.00  0.00     0.004 A 
ATOM      3  C4  UNL d   1      -2.045   0.958   1.061  0.00  0.00    -0.003 A 
ATOM      4  C5  UNL d   1      -1.370   1.402   2.192  0.00  0.00     0.000 A 
ATOM      5  C6  UNL d   1      -0.000   1.172   2.320  0.00  0.00     0.000 A 
ATOM      6  C7  UNL d   1       0.715   0.493   1.318  0.00  0.00    -0.073 A 
ATOM      7  C8  UNL d   1       2.189   0.267   1.511  0.00  0.00     0.078 C 
ENDROOT
BRANCH   1   8
ATOM      8  C1  UNL d   1       0.714  -0.763  -0.913  0.00  0.00     0.053 C 
ATOM      9  C   UNL d   1       0.741  -0.006  -2.232  0.00  0.00     0.018 C 
ENDBRANCH   1   8
TORSDOF 1
ENDMDL
