MODEL 1
REMARK minimizedAffinity -2.01157546
REMARK minimizedRMSD -1
REMARK  0 active torsions:
REMARK  status: ('A' for Active; 'I' for Inactive)
ROOT
ATOM      1  C   UNL d   1       0.614   2.476   0.636  0.00  0.00     0.023 A 
ATOM      2  C1  UNL d   1       1.585   1.531   0.307  0.00  0.00     0.003 A 
ATOM      3  C2  UNL d   1       1.222   0.199   0.096  0.00  0.00     0.048 A 
ATOM      4  C3  UNL d   1      -0.114  -0.180   0.215  0.00  0.00     0.023 A 
ATOM      5  C4  UNL d   1      -1.090   0.762   0.543  0.00  0.00     0.048 A 
ATOM      6  C5  UNL d   1      -0.722   2.092   0.754  0.00  0.00     0.003 A 
ATOM      7  I   UNL d   1      -0.657  -2.162  -0.099  0.00  0.00    -0.146 I 
ENDROOT
TORSDOF 0
ENDMDL
