MODEL 1
REMARK minimizedAffinity -3.51453114
REMARK minimizedRMSD -1
REMARK  0 active torsions:
REMARK  status: ('A' for Active; 'I' for Inactive)
ROOT
ATOM      1  C   UNL d   1       0.097   3.243   0.326  0.00  0.00     0.023 A 
ATOM      2  C1  UNL d   1      -0.693   2.472   1.179  0.00  0.00     0.003 A 
ATOM      3  C2  UNL d   1      -0.692   1.080   1.065  0.00  0.00     0.048 A 
ATOM      4  C3  UNL d   1       0.102   0.466   0.097  0.00  0.00     0.023 A 
ATOM      5  C4  UNL d   1       0.895   1.234  -0.758  0.00  0.00     0.048 A 
ATOM      6  C5  UNL d   1       0.890   2.625  -0.641  0.00  0.00     0.003 A 
ATOM      7  I   UNL d   1       0.105  -1.605  -0.075  0.00  0.00    -0.146 I 
ENDROOT
TORSDOF 0
ENDMDL
