MODEL 1
REMARK minimizedAffinity -0.252914459
REMARK minimizedRMSD -1
REMARK  0 active torsions:
REMARK  status: ('A' for Active; 'I' for Inactive)
ROOT
ATOM      1  C   UNL d   1      -0.562  -3.782  -1.985  0.00  0.00     0.023 A 
ATOM      2  C1  UNL d   1      -1.438  -3.563  -0.922  0.00  0.00     0.003 A 
ATOM      3  C2  UNL d   1      -1.392  -2.360  -0.214  0.00  0.00     0.048 A 
ATOM      4  C3  UNL d   1      -0.468  -1.379  -0.577  0.00  0.00     0.023 A 
ATOM      5  C4  UNL d   1       0.409  -1.594  -1.641  0.00  0.00     0.048 A 
ATOM      6  C5  UNL d   1       0.360  -2.799  -2.344  0.00  0.00     0.003 A 
ATOM      7  I   UNL d   1      -0.398   0.412   0.474  0.00  0.00    -0.146 I 
ENDROOT
TORSDOF 0
ENDMDL
