MODEL 1
REMARK minimizedAffinity -4.11756039
REMARK minimizedRMSD -1
REMARK  0 active torsions:
REMARK  status: ('A' for Active; 'I' for Inactive)
ROOT
ATOM      1  C   UNL d   1       0.127   1.207  -0.476  0.00  0.00     0.023 A 
ATOM      2  C1  UNL d   1      -0.868   0.479   0.176  0.00  0.00     0.003 A 
ATOM      3  C2  UNL d   1      -1.531   1.029   1.274  0.00  0.00     0.048 A 
ATOM      4  C3  UNL d   1      -1.196   2.309   1.714  0.00  0.00     0.023 A 
ATOM      5  C4  UNL d   1      -0.202   3.042   1.064  0.00  0.00     0.048 A 
ATOM      6  C5  UNL d   1       0.459   2.488  -0.033  0.00  0.00     0.003 A 
ATOM      7  I   UNL d   1      -2.183   3.131   3.349  0.00  0.00    -0.146 I 
ENDROOT
TORSDOF 0
ENDMDL
