MODEL 1
REMARK minimizedAffinity -2.86606407
REMARK minimizedRMSD -1
REMARK  0 active torsions:
REMARK  status: ('A' for Active; 'I' for Inactive)
ROOT
ATOM      1  C   UNL d   1      -0.032   3.196   0.036  0.00  0.00     0.023 A 
ATOM      2  C1  UNL d   1       0.819   2.449  -0.778  0.00  0.00     0.003 A 
ATOM      3  C2  UNL d   1       0.725   1.056  -0.797  0.00  0.00     0.048 A 
ATOM      4  C3  UNL d   1      -0.223   0.417   0.001  0.00  0.00     0.023 A 
ATOM      5  C4  UNL d   1      -1.078   1.160   0.817  0.00  0.00     0.048 A 
ATOM      6  C5  UNL d   1      -0.979   2.553   0.833  0.00  0.00     0.003 A 
ATOM      7  I   UNL d   1      -0.366  -1.657  -0.025  0.00  0.00    -0.146 I 
ENDROOT
TORSDOF 0
ENDMDL
