MODEL 1
REMARK minimizedAffinity -3.54096031
REMARK minimizedRMSD -1
REMARK  0 active torsions:
REMARK  status: ('A' for Active; 'I' for Inactive)
ROOT
ATOM      1  C   UNL d   1       0.017   2.279   0.258  0.00  0.00     0.023 A 
ATOM      2  C1  UNL d   1      -1.197   1.737   0.681  0.00  0.00     0.003 A 
ATOM      3  C2  UNL d   1      -1.475   0.387   0.460  0.00  0.00     0.048 A 
ATOM      4  C3  UNL d   1      -0.534  -0.416  -0.184  0.00  0.00     0.023 A 
ATOM      5  C4  UNL d   1       0.682   0.122  -0.608  0.00  0.00     0.048 A 
ATOM      6  C5  UNL d   1       0.955   1.473  -0.386  0.00  0.00     0.003 A 
ATOM      7  I   UNL d   1      -0.945  -2.426  -0.514  0.00  0.00    -0.146 I 
ENDROOT
TORSDOF 0
ENDMDL
