MODEL 1
REMARK minimizedAffinity 6.8646307
REMARK minimizedRMSD -1
REMARK  0 active torsions:
REMARK  status: ('A' for Active; 'I' for Inactive)
ROOT
ATOM      1  C   UNL d   1      -1.973   2.759   0.824  0.00  0.00     0.023 A 
ATOM      2  C1  UNL d   1      -1.305   2.241   1.934  0.00  0.00     0.003 A 
ATOM      3  C2  UNL d   1       0.079   2.056   1.894  0.00  0.00     0.048 A 
ATOM      4  C3  UNL d   1       0.788   2.394   0.742  0.00  0.00     0.023 A 
ATOM      5  C4  UNL d   1       0.124   2.914  -0.371  0.00  0.00     0.048 A 
ATOM      6  C5  UNL d   1      -1.260   3.095  -0.326  0.00  0.00     0.003 A 
ATOM      7  I   UNL d   1       2.848   2.120   0.680  0.00  0.00    -0.146 I 
ENDROOT
TORSDOF 0
ENDMDL
