MODEL 1
REMARK minimizedAffinity 4.12661219
REMARK minimizedRMSD -1
REMARK  0 active torsions:
REMARK  status: ('A' for Active; 'I' for Inactive)
ROOT
ATOM      1  C   UNL d   1       3.627   1.875   0.984  0.00  0.00     0.023 A 
ATOM      2  C1  UNL d   1       2.843   0.864   0.429  0.00  0.00     0.003 A 
ATOM      3  C2  UNL d   1       1.466   1.046   0.285  0.00  0.00     0.048 A 
ATOM      4  C3  UNL d   1       0.880   2.242   0.699  0.00  0.00     0.023 A 
ATOM      5  C4  UNL d   1       1.661   3.257   1.255  0.00  0.00     0.048 A 
ATOM      6  C5  UNL d   1       3.037   3.070   1.397  0.00  0.00     0.003 A 
ATOM      7  I   UNL d   1      -1.169   2.516   0.486  0.00  0.00    -0.146 I 
ENDROOT
TORSDOF 0
ENDMDL
