MODEL 1
REMARK minimizedAffinity -1.18233526
REMARK minimizedRMSD -1
REMARK  0 active torsions:
REMARK  status: ('A' for Active; 'I' for Inactive)
ROOT
ATOM      1  C   UNL d   1      -1.304  -0.532   0.439  0.00  0.00     0.023 A 
ATOM      2  C1  UNL d   1      -0.149  -1.297   0.600  0.00  0.00     0.003 A 
ATOM      3  C2  UNL d   1       1.086  -0.670   0.778  0.00  0.00     0.048 A 
ATOM      4  C3  UNL d   1       1.158   0.723   0.796  0.00  0.00     0.023 A 
ATOM      5  C4  UNL d   1       0.004   1.492   0.636  0.00  0.00     0.048 A 
ATOM      6  C5  UNL d   1      -1.228   0.860   0.457  0.00  0.00     0.003 A 
ATOM      7  I   UNL d   1       2.995   1.659   1.061  0.00  0.00    -0.146 I 
ENDROOT
TORSDOF 0
ENDMDL
