MODEL 1
REMARK minimizedAffinity -1.42662501
REMARK minimizedRMSD -1
REMARK  0 active torsions:
REMARK  status: ('A' for Active; 'I' for Inactive)
ROOT
ATOM      1  C   UNL d   1      -0.020  -1.523  -0.032  0.00  0.00     0.023 A 
ATOM      2  C1  UNL d   1       1.161  -0.844  -0.330  0.00  0.00     0.003 A 
ATOM      3  C2  UNL d   1       1.199   0.551  -0.277  0.00  0.00     0.048 A 
ATOM      4  C3  UNL d   1       0.052   1.260   0.078  0.00  0.00     0.023 A 
ATOM      5  C4  UNL d   1      -1.132   0.585   0.378  0.00  0.00     0.048 A 
ATOM      6  C5  UNL d   1      -1.165  -0.810   0.322  0.00  0.00     0.003 A 
ATOM      7  I   UNL d   1       0.106   3.336   0.158  0.00  0.00    -0.146 I 
ENDROOT
TORSDOF 0
ENDMDL
