MODEL 1
REMARK minimizedAffinity 4.12465525
REMARK minimizedRMSD -1
REMARK  0 active torsions:
REMARK  status: ('A' for Active; 'I' for Inactive)
ROOT
ATOM      1  C   UNL d   1       1.387   2.786  -0.257  0.00  0.00     0.023 A 
ATOM      2  C1  UNL d   1       0.503   3.390  -1.151  0.00  0.00     0.003 A 
ATOM      3  C2  UNL d   1      -0.872   3.180  -1.024  0.00  0.00     0.048 A 
ATOM      4  C3  UNL d   1      -1.355   2.367   0.000  0.00  0.00     0.023 A 
ATOM      5  C4  UNL d   1      -0.474   1.761   0.898  0.00  0.00     0.048 A 
ATOM      6  C5  UNL d   1       0.900   1.973   0.766  0.00  0.00     0.003 A 
ATOM      7  I   UNL d   1      -3.401   2.053   0.192  0.00  0.00    -0.146 I 
ENDROOT
TORSDOF 0
ENDMDL
