MODEL 1
REMARK minimizedAffinity -4.67499208
REMARK minimizedRMSD -1
REMARK  0 active torsions:
REMARK  status: ('A' for Active; 'I' for Inactive)
ROOT
ATOM      1  C   UNL d   1       1.166   3.377   0.144  0.00  0.00     0.023 A 
ATOM      2  C1  UNL d   1      -0.166   2.965   0.106  0.00  0.00     0.003 A 
ATOM      3  C2  UNL d   1      -0.482   1.609   0.202  0.00  0.00     0.048 A 
ATOM      4  C3  UNL d   1       0.539   0.669   0.336  0.00  0.00     0.023 A 
ATOM      5  C4  UNL d   1       1.874   1.076   0.374  0.00  0.00     0.048 A 
ATOM      6  C5  UNL d   1       2.185   2.433   0.277  0.00  0.00     0.003 A 
ATOM      7  I   UNL d   1       0.072  -1.351   0.479  0.00  0.00    -0.146 I 
ENDROOT
TORSDOF 0
ENDMDL
