MODEL 1
REMARK minimizedAffinity 3.05889297
REMARK minimizedRMSD -1
REMARK  0 active torsions:
REMARK  status: ('A' for Active; 'I' for Inactive)
ROOT
ATOM      1  C   UNL d   1       1.447   2.687  -0.029  0.00  0.00     0.023 A 
ATOM      2  C1  UNL d   1       0.730   1.862   0.837  0.00  0.00     0.003 A 
ATOM      3  C2  UNL d   1      -0.662   1.794   0.747  0.00  0.00     0.048 A 
ATOM      4  C3  UNL d   1      -1.330   2.554  -0.212  0.00  0.00     0.023 A 
ATOM      5  C4  UNL d   1      -0.616   3.381  -1.082  0.00  0.00     0.048 A 
ATOM      6  C5  UNL d   1       0.775   3.446  -0.987  0.00  0.00     0.003 A 
ATOM      7  I   UNL d   1      -3.401   2.455  -0.349  0.00  0.00    -0.146 I 
ENDROOT
TORSDOF 0
ENDMDL
