MODEL 1
REMARK minimizedAffinity -3.48688149
REMARK minimizedRMSD -1
REMARK  0 active torsions:
REMARK  status: ('A' for Active; 'I' for Inactive)
ROOT
ATOM      1  C   UNL d   1      -1.338  -3.864  -1.626  0.00  0.00     0.023 A 
ATOM      2  C1  UNL d   1      -1.551  -3.180  -0.429  0.00  0.00     0.003 A 
ATOM      3  C2  UNL d   1      -0.619  -2.239   0.014  0.00  0.00     0.048 A 
ATOM      4  C3  UNL d   1       0.523  -1.987  -0.745  0.00  0.00     0.023 A 
ATOM      5  C4  UNL d   1       0.740  -2.669  -1.943  0.00  0.00     0.048 A 
ATOM      6  C5  UNL d   1      -0.194  -3.609  -2.382  0.00  0.00     0.003 A 
ATOM      7  I   UNL d   1       1.912  -0.588  -0.087  0.00  0.00    -0.146 I 
ENDROOT
TORSDOF 0
ENDMDL
