MODEL 1
REMARK minimizedAffinity -1.59533095
REMARK minimizedRMSD -1
REMARK  0 active torsions:
REMARK  status: ('A' for Active; 'I' for Inactive)
ROOT
ATOM      1  C   UNL d   1       1.328  -1.475   0.446  0.00  0.00     0.023 A 
ATOM      2  C1  UNL d   1       0.013  -1.024   0.329  0.00  0.00     0.003 A 
ATOM      3  C2  UNL d   1      -0.258   0.345   0.318  0.00  0.00     0.048 A 
ATOM      4  C3  UNL d   1       0.790   1.259   0.422  0.00  0.00     0.023 A 
ATOM      5  C4  UNL d   1       2.107   0.812   0.538  0.00  0.00     0.048 A 
ATOM      6  C5  UNL d   1       2.374  -0.558   0.550  0.00  0.00     0.003 A 
ATOM      7  I   UNL d   1       0.389   3.298   0.404  0.00  0.00    -0.146 I 
ENDROOT
TORSDOF 0
ENDMDL
