MODEL 1
REMARK minimizedAffinity -1.63589978
REMARK minimizedRMSD -1
REMARK  1 active torsions:
REMARK  status: ('A' for Active; 'I' for Inactive)
REMARK    1  A    between atoms: N_2  and  C1_3 
ROOT
ATOM      1  C1  UNL d   1      -0.463   0.758  -1.818  0.00  0.00     0.143 A 
ATOM      2  C2  UNL d   1      -1.739   1.215  -2.165  0.00  0.00    -0.057 A 
ATOM      3  C3  UNL d   1      -1.910   2.365  -2.946  0.00  0.00     0.033 A 
ATOM      4  C4  UNL d   1      -0.806   3.097  -3.369  0.00  0.00    -0.042 A 
ATOM      5  C5  UNL d   1       0.471   2.675  -3.015  0.00  0.00     0.033 A 
ATOM      6  C6  UNL d   1       0.636   1.522  -2.241  0.00  0.00    -0.057 A 
ENDROOT
BRANCH   1   7
ATOM      7  N   UNL d   1      -0.230  -0.322  -0.963  0.00  0.00    -0.732 N 
ATOM      8  C   UNL d   1      -0.476  -0.203   0.458  0.00  0.00     0.284 C 
ATOM      9  H3  UNL d   1      -0.530  -1.207  -1.364  0.00  0.00     0.395 HD
ENDBRANCH   1   7
TORSDOF 1
ENDMDL
