MODEL 1
REMARK minimizedAffinity -1.15713012
REMARK minimizedRMSD -1
REMARK  1 active torsions:
REMARK  status: ('A' for Active; 'I' for Inactive)
REMARK    1  A    between atoms: N_2  and  C1_3 
ROOT
ATOM      1  C1  UNL d   1       0.395  -1.213  -0.303  0.00  0.00     0.143 A 
ATOM      2  C2  UNL d   1      -0.973  -0.952  -0.178  0.00  0.00    -0.057 A 
ATOM      3  C3  UNL d   1      -1.597  -0.928   1.075  0.00  0.00     0.033 A 
ATOM      4  C4  UNL d   1      -0.865  -1.194   2.228  0.00  0.00    -0.042 A 
ATOM      5  C5  UNL d   1       0.491  -1.481   2.126  0.00  0.00     0.033 A 
ATOM      6  C6  UNL d   1       1.110  -1.497   0.872  0.00  0.00    -0.057 A 
ENDROOT
BRANCH   1   7
ATOM      7  N   UNL d   1       1.053  -1.349  -1.528  0.00  0.00    -0.732 N 
ATOM      8  C   UNL d   1       2.495  -1.465  -1.582  0.00  0.00     0.284 C 
ATOM      9  H3  UNL d   1       0.562  -1.970  -2.166  0.00  0.00     0.395 HD
ENDBRANCH   1   7
TORSDOF 1
ENDMDL
