MODEL 1
REMARK minimizedAffinity -3.44721794
REMARK minimizedRMSD -1
REMARK  1 active torsions:
REMARK  status: ('A' for Active; 'I' for Inactive)
REMARK    1  A    between atoms: N_2  and  C1_3 
ROOT
ATOM      1  C1  UNL d   1       0.231  -0.493  -0.564  0.00  0.00     0.143 A 
ATOM      2  C2  UNL d   1       1.450  -0.393   0.114  0.00  0.00    -0.057 A 
ATOM      3  C3  UNL d   1       1.540  -0.647   1.488  0.00  0.00     0.033 A 
ATOM      4  C4  UNL d   1       0.403  -0.980   2.216  0.00  0.00    -0.042 A 
ATOM      5  C5  UNL d   1      -0.825  -1.061   1.567  0.00  0.00     0.033 A 
ATOM      6  C6  UNL d   1      -0.907  -0.812   0.194  0.00  0.00    -0.057 A 
ENDROOT
BRANCH   1   7
ATOM      7  N   UNL d   1       0.058  -0.157  -1.909  0.00  0.00    -0.732 N 
ATOM      8  C   UNL d   1      -0.424   1.155  -2.285  0.00  0.00     0.284 C 
ATOM      9  H3  UNL d   1       0.812  -0.506  -2.496  0.00  0.00     0.395 HD
ENDBRANCH   1   7
TORSDOF 1
ENDMDL
