MODEL 1
REMARK minimizedAffinity 5.80755281
REMARK minimizedRMSD -1
REMARK  1 active torsions:
REMARK  status: ('A' for Active; 'I' for Inactive)
REMARK    1  A    between atoms: C1_2  and  C2_3 
ROOT
ATOM      1  C2  UNL d   1       2.277   0.820   2.004  0.00  0.00    -0.077 A 
ATOM      2  C3  UNL d   1       2.738   1.559   0.905  0.00  0.00     0.002 A 
ATOM      3  C4  UNL d   1       4.074   1.473   0.507  0.00  0.00     0.002 A 
ATOM      4  C5  UNL d   1       4.957   0.647   1.199  0.00  0.00    -0.004 A 
ATOM      5  C6  UNL d   1       4.509  -0.090   2.295  0.00  0.00     0.002 A 
ATOM      6  C7  UNL d   1       3.175  -0.004   2.695  0.00  0.00     0.002 A 
ENDROOT
BRANCH   1   7
ATOM      7  C1  UNL d   1       0.826   0.874   2.405  0.00  0.00     0.055 C 
ATOM      8  C   UNL d   1       0.246   2.266   2.201  0.00  0.00     0.019 C 
ENDBRANCH   1   7
TORSDOF 1
ENDMDL
