MODEL 1
REMARK minimizedAffinity 2.36350679
REMARK minimizedRMSD -1
REMARK  1 active torsions:
REMARK  status: ('A' for Active; 'I' for Inactive)
REMARK    1  A    between atoms: C1_2  and  C2_3 
ROOT
ATOM      1  C2  UNL d   1       3.336   3.128   1.162  0.00  0.00    -0.077 A 
ATOM      2  C3  UNL d   1       3.989   1.895   1.029  0.00  0.00     0.002 A 
ATOM      3  C4  UNL d   1       3.287   0.701   1.204  0.00  0.00     0.002 A 
ATOM      4  C5  UNL d   1       1.927   0.728   1.507  0.00  0.00    -0.004 A 
ATOM      5  C6  UNL d   1       1.269   1.950   1.643  0.00  0.00     0.002 A 
ATOM      6  C7  UNL d   1       1.969   3.144   1.470  0.00  0.00     0.002 A 
ENDROOT
BRANCH   1   7
ATOM      7  C1  UNL d   1       4.080   4.416   0.925  0.00  0.00     0.055 C 
ATOM      8  C   UNL d   1       3.755   5.448   1.995  0.00  0.00     0.019 C 
ENDBRANCH   1   7
TORSDOF 1
ENDMDL
