MODEL 1
REMARK minimizedAffinity 8.66837406
REMARK minimizedRMSD -1
REMARK  1 active torsions:
REMARK  status: ('A' for Active; 'I' for Inactive)
REMARK    1  A    between atoms: C1_2  and  C2_3 
ROOT
ATOM      1  C2  UNL d   1      -4.798   3.594   3.460  0.00  0.00    -0.077 A 
ATOM      2  C3  UNL d   1      -5.539   4.501   2.689  0.00  0.00     0.002 A 
ATOM      3  C4  UNL d   1      -5.998   5.695   3.250  0.00  0.00     0.002 A 
ATOM      4  C5  UNL d   1      -5.717   5.994   4.581  0.00  0.00    -0.004 A 
ATOM      5  C6  UNL d   1      -4.982   5.098   5.356  0.00  0.00     0.002 A 
ATOM      6  C7  UNL d   1      -4.524   3.904   4.798  0.00  0.00     0.002 A 
ENDROOT
BRANCH   1   7
ATOM      7  C1  UNL d   1      -4.261   2.329   2.844  0.00  0.00     0.055 C 
ATOM      8  C   UNL d   1      -4.339   1.162   3.817  0.00  0.00     0.019 C 
ENDBRANCH   1   7
TORSDOF 1
ENDMDL
