MODEL 1
REMARK minimizedAffinity 3.65929985
REMARK minimizedRMSD -1
REMARK  1 active torsions:
REMARK  status: ('A' for Active; 'I' for Inactive)
REMARK    1  A    between atoms: C1_2  and  C2_3 
ROOT
ATOM      1  C2  UNL d   1       4.059   5.324   1.891  0.00  0.00    -0.077 A 
ATOM      2  C3  UNL d   1       2.850   6.000   2.106  0.00  0.00     0.002 A 
ATOM      3  C4  UNL d   1       1.631   5.357   1.878  0.00  0.00     0.002 A 
ATOM      4  C5  UNL d   1       1.611   4.035   1.438  0.00  0.00    -0.004 A 
ATOM      5  C6  UNL d   1       2.808   3.355   1.220  0.00  0.00     0.002 A 
ATOM      6  C7  UNL d   1       4.027   3.997   1.446  0.00  0.00     0.002 A 
ENDROOT
BRANCH   1   7
ATOM      7  C1  UNL d   1       5.373   6.000   2.184  0.00  0.00     0.055 C 
ATOM      8  C   UNL d   1       5.957   5.526   3.507  0.00  0.00     0.019 C 
ENDBRANCH   1   7
TORSDOF 1
ENDMDL
