MODEL 1
REMARK minimizedAffinity 8.29674149
REMARK minimizedRMSD -1
REMARK  1 active torsions:
REMARK  status: ('A' for Active; 'I' for Inactive)
REMARK    1  A    between atoms: C1_2  and  C2_3 
ROOT
ATOM      1  C2  UNL d   1      -3.069  -3.313  -0.781  0.00  0.00    -0.077 A 
ATOM      2  C3  UNL d   1      -3.380  -2.346  -1.748  0.00  0.00     0.002 A 
ATOM      3  C4  UNL d   1      -3.636  -2.723  -3.067  0.00  0.00     0.002 A 
ATOM      4  C5  UNL d   1      -3.587  -4.067  -3.431  0.00  0.00    -0.004 A 
ATOM      5  C6  UNL d   1      -3.277  -5.036  -2.478  0.00  0.00     0.002 A 
ATOM      6  C7  UNL d   1      -3.020  -4.661  -1.159  0.00  0.00     0.002 A 
ENDROOT
BRANCH   1   7
ATOM      7  C1  UNL d   1      -2.841  -2.913   0.653  0.00  0.00     0.055 C 
ATOM      8  C   UNL d   1      -1.391  -2.520   0.895  0.00  0.00     0.019 C 
ENDBRANCH   1   7
TORSDOF 1
ENDMDL
