MODEL 1
REMARK minimizedAffinity 3.99505091
REMARK minimizedRMSD -1
REMARK  1 active torsions:
REMARK  status: ('A' for Active; 'I' for Inactive)
REMARK    1  A    between atoms: C1_2  and  C2_3 
ROOT
ATOM      1  C2  UNL d   1       3.958   5.364  -4.653  0.00  0.00    -0.077 A 
ATOM      2  C3  UNL d   1       3.375   4.443  -3.771  0.00  0.00     0.002 A 
ATOM      3  C4  UNL d   1       2.009   4.162  -3.845  0.00  0.00     0.002 A 
ATOM      4  C5  UNL d   1       1.217   4.794  -4.800  0.00  0.00    -0.004 A 
ATOM      5  C6  UNL d   1       1.787   5.713  -5.681  0.00  0.00     0.002 A 
ATOM      6  C7  UNL d   1       3.151   5.996  -5.608  0.00  0.00     0.002 A 
ENDROOT
BRANCH   1   7
ATOM      7  C1  UNL d   1       5.439   5.632  -4.608  0.00  0.00     0.055 C 
ATOM      8  C   UNL d   1       5.999   5.888  -6.000  0.00  0.00     0.019 C 
ENDBRANCH   1   7
TORSDOF 1
ENDMDL
