MODEL 1
REMARK minimizedAffinity 8.74676991
REMARK minimizedRMSD -1
REMARK  1 active torsions:
REMARK  status: ('A' for Active; 'I' for Inactive)
REMARK    1  A    between atoms: C1_2  and  C2_3 
ROOT
ATOM      1  C2  UNL d   1      -1.257   3.588  -1.611  0.00  0.00    -0.077 A 
ATOM      2  C3  UNL d   1      -2.622   3.452  -1.323  0.00  0.00     0.002 A 
ATOM      3  C4  UNL d   1      -3.418   4.582  -1.124  0.00  0.00     0.002 A 
ATOM      4  C5  UNL d   1      -2.859   5.854  -1.216  0.00  0.00    -0.004 A 
ATOM      5  C6  UNL d   1      -1.501   6.000  -1.500  0.00  0.00     0.002 A 
ATOM      6  C7  UNL d   1      -0.704   4.872  -1.698  0.00  0.00     0.002 A 
ENDROOT
BRANCH   1   7
ATOM      7  C1  UNL d   1      -0.407   2.372  -1.874  0.00  0.00     0.055 C 
ATOM      8  C   UNL d   1       0.862   2.736  -2.630  0.00  0.00     0.019 C 
ENDBRANCH   1   7
TORSDOF 1
ENDMDL
