MODEL 1
REMARK minimizedAffinity -0.729911149
REMARK minimizedRMSD -1
REMARK  1 active torsions:
REMARK  status: ('A' for Active; 'I' for Inactive)
REMARK    1  A    between atoms: C1_2  and  C2_3 
ROOT
ATOM      1  C2  UNL d   1       4.155   3.819  -4.720  0.00  0.00    -0.077 A 
ATOM      2  C3  UNL d   1       4.852   4.914  -5.251  0.00  0.00     0.002 A 
ATOM      3  C4  UNL d   1       4.158   5.998  -5.792  0.00  0.00     0.002 A 
ATOM      4  C5  UNL d   1       2.765   6.000  -5.803  0.00  0.00    -0.004 A 
ATOM      5  C6  UNL d   1       2.062   4.915  -5.280  0.00  0.00     0.002 A 
ATOM      6  C7  UNL d   1       2.754   3.830  -4.740  0.00  0.00     0.002 A 
ENDROOT
BRANCH   1   7
ATOM      7  C1  UNL d   1       4.901   2.671  -4.092  0.00  0.00     0.055 C 
ATOM      8  C   UNL d   1       5.314   2.995  -2.664  0.00  0.00     0.019 C 
ENDBRANCH   1   7
TORSDOF 1
ENDMDL
