MODEL 1
REMARK minimizedAffinity 6.48409462
REMARK minimizedRMSD -1
REMARK  1 active torsions:
REMARK  status: ('A' for Active; 'I' for Inactive)
REMARK    1  A    between atoms: C1_2  and  C2_3 
ROOT
ATOM      1  C2  UNL d   1      -3.600  -3.945  -2.430  0.00  0.00    -0.077 A 
ATOM      2  C3  UNL d   1      -3.041  -3.847  -3.712  0.00  0.00     0.002 A 
ATOM      3  C4  UNL d   1      -2.000  -2.951  -3.962  0.00  0.00     0.002 A 
ATOM      4  C5  UNL d   1      -1.506  -2.150  -2.935  0.00  0.00    -0.004 A 
ATOM      5  C6  UNL d   1      -2.056  -2.239  -1.657  0.00  0.00     0.002 A 
ATOM      6  C7  UNL d   1      -3.097  -3.132  -1.405  0.00  0.00     0.002 A 
ENDROOT
BRANCH   1   7
ATOM      7  C1  UNL d   1      -4.690  -4.945  -2.146  0.00  0.00     0.055 C 
ATOM      8  C   UNL d   1      -5.998  -4.542  -2.811  0.00  0.00     0.019 C 
ENDBRANCH   1   7
TORSDOF 1
ENDMDL
