MODEL 1
REMARK minimizedAffinity 2.62812376
REMARK minimizedRMSD -1
REMARK  1 active torsions:
REMARK  status: ('A' for Active; 'I' for Inactive)
REMARK    1  A    between atoms: C1_2  and  C2_3 
ROOT
ATOM      1  C2  UNL d   1      -0.842  -2.744  -1.392  0.00  0.00    -0.077 A 
ATOM      2  C3  UNL d   1      -0.245  -3.485  -2.422  0.00  0.00     0.002 A 
ATOM      3  C4  UNL d   1      -0.900  -3.652  -3.643  0.00  0.00     0.002 A 
ATOM      4  C5  UNL d   1      -2.153  -3.077  -3.848  0.00  0.00    -0.004 A 
ATOM      5  C6  UNL d   1      -2.755  -2.340  -2.830  0.00  0.00     0.002 A 
ATOM      6  C7  UNL d   1      -2.103  -2.173  -1.608  0.00  0.00     0.002 A 
ENDROOT
BRANCH   1   7
ATOM      7  C1  UNL d   1      -0.116  -2.522  -0.091  0.00  0.00     0.055 C 
ATOM      8  C   UNL d   1      -1.023  -2.788   1.101  0.00  0.00     0.019 C 
ENDBRANCH   1   7
TORSDOF 1
ENDMDL
