MODEL 1
REMARK minimizedAffinity 8.75173569
REMARK minimizedRMSD -1
REMARK  1 active torsions:
REMARK  status: ('A' for Active; 'I' for Inactive)
REMARK    1  A    between atoms: C1_2  and  C2_3 
ROOT
ATOM      1  C2  UNL d   1      -3.332  -3.178  -2.497  0.00  0.00    -0.077 A 
ATOM      2  C3  UNL d   1      -2.858  -2.828  -1.225  0.00  0.00     0.002 A 
ATOM      3  C4  UNL d   1      -1.697  -2.064  -1.089  0.00  0.00     0.002 A 
ATOM      4  C5  UNL d   1      -1.004  -1.640  -2.221  0.00  0.00    -0.004 A 
ATOM      5  C6  UNL d   1      -1.466  -1.984  -3.491  0.00  0.00     0.002 A 
ATOM      6  C7  UNL d   1      -2.626  -2.749  -3.628  0.00  0.00     0.002 A 
ENDROOT
BRANCH   1   7
ATOM      7  C1  UNL d   1      -4.611  -3.960  -2.646  0.00  0.00     0.055 C 
ATOM      8  C   UNL d   1      -4.455  -5.380  -2.123  0.00  0.00     0.019 C 
ENDBRANCH   1   7
TORSDOF 1
ENDMDL
