MODEL 1
REMARK minimizedAffinity 10.0545616
REMARK minimizedRMSD -1
REMARK  1 active torsions:
REMARK  status: ('A' for Active; 'I' for Inactive)
REMARK    1  A    between atoms: C1_2  and  C2_3 
ROOT
ATOM      1  C2  UNL d   1      -2.177  -3.035  -3.660  0.00  0.00    -0.077 A 
ATOM      2  C3  UNL d   1      -1.250  -1.983  -3.668  0.00  0.00     0.002 A 
ATOM      3  C4  UNL d   1      -0.547  -1.670  -4.833  0.00  0.00     0.002 A 
ATOM      4  C5  UNL d   1      -0.766  -2.401  -5.998  0.00  0.00    -0.004 A 
ATOM      5  C6  UNL d   1      -1.684  -3.450  -6.000  0.00  0.00     0.002 A 
ATOM      6  C7  UNL d   1      -2.387  -3.766  -4.836  0.00  0.00     0.002 A 
ENDROOT
BRANCH   1   7
ATOM      7  C1  UNL d   1      -2.972  -3.343  -2.418  0.00  0.00     0.055 C 
ATOM      8  C   UNL d   1      -4.324  -3.951  -2.763  0.00  0.00     0.019 C 
ENDBRANCH   1   7
TORSDOF 1
ENDMDL
