MODEL 1
REMARK minimizedAffinity 20.5984039
REMARK minimizedRMSD -1
REMARK  0 active torsions:
REMARK  status: ('A' for Active; 'I' for Inactive)
ROOT
ATOM      1  C   UNL d   1       3.110  -0.306  -0.861  0.00  0.00     0.124 A 
ATOM      2  C1  UNL d   1       4.167  -0.837  -0.134  0.00  0.00     0.062 A 
ATOM      3  C2  UNL d   1       4.237  -2.207   0.099  0.00  0.00     0.162 A 
ATOM      4  C3  UNL d   1       3.247  -3.057  -0.394  0.00  0.00    -0.034 A 
ATOM      5  C4  UNL d   1       2.186  -2.515  -1.123  0.00  0.00     0.162 A 
ATOM      6  C5  UNL d   1       2.121  -1.145  -1.354  0.00  0.00     0.062 A 
ATOM      7  F   UNL d   1       1.099  -0.634  -2.056  0.00  0.00    -0.097 F 
ATOM      8  F1  UNL d   1       1.218  -3.304  -1.613  0.00  0.00    -0.096 F 
ATOM      9  I   UNL d   1       3.348  -5.106  -0.047  0.00  0.00    -0.060 I 
ATOM     10  F2  UNL d   1       5.269  -2.693   0.804  0.00  0.00    -0.096 F 
ATOM     11  F3  UNL d   1       5.123  -0.028   0.344  0.00  0.00    -0.097 F 
ATOM     12  F4  UNL d   1       3.044   1.013  -1.083  0.00  0.00    -0.092 F 
ENDROOT
TORSDOF 0
ENDMDL
