MODEL 1
REMARK minimizedAffinity 17.845808
REMARK minimizedRMSD -1
REMARK  0 active torsions:
REMARK  status: ('A' for Active; 'I' for Inactive)
ROOT
ATOM      1  C   UNL d   1       3.953  -0.203   0.119  0.00  0.00     0.124 A 
ATOM      2  C1  UNL d   1       2.896   0.222  -0.674  0.00  0.00     0.062 A 
ATOM      3  C2  UNL d   1       2.075  -0.709  -1.303  0.00  0.00     0.162 A 
ATOM      4  C3  UNL d   1       2.307  -2.075  -1.142  0.00  0.00    -0.034 A 
ATOM      5  C4  UNL d   1       3.373  -2.494  -0.344  0.00  0.00     0.162 A 
ATOM      6  C5  UNL d   1       4.191  -1.560   0.283  0.00  0.00     0.062 A 
ATOM      7  F   UNL d   1       5.212  -1.972   1.048  0.00  0.00    -0.097 F 
ATOM      8  F1  UNL d   1       3.624  -3.800  -0.168  0.00  0.00    -0.096 F 
ATOM      9  I   UNL d   1       1.082  -3.470  -2.082  0.00  0.00    -0.060 I 
ATOM     10  F2  UNL d   1       1.061  -0.270  -2.063  0.00  0.00    -0.096 F 
ATOM     11  F3  UNL d   1       2.665   1.533  -0.835  0.00  0.00    -0.097 F 
ATOM     12  F4  UNL d   1       4.742   0.695   0.723  0.00  0.00    -0.092 F 
ENDROOT
TORSDOF 0
ENDMDL
