MODEL 1
REMARK minimizedAffinity 22.7064991
REMARK minimizedRMSD -1
REMARK  0 active torsions:
REMARK  status: ('A' for Active; 'I' for Inactive)
ROOT
ATOM      1  C   UNL d   1       1.376  -2.150  -2.048  0.00  0.00     0.124 A 
ATOM      2  C1  UNL d   1       2.301  -1.964  -1.030  0.00  0.00     0.062 A 
ATOM      3  C2  UNL d   1       2.910  -3.062  -0.429  0.00  0.00     0.162 A 
ATOM      4  C3  UNL d   1       2.597  -4.356  -0.845  0.00  0.00    -0.034 A 
ATOM      5  C4  UNL d   1       1.665  -4.534  -1.869  0.00  0.00     0.162 A 
ATOM      6  C5  UNL d   1       1.059  -3.434  -2.467  0.00  0.00     0.062 A 
ATOM      7  F   UNL d   1       0.165  -3.615  -3.450  0.00  0.00    -0.097 F 
ATOM      8  F1  UNL d   1       1.340  -5.765  -2.294  0.00  0.00    -0.096 F 
ATOM      9  I   UNL d   1       3.505  -6.000   0.050  0.00  0.00    -0.060 I 
ATOM     10  F2  UNL d   1       3.800  -2.853   0.552  0.00  0.00    -0.096 F 
ATOM     11  F3  UNL d   1       2.608  -0.724  -0.623  0.00  0.00    -0.097 F 
ATOM     12  F4  UNL d   1       0.791  -1.092  -2.624  0.00  0.00    -0.092 F 
ENDROOT
TORSDOF 0
ENDMDL
