MODEL 1
REMARK minimizedAffinity 14.5007277
REMARK minimizedRMSD -1
REMARK  0 active torsions:
REMARK  status: ('A' for Active; 'I' for Inactive)
ROOT
ATOM      1  C   UNL d   1       3.124   1.549  -0.882  0.00  0.00     0.124 A 
ATOM      2  C1  UNL d   1       2.384   0.759  -1.751  0.00  0.00     0.062 A 
ATOM      3  C2  UNL d   1       2.334  -0.621  -1.572  0.00  0.00     0.162 A 
ATOM      4  C3  UNL d   1       3.026  -1.219  -0.518  0.00  0.00    -0.034 A 
ATOM      5  C4  UNL d   1       3.769  -0.418   0.350  0.00  0.00     0.162 A 
ATOM      6  C5  UNL d   1       3.816   0.960   0.167  0.00  0.00     0.062 A 
ATOM      7  F   UNL d   1       4.531   1.722   1.007  0.00  0.00    -0.097 F 
ATOM      8  F1  UNL d   1       4.445  -0.961   1.373  0.00  0.00    -0.096 F 
ATOM      9  I   UNL d   1       2.953  -3.281  -0.247  0.00  0.00    -0.060 I 
ATOM     10  F2  UNL d   1       1.611  -1.360  -2.426  0.00  0.00    -0.096 F 
ATOM     11  F3  UNL d   1       1.716   1.325  -2.766  0.00  0.00    -0.097 F 
ATOM     12  F4  UNL d   1       3.172   2.876  -1.058  0.00  0.00    -0.092 F 
ENDROOT
TORSDOF 0
ENDMDL
