MODEL 1
REMARK minimizedAffinity 37.6894112
REMARK minimizedRMSD -1
REMARK  0 active torsions:
REMARK  status: ('A' for Active; 'I' for Inactive)
ROOT
ATOM      1  C   UNL d   1       3.824  -0.086   0.218  0.00  0.00     0.124 A 
ATOM      2  C1  UNL d   1       2.794   0.400  -0.576  0.00  0.00     0.062 A 
ATOM      3  C2  UNL d   1       1.897  -0.480  -1.175  0.00  0.00     0.162 A 
ATOM      4  C3  UNL d   1       2.025  -1.856  -0.981  0.00  0.00    -0.034 A 
ATOM      5  C4  UNL d   1       3.064  -2.337  -0.182  0.00  0.00     0.162 A 
ATOM      6  C5  UNL d   1       3.958  -1.453   0.414  0.00  0.00     0.062 A 
ATOM      7  F   UNL d   1       4.952  -1.924   1.181  0.00  0.00    -0.097 F 
ATOM      8  F1  UNL d   1       3.216  -3.653   0.025  0.00  0.00    -0.096 F 
ATOM      9  I   UNL d   1       0.686  -3.175  -1.875  0.00  0.00    -0.060 I 
ATOM     10  F2  UNL d   1       0.912   0.017  -1.937  0.00  0.00    -0.096 F 
ATOM     11  F3  UNL d   1       2.663   1.720  -0.768  0.00  0.00    -0.097 F 
ATOM     12  F4  UNL d   1       4.686   0.763   0.792  0.00  0.00    -0.092 F 
ENDROOT
TORSDOF 0
ENDMDL
