MODEL 1
REMARK minimizedAffinity 24.2091255
REMARK minimizedRMSD -1
REMARK  0 active torsions:
REMARK  status: ('A' for Active; 'I' for Inactive)
ROOT
ATOM      1  C   UNL d   1       3.395   1.332   0.487  0.00  0.00     0.124 A 
ATOM      2  C1  UNL d   1       2.922   1.990   1.614  0.00  0.00     0.062 A 
ATOM      3  C2  UNL d   1       1.596   1.840   2.007  0.00  0.00     0.162 A 
ATOM      4  C3  UNL d   1       0.732   1.027   1.273  0.00  0.00    -0.034 A 
ATOM      5  C4  UNL d   1       1.214   0.369   0.140  0.00  0.00     0.162 A 
ATOM      6  C5  UNL d   1       2.540   0.523  -0.249  0.00  0.00     0.062 A 
ATOM      7  F   UNL d   1       2.995  -0.113  -1.338  0.00  0.00    -0.097 F 
ATOM      8  F1  UNL d   1       0.410  -0.420  -0.588  0.00  0.00    -0.096 F 
ATOM      9  I   UNL d   1      -1.253   0.800   1.858  0.00  0.00    -0.060 I 
ATOM     10  F2  UNL d   1       1.166   2.487   3.101  0.00  0.00    -0.096 F 
ATOM     11  F3  UNL d   1       3.745   2.773   2.325  0.00  0.00    -0.097 F 
ATOM     12  F4  UNL d   1       4.671   1.479   0.110  0.00  0.00    -0.092 F 
ENDROOT
TORSDOF 0
ENDMDL
