MODEL 1
REMARK minimizedAffinity 23.4538555
REMARK minimizedRMSD -1
REMARK  0 active torsions:
REMARK  status: ('A' for Active; 'I' for Inactive)
ROOT
ATOM      1  C   UNL d   1       3.051  -3.129  -0.483  0.00  0.00     0.124 A 
ATOM      2  C1  UNL d   1       4.152  -2.444   0.011  0.00  0.00     0.062 A 
ATOM      3  C2  UNL d   1       4.204  -1.055  -0.063  0.00  0.00     0.162 A 
ATOM      4  C3  UNL d   1       3.150  -0.341  -0.633  0.00  0.00    -0.034 A 
ATOM      5  C4  UNL d   1       2.046  -1.037  -1.128  0.00  0.00     0.162 A 
ATOM      6  C5  UNL d   1       1.999  -2.425  -1.052  0.00  0.00     0.062 A 
ATOM      7  F   UNL d   1       0.934  -3.085  -1.530  0.00  0.00    -0.097 F 
ATOM      8  F1  UNL d   1       1.015  -0.381  -1.683  0.00  0.00    -0.096 F 
ATOM      9  I   UNL d   1       3.224   1.736  -0.745  0.00  0.00    -0.060 I 
ATOM     10  F2  UNL d   1       5.281  -0.420   0.423  0.00  0.00    -0.096 F 
ATOM     11  F3  UNL d   1       5.170  -3.122   0.561  0.00  0.00    -0.097 F 
ATOM     12  F4  UNL d   1       3.004  -4.465  -0.411  0.00  0.00    -0.092 F 
ENDROOT
TORSDOF 0
ENDMDL
