MODEL 1
REMARK minimizedAffinity 16.6302662
REMARK minimizedRMSD -1
REMARK  0 active torsions:
REMARK  status: ('A' for Active; 'I' for Inactive)
ROOT
ATOM      1  C   UNL d   1       3.369   1.196  -1.163  0.00  0.00     0.124 A 
ATOM      2  C1  UNL d   1       2.692   0.315  -1.994  0.00  0.00     0.062 A 
ATOM      3  C2  UNL d   1       2.544  -1.019  -1.627  0.00  0.00     0.162 A 
ATOM      4  C3  UNL d   1       3.073  -1.481  -0.422  0.00  0.00    -0.034 A 
ATOM      5  C4  UNL d   1       3.754  -0.589   0.408  0.00  0.00     0.162 A 
ATOM      6  C5  UNL d   1       3.900   0.744   0.037  0.00  0.00     0.062 A 
ATOM      7  F   UNL d   1       4.554   1.594   0.842  0.00  0.00    -0.097 F 
ATOM      8  F1  UNL d   1       4.276  -0.999   1.574  0.00  0.00    -0.096 F 
ATOM      9  I   UNL d   1       2.854  -3.476   0.130  0.00  0.00    -0.060 I 
ATOM     10  F2  UNL d   1       1.885  -1.849  -2.450  0.00  0.00    -0.096 F 
ATOM     11  F3  UNL d   1       2.180   0.750  -3.154  0.00  0.00    -0.097 F 
ATOM     12  F4  UNL d   1       3.512   2.480  -1.519  0.00  0.00    -0.092 F 
ENDROOT
TORSDOF 0
ENDMDL
