MODEL 1
REMARK minimizedAffinity 32.6921768
REMARK minimizedRMSD -1
REMARK  0 active torsions:
REMARK  status: ('A' for Active; 'I' for Inactive)
ROOT
ATOM      1  C   UNL d   1      -2.976   0.670   2.948  0.00  0.00     0.124 A 
ATOM      2  C1  UNL d   1      -2.098  -0.383   3.164  0.00  0.00     0.062 A 
ATOM      3  C2  UNL d   1      -0.751  -0.248   2.842  0.00  0.00     0.162 A 
ATOM      4  C3  UNL d   1      -0.272   0.946   2.302  0.00  0.00    -0.034 A 
ATOM      5  C4  UNL d   1      -1.162   2.000   2.086  0.00  0.00     0.162 A 
ATOM      6  C5  UNL d   1      -2.508   1.860   2.409  0.00  0.00     0.062 A 
ATOM      7  F   UNL d   1      -3.354   2.879   2.200  0.00  0.00    -0.097 F 
ATOM      8  F1  UNL d   1      -0.736   3.162   1.568  0.00  0.00    -0.096 F 
ATOM      9  I   UNL d   1       1.742   1.152   1.819  0.00  0.00    -0.060 I 
ATOM     10  F2  UNL d   1       0.075  -1.282   3.062  0.00  0.00    -0.096 F 
ATOM     11  F3  UNL d   1      -2.549  -1.534   3.683  0.00  0.00    -0.097 F 
ATOM     12  F4  UNL d   1      -4.272   0.537   3.257  0.00  0.00    -0.092 F 
ENDROOT
TORSDOF 0
ENDMDL
