MODEL 1
REMARK minimizedAffinity 21.9632645
REMARK minimizedRMSD -1
REMARK  0 active torsions:
REMARK  status: ('A' for Active; 'I' for Inactive)
ROOT
ATOM      1  C   UNL d   1       3.975  -0.338  -0.209  0.00  0.00     0.124 A 
ATOM      2  C1  UNL d   1       3.999  -1.698   0.068  0.00  0.00     0.062 A 
ATOM      3  C2  UNL d   1       3.116  -2.560  -0.575  0.00  0.00     0.162 A 
ATOM      4  C3  UNL d   1       2.200  -2.064  -1.504  0.00  0.00    -0.034 A 
ATOM      5  C4  UNL d   1       2.181  -0.695  -1.777  0.00  0.00     0.162 A 
ATOM      6  C5  UNL d   1       3.066   0.162  -1.131  0.00  0.00     0.062 A 
ATOM      7  F   UNL d   1       3.041   1.475  -1.400  0.00  0.00    -0.097 F 
ATOM      8  F1  UNL d   1       1.314  -0.185  -2.664  0.00  0.00    -0.096 F 
ATOM      9  I   UNL d   1       0.877  -3.349  -2.468  0.00  0.00    -0.060 I 
ATOM     10  F2  UNL d   1       3.162  -3.869  -0.288  0.00  0.00    -0.096 F 
ATOM     11  F3  UNL d   1       4.876  -2.184   0.959  0.00  0.00    -0.097 F 
ATOM     12  F4  UNL d   1       4.825   0.488   0.413  0.00  0.00    -0.092 F 
ENDROOT
TORSDOF 0
ENDMDL
