MODEL 1
REMARK minimizedAffinity 27.4331398
REMARK minimizedRMSD -1
REMARK  0 active torsions:
REMARK  status: ('A' for Active; 'I' for Inactive)
ROOT
ATOM      1  C   UNL d   1       3.098   1.376  -1.525  0.00  0.00     0.124 A 
ATOM      2  C1  UNL d   1       3.924   0.926  -0.504  0.00  0.00     0.062 A 
ATOM      3  C2  UNL d   1       3.935  -0.421  -0.154  0.00  0.00     0.162 A 
ATOM      4  C3  UNL d   1       3.118  -1.329  -0.827  0.00  0.00    -0.034 A 
ATOM      5  C4  UNL d   1       2.289  -0.870  -1.852  0.00  0.00     0.162 A 
ATOM      6  C5  UNL d   1       2.282   0.478  -2.198  0.00  0.00     0.062 A 
ATOM      7  F   UNL d   1       1.484   0.910  -3.185  0.00  0.00    -0.097 F 
ATOM      8  F1  UNL d   1       1.491  -1.716  -2.520  0.00  0.00    -0.096 F 
ATOM      9  I   UNL d   1       3.131  -3.344  -0.307  0.00  0.00    -0.060 I 
ATOM     10  F2  UNL d   1       4.742  -0.827   0.837  0.00  0.00    -0.096 F 
ATOM     11  F3  UNL d   1       4.713   1.792   0.149  0.00  0.00    -0.097 F 
ATOM     12  F4  UNL d   1       3.089   2.673  -1.859  0.00  0.00    -0.092 F 
ENDROOT
TORSDOF 0
ENDMDL
