MODEL 1
REMARK minimizedAffinity 26.9147568
REMARK minimizedRMSD -1
REMARK  0 active torsions:
REMARK  status: ('A' for Active; 'I' for Inactive)
ROOT
ATOM      1  C   UNL d   1       2.019  -3.818  -1.622  0.00  0.00     0.124 A 
ATOM      2  C1  UNL d   1       2.992  -3.710  -0.638  0.00  0.00     0.062 A 
ATOM      3  C2  UNL d   1       3.408  -2.456  -0.200  0.00  0.00     0.162 A 
ATOM      4  C3  UNL d   1       2.849  -1.299  -0.744  0.00  0.00    -0.034 A 
ATOM      5  C4  UNL d   1       1.871  -1.416  -1.733  0.00  0.00     0.162 A 
ATOM      6  C5  UNL d   1       1.459  -2.672  -2.168  0.00  0.00     0.062 A 
ATOM      7  F   UNL d   1       0.519  -2.775  -3.118  0.00  0.00    -0.097 F 
ATOM      8  F1  UNL d   1       1.313  -0.325  -2.277  0.00  0.00    -0.096 F 
ATOM      9  I   UNL d   1       3.467   0.577  -0.091  0.00  0.00    -0.060 I 
ATOM     10  F2  UNL d   1       4.350  -2.381   0.752  0.00  0.00    -0.096 F 
ATOM     11  F3  UNL d   1       3.535  -4.816  -0.110  0.00  0.00    -0.097 F 
ATOM     12  F4  UNL d   1       1.622  -5.026  -2.042  0.00  0.00    -0.092 F 
ENDROOT
TORSDOF 0
ENDMDL
