MODEL 1
REMARK minimizedAffinity 14.6702204
REMARK minimizedRMSD -1
REMARK  0 active torsions:
REMARK  status: ('A' for Active; 'I' for Inactive)
ROOT
ATOM      1  C   UNL d   1       3.292   0.473  -0.785  0.00  0.00     0.124 A 
ATOM      2  C1  UNL d   1       2.584  -0.392  -1.608  0.00  0.00     0.062 A 
ATOM      3  C2  UNL d   1       2.663  -1.768  -1.411  0.00  0.00     0.162 A 
ATOM      4  C3  UNL d   1       3.451  -2.287  -0.384  0.00  0.00    -0.034 A 
ATOM      5  C4  UNL d   1       4.160  -1.411   0.440  0.00  0.00     0.162 A 
ATOM      6  C5  UNL d   1       4.079  -0.037   0.238  0.00  0.00     0.062 A 
ATOM      7  F   UNL d   1       4.763   0.797   1.035  0.00  0.00    -0.097 F 
ATOM      8  F1  UNL d   1       4.928  -1.877   1.436  0.00  0.00    -0.096 F 
ATOM      9  I   UNL d   1       3.571  -4.343  -0.085  0.00  0.00    -0.060 I 
ATOM     10  F2  UNL d   1       1.968  -2.580  -2.222  0.00  0.00    -0.096 F 
ATOM     11  F3  UNL d   1       1.824   0.098  -2.598  0.00  0.00    -0.097 F 
ATOM     12  F4  UNL d   1       3.216   1.796  -0.978  0.00  0.00    -0.092 F 
ENDROOT
TORSDOF 0
ENDMDL
