MODEL 1
REMARK minimizedAffinity 30.3264694
REMARK minimizedRMSD -1
REMARK  0 active torsions:
REMARK  status: ('A' for Active; 'I' for Inactive)
ROOT
ATOM      1  C   UNL d   1      -0.716   0.518   2.398  0.00  0.00     0.124 A 
ATOM      2  C1  UNL d   1      -0.221   1.062   3.575  0.00  0.00     0.062 A 
ATOM      3  C2  UNL d   1      -1.095   1.534   4.550  0.00  0.00     0.162 A 
ATOM      4  C3  UNL d   1      -2.474   1.463   4.352  0.00  0.00    -0.034 A 
ATOM      5  C4  UNL d   1      -2.965   0.915   3.166  0.00  0.00     0.162 A 
ATOM      6  C5  UNL d   1      -2.087   0.445   2.194  0.00  0.00     0.062 A 
ATOM      7  F   UNL d   1      -2.567  -0.081   1.058  0.00  0.00    -0.097 F 
ATOM      8  F1  UNL d   1      -4.285   0.832   2.943  0.00  0.00    -0.096 F 
ATOM      9  I   UNL d   1      -3.785   2.168   5.808  0.00  0.00    -0.060 I 
ATOM     10  F2  UNL d   1      -0.589   2.055   5.677  0.00  0.00    -0.096 F 
ATOM     11  F3  UNL d   1       1.103   1.134   3.773  0.00  0.00    -0.097 F 
ATOM     12  F4  UNL d   1       0.127   0.065   1.461  0.00  0.00    -0.092 F 
ENDROOT
TORSDOF 0
ENDMDL
