MODEL 1
REMARK minimizedAffinity 20.1641235
REMARK minimizedRMSD -1
REMARK  0 active torsions:
REMARK  status: ('A' for Active; 'I' for Inactive)
ROOT
ATOM      1  C   UNL d   1      -0.758   0.473   2.513  0.00  0.00     0.124 A 
ATOM      2  C1  UNL d   1      -0.194   0.725   3.756  0.00  0.00     0.062 A 
ATOM      3  C2  UNL d   1      -0.946   1.341   4.753  0.00  0.00     0.162 A 
ATOM      4  C3  UNL d   1      -2.269   1.709   4.511  0.00  0.00    -0.034 A 
ATOM      5  C4  UNL d   1      -2.829   1.453   3.258  0.00  0.00     0.162 A 
ATOM      6  C5  UNL d   1      -2.074   0.837   2.265  0.00  0.00     0.062 A 
ATOM      7  F   UNL d   1      -2.620   0.594   1.065  0.00  0.00    -0.097 F 
ATOM      8  F1  UNL d   1      -4.098   1.793   2.992  0.00  0.00    -0.096 F 
ATOM      9  I   UNL d   1      -3.396   2.630   5.999  0.00  0.00    -0.060 I 
ATOM     10  F2  UNL d   1      -0.376   1.573   5.945  0.00  0.00    -0.096 F 
ATOM     11  F3  UNL d   1       1.077   0.376   3.998  0.00  0.00    -0.097 F 
ATOM     12  F4  UNL d   1      -0.032  -0.119   1.555  0.00  0.00    -0.092 F 
ENDROOT
TORSDOF 0
ENDMDL
