MODEL 1
REMARK minimizedAffinity 13.0989399
REMARK minimizedRMSD -1
REMARK  0 active torsions:
REMARK  status: ('A' for Active; 'I' for Inactive)
ROOT
ATOM      1  C   UNL d   1       3.862  -0.920  -0.551  0.00  0.00     0.124 A 
ATOM      2  C1  UNL d   1       2.826  -0.409  -1.320  0.00  0.00     0.062 A 
ATOM      3  C2  UNL d   1       1.792  -1.241  -1.741  0.00  0.00     0.162 A 
ATOM      4  C3  UNL d   1       1.788  -2.591  -1.392  0.00  0.00    -0.034 A 
ATOM      5  C4  UNL d   1       2.835  -3.097  -0.619  0.00  0.00     0.162 A 
ATOM      6  C5  UNL d   1       3.866  -2.263  -0.201  0.00  0.00     0.062 A 
ATOM      7  F   UNL d   1       4.866  -2.757   0.542  0.00  0.00    -0.097 F 
ATOM      8  F1  UNL d   1       2.862  -4.391  -0.266  0.00  0.00    -0.096 F 
ATOM      9  I   UNL d   1       0.244  -3.837  -2.019  0.00  0.00    -0.060 I 
ATOM     10  F2  UNL d   1       0.803  -0.720  -2.483  0.00  0.00    -0.096 F 
ATOM     11  F3  UNL d   1       2.821   0.888  -1.660  0.00  0.00    -0.097 F 
ATOM     12  F4  UNL d   1       4.857  -0.118  -0.148  0.00  0.00    -0.092 F 
ENDROOT
TORSDOF 0
ENDMDL
