MODEL 1
REMARK minimizedAffinity 24.6366215
REMARK minimizedRMSD -1
REMARK  0 active torsions:
REMARK  status: ('A' for Active; 'I' for Inactive)
ROOT
ATOM      1  C   UNL d   1      -1.414   0.866   2.257  0.00  0.00     0.124 A 
ATOM      2  C1  UNL d   1      -0.822   1.471   3.357  0.00  0.00     0.062 A 
ATOM      3  C2  UNL d   1      -1.605   1.898   4.426  0.00  0.00     0.162 A 
ATOM      4  C3  UNL d   1      -2.988   1.719   4.401  0.00  0.00    -0.034 A 
ATOM      5  C4  UNL d   1      -3.576   1.110   3.291  0.00  0.00     0.162 A 
ATOM      6  C5  UNL d   1      -2.789   0.686   2.225  0.00  0.00     0.062 A 
ATOM      7  F   UNL d   1      -3.363   0.101   1.163  0.00  0.00    -0.097 F 
ATOM      8  F1  UNL d   1      -4.903   0.923   3.235  0.00  0.00    -0.096 F 
ATOM      9  I   UNL d   1      -4.161   2.355   5.998  0.00  0.00    -0.060 I 
ATOM     10  F2  UNL d   1      -1.006   2.480   5.476  0.00  0.00    -0.096 F 
ATOM     11  F3  UNL d   1       0.507   1.647   3.390  0.00  0.00    -0.097 F 
ATOM     12  F4  UNL d   1      -0.659   0.458   1.229  0.00  0.00    -0.092 F 
ENDROOT
TORSDOF 0
ENDMDL
