MODEL 1
REMARK minimizedAffinity 18.6914082
REMARK minimizedRMSD -1
REMARK  0 active torsions:
REMARK  status: ('A' for Active; 'I' for Inactive)
ROOT
ATOM      1  C   UNL d   1      -2.674   0.704   2.369  0.00  0.00     0.124 A 
ATOM      2  C1  UNL d   1      -1.301   0.576   2.206  0.00  0.00     0.062 A 
ATOM      3  C2  UNL d   1      -0.438   0.923   3.241  0.00  0.00     0.162 A 
ATOM      4  C3  UNL d   1      -0.945   1.401   4.450  0.00  0.00    -0.034 A 
ATOM      5  C4  UNL d   1      -2.326   1.527   4.606  0.00  0.00     0.162 A 
ATOM      6  C5  UNL d   1      -3.185   1.179   3.569  0.00  0.00     0.062 A 
ATOM      7  F   UNL d   1      -4.511   1.303   3.728  0.00  0.00    -0.097 F 
ATOM      8  F1  UNL d   1      -2.847   1.983   5.755  0.00  0.00    -0.096 F 
ATOM      9  I   UNL d   1       0.343   1.921   6.000  0.00  0.00    -0.060 I 
ATOM     10  F2  UNL d   1       0.884   0.790   3.055  0.00  0.00    -0.096 F 
ATOM     11  F3  UNL d   1      -0.805   0.118   1.048  0.00  0.00    -0.097 F 
ATOM     12  F4  UNL d   1      -3.502   0.370   1.371  0.00  0.00    -0.092 F 
ENDROOT
TORSDOF 0
ENDMDL
