MODEL 1
REMARK minimizedAffinity -5.36525965
REMARK minimizedRMSD -1
REMARK  2 active torsions:
REMARK  status: ('A' for Active; 'I' for Inactive)
REMARK    1  A    between atoms: C2'_3  and  C1'_4 
REMARK    2  A    between atoms: C1'_4  and  C1_5 
ROOT
ATOM      1  C1  I4B d   1       0.051  -0.043   0.029  0.00  0.00    -0.075 A 
ATOM      2  C2  I4B d   1      -1.312   0.053   0.165  0.00  0.00     0.003 A 
ATOM      3  C3  I4B d   1      -1.872   0.636   1.327  0.00  0.00     0.002 A 
ATOM      4  C4  I4B d   1      -1.041   1.061   2.343  0.00  0.00    -0.004 A 
ATOM      5  C5  I4B d   1       0.341   0.984   2.193  0.00  0.00     0.002 A 
ATOM      6  C6  I4B d   1       0.891   0.439   1.024  0.00  0.00     0.003 A 
ENDROOT
BRANCH   1   7
ATOM      7  C1' I4B d   1       0.608  -0.695  -1.197  0.00  0.00     0.060 C 
BRANCH   7   8
ATOM      8  C2' I4B d   1       0.717   0.361  -2.278  0.00  0.00    -0.013 C 
ATOM      9  C4' I4B d   1       2.096   0.965  -2.312  0.00  0.00     0.013 C 
ATOM     10  C3' I4B d   1       0.375  -0.282  -3.589  0.00  0.00     0.013 C 
ENDBRANCH   7   8
ENDBRANCH   1   7
TORSDOF 2
ENDMDL
