MODEL 1
REMARK minimizedAffinity -5.41153717
REMARK minimizedRMSD -1
REMARK  2 active torsions:
REMARK  status: ('A' for Active; 'I' for Inactive)
REMARK    1  A    between atoms: C2'_3  and  C1'_4 
REMARK    2  A    between atoms: C1'_4  and  C1_5 
ROOT
ATOM      1  C1  I4B d   1       0.013   0.135  -0.052  0.00  0.00    -0.075 A 
ATOM      2  C2  I4B d   1      -1.359   0.168  -0.086  0.00  0.00     0.003 A 
ATOM      3  C3  I4B d   1      -2.085   0.748   0.982  0.00  0.00     0.002 A 
ATOM      4  C4  I4B d   1      -1.405   1.233   2.081  0.00  0.00    -0.004 A 
ATOM      5  C5  I4B d   1      -0.014   1.219   2.104  0.00  0.00     0.002 A 
ATOM      6  C6  I4B d   1       0.701   0.678   1.025  0.00  0.00     0.003 A 
ENDROOT
BRANCH   1   7
ATOM      7  C1' I4B d   1       0.747  -0.514  -1.183  0.00  0.00     0.060 C 
BRANCH   7   8
ATOM      8  C2' I4B d   1       0.612   0.379  -2.400  0.00  0.00    -0.013 C 
ATOM      9  C4' I4B d   1       1.837   1.234  -2.588  0.00  0.00     0.013 C 
ATOM     10  C3' I4B d   1       0.376  -0.499  -3.593  0.00  0.00     0.013 C 
ENDBRANCH   7   8
ENDBRANCH   1   7
TORSDOF 2
ENDMDL
