MODEL 1
REMARK minimizedAffinity -3.909307
REMARK minimizedRMSD -1
REMARK  2 active torsions:
REMARK  status: ('A' for Active; 'I' for Inactive)
REMARK    1  A    between atoms: C2'_3  and  C1'_4 
REMARK    2  A    between atoms: C1'_4  and  C1_5 
ROOT
ATOM      1  C1  I4B d   1      -0.048  -0.405   0.106  0.00  0.00    -0.075 A 
ATOM      2  C2  I4B d   1      -1.336  -0.056   0.427  0.00  0.00     0.003 A 
ATOM      3  C3  I4B d   1      -1.608   0.634   1.633  0.00  0.00     0.002 A 
ATOM      4  C4  I4B d   1      -0.575   0.909   2.507  0.00  0.00    -0.004 A 
ATOM      5  C5  I4B d   1       0.733   0.575   2.169  0.00  0.00     0.002 A 
ATOM      6  C6  I4B d   1       1.001  -0.075   0.955  0.00  0.00     0.003 A 
ENDROOT
BRANCH   1   7
ATOM      7  C1' I4B d   1       0.200  -1.162  -1.160  0.00  0.00     0.060 C 
BRANCH   7   8
ATOM      8  C2' I4B d   1       0.309  -0.159  -2.290  0.00  0.00    -0.013 C 
ATOM      9  C4' I4B d   1       1.689   0.439  -2.358  0.00  0.00     0.013 C 
ATOM     10  C3' I4B d   1      -0.040  -0.862  -3.568  0.00  0.00     0.013 C 
ENDBRANCH   7   8
ENDBRANCH   1   7
TORSDOF 2
ENDMDL
