MODEL 1
REMARK minimizedAffinity -4.59838438
REMARK minimizedRMSD -1
REMARK  0 active torsions:
REMARK  status: ('A' for Active; 'I' for Inactive)
ROOT
ATOM      1  C   UNL d   1      -2.300  -2.660   1.359  0.00  0.00     0.077 C 
ATOM      2  C1  UNL d   1      -1.635  -1.358   1.023  0.00  0.00    -0.074 A 
ATOM      3  C2  UNL d   1      -2.291  -0.141   1.233  0.00  0.00    -0.005 A 
ATOM      4  C3  UNL d   1      -1.657   1.062   0.925  0.00  0.00     0.006 A 
ATOM      5  C4  UNL d   1      -0.362   1.061   0.405  0.00  0.00    -0.005 A 
ATOM      6  C5  UNL d   1       0.311  -0.147   0.190  0.00  0.00    -0.074 A 
ATOM      7  C6  UNL d   1       1.706  -0.166  -0.359  0.00  0.00     0.077 C 
ATOM      8  C7  UNL d   1      -0.331  -1.351   0.508  0.00  0.00    -0.001 A 
ENDROOT
TORSDOF 0
ENDMDL
