MODEL 1
REMARK minimizedAffinity -2.21839237
REMARK minimizedRMSD -1
REMARK  0 active torsions:
REMARK  status: ('A' for Active; 'I' for Inactive)
ROOT
ATOM      1  C   UNL d   1       0.045  -2.351   1.066  0.00  0.00     0.077 C 
ATOM      2  C1  UNL d   1      -0.124  -0.896   0.744  0.00  0.00    -0.074 A 
ATOM      3  C2  UNL d   1      -0.962  -0.083   1.514  0.00  0.00    -0.005 A 
ATOM      4  C3  UNL d   1      -1.102   1.271   1.209  0.00  0.00     0.006 A 
ATOM      5  C4  UNL d   1      -0.407   1.824   0.133  0.00  0.00    -0.005 A 
ATOM      6  C5  UNL d   1       0.437   1.027  -0.647  0.00  0.00    -0.074 A 
ATOM      7  C6  UNL d   1       1.199   1.607  -1.801  0.00  0.00     0.077 C 
ATOM      8  C7  UNL d   1       0.577  -0.331  -0.330  0.00  0.00    -0.001 A 
ENDROOT
TORSDOF 0
ENDMDL
