MODEL 1
REMARK minimizedAffinity -4.45448971
REMARK minimizedRMSD -1
REMARK  0 active torsions:
REMARK  status: ('A' for Active; 'I' for Inactive)
ROOT
ATOM      1  C   UNL d   1      -1.525   2.042   0.645  0.00  0.00     0.077 C 
ATOM      2  C1  UNL d   1      -0.797   0.732   0.581  0.00  0.00    -0.074 A 
ATOM      3  C2  UNL d   1       0.570   0.682   0.293  0.00  0.00    -0.005 A 
ATOM      4  C3  UNL d   1       1.235  -0.543   0.247  0.00  0.00     0.006 A 
ATOM      5  C4  UNL d   1       0.541  -1.729   0.487  0.00  0.00    -0.005 A 
ATOM      6  C5  UNL d   1      -0.827  -1.699   0.778  0.00  0.00    -0.074 A 
ATOM      7  C6  UNL d   1      -1.586  -2.964   1.049  0.00  0.00     0.077 C 
ATOM      8  C7  UNL d   1      -1.487  -0.464   0.830  0.00  0.00    -0.001 A 
ENDROOT
TORSDOF 0
ENDMDL
