MODEL 1
REMARK minimizedAffinity -2.18370962
REMARK minimizedRMSD -1
REMARK  0 active torsions:
REMARK  status: ('A' for Active; 'I' for Inactive)
ROOT
ATOM      1  C   UNL d   1      -2.458  -2.351   0.998  0.00  0.00     0.077 C 
ATOM      2  C1  UNL d   1      -1.131  -1.695   0.754  0.00  0.00    -0.074 A 
ATOM      3  C2  UNL d   1       0.055  -2.281   1.209  0.00  0.00    -0.005 A 
ATOM      4  C3  UNL d   1       1.282  -1.665   0.966  0.00  0.00     0.006 A 
ATOM      5  C4  UNL d   1       1.336  -0.459   0.266  0.00  0.00    -0.005 A 
ATOM      6  C5  UNL d   1       0.161   0.141  -0.198  0.00  0.00    -0.074 A 
ATOM      7  C6  UNL d   1       0.203   1.433  -0.960  0.00  0.00     0.077 C 
ATOM      8  C7  UNL d   1      -1.068  -0.488   0.045  0.00  0.00    -0.001 A 
ENDROOT
TORSDOF 0
ENDMDL
