MODEL 1
REMARK minimizedAffinity -4.22348595
REMARK minimizedRMSD -1
REMARK  0 active torsions:
REMARK  status: ('A' for Active; 'I' for Inactive)
ROOT
ATOM      1  C   UNL d   1      -2.160  -2.983   2.154  0.00  0.00     0.077 C 
ATOM      2  C1  UNL d   1      -1.320  -1.982   1.417  0.00  0.00    -0.074 A 
ATOM      3  C2  UNL d   1      -1.905  -0.889   0.771  0.00  0.00    -0.005 A 
ATOM      4  C3  UNL d   1      -1.110   0.039   0.098  0.00  0.00     0.006 A 
ATOM      5  C4  UNL d   1       0.276  -0.118   0.064  0.00  0.00    -0.005 A 
ATOM      6  C5  UNL d   1       0.879  -1.205   0.705  0.00  0.00    -0.074 A 
ATOM      7  C6  UNL d   1       2.368  -1.382   0.686  0.00  0.00     0.077 C 
ATOM      8  C7  UNL d   1       0.074  -2.128   1.385  0.00  0.00    -0.001 A 
ENDROOT
TORSDOF 0
ENDMDL
