MODEL 1
REMARK minimizedAffinity -5.99610472
REMARK minimizedRMSD -1
REMARK  0 active torsions:
REMARK  status: ('A' for Active; 'I' for Inactive)
ROOT
ATOM      1  C   UNL d   1      -1.541  -3.073   1.757  0.00  0.00     0.077 C 
ATOM      2  C1  UNL d   1      -1.168  -1.861   0.958  0.00  0.00    -0.074 A 
ATOM      3  C2  UNL d   1      -0.507  -1.984  -0.268  0.00  0.00    -0.005 A 
ATOM      4  C3  UNL d   1      -0.174  -0.847  -1.005  0.00  0.00     0.006 A 
ATOM      5  C4  UNL d   1      -0.499   0.422  -0.524  0.00  0.00    -0.005 A 
ATOM      6  C5  UNL d   1      -1.161   0.565   0.699  0.00  0.00    -0.074 A 
ATOM      7  C6  UNL d   1      -1.527   1.921   1.226  0.00  0.00     0.077 C 
ATOM      8  C7  UNL d   1      -1.498  -0.583   1.431  0.00  0.00    -0.001 A 
ENDROOT
TORSDOF 0
ENDMDL
