MODEL 1
REMARK minimizedAffinity -2.25195098
REMARK minimizedRMSD -1
REMARK  0 active torsions:
REMARK  status: ('A' for Active; 'I' for Inactive)
ROOT
ATOM      1  C   UNL d   1       1.118   1.123  -1.590  0.00  0.00     0.077 C 
ATOM      2  C1  UNL d   1       0.191   0.648  -0.510  0.00  0.00    -0.074 A 
ATOM      3  C2  UNL d   1      -0.281   1.527   0.470  0.00  0.00    -0.005 A 
ATOM      4  C3  UNL d   1      -1.150   1.073   1.462  0.00  0.00     0.006 A 
ATOM      5  C4  UNL d   1      -1.554  -0.262   1.484  0.00  0.00    -0.005 A 
ATOM      6  C5  UNL d   1      -1.093  -1.156   0.512  0.00  0.00    -0.074 A 
ATOM      7  C6  UNL d   1      -1.526  -2.592   0.516  0.00  0.00     0.077 C 
ATOM      8  C7  UNL d   1      -0.226  -0.690  -0.486  0.00  0.00    -0.001 A 
ENDROOT
TORSDOF 0
ENDMDL
