MODEL 1
REMARK minimizedAffinity -4.37077761
REMARK minimizedRMSD -1
REMARK  0 active torsions:
REMARK  status: ('A' for Active; 'I' for Inactive)
ROOT
ATOM      1  C   UNL d   1      -1.775  -2.981   1.051  0.00  0.00     0.077 C 
ATOM      2  C1  UNL d   1      -0.912  -1.829   0.630  0.00  0.00    -0.074 A 
ATOM      3  C2  UNL d   1      -1.479  -0.647   0.142  0.00  0.00    -0.005 A 
ATOM      4  C3  UNL d   1      -0.664   0.420  -0.237  0.00  0.00     0.006 A 
ATOM      5  C4  UNL d   1       0.724   0.316  -0.132  0.00  0.00    -0.005 A 
ATOM      6  C5  UNL d   1       1.308  -0.858   0.355  0.00  0.00    -0.074 A 
ATOM      7  C6  UNL d   1       2.798  -0.983   0.483  0.00  0.00     0.077 C 
ATOM      8  C7  UNL d   1       0.482  -1.923   0.740  0.00  0.00    -0.001 A 
ENDROOT
TORSDOF 0
ENDMDL
