MODEL 1
REMARK minimizedAffinity 2.40406442
REMARK minimizedRMSD -1
REMARK  0 active torsions:
REMARK  status: ('A' for Active; 'I' for Inactive)
ROOT
ATOM      1  C   UNL d   1      -1.525  -2.854   2.952  0.00  0.00     0.077 C 
ATOM      2  C1  UNL d   1      -0.934  -1.906   1.952  0.00  0.00    -0.074 A 
ATOM      3  C2  UNL d   1       0.265  -2.206   1.297  0.00  0.00    -0.005 A 
ATOM      4  C3  UNL d   1       0.798  -1.319   0.363  0.00  0.00     0.006 A 
ATOM      5  C4  UNL d   1       0.139  -0.123   0.074  0.00  0.00    -0.005 A 
ATOM      6  C5  UNL d   1      -1.062   0.194   0.718  0.00  0.00    -0.074 A 
ATOM      7  C6  UNL d   1      -1.788   1.470   0.411  0.00  0.00     0.077 C 
ATOM      8  C7  UNL d   1      -1.594  -0.706   1.650  0.00  0.00    -0.001 A 
ENDROOT
TORSDOF 0
ENDMDL
