MODEL 1
REMARK minimizedAffinity -1.11205578
REMARK minimizedRMSD -1
REMARK  0 active torsions:
REMARK  status: ('A' for Active; 'I' for Inactive)
ROOT
ATOM      1  C   UNL d   1      -2.364  -1.912  -0.007  0.00  0.00     0.077 C 
ATOM      2  C1  UNL d   1      -1.887  -0.498   0.146  0.00  0.00    -0.074 A 
ATOM      3  C2  UNL d   1      -2.672   0.458   0.799  0.00  0.00    -0.005 A 
ATOM      4  C3  UNL d   1      -2.211   1.767   0.942  0.00  0.00     0.006 A 
ATOM      5  C4  UNL d   1      -0.963   2.132   0.435  0.00  0.00    -0.005 A 
ATOM      6  C5  UNL d   1      -0.165   1.190  -0.220  0.00  0.00    -0.074 A 
ATOM      7  C6  UNL d   1       1.183   1.563  -0.763  0.00  0.00     0.077 C 
ATOM      8  C7  UNL d   1      -0.631  -0.125  -0.354  0.00  0.00    -0.001 A 
ENDROOT
TORSDOF 0
ENDMDL
