MODEL 1
REMARK minimizedAffinity -3.73674846
REMARK minimizedRMSD -1
REMARK  0 active torsions:
REMARK  status: ('A' for Active; 'I' for Inactive)
ROOT
ATOM      1  C   UNL d   1      -1.851   1.879   1.188  0.00  0.00     0.077 C 
ATOM      2  C1  UNL d   1      -1.493   0.466   0.838  0.00  0.00    -0.074 A 
ATOM      3  C2  UNL d   1      -2.408  -0.575   1.028  0.00  0.00    -0.005 A 
ATOM      4  C3  UNL d   1      -2.064  -1.884   0.688  0.00  0.00     0.006 A 
ATOM      5  C4  UNL d   1      -0.805  -2.164   0.156  0.00  0.00    -0.005 A 
ATOM      6  C5  UNL d   1       0.122  -1.135  -0.042  0.00  0.00    -0.074 A 
ATOM      7  C6  UNL d   1       1.476  -1.418  -0.623  0.00  0.00     0.077 C 
ATOM      8  C7  UNL d   1      -0.233   0.178   0.295  0.00  0.00    -0.001 A 
ENDROOT
TORSDOF 0
ENDMDL
