MODEL 1
REMARK minimizedAffinity -3.49294329
REMARK minimizedRMSD -1
REMARK  0 active torsions:
REMARK  status: ('A' for Active; 'I' for Inactive)
ROOT
ATOM      1  C   UNL d   1      -1.842  -2.413   1.064  0.00  0.00     0.077 C 
ATOM      2  C1  UNL d   1      -0.794  -1.422   0.654  0.00  0.00    -0.074 A 
ATOM      3  C2  UNL d   1      -1.148  -0.145   0.206  0.00  0.00    -0.005 A 
ATOM      4  C3  UNL d   1      -0.161   0.770  -0.163  0.00  0.00     0.006 A 
ATOM      5  C4  UNL d   1       1.187   0.417  -0.090  0.00  0.00    -0.005 A 
ATOM      6  C5  UNL d   1       1.560  -0.855   0.356  0.00  0.00    -0.074 A 
ATOM      7  C6  UNL d   1       3.004  -1.247   0.450  0.00  0.00     0.077 C 
ATOM      8  C7  UNL d   1       0.563  -1.766   0.732  0.00  0.00    -0.001 A 
ENDROOT
TORSDOF 0
ENDMDL
