MODEL 1
REMARK minimizedAffinity -2.40135312
REMARK minimizedRMSD -1
REMARK  0 active torsions:
REMARK  status: ('A' for Active; 'I' for Inactive)
ROOT
ATOM      1  C   UNL d   1       2.637  -0.475   0.877  0.00  0.00     0.077 C 
ATOM      2  C1  UNL d   1       1.170  -0.621   0.601  0.00  0.00    -0.074 A 
ATOM      3  C2  UNL d   1       0.528   0.202  -0.330  0.00  0.00    -0.005 A 
ATOM      4  C3  UNL d   1      -0.835   0.049  -0.583  0.00  0.00     0.006 A 
ATOM      5  C4  UNL d   1      -1.569  -0.928   0.091  0.00  0.00    -0.005 A 
ATOM      6  C5  UNL d   1      -0.944  -1.761   1.025  0.00  0.00    -0.074 A 
ATOM      7  C6  UNL d   1      -1.716  -2.822   1.751  0.00  0.00     0.077 C 
ATOM      8  C7  UNL d   1       0.427  -1.605   1.269  0.00  0.00    -0.001 A 
ENDROOT
TORSDOF 0
ENDMDL
