MODEL 1
REMARK minimizedAffinity -5.46587753
REMARK minimizedRMSD -1
REMARK  0 active torsions:
REMARK  status: ('A' for Active; 'I' for Inactive)
ROOT
ATOM      1  C   UNL d   1      -1.106   2.318   1.297  0.00  0.00     0.077 C 
ATOM      2  C1  UNL d   1      -0.457   1.073   0.770  0.00  0.00    -0.074 A 
ATOM      3  C2  UNL d   1       0.556   1.143  -0.192  0.00  0.00    -0.005 A 
ATOM      4  C3  UNL d   1       1.157  -0.023  -0.666  0.00  0.00     0.006 A 
ATOM      5  C4  UNL d   1       0.752  -1.268  -0.183  0.00  0.00    -0.005 A 
ATOM      6  C5  UNL d   1      -0.258  -1.357   0.780  0.00  0.00    -0.074 A 
ATOM      7  C6  UNL d   1      -0.697  -2.687   1.317  0.00  0.00     0.077 C 
ATOM      8  C7  UNL d   1      -0.852  -0.181   1.256  0.00  0.00    -0.001 A 
ENDROOT
TORSDOF 0
ENDMDL
