MODEL 1
REMARK minimizedAffinity -4.40686035
REMARK minimizedRMSD -1
REMARK  0 active torsions:
REMARK  status: ('A' for Active; 'I' for Inactive)
ROOT
ATOM      1  C   UNL d   1       2.550  -0.389   0.412  0.00  0.00     0.077 C 
ATOM      2  C1  UNL d   1       1.058  -0.417   0.564  0.00  0.00    -0.074 A 
ATOM      3  C2  UNL d   1       0.291   0.733   0.350  0.00  0.00    -0.005 A 
ATOM      4  C3  UNL d   1      -1.096   0.689   0.485  0.00  0.00     0.006 A 
ATOM      5  C4  UNL d   1      -1.730  -0.504   0.836  0.00  0.00    -0.005 A 
ATOM      6  C5  UNL d   1      -0.980  -1.664   1.053  0.00  0.00    -0.074 A 
ATOM      7  C6  UNL d   1      -1.647  -2.956   1.421  0.00  0.00     0.077 C 
ATOM      8  C7  UNL d   1       0.413  -1.613   0.908  0.00  0.00    -0.001 A 
ENDROOT
TORSDOF 0
ENDMDL
