MODEL 1
REMARK minimizedAffinity -3.96511388
REMARK minimizedRMSD -1
REMARK  0 active torsions:
REMARK  status: ('A' for Active; 'I' for Inactive)
ROOT
ATOM      1  C   UNL d   1       1.654   1.901  -1.218  0.00  0.00     0.077 C 
ATOM      2  C1  UNL d   1       0.639   1.159  -0.400  0.00  0.00    -0.074 A 
ATOM      3  C2  UNL d   1      -0.405   1.836   0.238  0.00  0.00    -0.005 A 
ATOM      4  C3  UNL d   1      -1.347   1.131   0.987  0.00  0.00     0.006 A 
ATOM      5  C4  UNL d   1      -1.255  -0.256   1.106  0.00  0.00    -0.005 A 
ATOM      6  C5  UNL d   1      -0.219  -0.951   0.475  0.00  0.00    -0.074 A 
ATOM      7  C6  UNL d   1      -0.110  -2.443   0.584  0.00  0.00     0.077 C 
ATOM      8  C7  UNL d   1       0.720  -0.236  -0.282  0.00  0.00    -0.001 A 
ENDROOT
TORSDOF 0
ENDMDL
