MODEL 1
REMARK minimizedAffinity -2.36993408
REMARK minimizedRMSD -1
REMARK  1 active torsions:
REMARK  status: ('A' for Active; 'I' for Inactive)
REMARK    1  A    between atoms: C3_4  and  O_7 
ROOT
ATOM      1  C   UNL d   1      -1.693  -4.790   6.000  0.00  0.00    -0.033 A 
ATOM      2  C1  UNL d   1      -0.971  -3.596   5.999  0.00  0.00     0.039 A 
ATOM      3  C2  UNL d   1       0.317  -3.557   5.460  0.00  0.00    -0.080 A 
ATOM      4  C3  UNL d   1       0.868  -4.717   4.925  0.00  0.00     0.150 A 
ATOM      5  C4  UNL d   1       0.153  -5.910   4.919  0.00  0.00    -0.007 A 
ATOM      6  C5  UNL d   1      -1.132  -5.947   5.459  0.00  0.00     0.039 A 
ENDROOT
BRANCH   4   7
ATOM      7  O   UNL d   1       2.123  -4.730   4.391  0.00  0.00    -0.526 OA
ATOM      8  H5  UNL d   1       2.508  -3.843   4.490  0.00  0.00     0.418 HD
ENDBRANCH   4   7
TORSDOF 1
ENDMDL
