MODEL 1
REMARK minimizedAffinity 4.41944313
REMARK minimizedRMSD -1
REMARK  1 active torsions:
REMARK  status: ('A' for Active; 'I' for Inactive)
REMARK    1  A    between atoms: C3_4  and  O_7 
ROOT
ATOM      1  C   UNL d   1      -0.798   2.178   2.537  0.00  0.00    -0.033 A 
ATOM      2  C1  UNL d   1      -0.068   1.999   3.714  0.00  0.00     0.039 A 
ATOM      3  C2  UNL d   1       0.628   3.071   4.275  0.00  0.00    -0.080 A 
ATOM      4  C3  UNL d   1       0.587   4.315   3.651  0.00  0.00     0.150 A 
ATOM      5  C4  UNL d   1      -0.141   4.501   2.480  0.00  0.00    -0.007 A 
ATOM      6  C5  UNL d   1      -0.835   3.429   1.921  0.00  0.00     0.039 A 
ENDROOT
BRANCH   4   7
ATOM      7  O   UNL d   1       1.254   5.389   4.159  0.00  0.00    -0.526 OA
ATOM      8  H5  UNL d   1       1.736   5.105   4.953  0.00  0.00     0.418 HD
ENDBRANCH   4   7
TORSDOF 1
ENDMDL
