MODEL 1
REMARK minimizedAffinity 8.16257286
REMARK minimizedRMSD -1
REMARK  1 active torsions:
REMARK  status: ('A' for Active; 'I' for Inactive)
REMARK    1  A    between atoms: C3_4  and  O_7 
ROOT
ATOM      1  C   UNL d   1      -4.881  -0.371  -2.591  0.00  0.00    -0.033 A 
ATOM      2  C1  UNL d   1      -5.999  -0.701  -1.824  0.00  0.00     0.039 A 
ATOM      3  C2  UNL d   1      -5.941  -0.621  -0.431  0.00  0.00    -0.080 A 
ATOM      4  C3  UNL d   1      -4.760  -0.209   0.181  0.00  0.00     0.150 A 
ATOM      5  C4  UNL d   1      -3.643   0.125  -0.578  0.00  0.00    -0.007 A 
ATOM      6  C5  UNL d   1      -3.703   0.043  -1.968  0.00  0.00     0.039 A 
ENDROOT
BRANCH   4   7
ATOM      7  O   UNL d   1      -4.654  -0.120   1.537  0.00  0.00    -0.526 OA
ATOM      8  H5  UNL d   1      -5.494  -0.409   1.931  0.00  0.00     0.418 HD
ENDBRANCH   4   7
TORSDOF 1
ENDMDL
