MODEL 1
REMARK minimizedAffinity 2.45339894
REMARK minimizedRMSD -1
REMARK  1 active torsions:
REMARK  status: ('A' for Active; 'I' for Inactive)
REMARK    1  A    between atoms: C3_4  and  O_7 
ROOT
ATOM      1  C   UNL d   1       0.800  -3.669   4.880  0.00  0.00    -0.033 A 
ATOM      2  C1  UNL d   1      -0.160  -3.004   5.645  0.00  0.00     0.039 A 
ATOM      3  C2  UNL d   1      -1.344  -3.653   6.000  0.00  0.00    -0.080 A 
ATOM      4  C3  UNL d   1      -1.555  -4.965   5.586  0.00  0.00     0.150 A 
ATOM      5  C4  UNL d   1      -0.601  -5.635   4.827  0.00  0.00    -0.007 A 
ATOM      6  C5  UNL d   1       0.580  -4.985   4.472  0.00  0.00     0.039 A 
ENDROOT
BRANCH   4   7
ATOM      7  O   UNL d   1      -2.697  -5.638   5.904  0.00  0.00    -0.526 OA
ATOM      8  H5  UNL d   1      -3.277  -5.041   6.406  0.00  0.00     0.418 HD
ENDBRANCH   4   7
TORSDOF 1
ENDMDL
