MODEL 1
REMARK minimizedAffinity -0.831700325
REMARK minimizedRMSD -1
REMARK  1 active torsions:
REMARK  status: ('A' for Active; 'I' for Inactive)
REMARK    1  A    between atoms: C3_4  and  O_7 
ROOT
ATOM      1  C   UNL d   1       0.399  -3.101   5.425  0.00  0.00    -0.033 A 
ATOM      2  C1  UNL d   1      -0.851  -2.781   5.958  0.00  0.00     0.039 A 
ATOM      3  C2  UNL d   1      -1.862  -3.744   6.000  0.00  0.00    -0.080 A 
ATOM      4  C3  UNL d   1      -1.609  -5.021   5.507  0.00  0.00     0.150 A 
ATOM      5  C4  UNL d   1      -0.365  -5.348   4.979  0.00  0.00    -0.007 A 
ATOM      6  C5  UNL d   1       0.642  -4.385   4.937  0.00  0.00     0.039 A 
ENDROOT
BRANCH   4   7
ATOM      7  O   UNL d   1      -2.565  -5.992   5.523  0.00  0.00    -0.526 OA
ATOM      8  H5  UNL d   1      -3.382  -5.615   5.890  0.00  0.00     0.418 HD
ENDBRANCH   4   7
TORSDOF 1
ENDMDL
