MODEL 1
REMARK minimizedAffinity 4.0261879
REMARK minimizedRMSD -1
REMARK  1 active torsions:
REMARK  status: ('A' for Active; 'I' for Inactive)
REMARK    1  A    between atoms: C3_4  and  O_7 
ROOT
ATOM      1  C   UNL d   1       5.934   4.908   4.900  0.00  0.00    -0.033 A 
ATOM      2  C1  UNL d   1       5.423   5.980   5.634  0.00  0.00     0.039 A 
ATOM      3  C2  UNL d   1       4.076   6.000   6.000  0.00  0.00    -0.080 A 
ATOM      4  C3  UNL d   1       3.251   4.942   5.626  0.00  0.00     0.150 A 
ATOM      5  C4  UNL d   1       3.754   3.869   4.898  0.00  0.00    -0.007 A 
ATOM      6  C5  UNL d   1       5.099   3.852   4.533  0.00  0.00     0.039 A 
ENDROOT
BRANCH   4   7
ATOM      7  O   UNL d   1       1.929   4.919   5.956  0.00  0.00    -0.526 OA
ATOM      8  H5  UNL d   1       1.716   5.738   6.433  0.00  0.00     0.418 HD
ENDBRANCH   4   7
TORSDOF 1
ENDMDL
