MODEL 1
REMARK minimizedAffinity 7.6489687
REMARK minimizedRMSD -1
REMARK  1 active torsions:
REMARK  status: ('A' for Active; 'I' for Inactive)
REMARK    1  A    between atoms: C3_4  and  O_7 
ROOT
ATOM      1  C   UNL d   1      -0.016  -2.221  -1.879  0.00  0.00    -0.033 A 
ATOM      2  C1  UNL d   1      -0.941  -1.455  -1.167  0.00  0.00     0.039 A 
ATOM      3  C2  UNL d   1      -0.516  -0.653  -0.106  0.00  0.00    -0.080 A 
ATOM      4  C3  UNL d   1       0.834  -0.625   0.232  0.00  0.00     0.150 A 
ATOM      5  C4  UNL d   1       1.762  -1.382  -0.476  0.00  0.00    -0.007 A 
ATOM      6  C5  UNL d   1       1.336  -2.183  -1.535  0.00  0.00     0.039 A 
ENDROOT
BRANCH   4   7
ATOM      7  O   UNL d   1       1.296   0.139   1.262  0.00  0.00    -0.526 OA
ATOM      8  H5  UNL d   1       0.539   0.585   1.678  0.00  0.00     0.418 HD
ENDBRANCH   4   7
TORSDOF 1
ENDMDL
