MODEL 1
REMARK minimizedAffinity -2.5461123
REMARK minimizedRMSD -1
REMARK  1 active torsions:
REMARK  status: ('A' for Active; 'I' for Inactive)
REMARK    1  A    between atoms: C1_2  and  C2_3 
ROOT
ATOM      1  C2  UNL d   1      -0.455   0.009   0.677  0.00  0.00    -0.073 A 
ATOM      2  C3  UNL d   1       0.194   1.245   0.578  0.00  0.00    -0.002 A 
ATOM      3  C4  UNL d   1       1.328   1.384  -0.223  0.00  0.00     0.004 A 
ATOM      4  C5  UNL d   1       1.821   0.292  -0.937  0.00  0.00    -0.004 A 
ATOM      5  C6  UNL d   1       1.180  -0.949  -0.860  0.00  0.00    -0.075 A 
ATOM      6  C7  UNL d   1       1.699  -2.134  -1.621  0.00  0.00     0.076 C 
ATOM      7  C8  UNL d   1       0.043  -1.081  -0.052  0.00  0.00     0.001 A 
ENDROOT
BRANCH   1   8
ATOM      8  C1  UNL d   1      -1.683  -0.144   1.536  0.00  0.00     0.053 C 
ATOM      9  C   UNL d   1      -1.454   0.354   2.954  0.00  0.00     0.018 C 
ENDBRANCH   1   8
TORSDOF 1
ENDMDL
