MODEL 1
REMARK minimizedAffinity -1.66365492
REMARK minimizedRMSD -1
REMARK  1 active torsions:
REMARK  status: ('A' for Active; 'I' for Inactive)
REMARK    1  A    between atoms: C1_2  and  C2_3 
ROOT
ATOM      1  C2  UNL d   1       0.096   0.048   1.079  0.00  0.00    -0.073 A 
ATOM      2  C3  UNL d   1       1.167   0.939   1.220  0.00  0.00    -0.002 A 
ATOM      3  C4  UNL d   1       2.230   0.911   0.317  0.00  0.00     0.004 A 
ATOM      4  C5  UNL d   1       2.231  -0.001  -0.739  0.00  0.00    -0.004 A 
ATOM      5  C6  UNL d   1       1.165  -0.891  -0.903  0.00  0.00    -0.075 A 
ATOM      6  C7  UNL d   1       1.151  -1.879  -2.032  0.00  0.00     0.076 C 
ATOM      7  C8  UNL d   1       0.102  -0.858   0.010  0.00  0.00     0.001 A 
ENDROOT
BRANCH   1   8
ATOM      8  C1  UNL d   1      -1.057   0.079   2.048  0.00  0.00     0.053 C 
ATOM      9  C   UNL d   1      -1.208   1.439   2.712  0.00  0.00     0.018 C 
ENDBRANCH   1   8
TORSDOF 1
ENDMDL
