MODEL 1
REMARK minimizedAffinity -3.39411855
REMARK minimizedRMSD -1
REMARK  1 active torsions:
REMARK  status: ('A' for Active; 'I' for Inactive)
REMARK    1  A    between atoms: C1_2  and  C2_3 
ROOT
ATOM      1  C2  UNL d   1       0.902  -0.681  -0.780  0.00  0.00    -0.073 A 
ATOM      2  C3  UNL d   1      -0.112  -1.304  -0.043  0.00  0.00    -0.002 A 
ATOM      3  C4  UNL d   1      -1.301  -0.628   0.231  0.00  0.00     0.004 A 
ATOM      4  C5  UNL d   1      -1.492   0.673  -0.233  0.00  0.00    -0.004 A 
ATOM      5  C6  UNL d   1      -0.496   1.309  -0.981  0.00  0.00    -0.075 A 
ATOM      6  C7  UNL d   1      -0.685   2.709  -1.486  0.00  0.00     0.076 C 
ATOM      7  C8  UNL d   1       0.697   0.624  -1.250  0.00  0.00     0.001 A 
ENDROOT
BRANCH   1   8
ATOM      8  C1  UNL d   1       2.186  -1.409  -1.084  0.00  0.00     0.053 C 
ATOM      9  C   UNL d   1       3.198  -0.513  -1.779  0.00  0.00     0.018 C 
ENDBRANCH   1   8
TORSDOF 1
ENDMDL
