MODEL 1
REMARK minimizedAffinity -4.54411793
REMARK minimizedRMSD -1
REMARK  1 active torsions:
REMARK  status: ('A' for Active; 'I' for Inactive)
REMARK    1  A    between atoms: C1_2  and  C2_3 
ROOT
ATOM      1  C2  UNL d   1      -0.397   0.373   0.853  0.00  0.00    -0.073 A 
ATOM      2  C3  UNL d   1      -1.019  -0.859   0.618  0.00  0.00    -0.002 A 
ATOM      3  C4  UNL d   1      -0.386  -1.831  -0.158  0.00  0.00     0.004 A 
ATOM      4  C5  UNL d   1       0.875  -1.585  -0.700  0.00  0.00    -0.004 A 
ATOM      5  C6  UNL d   1       1.518  -0.365  -0.466  0.00  0.00    -0.075 A 
ATOM      6  C7  UNL d   1       2.874  -0.084  -1.044  0.00  0.00     0.076 C 
ATOM      7  C8  UNL d   1       0.875   0.607   0.312  0.00  0.00     0.001 A 
ENDROOT
BRANCH   1   8
ATOM      8  C1  UNL d   1      -1.074   1.423   1.696  0.00  0.00     0.053 C 
ATOM      9  C   UNL d   1      -1.816   0.816   2.876  0.00  0.00     0.018 C 
ENDBRANCH   1   8
TORSDOF 1
ENDMDL
