MODEL 1
REMARK minimizedAffinity -1.1856128
REMARK minimizedRMSD -1
REMARK  1 active torsions:
REMARK  status: ('A' for Active; 'I' for Inactive)
REMARK    1  A    between atoms: C1_2  and  C2_3 
ROOT
ATOM      1  C2  UNL d   1      -3.431   4.088   3.763  0.00  0.00    -0.073 A 
ATOM      2  C3  UNL d   1      -2.227   4.790   3.887  0.00  0.00    -0.002 A 
ATOM      3  C4  UNL d   1      -1.008   4.111   3.854  0.00  0.00     0.004 A 
ATOM      4  C5  UNL d   1      -0.980   2.726   3.690  0.00  0.00    -0.004 A 
ATOM      5  C6  UNL d   1      -2.172   2.008   3.552  0.00  0.00    -0.075 A 
ATOM      6  C7  UNL d   1      -2.159   0.518   3.376  0.00  0.00     0.076 C 
ATOM      7  C8  UNL d   1      -3.392   2.697   3.589  0.00  0.00     0.001 A 
ENDROOT
BRANCH   1   8
ATOM      8  C1  UNL d   1      -4.749   4.817   3.792  0.00  0.00     0.053 C 
ATOM      9  C   UNL d   1      -4.946   5.588   5.088  0.00  0.00     0.018 C 
ENDBRANCH   1   8
TORSDOF 1
ENDMDL
