MODEL 1
REMARK minimizedAffinity -3.95443821
REMARK minimizedRMSD -1
REMARK  1 active torsions:
REMARK  status: ('A' for Active; 'I' for Inactive)
REMARK    1  A    between atoms: C1_2  and  C2_3 
ROOT
ATOM      1  C2  UNL d   1      -0.769   0.463   0.646  0.00  0.00    -0.073 A 
ATOM      2  C3  UNL d   1      -0.905   1.622  -0.126  0.00  0.00    -0.002 A 
ATOM      3  C4  UNL d   1       0.083   1.974  -1.047  0.00  0.00     0.004 A 
ATOM      4  C5  UNL d   1       1.210   1.170  -1.210  0.00  0.00    -0.004 A 
ATOM      5  C6  UNL d   1       1.358   0.001  -0.456  0.00  0.00    -0.075 A 
ATOM      6  C7  UNL d   1       2.566  -0.874  -0.618  0.00  0.00     0.076 C 
ATOM      7  C8  UNL d   1       0.364  -0.345   0.469  0.00  0.00     0.001 A 
ENDROOT
BRANCH   1   8
ATOM      8  C1  UNL d   1      -1.835   0.074   1.637  0.00  0.00     0.053 C 
ATOM      9  C   UNL d   1      -1.832   0.976   2.862  0.00  0.00     0.018 C 
ENDBRANCH   1   8
TORSDOF 1
ENDMDL
