MODEL 1
REMARK minimizedAffinity -4.18234921
REMARK minimizedRMSD -1
REMARK  1 active torsions:
REMARK  status: ('A' for Active; 'I' for Inactive)
REMARK    1  A    between atoms: C1_2  and  C2_3 
ROOT
ATOM      1  C2  UNL d   1      -0.530   0.593   0.854  0.00  0.00    -0.073 A 
ATOM      2  C3  UNL d   1      -1.387  -0.470   0.546  0.00  0.00    -0.002 A 
ATOM      3  C4  UNL d   1      -0.950  -1.513  -0.273  0.00  0.00     0.004 A 
ATOM      4  C5  UNL d   1       0.347  -1.506  -0.786  0.00  0.00    -0.004 A 
ATOM      5  C6  UNL d   1       1.221  -0.458  -0.480  0.00  0.00    -0.075 A 
ATOM      6  C7  UNL d   1       2.619  -0.436  -1.026  0.00  0.00     0.076 C 
ATOM      7  C8  UNL d   1       0.775   0.586   0.341  0.00  0.00     0.001 A 
ENDROOT
BRANCH   1   8
ATOM      8  C1  UNL d   1      -0.995   1.717   1.743  0.00  0.00     0.053 C 
ATOM      9  C   UNL d   1      -2.109   1.279   2.680  0.00  0.00     0.018 C 
ENDBRANCH   1   8
TORSDOF 1
ENDMDL
