MODEL 1
REMARK minimizedAffinity -5.51600409
REMARK minimizedRMSD -1
REMARK  1 active torsions:
REMARK  status: ('A' for Active; 'I' for Inactive)
REMARK    1  A    between atoms: C1_2  and  C2_3 
ROOT
ATOM      1  C2  UNL d   1      -0.393   0.841   1.070  0.00  0.00    -0.073 A 
ATOM      2  C3  UNL d   1      -0.993  -0.417   0.943  0.00  0.00    -0.002 A 
ATOM      3  C4  UNL d   1      -0.422  -1.391   0.123  0.00  0.00     0.004 A 
ATOM      4  C5  UNL d   1       0.756  -1.120  -0.573  0.00  0.00    -0.004 A 
ATOM      5  C6  UNL d   1       1.377   0.127  -0.450  0.00  0.00    -0.075 A 
ATOM      6  C7  UNL d   1       2.643   0.435  -1.194  0.00  0.00     0.076 C 
ATOM      7  C8  UNL d   1       0.796   1.101   0.374  0.00  0.00     0.001 A 
ENDROOT
BRANCH   1   8
ATOM      8  C1  UNL d   1      -1.003   1.894   1.960  0.00  0.00     0.053 C 
ATOM      9  C   UNL d   1      -1.976   1.297   2.964  0.00  0.00     0.018 C 
ENDBRANCH   1   8
TORSDOF 1
ENDMDL
