MODEL 1
REMARK minimizedAffinity -4.42698431
REMARK minimizedRMSD -1
REMARK  1 active torsions:
REMARK  status: ('A' for Active; 'I' for Inactive)
REMARK    1  A    between atoms: C1_2  and  C2_3 
ROOT
ATOM      1  C2  UNL d   1      -0.406  -0.112   0.193  0.00  0.00    -0.073 A 
ATOM      2  C3  UNL d   1      -0.962  -1.372  -0.057  0.00  0.00    -0.002 A 
ATOM      3  C4  UNL d   1      -0.233  -2.340  -0.750  0.00  0.00     0.004 A 
ATOM      4  C5  UNL d   1       1.059  -2.060  -1.194  0.00  0.00    -0.004 A 
ATOM      5  C6  UNL d   1       1.637  -0.811  -0.944  0.00  0.00    -0.075 A 
ATOM      6  C7  UNL d   1       3.025  -0.494  -1.417  0.00  0.00     0.076 C 
ATOM      7  C8  UNL d   1       0.897   0.156  -0.250  0.00  0.00     0.001 A 
ENDROOT
BRANCH   1   8
ATOM      8  C1  UNL d   1      -1.187   0.933   0.946  0.00  0.00     0.053 C 
ATOM      9  C   UNL d   1      -1.973   0.335   2.102  0.00  0.00     0.018 C 
ENDBRANCH   1   8
TORSDOF 1
ENDMDL
