MODEL 1
REMARK minimizedAffinity -1.84681356
REMARK minimizedRMSD -1
REMARK  1 active torsions:
REMARK  status: ('A' for Active; 'I' for Inactive)
REMARK    1  A    between atoms: C1_2  and  C2_3 
ROOT
ATOM      1  C2  UNL d   1      -1.481   0.552   1.379  0.00  0.00    -0.073 A 
ATOM      2  C3  UNL d   1      -1.173   1.766   2.005  0.00  0.00    -0.002 A 
ATOM      3  C4  UNL d   1      -1.484   1.964   3.351  0.00  0.00     0.004 A 
ATOM      4  C5  UNL d   1      -2.098   0.950   4.086  0.00  0.00    -0.004 A 
ATOM      5  C6  UNL d   1      -2.402  -0.274   3.482  0.00  0.00    -0.075 A 
ATOM      6  C7  UNL d   1      -3.065  -1.374   4.258  0.00  0.00     0.076 C 
ATOM      7  C8  UNL d   1      -2.090  -0.464   2.129  0.00  0.00     0.001 A 
ENDROOT
BRANCH   1   8
ATOM      8  C1  UNL d   1      -1.142   0.332  -0.072  0.00  0.00     0.053 C 
ATOM      9  C   UNL d   1       0.254  -0.244  -0.250  0.00  0.00     0.018 C 
ENDBRANCH   1   8
TORSDOF 1
ENDMDL
