MODEL 1
REMARK minimizedAffinity -4.57022905
REMARK minimizedRMSD -1
REMARK  1 active torsions:
REMARK  status: ('A' for Active; 'I' for Inactive)
REMARK    1  A    between atoms: C1_2  and  C2_3 
ROOT
ATOM      1  C2  UNL d   1      -1.352  -0.297   1.180  0.00  0.00    -0.073 A 
ATOM      2  C3  UNL d   1      -0.839  -1.585   0.992  0.00  0.00    -0.002 A 
ATOM      3  C4  UNL d   1       0.143  -1.819   0.029  0.00  0.00     0.004 A 
ATOM      4  C5  UNL d   1       0.628  -0.768  -0.749  0.00  0.00    -0.004 A 
ATOM      5  C6  UNL d   1       0.137   0.529  -0.568  0.00  0.00    -0.075 A 
ATOM      6  C7  UNL d   1       0.647   1.670  -1.398  0.00  0.00     0.076 C 
ATOM      7  C8  UNL d   1      -0.851   0.755   0.399  0.00  0.00     0.001 A 
ENDROOT
BRANCH   1   8
ATOM      8  C1  UNL d   1      -2.408  -0.038   2.223  0.00  0.00     0.053 C 
ATOM      9  C   UNL d   1      -1.999   1.064   3.188  0.00  0.00     0.018 C 
ENDBRANCH   1   8
TORSDOF 1
ENDMDL
