MODEL 1
REMARK minimizedAffinity 7.76658058
REMARK minimizedRMSD -1
REMARK  0 active torsions:
REMARK  status: ('A' for Active; 'I' for Inactive)
ROOT
ATOM      1  N1  IND d   1      -5.985   2.379  -2.452  0.00  0.00    -0.196 N 
ATOM      2  C2  IND d   1      -5.954   3.607  -3.052  0.00  0.00     0.054 A 
ATOM      3  C3  IND d   1      -5.916   3.474  -4.396  0.00  0.00    -0.031 A 
ATOM      4  C4  IND d   1      -6.000   1.338  -5.831  0.00  0.00     0.051 A 
ATOM      5  C5  IND d   1      -5.995  -0.025  -5.734  0.00  0.00    -0.031 A 
ATOM      6  C6  IND d   1      -5.990  -0.670  -4.514  0.00  0.00     0.015 A 
ATOM      7  C7  IND d   1      -6.000   0.028  -3.340  0.00  0.00    -0.016 A 
ATOM      8  C8  IND d   1      -5.997   1.413  -3.434  0.00  0.00    -0.047 A 
ATOM      9  C9  IND d   1      -5.960   2.072  -4.669  0.00  0.00    -0.096 A 
ATOM     10  HN1 IND d   1      -5.995   2.234  -1.605  0.00  0.00     0.298 HD
ENDROOT
TORSDOF 0
ENDMDL
