MODEL 1
REMARK minimizedAffinity 2.2141583
REMARK minimizedRMSD -1
REMARK  0 active torsions:
REMARK  status: ('A' for Active; 'I' for Inactive)
ROOT
ATOM      1  N1  IND d   1      -5.995   0.241  -3.471  0.00  0.00    -0.196 N 
ATOM      2  C2  IND d   1      -5.834   0.597  -4.781  0.00  0.00     0.054 A 
ATOM      3  C3  IND d   1      -5.646   1.932  -4.886  0.00  0.00    -0.031 A 
ATOM      4  C4  IND d   1      -5.462   3.708  -3.031  0.00  0.00     0.051 A 
ATOM      5  C5  IND d   1      -5.578   3.870  -1.679  0.00  0.00    -0.031 A 
ATOM      6  C6  IND d   1      -5.842   2.809  -0.838  0.00  0.00     0.015 A 
ATOM      7  C7  IND d   1      -5.989   1.538  -1.318  0.00  0.00    -0.016 A 
ATOM      8  C8  IND d   1      -5.878   1.371  -2.692  0.00  0.00    -0.047 A 
ATOM      9  C9  IND d   1      -5.653   2.451  -3.555  0.00  0.00    -0.096 A 
ATOM     10  HN1 IND d   1      -6.143  -0.555  -3.182  0.00  0.00     0.298 HD
ENDROOT
TORSDOF 0
ENDMDL
