MODEL 1
REMARK minimizedAffinity 2.71640134
REMARK minimizedRMSD -1
REMARK  0 active torsions:
REMARK  status: ('A' for Active; 'I' for Inactive)
ROOT
ATOM      1  N1  IND d   1      -5.977   1.653  -5.936  0.00  0.00    -0.196 N 
ATOM      2  C2  IND d   1      -5.996   0.332  -5.583  0.00  0.00     0.054 A 
ATOM      3  C3  IND d   1      -5.970   0.205  -4.237  0.00  0.00    -0.031 A 
ATOM      4  C4  IND d   1      -5.999   2.029  -2.420  0.00  0.00     0.051 A 
ATOM      5  C5  IND d   1      -5.946   3.384  -2.254  0.00  0.00    -0.031 A 
ATOM      6  C6  IND d   1      -5.903   4.249  -3.328  0.00  0.00     0.015 A 
ATOM      7  C7  IND d   1      -5.922   3.790  -4.614  0.00  0.00    -0.016 A 
ATOM      8  C8  IND d   1      -5.969   2.413  -4.787  0.00  0.00    -0.047 A 
ATOM      9  C9  IND d   1      -5.970   1.529  -3.701  0.00  0.00    -0.096 A 
ATOM     10  HN1 IND d   1      -5.971   1.957  -6.740  0.00  0.00     0.298 HD
ENDROOT
TORSDOF 0
ENDMDL
