MODEL 1
REMARK minimizedAffinity 0.77695781
REMARK minimizedRMSD -1
REMARK  0 active torsions:
REMARK  status: ('A' for Active; 'I' for Inactive)
ROOT
ATOM      1  N1  IND d   1      -5.970   1.016  -1.658  0.00  0.00    -0.196 N 
ATOM      2  C2  IND d   1      -5.944   1.856  -0.580  0.00  0.00     0.054 A 
ATOM      3  C3  IND d   1      -5.912   3.144  -0.988  0.00  0.00    -0.031 A 
ATOM      4  C4  IND d   1      -6.000   4.107  -3.374  0.00  0.00     0.051 A 
ATOM      5  C5  IND d   1      -5.993   3.731  -4.688  0.00  0.00    -0.031 A 
ATOM      6  C6  IND d   1      -5.980   2.404  -5.067  0.00  0.00     0.015 A 
ATOM      7  C7  IND d   1      -5.986   1.399  -4.141  0.00  0.00    -0.016 A 
ATOM      8  C8  IND d   1      -5.986   1.777  -2.806  0.00  0.00    -0.047 A 
ATOM      9  C9  IND d   1      -5.955   3.122  -2.416  0.00  0.00    -0.096 A 
ATOM     10  HN1 IND d   1      -5.975   0.157  -1.624  0.00  0.00     0.298 HD
ENDROOT
TORSDOF 0
ENDMDL
