MODEL 1
REMARK minimizedAffinity 13.5944672
REMARK minimizedRMSD -1
REMARK  0 active torsions:
REMARK  status: ('A' for Active; 'I' for Inactive)
ROOT
ATOM      1  N1  IND d   1      -0.762  -4.536  -3.134  0.00  0.00    -0.196 N 
ATOM      2  C2  IND d   1      -1.587  -3.555  -3.609  0.00  0.00     0.054 A 
ATOM      3  C3  IND d   1      -1.492  -2.447  -2.841  0.00  0.00    -0.031 A 
ATOM      4  C4  IND d   1       0.028  -1.986  -0.815  0.00  0.00     0.051 A 
ATOM      5  C5  IND d   1       0.929  -2.592   0.015  0.00  0.00    -0.031 A 
ATOM      6  C6  IND d   1       1.323  -3.902  -0.168  0.00  0.00     0.015 A 
ATOM      7  C7  IND d   1       0.836  -4.655  -1.198  0.00  0.00    -0.016 A 
ATOM      8  C8  IND d   1      -0.084  -4.046  -2.039  0.00  0.00    -0.047 A 
ATOM      9  C9  IND d   1      -0.520  -2.730  -1.833  0.00  0.00    -0.096 A 
ATOM     10  HN1 IND d   1      -0.680  -5.326  -3.463  0.00  0.00     0.298 HD
ENDROOT
TORSDOF 0
ENDMDL
