MODEL 1
REMARK minimizedAffinity -2.57718635
REMARK minimizedRMSD -1
REMARK  0 active torsions:
REMARK  status: ('A' for Active; 'I' for Inactive)
ROOT
ATOM      1  N1  IND d   1      -5.996   1.884  -1.452  0.00  0.00    -0.196 N 
ATOM      2  C2  IND d   1      -5.964   3.035  -0.716  0.00  0.00     0.054 A 
ATOM      3  C3  IND d   1      -5.916   4.113  -1.531  0.00  0.00    -0.031 A 
ATOM      4  C4  IND d   1      -5.985   4.224  -4.102  0.00  0.00     0.051 A 
ATOM      5  C5  IND d   1      -5.978   3.430  -5.215  0.00  0.00    -0.031 A 
ATOM      6  C6  IND d   1      -5.979   2.053  -5.128  0.00  0.00     0.015 A 
ATOM      7  C7  IND d   1      -5.999   1.415  -3.920  0.00  0.00    -0.016 A 
ATOM      8  C8  IND d   1      -5.999   2.217  -2.788  0.00  0.00    -0.047 A 
ATOM      9  C9  IND d   1      -5.955   3.615  -2.869  0.00  0.00    -0.096 A 
ATOM     10  HN1 IND d   1      -6.011   1.085  -1.133  0.00  0.00     0.298 HD
ENDROOT
TORSDOF 0
ENDMDL
