MODEL 1
REMARK minimizedAffinity 2.03372145
REMARK minimizedRMSD -1
REMARK  0 active torsions:
REMARK  status: ('A' for Active; 'I' for Inactive)
ROOT
ATOM      1  N1  IND d   1      -5.683   3.299  -1.656  0.00  0.00    -0.196 N 
ATOM      2  C2  IND d   1      -5.764   2.254  -0.779  0.00  0.00     0.054 A 
ATOM      3  C3  IND d   1      -5.931   1.091  -1.447  0.00  0.00    -0.031 A 
ATOM      4  C4  IND d   1      -5.996   0.657  -3.984  0.00  0.00     0.051 A 
ATOM      5  C5  IND d   1      -5.999   1.303  -5.187  0.00  0.00    -0.031 A 
ATOM      6  C6  IND d   1      -5.891   2.676  -5.278  0.00  0.00     0.015 A 
ATOM      7  C7  IND d   1      -5.765   3.456  -4.163  0.00  0.00    -0.016 A 
ATOM      8  C8  IND d   1      -5.769   2.803  -2.938  0.00  0.00    -0.047 A 
ATOM      9  C9  IND d   1      -5.921   1.414  -2.838  0.00  0.00    -0.096 A 
ATOM     10  HN1 IND d   1      -5.593   4.128  -1.443  0.00  0.00     0.298 HD
ENDROOT
TORSDOF 0
ENDMDL
