MODEL 1
REMARK minimizedAffinity 11.2734432
REMARK minimizedRMSD -1
REMARK  0 active torsions:
REMARK  status: ('A' for Active; 'I' for Inactive)
ROOT
ATOM      1  N1  IND d   1      -1.351  -2.607  -2.727  0.00  0.00    -0.196 N 
ATOM      2  C2  IND d   1      -1.667  -3.903  -3.025  0.00  0.00     0.054 A 
ATOM      3  C3  IND d   1      -0.873  -4.752  -2.335  0.00  0.00    -0.031 A 
ATOM      4  C4  IND d   1       0.942  -4.235  -0.584  0.00  0.00     0.051 A 
ATOM      5  C5  IND d   1       1.615  -3.196  -0.004  0.00  0.00    -0.031 A 
ATOM      6  C6  IND d   1       1.325  -1.881  -0.306  0.00  0.00     0.015 A 
ATOM      7  C7  IND d   1       0.340  -1.555  -1.194  0.00  0.00    -0.016 A 
ATOM      8  C8  IND d   1      -0.340  -2.607  -1.791  0.00  0.00    -0.047 A 
ATOM      9  C9  IND d   1      -0.021  -3.944  -1.521  0.00  0.00    -0.096 A 
ATOM     10  HN1 IND d   1      -1.721  -1.909  -3.066  0.00  0.00     0.298 HD
ENDROOT
TORSDOF 0
ENDMDL
