MODEL 1
REMARK minimizedAffinity -2.035496
REMARK minimizedRMSD -1
REMARK  0 active torsions:
REMARK  status: ('A' for Active; 'I' for Inactive)
ROOT
ATOM      1  N1  IND d   1      -5.999   5.580  -3.627  0.00  0.00    -0.196 N 
ATOM      2  C2  IND d   1      -5.963   5.246  -4.952  0.00  0.00     0.054 A 
ATOM      3  C3  IND d   1      -5.909   3.903  -5.097  0.00  0.00    -0.031 A 
ATOM      4  C4  IND d   1      -5.971   2.060  -3.301  0.00  0.00     0.051 A 
ATOM      5  C5  IND d   1      -5.965   1.874  -1.947  0.00  0.00    -0.031 A 
ATOM      6  C6  IND d   1      -5.973   2.936  -1.066  0.00  0.00     0.015 A 
ATOM      7  C7  IND d   1      -5.999   4.229  -1.508  0.00  0.00    -0.016 A 
ATOM      8  C8  IND d   1      -5.998   4.421  -2.882  0.00  0.00    -0.047 A 
ATOM      9  C9  IND d   1      -5.947   3.348  -3.782  0.00  0.00    -0.096 A 
ATOM     10  HN1 IND d   1      -6.019   6.380  -3.311  0.00  0.00     0.298 HD
ENDROOT
TORSDOF 0
ENDMDL
