MODEL 1
REMARK minimizedAffinity -3.4062202
REMARK minimizedRMSD -1
REMARK  1 active torsions:
REMARK  status: ('A' for Active; 'I' for Inactive)
REMARK    1  A    between atoms: C1_2  and  C2_3 
ROOT
ATOM      1  C2  UNL d   1      -1.025   0.924   0.515  0.00  0.00    -0.073 A 
ATOM      2  C3  UNL d   1       0.202   1.226   1.115  0.00  0.00    -0.002 A 
ATOM      3  C4  UNL d   1       1.326   0.441   0.854  0.00  0.00     0.004 A 
ATOM      4  C5  UNL d   1       1.236  -0.648  -0.012  0.00  0.00    -0.004 A 
ATOM      5  C6  UNL d   1       0.021  -0.959  -0.630  0.00  0.00    -0.075 A 
ATOM      6  C7  UNL d   1      -0.094  -2.129  -1.562  0.00  0.00     0.076 C 
ATOM      7  C8  UNL d   1      -1.104  -0.168  -0.361  0.00  0.00     0.001 A 
ENDROOT
BRANCH   1   8
ATOM      8  C1  UNL d   1      -2.240   1.773   0.788  0.00  0.00     0.053 C 
ATOM      9  C   UNL d   1      -3.448   0.934   1.174  0.00  0.00     0.018 C 
ENDBRANCH   1   8
TORSDOF 1
ENDMDL
