MODEL 1
REMARK minimizedAffinity -4.80314636
REMARK minimizedRMSD -1
REMARK  1 active torsions:
REMARK  status: ('A' for Active; 'I' for Inactive)
REMARK    1  A    between atoms: C1_2  and  C2_3 
ROOT
ATOM      1  C2  UNL d   1      -1.165   0.245   0.525  0.00  0.00    -0.073 A 
ATOM      2  C3  UNL d   1      -1.498  -0.257  -0.738  0.00  0.00    -0.002 A 
ATOM      3  C4  UNL d   1      -0.575  -1.011  -1.463  0.00  0.00     0.004 A 
ATOM      4  C5  UNL d   1       0.687  -1.277  -0.930  0.00  0.00    -0.004 A 
ATOM      5  C6  UNL d   1       1.034  -0.794   0.336  0.00  0.00    -0.075 A 
ATOM      6  C7  UNL d   1       2.388  -1.069   0.922  0.00  0.00     0.076 C 
ATOM      7  C8  UNL d   1       0.102  -0.035   1.056  0.00  0.00     0.001 A 
ENDROOT
BRANCH   1   8
ATOM      8  C1  UNL d   1      -2.162   1.055   1.315  0.00  0.00     0.053 C 
ATOM      9  C   UNL d   1      -2.842   2.112   0.460  0.00  0.00     0.018 C 
ENDBRANCH   1   8
TORSDOF 1
ENDMDL
