MODEL 1
REMARK minimizedAffinity -5.55578423
REMARK minimizedRMSD -1
REMARK  1 active torsions:
REMARK  status: ('A' for Active; 'I' for Inactive)
REMARK    1  A    between atoms: C1_2  and  C2_3 
ROOT
ATOM      1  C2  UNL d   1       0.824  -1.124  -0.258  0.00  0.00    -0.073 A 
ATOM      2  C3  UNL d   1       1.777  -1.929   0.374  0.00  0.00    -0.002 A 
ATOM      3  C4  UNL d   1       2.923  -1.360   0.932  0.00  0.00     0.004 A 
ATOM      4  C5  UNL d   1       3.123   0.019   0.870  0.00  0.00    -0.004 A 
ATOM      5  C6  UNL d   1       2.176   0.842   0.252  0.00  0.00    -0.075 A 
ATOM      6  C7  UNL d   1       2.377   2.327   0.175  0.00  0.00     0.076 C 
ATOM      7  C8  UNL d   1       1.029   0.263  -0.308  0.00  0.00     0.001 A 
ENDROOT
BRANCH   1   8
ATOM      8  C1  UNL d   1      -0.418  -1.733  -0.857  0.00  0.00     0.053 C 
ATOM      9  C   UNL d   1      -0.111  -3.002  -1.636  0.00  0.00     0.018 C 
ENDBRANCH   1   8
TORSDOF 1
ENDMDL
