MODEL 1
REMARK minimizedAffinity -3.94120765
REMARK minimizedRMSD -1
REMARK  1 active torsions:
REMARK  status: ('A' for Active; 'I' for Inactive)
REMARK    1  A    between atoms: C1_2  and  C2_3 
ROOT
ATOM      1  C2  UNL d   1      -0.258  -0.144  -0.021  0.00  0.00    -0.073 A 
ATOM      2  C3  UNL d   1      -0.603  -1.197  -0.877  0.00  0.00    -0.002 A 
ATOM      3  C4  UNL d   1       0.291  -2.244  -1.102  0.00  0.00     0.004 A 
ATOM      4  C5  UNL d   1       1.535  -2.253  -0.471  0.00  0.00    -0.004 A 
ATOM      5  C6  UNL d   1       1.893  -1.217   0.397  0.00  0.00    -0.075 A 
ATOM      6  C7  UNL d   1       3.228  -1.211   1.082  0.00  0.00     0.076 C 
ATOM      7  C8  UNL d   1       0.991  -0.167   0.616  0.00  0.00     0.001 A 
ENDROOT
BRANCH   1   8
ATOM      8  C1  UNL d   1      -1.223   0.985   0.231  0.00  0.00     0.053 C 
ATOM      9  C   UNL d   1      -2.659   0.586  -0.071  0.00  0.00     0.018 C 
ENDBRANCH   1   8
TORSDOF 1
ENDMDL
