MODEL 1
REMARK minimizedAffinity -4.74961519
REMARK minimizedRMSD -1
REMARK  1 active torsions:
REMARK  status: ('A' for Active; 'I' for Inactive)
REMARK    1  A    between atoms: C1_2  and  C2_3 
ROOT
ATOM      1  C2  UNL d   1       1.265  -0.640  -0.158  0.00  0.00    -0.073 A 
ATOM      2  C3  UNL d   1       1.872   0.616  -0.046  0.00  0.00    -0.002 A 
ATOM      3  C4  UNL d   1       1.101   1.778  -0.105  0.00  0.00     0.004 A 
ATOM      4  C5  UNL d   1      -0.281   1.696  -0.268  0.00  0.00    -0.004 A 
ATOM      5  C6  UNL d   1      -0.907   0.450  -0.370  0.00  0.00    -0.075 A 
ATOM      6  C7  UNL d   1      -2.393   0.345  -0.548  0.00  0.00     0.076 C 
ATOM      7  C8  UNL d   1      -0.127  -0.713  -0.313  0.00  0.00     0.001 A 
ENDROOT
BRANCH   1   8
ATOM      8  C1  UNL d   1       2.092  -1.898  -0.088  0.00  0.00     0.053 C 
ATOM      9  C   UNL d   1       3.397  -1.682   0.661  0.00  0.00     0.018 C 
ENDBRANCH   1   8
TORSDOF 1
ENDMDL
