MODEL 1
REMARK minimizedAffinity -4.39266109
REMARK minimizedRMSD -1
REMARK  0 active torsions:
REMARK  status: ('A' for Active; 'I' for Inactive)
ROOT
ATOM      1  C2' OXE d   1      -2.902   0.332   1.138  0.00  0.00     0.078 C 
ATOM      2  C1' OXE d   1      -1.834  -2.260   1.283  0.00  0.00     0.078 C 
ATOM      3  C1  OXE d   1      -0.898  -1.133   0.926  0.00  0.00    -0.078 A 
ATOM      4  C2  OXE d   1      -1.439   0.125   0.812  0.00  0.00    -0.078 A 
ATOM      5  C3  OXE d   1      -0.610   1.210   0.539  0.00  0.00     0.003 A 
ATOM      6  C4  OXE d   1       0.741   1.009   0.228  0.00  0.00    -0.002 A 
ATOM      7  C5  OXE d   1       1.303  -0.270   0.300  0.00  0.00    -0.002 A 
ATOM      8  C6  OXE d   1       0.509  -1.343   0.688  0.00  0.00     0.003 A 
ENDROOT
TORSDOF 0
ENDMDL
