MODEL 1
REMARK minimizedAffinity -5.62707329
REMARK minimizedRMSD -1
REMARK  0 active torsions:
REMARK  status: ('A' for Active; 'I' for Inactive)
ROOT
ATOM      1  C2' OXE d   1       0.451   0.591  -0.030  0.00  0.00     0.078 C 
ATOM      2  C1' OXE d   1       0.765  -2.139   0.542  0.00  0.00     0.078 C 
ATOM      3  C1  OXE d   1      -0.581  -1.514   0.813  0.00  0.00    -0.078 A 
ATOM      4  C2  OXE d   1      -0.712  -0.167   0.574  0.00  0.00    -0.078 A 
ATOM      5  C3  OXE d   1      -1.947   0.448   0.755  0.00  0.00     0.003 A 
ATOM      6  C4  OXE d   1      -3.014  -0.258   1.324  0.00  0.00    -0.002 A 
ATOM      7  C5  OXE d   1      -2.890  -1.621   1.612  0.00  0.00    -0.002 A 
ATOM      8  C6  OXE d   1      -1.696  -2.272   1.323  0.00  0.00     0.003 A 
ENDROOT
TORSDOF 0
ENDMDL
