MODEL 1
REMARK minimizedAffinity -4.92302513
REMARK minimizedRMSD -1
REMARK  0 active torsions:
REMARK  status: ('A' for Active; 'I' for Inactive)
ROOT
ATOM      1  C2' OXE d   1       0.341   1.181  -0.220  0.00  0.00     0.078 C 
ATOM      2  C1' OXE d   1       1.862  -1.153   0.127  0.00  0.00     0.078 C 
ATOM      3  C1  OXE d   1       0.381  -1.231   0.401  0.00  0.00    -0.078 A 
ATOM      4  C2  OXE d   1      -0.348  -0.073   0.274  0.00  0.00    -0.078 A 
ATOM      5  C3  OXE d   1      -1.727  -0.101   0.462  0.00  0.00     0.003 A 
ATOM      6  C4  OXE d   1      -2.354  -1.263   0.929  0.00  0.00    -0.002 A 
ATOM      7  C5  OXE d   1      -1.624  -2.443   1.104  0.00  0.00    -0.002 A 
ATOM      8  C6  OXE d   1      -0.266  -2.455   0.804  0.00  0.00     0.003 A 
ENDROOT
TORSDOF 0
ENDMDL
