MODEL 1
REMARK minimizedAffinity -5.16009188
REMARK minimizedRMSD -1
REMARK  0 active torsions:
REMARK  status: ('A' for Active; 'I' for Inactive)
ROOT
ATOM      1  C2' OXE d   1       1.825  -1.424   0.180  0.00  0.00     0.078 C 
ATOM      2  C1' OXE d   1      -0.765  -2.223   0.912  0.00  0.00     0.078 C 
ATOM      3  C1  OXE d   1      -0.541  -0.765   0.596  0.00  0.00    -0.078 A 
ATOM      4  C2  OXE d   1       0.740  -0.375   0.284  0.00  0.00    -0.078 A 
ATOM      5  C3  OXE d   1       0.991   0.948  -0.069  0.00  0.00     0.003 A 
ATOM      6  C4  OXE d   1      -0.017   1.914   0.040  0.00  0.00    -0.002 A 
ATOM      7  C5  OXE d   1      -1.319   1.545   0.394  0.00  0.00    -0.002 A 
ATOM      8  C6  OXE d   1      -1.607   0.206   0.634  0.00  0.00     0.003 A 
ENDROOT
TORSDOF 0
ENDMDL
