MODEL 1
REMARK minimizedAffinity -4.81925344
REMARK minimizedRMSD -1
REMARK  0 active torsions:
REMARK  status: ('A' for Active; 'I' for Inactive)
ROOT
ATOM      1  C2' OXE d   1      -3.467   0.158   1.787  0.00  0.00     0.078 C 
ATOM      2  C1' OXE d   1      -3.011  -2.611   1.729  0.00  0.00     0.078 C 
ATOM      3  C1  OXE d   1      -1.930  -1.709   1.190  0.00  0.00    -0.078 A 
ATOM      4  C2  OXE d   1      -2.180  -0.358   1.180  0.00  0.00    -0.078 A 
ATOM      5  C3  OXE d   1      -1.194   0.523   0.744  0.00  0.00     0.003 A 
ATOM      6  C4  OXE d   1      -0.011   0.037   0.175  0.00  0.00    -0.002 A 
ATOM      7  C5  OXE d   1       0.247  -1.337   0.139  0.00  0.00    -0.002 A 
ATOM      8  C6  OXE d   1      -0.681  -2.220   0.680  0.00  0.00     0.003 A 
ENDROOT
TORSDOF 0
ENDMDL
