MODEL 1
REMARK minimizedAffinity -1.59962511
REMARK minimizedRMSD -1
REMARK  0 active torsions:
REMARK  status: ('A' for Active; 'I' for Inactive)
ROOT
ATOM      1  C2' OXE d   1       0.480  -1.066  -1.613  0.00  0.00     0.078 C 
ATOM      2  C1' OXE d   1       1.116   1.658  -1.845  0.00  0.00     0.078 C 
ATOM      3  C1  OXE d   1       0.130   1.254  -0.777  0.00  0.00    -0.078 A 
ATOM      4  C2  OXE d   1      -0.211  -0.075  -0.701  0.00  0.00    -0.078 A 
ATOM      5  C3  OXE d   1      -1.074  -0.509   0.301  0.00  0.00     0.003 A 
ATOM      6  C4  OXE d   1      -1.716   0.415   1.133  0.00  0.00    -0.002 A 
ATOM      7  C5  OXE d   1      -1.414   1.778   1.046  0.00  0.00    -0.002 A 
ATOM      8  C6  OXE d   1      -0.463   2.208   0.127  0.00  0.00     0.003 A 
ENDROOT
TORSDOF 0
ENDMDL
