MODEL 1
REMARK minimizedAffinity -4.10697699
REMARK minimizedRMSD -1
REMARK  0 active torsions:
REMARK  status: ('A' for Active; 'I' for Inactive)
ROOT
ATOM      1  C2' OXE d   1      -1.271  -2.162   0.875  0.00  0.00     0.078 C 
ATOM      2  C1' OXE d   1      -2.503   0.359   0.798  0.00  0.00     0.078 C 
ATOM      3  C1  OXE d   1      -1.037   0.281   0.452  0.00  0.00    -0.078 A 
ATOM      4  C2  OXE d   1      -0.431  -0.950   0.538  0.00  0.00    -0.078 A 
ATOM      5  C3  OXE d   1       0.906  -1.087   0.176  0.00  0.00     0.003 A 
ATOM      6  C4  OXE d   1       1.678   0.041  -0.125  0.00  0.00    -0.002 A 
ATOM      7  C5  OXE d   1       1.091   1.310  -0.180  0.00  0.00    -0.002 A 
ATOM      8  C6  OXE d   1      -0.272   1.441   0.064  0.00  0.00     0.003 A 
ENDROOT
TORSDOF 0
ENDMDL
