MODEL 1
REMARK minimizedAffinity -0.881375492
REMARK minimizedRMSD -1
REMARK  0 active torsions:
REMARK  status: ('A' for Active; 'I' for Inactive)
ROOT
ATOM      1  C2' OXE d   1      -0.673  -2.305   1.585  0.00  0.00     0.078 C 
ATOM      2  C1' OXE d   1       1.930  -1.535   0.869  0.00  0.00     0.078 C 
ATOM      3  C1  OXE d   1       0.808  -0.567   0.588  0.00  0.00    -0.078 A 
ATOM      4  C2  OXE d   1      -0.468  -0.971   0.899  0.00  0.00    -0.078 A 
ATOM      5  C3  OXE d   1      -1.534  -0.095   0.711  0.00  0.00     0.003 A 
ATOM      6  C4  OXE d   1      -1.337   1.132   0.067  0.00  0.00    -0.002 A 
ATOM      7  C5  OXE d   1      -0.051   1.546  -0.294  0.00  0.00    -0.002 A 
ATOM      8  C6  OXE d   1       1.036   0.728  -0.002  0.00  0.00     0.003 A 
ENDROOT
TORSDOF 0
ENDMDL
