MODEL 1
REMARK minimizedAffinity -5.46473551
REMARK minimizedRMSD -1
REMARK  0 active torsions:
REMARK  status: ('A' for Active; 'I' for Inactive)
ROOT
ATOM      1  C2' OXE d   1       0.344   0.710  -0.587  0.00  0.00     0.078 C 
ATOM      2  C1' OXE d   1       1.622  -1.742  -0.103  0.00  0.00     0.078 C 
ATOM      3  C1  OXE d   1       0.230  -1.554   0.445  0.00  0.00    -0.078 A 
ATOM      4  C2  OXE d   1      -0.370  -0.335   0.243  0.00  0.00    -0.078 A 
ATOM      5  C3  OXE d   1      -1.675  -0.127   0.681  0.00  0.00     0.003 A 
ATOM      6  C4  OXE d   1      -2.324  -1.095   1.457  0.00  0.00    -0.002 A 
ATOM      7  C5  OXE d   1      -1.716  -2.329   1.708  0.00  0.00    -0.002 A 
ATOM      8  C6  OXE d   1      -0.459  -2.591   1.174  0.00  0.00     0.003 A 
ENDROOT
TORSDOF 0
ENDMDL
