MODEL 1
REMARK minimizedAffinity 0.0460166372
REMARK minimizedRMSD -1
REMARK  0 active torsions:
REMARK  status: ('A' for Active; 'I' for Inactive)
ROOT
ATOM      1  C2' OXE d   1       0.667  -1.494  -0.017  0.00  0.00     0.078 C 
ATOM      2  C1' OXE d   1      -1.698  -2.828   0.695  0.00  0.00     0.078 C 
ATOM      3  C1  OXE d   1      -1.758  -1.330   0.526  0.00  0.00    -0.078 A 
ATOM      4  C2  OXE d   1      -0.586  -0.680   0.223  0.00  0.00    -0.078 A 
ATOM      5  C3  OXE d   1      -0.597   0.694   0.002  0.00  0.00     0.003 A 
ATOM      6  C4  OXE d   1      -1.759   1.440   0.236  0.00  0.00    -0.002 A 
ATOM      7  C5  OXE d   1      -2.954   0.803   0.584  0.00  0.00    -0.002 A 
ATOM      8  C6  OXE d   1      -2.981  -0.583   0.691  0.00  0.00     0.003 A 
ENDROOT
TORSDOF 0
ENDMDL
