MODEL 1
REMARK minimizedAffinity -5.16883183
REMARK minimizedRMSD -1
REMARK  0 active torsions:
REMARK  status: ('A' for Active; 'I' for Inactive)
ROOT
ATOM      1  C2' OXE d   1      -1.400   1.124   0.938  0.00  0.00     0.078 C 
ATOM      2  C1' OXE d   1       0.419   0.546  -1.121  0.00  0.00     0.078 C 
ATOM      3  C1  OXE d   1      -0.227  -0.615  -0.407  0.00  0.00    -0.078 A 
ATOM      4  C2  OXE d   1      -1.081  -0.323   0.630  0.00  0.00    -0.078 A 
ATOM      5  C3  OXE d   1      -1.746  -1.355   1.285  0.00  0.00     0.003 A 
ATOM      6  C4  OXE d   1      -1.438  -2.691   1.001  0.00  0.00    -0.002 A 
ATOM      7  C5  OXE d   1      -0.542  -3.010  -0.025  0.00  0.00    -0.002 A 
ATOM      8  C6  OXE d   1       0.038  -1.986  -0.766  0.00  0.00     0.003 A 
ENDROOT
TORSDOF 0
ENDMDL
