MODEL 1
REMARK minimizedAffinity -4.60079527
REMARK minimizedRMSD -1
REMARK  0 active torsions:
REMARK  status: ('A' for Active; 'I' for Inactive)
ROOT
ATOM      1  C2' OXE d   1       0.361   1.555  -0.400  0.00  0.00     0.078 C 
ATOM      2  C1' OXE d   1      -2.134   1.279   0.858  0.00  0.00     0.078 C 
ATOM      3  C1  OXE d   1      -1.280   0.044   0.709  0.00  0.00    -0.078 A 
ATOM      4  C2  OXE d   1      -0.081   0.180   0.051  0.00  0.00    -0.078 A 
ATOM      5  C3  OXE d   1       0.769  -0.916  -0.065  0.00  0.00     0.003 A 
ATOM      6  C4  OXE d   1       0.348  -2.186   0.346  0.00  0.00    -0.002 A 
ATOM      7  C5  OXE d   1      -0.886  -2.354   0.983  0.00  0.00    -0.002 A 
ATOM      8  C6  OXE d   1      -1.692  -1.244   1.210  0.00  0.00     0.003 A 
ENDROOT
TORSDOF 0
ENDMDL
