MODEL 1
REMARK minimizedAffinity -4.31877851
REMARK minimizedRMSD -1
REMARK  0 active torsions:
REMARK  status: ('A' for Active; 'I' for Inactive)
ROOT
ATOM      1  C2' OXE d   1      -0.467   2.173   0.471  0.00  0.00     0.078 C 
ATOM      2  C1' OXE d   1      -0.038  -0.566   0.028  0.00  0.00     0.078 C 
ATOM      3  C1  OXE d   1       0.337   0.393  -1.075  0.00  0.00    -0.078 A 
ATOM      4  C2  OXE d   1       0.080   1.727  -0.868  0.00  0.00    -0.078 A 
ATOM      5  C3  OXE d   1       0.457   2.659  -1.830  0.00  0.00     0.003 A 
ATOM      6  C4  OXE d   1       0.954   2.237  -3.069  0.00  0.00    -0.002 A 
ATOM      7  C5  OXE d   1       1.186   0.880  -3.316  0.00  0.00    -0.002 A 
ATOM      8  C6  OXE d   1       0.924  -0.049  -2.316  0.00  0.00     0.003 A 
ENDROOT
TORSDOF 0
ENDMDL
