MODEL 1
REMARK minimizedAffinity -3.92425871
REMARK minimizedRMSD -1
REMARK  0 active torsions:
REMARK  status: ('A' for Active; 'I' for Inactive)
ROOT
ATOM      1  C2' OXE d   1       0.503   0.275  -0.562  0.00  0.00     0.078 C 
ATOM      2  C1' OXE d   1      -2.037   0.595   0.589  0.00  0.00     0.078 C 
ATOM      3  C1  OXE d   1      -1.421  -0.781   0.616  0.00  0.00    -0.078 A 
ATOM      4  C2  OXE d   1      -0.199  -0.938   0.009  0.00  0.00    -0.078 A 
ATOM      5  C3  OXE d   1       0.439  -2.175   0.053  0.00  0.00     0.003 A 
ATOM      6  C4  OXE d   1      -0.221  -3.295   0.574  0.00  0.00    -0.002 A 
ATOM      7  C5  OXE d   1      -1.484  -3.165   1.161  0.00  0.00    -0.002 A 
ATOM      8  C6  OXE d   1      -2.078  -1.909   1.228  0.00  0.00     0.003 A 
ENDROOT
TORSDOF 0
ENDMDL
