MODEL 1
REMARK minimizedAffinity -3.1510067
REMARK minimizedRMSD -1
REMARK  0 active torsions:
REMARK  status: ('A' for Active; 'I' for Inactive)
ROOT
ATOM      1  C2' OXE d   1      -2.917   0.411   1.085  0.00  0.00     0.078 C 
ATOM      2  C1' OXE d   1      -2.165  -2.286   0.880  0.00  0.00     0.078 C 
ATOM      3  C1  OXE d   1      -1.091  -1.241   0.711  0.00  0.00    -0.078 A 
ATOM      4  C2  OXE d   1      -1.476   0.076   0.766  0.00  0.00    -0.078 A 
ATOM      5  C3  OXE d   1      -0.515   1.080   0.671  0.00  0.00     0.003 A 
ATOM      6  C4  OXE d   1       0.814   0.762   0.367  0.00  0.00    -0.002 A 
ATOM      7  C5  OXE d   1       1.220  -0.573   0.267  0.00  0.00    -0.002 A 
ATOM      8  C6  OXE d   1       0.290  -1.585   0.478  0.00  0.00     0.003 A 
ENDROOT
TORSDOF 0
ENDMDL
