MODEL 1
REMARK minimizedAffinity -5.27949095
REMARK minimizedRMSD -1
REMARK  0 active torsions:
REMARK  status: ('A' for Active; 'I' for Inactive)
ROOT
ATOM      1  C2' OXE d   1       0.410   1.921   0.385  0.00  0.00     0.078 C 
ATOM      2  C1' OXE d   1      -2.124   1.044   1.218  0.00  0.00     0.078 C 
ATOM      3  C1  OXE d   1      -1.086  -0.003   0.899  0.00  0.00    -0.078 A 
ATOM      4  C2  OXE d   1       0.136   0.434   0.447  0.00  0.00    -0.078 A 
ATOM      5  C3  OXE d   1       1.146  -0.488   0.190  0.00  0.00     0.003 A 
ATOM      6  C4  OXE d   1       0.881  -1.862   0.241  0.00  0.00    -0.002 A 
ATOM      7  C5  OXE d   1      -0.369  -2.329   0.661  0.00  0.00    -0.002 A 
ATOM      8  C6  OXE d   1      -1.348  -1.415   1.033  0.00  0.00     0.003 A 
ENDROOT
TORSDOF 0
ENDMDL
