MODEL 1
REMARK minimizedAffinity -6.18537903
REMARK minimizedRMSD -1
REMARK  0 active torsions:
REMARK  status: ('A' for Active; 'I' for Inactive)
ROOT
ATOM      1  C2' OXE d   1       1.052   0.849  -0.388  0.00  0.00     0.078 C 
ATOM      2  C1' OXE d   1       2.274  -1.624   0.131  0.00  0.00     0.078 C 
ATOM      3  C1  OXE d   1       0.791  -1.507   0.376  0.00  0.00    -0.078 A 
ATOM      4  C2  OXE d   1       0.210  -0.280   0.164  0.00  0.00    -0.078 A 
ATOM      5  C3  OXE d   1      -1.165  -0.132   0.322  0.00  0.00     0.003 A 
ATOM      6  C4  OXE d   1      -1.936  -1.179   0.842  0.00  0.00    -0.002 A 
ATOM      7  C5  OXE d   1      -1.357  -2.425   1.103  0.00  0.00    -0.002 A 
ATOM      8  C6  OXE d   1      -0.006  -2.618   0.835  0.00  0.00     0.003 A 
ENDROOT
TORSDOF 0
ENDMDL
