MODEL 1
REMARK minimizedAffinity -4.5770216
REMARK minimizedRMSD -1
REMARK  0 active torsions:
REMARK  status: ('A' for Active; 'I' for Inactive)
ROOT
ATOM      1  C2' OXE d   1       0.860   1.229  -0.115  0.00  0.00     0.078 C 
ATOM      2  C1' OXE d   1      -1.743   1.639   0.851  0.00  0.00     0.078 C 
ATOM      3  C1  OXE d   1      -1.228   0.223   0.798  0.00  0.00    -0.078 A 
ATOM      4  C2  OXE d   1       0.030   0.027   0.280  0.00  0.00    -0.078 A 
ATOM      5  C3  OXE d   1       0.575  -1.254   0.259  0.00  0.00     0.003 A 
ATOM      6  C4  OXE d   1      -0.203  -2.361   0.617  0.00  0.00    -0.002 A 
ATOM      7  C5  OXE d   1      -1.501  -2.188   1.110  0.00  0.00    -0.002 A 
ATOM      8  C6  OXE d   1      -2.012  -0.902   1.246  0.00  0.00     0.003 A 
ENDROOT
TORSDOF 0
ENDMDL
