MODEL 1
REMARK minimizedAffinity -1.27399302
REMARK minimizedRMSD -1
REMARK  0 active torsions:
REMARK  status: ('A' for Active; 'I' for Inactive)
ROOT
ATOM      1  C2' OXE d   1       1.075   1.096  -0.640  0.00  0.00     0.078 C 
ATOM      2  C1' OXE d   1      -1.288   1.166   0.873  0.00  0.00     0.078 C 
ATOM      3  C1  OXE d   1      -0.532  -0.138   0.809  0.00  0.00    -0.078 A 
ATOM      4  C2  OXE d   1       0.598  -0.175   0.028  0.00  0.00    -0.078 A 
ATOM      5  C3  OXE d   1       1.362  -1.337  -0.023  0.00  0.00     0.003 A 
ATOM      6  C4  OXE d   1       0.909  -2.512   0.589  0.00  0.00    -0.002 A 
ATOM      7  C5  OXE d   1      -0.261  -2.506   1.357  0.00  0.00    -0.002 A 
ATOM      8  C6  OXE d   1      -0.969  -1.319   1.511  0.00  0.00     0.003 A 
ENDROOT
TORSDOF 0
ENDMDL
