MODEL 1
REMARK minimizedAffinity -5.47634459
REMARK minimizedRMSD -1
REMARK  0 active torsions:
REMARK  status: ('A' for Active; 'I' for Inactive)
ROOT
ATOM      1  C   UNL d   1      -0.363  -3.464  -0.305  0.00  0.00     0.020 A 
ATOM      2  C1  UNL d   1       0.302  -3.064  -1.463  0.00  0.00     0.020 A 
ATOM      3  C2  UNL d   1       0.476  -1.705  -1.734  0.00  0.00     0.034 A 
ATOM      4  C3  UNL d   1      -0.017  -0.741  -0.847  0.00  0.00     0.017 A 
ATOM      5  C4  UNL d   1      -0.684  -1.144   0.316  0.00  0.00     0.017 A 
ATOM      6  C5  UNL d   1      -0.855  -2.506   0.583  0.00  0.00     0.034 A 
ATOM      7 Cl   UNL d   1      -1.319  -0.014   1.459  0.00  0.00    -0.070 Cl
ATOM      8 Cl1  UNL d   1       0.234   0.921  -1.245  0.00  0.00    -0.070 Cl
ENDROOT
TORSDOF 0
ENDMDL
