MODEL 1
REMARK minimizedAffinity -1.59417701
REMARK minimizedRMSD -1
REMARK  0 active torsions:
REMARK  status: ('A' for Active; 'I' for Inactive)
ROOT
ATOM      1  C   UNL d   1       0.429  -0.287   1.157  0.00  0.00     0.020 A 
ATOM      2  C1  UNL d   1      -0.848   0.217   1.401  0.00  0.00     0.020 A 
ATOM      3  C2  UNL d   1      -1.969  -0.584   1.175  0.00  0.00     0.034 A 
ATOM      4  C3  UNL d   1      -1.816  -1.893   0.704  0.00  0.00     0.017 A 
ATOM      5  C4  UNL d   1      -0.534  -2.398   0.459  0.00  0.00     0.017 A 
ATOM      6  C5  UNL d   1       0.585  -1.592   0.687  0.00  0.00     0.034 A 
ATOM      7 Cl   UNL d   1      -0.266  -4.003  -0.124  0.00  0.00    -0.070 Cl
ATOM      8 Cl1  UNL d   1      -3.247  -2.827   0.447  0.00  0.00    -0.070 Cl
ENDROOT
TORSDOF 0
ENDMDL
