MODEL 1
REMARK minimizedAffinity -3.71521425
REMARK minimizedRMSD -1
REMARK  0 active torsions:
REMARK  status: ('A' for Active; 'I' for Inactive)
ROOT
ATOM      1  C   UNL d   1       0.052  -1.516  -1.371  0.00  0.00     0.020 A 
ATOM      2  C1  UNL d   1       0.248  -0.504  -2.310  0.00  0.00     0.020 A 
ATOM      3  C2  UNL d   1       0.246   0.833  -1.907  0.00  0.00     0.034 A 
ATOM      4  C3  UNL d   1       0.047   1.162  -0.561  0.00  0.00     0.017 A 
ATOM      5  C4  UNL d   1      -0.149   0.146   0.381  0.00  0.00     0.017 A 
ATOM      6  C5  UNL d   1      -0.146  -1.192  -0.028  0.00  0.00     0.034 A 
ATOM      7 Cl   UNL d   1      -0.401   0.474   2.059  0.00  0.00    -0.070 Cl
ATOM      8 Cl1  UNL d   1       0.057   2.836  -0.134  0.00  0.00    -0.070 Cl
ENDROOT
TORSDOF 0
ENDMDL
