MODEL 1
REMARK minimizedAffinity -3.48000526
REMARK minimizedRMSD -1
REMARK  0 active torsions:
REMARK  status: ('A' for Active; 'I' for Inactive)
ROOT
ATOM      1  C   UNL d   1      -0.747  -1.652   1.981  0.00  0.00     0.020 A 
ATOM      2  C1  UNL d   1      -0.593  -2.724   1.103  0.00  0.00     0.020 A 
ATOM      3  C2  UNL d   1      -0.121  -2.504  -0.192  0.00  0.00     0.034 A 
ATOM      4  C3  UNL d   1       0.198  -1.208  -0.614  0.00  0.00     0.017 A 
ATOM      5  C4  UNL d   1       0.043  -0.132   0.268  0.00  0.00     0.017 A 
ATOM      6  C5  UNL d   1      -0.429  -0.359   1.564  0.00  0.00     0.034 A 
ATOM      7 Cl   UNL d   1       0.417   1.495  -0.180  0.00  0.00    -0.070 Cl
ATOM      8 Cl1  UNL d   1       0.777  -1.009  -2.230  0.00  0.00    -0.070 Cl
ENDROOT
TORSDOF 0
ENDMDL
