MODEL 1
REMARK minimizedAffinity -4.6955905
REMARK minimizedRMSD -1
REMARK  0 active torsions:
REMARK  status: ('A' for Active; 'I' for Inactive)
ROOT
ATOM      1  C   UNL d   1      -0.215   1.027   0.124  0.00  0.00     0.020 A 
ATOM      2  C1  UNL d   1      -0.702   0.282   1.197  0.00  0.00     0.020 A 
ATOM      3  C2  UNL d   1      -0.686  -1.113   1.144  0.00  0.00     0.034 A 
ATOM      4  C3  UNL d   1      -0.181  -1.768   0.015  0.00  0.00     0.017 A 
ATOM      5  C4  UNL d   1       0.308  -1.020  -1.062  0.00  0.00     0.017 A 
ATOM      6  C5  UNL d   1       0.290   0.377  -1.003  0.00  0.00     0.034 A 
ATOM      7 Cl   UNL d   1       0.947  -1.758  -2.489  0.00  0.00    -0.070 Cl
ATOM      8 Cl1  UNL d   1      -0.191  -3.496   0.018  0.00  0.00    -0.070 Cl
ENDROOT
TORSDOF 0
ENDMDL
