MODEL 1
REMARK minimizedAffinity -3.30148935
REMARK minimizedRMSD -1
REMARK  0 active torsions:
REMARK  status: ('A' for Active; 'I' for Inactive)
ROOT
ATOM      1  C   UNL d   1       0.496   0.989  -0.534  0.00  0.00     0.020 A 
ATOM      2  C1  UNL d   1       1.108  -0.130  -1.098  0.00  0.00     0.020 A 
ATOM      3  C2  UNL d   1       0.832  -1.404  -0.596  0.00  0.00     0.034 A 
ATOM      4  C3  UNL d   1      -0.057  -1.562   0.473  0.00  0.00     0.017 A 
ATOM      5  C4  UNL d   1      -0.670  -0.438   1.039  0.00  0.00     0.017 A 
ATOM      6  C5  UNL d   1      -0.391   0.835   0.532  0.00  0.00     0.034 A 
ATOM      7 Cl   UNL d   1      -1.779  -0.554   2.360  0.00  0.00    -0.070 Cl
ATOM      8 Cl1  UNL d   1      -0.352  -3.166   1.042  0.00  0.00    -0.070 Cl
ENDROOT
TORSDOF 0
ENDMDL
