MODEL 1
REMARK minimizedAffinity -2.94870019
REMARK minimizedRMSD -1
REMARK  0 active torsions:
REMARK  status: ('A' for Active; 'I' for Inactive)
ROOT
ATOM      1  C   UNL d   1      -0.200   1.247  -0.239  0.00  0.00     0.020 A 
ATOM      2  C1  UNL d   1      -0.562   0.578   0.929  0.00  0.00     0.020 A 
ATOM      3  C2  UNL d   1      -0.489  -0.815   0.988  0.00  0.00     0.034 A 
ATOM      4  C3  UNL d   1      -0.051  -1.544  -0.123  0.00  0.00     0.017 A 
ATOM      5  C4  UNL d   1       0.313  -0.872  -1.296  0.00  0.00     0.017 A 
ATOM      6  C5  UNL d   1       0.237   0.523  -1.349  0.00  0.00     0.034 A 
ATOM      7 Cl   UNL d   1       0.862  -1.703  -2.708  0.00  0.00    -0.070 Cl
ATOM      8 Cl1  UNL d   1       0.015  -3.265   0.020  0.00  0.00    -0.070 Cl
ENDROOT
TORSDOF 0
ENDMDL
