MODEL 1
REMARK minimizedAffinity -4.63400126
REMARK minimizedRMSD -1
REMARK  0 active torsions:
REMARK  status: ('A' for Active; 'I' for Inactive)
ROOT
ATOM      1  C   UNL d   1      -0.347  -2.956   0.576  0.00  0.00     0.020 A 
ATOM      2  C1  UNL d   1       0.411  -2.437  -0.473  0.00  0.00     0.020 A 
ATOM      3  C2  UNL d   1       0.454  -1.057  -0.686  0.00  0.00     0.034 A 
ATOM      4  C3  UNL d   1      -0.261  -0.193   0.150  0.00  0.00     0.017 A 
ATOM      5  C4  UNL d   1      -1.022  -0.715   1.202  0.00  0.00     0.017 A 
ATOM      6  C5  UNL d   1      -1.062  -2.097   1.412  0.00  0.00     0.034 A 
ATOM      7 Cl   UNL d   1      -1.931   0.289   2.276  0.00  0.00    -0.070 Cl
ATOM      8 Cl1  UNL d   1      -0.162   1.502  -0.172  0.00  0.00    -0.070 Cl
ENDROOT
TORSDOF 0
ENDMDL
