MODEL 1
REMARK minimizedAffinity -0.904870272
REMARK minimizedRMSD -1
REMARK  0 active torsions:
REMARK  status: ('A' for Active; 'I' for Inactive)
ROOT
ATOM      1  C   UNL d   1      -0.836   0.387   0.237  0.00  0.00     0.020 A 
ATOM      2  C1  UNL d   1       0.349  -0.214   0.659  0.00  0.00     0.020 A 
ATOM      3  C2  UNL d   1       1.474   0.571   0.921  0.00  0.00     0.034 A 
ATOM      4  C3  UNL d   1       1.417   1.960   0.761  0.00  0.00     0.017 A 
ATOM      5  C4  UNL d   1       0.226   2.562   0.336  0.00  0.00     0.017 A 
ATOM      6  C5  UNL d   1      -0.897   1.771   0.076  0.00  0.00     0.034 A 
ATOM      7 Cl   UNL d   1       0.078   4.270   0.116  0.00  0.00    -0.070 Cl
ATOM      8 Cl1  UNL d   1       2.846   2.868   1.103  0.00  0.00    -0.070 Cl
ENDROOT
TORSDOF 0
ENDMDL
