MODEL 1
REMARK minimizedAffinity -3.25580525
REMARK minimizedRMSD -1
REMARK  0 active torsions:
REMARK  status: ('A' for Active; 'I' for Inactive)
ROOT
ATOM      1  C   UNL d   1      -0.805  -2.232   1.701  0.00  0.00     0.020 A 
ATOM      2  C1  UNL d   1      -0.931  -0.920   2.156  0.00  0.00     0.020 A 
ATOM      3  C2  UNL d   1      -0.797   0.145   1.262  0.00  0.00     0.034 A 
ATOM      4  C3  UNL d   1      -0.535  -0.101  -0.091  0.00  0.00     0.017 A 
ATOM      5  C4  UNL d   1      -0.409  -1.419  -0.546  0.00  0.00     0.017 A 
ATOM      6  C5  UNL d   1      -0.545  -2.481   0.353  0.00  0.00     0.034 A 
ATOM      7 Cl   UNL d   1      -0.087  -1.801  -2.201  0.00  0.00    -0.070 Cl
ATOM      8 Cl1  UNL d   1      -0.382   1.263  -1.141  0.00  0.00    -0.070 Cl
ENDROOT
TORSDOF 0
ENDMDL
