MODEL 1
REMARK minimizedAffinity -5.76335573
REMARK minimizedRMSD -1
REMARK  0 active torsions:
REMARK  status: ('A' for Active; 'I' for Inactive)
ROOT
ATOM      1  C   UNL d   1      -0.045  -3.003  -1.466  0.00  0.00     0.020 A 
ATOM      2  C1  UNL d   1       0.297  -1.953  -2.317  0.00  0.00     0.020 A 
ATOM      3  C2  UNL d   1       0.169  -0.632  -1.882  0.00  0.00     0.034 A 
ATOM      4  C3  UNL d   1      -0.302  -0.358  -0.593  0.00  0.00     0.017 A 
ATOM      5  C4  UNL d   1      -0.646  -1.413   0.260  0.00  0.00     0.017 A 
ATOM      6  C5  UNL d   1      -0.516  -2.733  -0.180  0.00  0.00     0.034 A 
ATOM      7 Cl   UNL d   1      -1.235  -1.153   1.864  0.00  0.00    -0.070 Cl
ATOM      8 Cl1  UNL d   1      -0.435   1.299  -0.122  0.00  0.00    -0.070 Cl
ENDROOT
TORSDOF 0
ENDMDL
