MODEL 1
REMARK minimizedAffinity -4.7069273
REMARK minimizedRMSD -1
REMARK  0 active torsions:
REMARK  status: ('A' for Active; 'I' for Inactive)
ROOT
ATOM      1  C   UNL d   1      -0.280   1.391  -0.065  0.00  0.00     0.020 A 
ATOM      2  C1  UNL d   1      -0.858   0.792   1.054  0.00  0.00     0.020 A 
ATOM      3  C2  UNL d   1      -0.942  -0.600   1.135  0.00  0.00     0.034 A 
ATOM      4  C3  UNL d   1      -0.448  -1.397   0.096  0.00  0.00     0.017 A 
ATOM      5  C4  UNL d   1       0.132  -0.795  -1.026  0.00  0.00     0.017 A 
ATOM      6  C5  UNL d   1       0.214   0.599  -1.103  0.00  0.00     0.034 A 
ATOM      7 Cl   UNL d   1       0.764  -1.712  -2.348  0.00  0.00    -0.070 Cl
ATOM      8 Cl1  UNL d   1      -0.585  -3.111   0.264  0.00  0.00    -0.070 Cl
ENDROOT
TORSDOF 0
ENDMDL
