MODEL 1
REMARK minimizedAffinity -3.55161619
REMARK minimizedRMSD -1
REMARK  0 active torsions:
REMARK  status: ('A' for Active; 'I' for Inactive)
ROOT
ATOM      1  C   UNL d   1      -0.378  -2.962   0.293  0.00  0.00     0.020 A 
ATOM      2  C1  UNL d   1       0.707  -2.448  -0.415  0.00  0.00     0.020 A 
ATOM      3  C2  UNL d   1       0.897  -1.067  -0.495  0.00  0.00     0.034 A 
ATOM      4  C3  UNL d   1       0.000  -0.195   0.134  0.00  0.00     0.017 A 
ATOM      5  C4  UNL d   1      -1.089  -0.713   0.845  0.00  0.00     0.017 A 
ATOM      6  C5  UNL d   1      -1.274  -2.097   0.922  0.00  0.00     0.034 A 
ATOM      7 Cl   UNL d   1      -2.237   0.299   1.647  0.00  0.00    -0.070 Cl
ATOM      8 Cl1  UNL d   1       0.296   1.501  -0.006  0.00  0.00    -0.070 Cl
ENDROOT
TORSDOF 0
ENDMDL
