MODEL 1
REMARK minimizedAffinity -4.47938681
REMARK minimizedRMSD -1
REMARK  0 active torsions:
REMARK  status: ('A' for Active; 'I' for Inactive)
ROOT
ATOM      1  C   UNL d   1      -1.045   0.214   1.302  0.00  0.00     0.020 A 
ATOM      2  C1  UNL d   1      -0.595   0.969   0.220  0.00  0.00     0.020 A 
ATOM      3  C2  UNL d   1       0.066   0.345  -0.840  0.00  0.00     0.034 A 
ATOM      4  C3  UNL d   1       0.279  -1.038  -0.820  0.00  0.00     0.017 A 
ATOM      5  C4  UNL d   1      -0.174  -1.796   0.266  0.00  0.00     0.017 A 
ATOM      6  C5  UNL d   1      -0.835  -1.166   1.325  0.00  0.00     0.034 A 
ATOM      7 Cl   UNL d   1       0.051  -3.507   0.361  0.00  0.00    -0.070 Cl
ATOM      8 Cl1  UNL d   1       1.103  -1.744  -2.165  0.00  0.00    -0.070 Cl
ENDROOT
TORSDOF 0
ENDMDL
