MODEL 1
REMARK minimizedAffinity -3.11563325
REMARK minimizedRMSD -1
REMARK  0 active torsions:
REMARK  status: ('A' for Active; 'I' for Inactive)
ROOT
ATOM      1  C   UNL d   1      -0.092  -2.545   0.724  0.00  0.00     0.020 A 
ATOM      2  C1  UNL d   1      -0.197  -1.569   1.714  0.00  0.00     0.020 A 
ATOM      3  C2  UNL d   1      -0.099  -0.218   1.377  0.00  0.00     0.034 A 
ATOM      4  C3  UNL d   1       0.104   0.162   0.045  0.00  0.00     0.017 A 
ATOM      5  C4  UNL d   1       0.209  -0.817  -0.949  0.00  0.00     0.017 A 
ATOM      6  C5  UNL d   1       0.111  -2.169  -0.605  0.00  0.00     0.034 A 
ATOM      7 Cl   UNL d   1       0.460  -0.426  -2.613  0.00  0.00    -0.070 Cl
ATOM      8 Cl1  UNL d   1       0.216   1.852  -0.300  0.00  0.00    -0.070 Cl
ENDROOT
TORSDOF 0
ENDMDL
