MODEL 1
REMARK minimizedAffinity -4.65864372
REMARK minimizedRMSD -1
REMARK  0 active torsions:
REMARK  status: ('A' for Active; 'I' for Inactive)
ROOT
ATOM      1  C   UNL d   1       0.608  -2.511  -1.010  0.00  0.00     0.020 A 
ATOM      2  C1  UNL d   1       0.018  -3.120   0.096  0.00  0.00     0.020 A 
ATOM      3  C2  UNL d   1      -0.689  -2.350   1.023  0.00  0.00     0.034 A 
ATOM      4  C3  UNL d   1      -0.808  -0.967   0.844  0.00  0.00     0.017 A 
ATOM      5  C4  UNL d   1      -0.215  -0.357  -0.267  0.00  0.00     0.017 A 
ATOM      6  C5  UNL d   1       0.492  -1.132  -1.191  0.00  0.00     0.034 A 
ATOM      7 Cl   UNL d   1      -0.318   1.344  -0.555  0.00  0.00    -0.070 Cl
ATOM      8 Cl1  UNL d   1      -1.697  -0.078   2.029  0.00  0.00    -0.070 Cl
ENDROOT
TORSDOF 0
ENDMDL
