MODEL 1
REMARK minimizedAffinity -2.5178709
REMARK minimizedRMSD -1
REMARK  0 active torsions:
REMARK  status: ('A' for Active; 'I' for Inactive)
ROOT
ATOM      1  C   UNL d   1       1.640  -0.058   1.156  0.00  0.00     0.077 C 
ATOM      2  C1  UNL d   1       0.839   0.149   2.407  0.00  0.00    -0.074 A 
ATOM      3  C2  UNL d   1       0.601   1.434   2.904  0.00  0.00    -0.005 A 
ATOM      4  C3  UNL d   1      -0.153   1.612   4.064  0.00  0.00     0.006 A 
ATOM      5  C4  UNL d   1      -0.676   0.507   4.738  0.00  0.00    -0.005 A 
ATOM      6  C5  UNL d   1      -0.449  -0.786   4.256  0.00  0.00    -0.074 A 
ATOM      7  C6  UNL d   1      -1.011  -1.983   4.962  0.00  0.00     0.077 C 
ATOM      8  C7  UNL d   1       0.304  -0.955   3.086  0.00  0.00    -0.001 A 
ENDROOT
TORSDOF 0
ENDMDL
