MODEL 1
REMARK minimizedAffinity -3.02374721
REMARK minimizedRMSD -1
REMARK  0 active torsions:
REMARK  status: ('A' for Active; 'I' for Inactive)
ROOT
ATOM      1  C   UNL d   1      -0.714   1.707   3.589  0.00  0.00     0.077 C 
ATOM      2  C1  UNL d   1      -0.465   0.851   2.383  0.00  0.00    -0.074 A 
ATOM      3  C2  UNL d   1      -1.520   0.441   1.561  0.00  0.00    -0.005 A 
ATOM      4  C3  UNL d   1      -1.271  -0.346   0.437  0.00  0.00     0.006 A 
ATOM      5  C4  UNL d   1       0.034  -0.731   0.124  0.00  0.00    -0.005 A 
ATOM      6  C5  UNL d   1       1.101  -0.330   0.933  0.00  0.00    -0.074 A 
ATOM      7  C6  UNL d   1       2.510  -0.726   0.605  0.00  0.00     0.077 C 
ATOM      8  C7  UNL d   1       0.844   0.467   2.057  0.00  0.00    -0.001 A 
ENDROOT
TORSDOF 0
ENDMDL
