MODEL 1
REMARK minimizedAffinity -5.84479284
REMARK minimizedRMSD -1
REMARK  0 active torsions:
REMARK  status: ('A' for Active; 'I' for Inactive)
ROOT
ATOM      1  C   UNL d   1      -0.580   2.220   2.603  0.00  0.00     0.077 C 
ATOM      2  C1  UNL d   1      -0.485   1.137   1.570  0.00  0.00    -0.074 A 
ATOM      3  C2  UNL d   1      -1.636   0.596   0.988  0.00  0.00    -0.005 A 
ATOM      4  C3  UNL d   1      -1.531  -0.404   0.021  0.00  0.00     0.006 A 
ATOM      5  C4  UNL d   1      -0.277  -0.872  -0.373  0.00  0.00    -0.005 A 
ATOM      6  C5  UNL d   1       0.885  -0.343   0.197  0.00  0.00    -0.074 A 
ATOM      7  C6  UNL d   1       2.240  -0.828  -0.222  0.00  0.00     0.077 C 
ATOM      8  C7  UNL d   1       0.772   0.667   1.163  0.00  0.00    -0.001 A 
ENDROOT
TORSDOF 0
ENDMDL
