MODEL 1
REMARK minimizedAffinity -3.73658943
REMARK minimizedRMSD -1
REMARK  0 active torsions:
REMARK  status: ('A' for Active; 'I' for Inactive)
ROOT
ATOM      1  C   UNL d   1      -3.358  -1.421   0.111  0.00  0.00     0.077 C 
ATOM      2  C1  UNL d   1      -2.231  -0.533   0.548  0.00  0.00    -0.074 A 
ATOM      3  C2  UNL d   1      -2.456   0.542   1.414  0.00  0.00    -0.005 A 
ATOM      4  C3  UNL d   1      -1.396   1.354   1.818  0.00  0.00     0.006 A 
ATOM      5  C4  UNL d   1      -0.103   1.099   1.362  0.00  0.00    -0.005 A 
ATOM      6  C5  UNL d   1       0.142   0.028   0.496  0.00  0.00    -0.074 A 
ATOM      7  C6  UNL d   1       1.528  -0.265   0.004  0.00  0.00     0.077 C 
ATOM      8  C7  UNL d   1      -0.927  -0.787   0.100  0.00  0.00    -0.001 A 
ENDROOT
TORSDOF 0
ENDMDL
