MODEL 1
REMARK minimizedAffinity -3.54494524
REMARK minimizedRMSD -1
REMARK  0 active torsions:
REMARK  status: ('A' for Active; 'I' for Inactive)
ROOT
ATOM      1  C   UNL d   1       2.174  -0.539   3.033  0.00  0.00     0.077 C 
ATOM      2  C1  UNL d   1       1.017  -0.319   2.104  0.00  0.00    -0.074 A 
ATOM      3  C2  UNL d   1      -0.242   0.041   2.596  0.00  0.00    -0.005 A 
ATOM      4  C3  UNL d   1      -1.306   0.252   1.719  0.00  0.00     0.006 A 
ATOM      5  C4  UNL d   1      -1.122   0.106   0.344  0.00  0.00    -0.005 A 
ATOM      6  C5  UNL d   1       0.130  -0.252  -0.167  0.00  0.00    -0.074 A 
ATOM      7  C6  UNL d   1       0.346  -0.403  -1.643  0.00  0.00     0.077 C 
ATOM      8  C7  UNL d   1       1.196  -0.456   0.720  0.00  0.00    -0.001 A 
ENDROOT
TORSDOF 0
ENDMDL
