MODEL 1
REMARK minimizedAffinity -3.18994641
REMARK minimizedRMSD -1
REMARK  0 active torsions:
REMARK  status: ('A' for Active; 'I' for Inactive)
ROOT
ATOM      1  C   UNL d   1       1.078  -0.537   0.043  0.00  0.00     0.077 C 
ATOM      2  C1  UNL d   1       0.234  -0.539   1.282  0.00  0.00    -0.074 A 
ATOM      3  C2  UNL d   1      -1.027   0.065   1.294  0.00  0.00    -0.005 A 
ATOM      4  C3  UNL d   1      -1.805   0.046   2.452  0.00  0.00     0.006 A 
ATOM      5  C4  UNL d   1      -1.329  -0.574   3.608  0.00  0.00    -0.005 A 
ATOM      6  C5  UNL d   1      -0.071  -1.183   3.615  0.00  0.00    -0.074 A 
ATOM      7  C6  UNL d   1       0.451  -1.863   4.846  0.00  0.00     0.077 C 
ATOM      8  C7  UNL d   1       0.702  -1.167   2.445  0.00  0.00    -0.001 A 
ENDROOT
TORSDOF 0
ENDMDL
