MODEL 1
REMARK minimizedAffinity -0.406813681
REMARK minimizedRMSD -1
REMARK  0 active torsions:
REMARK  status: ('A' for Active; 'I' for Inactive)
ROOT
ATOM      1  C   UNL d   1      -2.037   2.660   1.044  0.00  0.00     0.124 A 
ATOM      2  C1  UNL d   1      -2.304   1.397   1.553  0.00  0.00     0.062 A 
ATOM      3  C2  UNL d   1      -1.560   0.299   1.129  0.00  0.00     0.162 A 
ATOM      4  C3  UNL d   1      -0.540   0.460   0.191  0.00  0.00    -0.034 A 
ATOM      5  C4  UNL d   1      -0.278   1.734  -0.317  0.00  0.00     0.162 A 
ATOM      6  C5  UNL d   1      -1.024   2.827   0.110  0.00  0.00     0.062 A 
ATOM      7  F   UNL d   1      -0.764   4.047  -0.383  0.00  0.00    -0.097 F 
ATOM      8  F1  UNL d   1       0.696   1.924  -1.220  0.00  0.00    -0.096 F 
ATOM      9  I   UNL d   1       0.574  -1.178  -0.446  0.00  0.00    -0.060 I 
ATOM     10  F2  UNL d   1      -1.841  -0.910   1.637  0.00  0.00    -0.096 F 
ATOM     11  F3  UNL d   1      -3.282   1.232   2.455  0.00  0.00    -0.097 F 
ATOM     12  F4  UNL d   1      -2.754   3.714   1.453  0.00  0.00    -0.092 F 
ENDROOT
TORSDOF 0
ENDMDL
