MODEL 1
REMARK minimizedAffinity -2.72797251
REMARK minimizedRMSD -1
REMARK  0 active torsions:
REMARK  status: ('A' for Active; 'I' for Inactive)
ROOT
ATOM      1  C   UNL d   1      -1.061   1.514   0.963  0.00  0.00     0.124 A 
ATOM      2  C1  UNL d   1      -0.953   0.375   1.750  0.00  0.00     0.062 A 
ATOM      3  C2  UNL d   1      -0.248  -0.732   1.287  0.00  0.00     0.162 A 
ATOM      4  C3  UNL d   1       0.355  -0.706   0.029  0.00  0.00    -0.034 A 
ATOM      5  C4  UNL d   1       0.241   0.442  -0.757  0.00  0.00     0.162 A 
ATOM      6  C5  UNL d   1      -0.464   1.546  -0.289  0.00  0.00     0.062 A 
ATOM      7  F   UNL d   1      -0.567   2.645  -1.051  0.00  0.00    -0.097 F 
ATOM      8  F1  UNL d   1       0.809   0.501  -1.971  0.00  0.00    -0.096 F 
ATOM      9  I   UNL d   1       1.409  -2.360  -0.668  0.00  0.00    -0.060 I 
ATOM     10  F2  UNL d   1      -0.160  -1.818   2.068  0.00  0.00    -0.096 F 
ATOM     11  F3  UNL d   1      -1.529   0.341   2.960  0.00  0.00    -0.097 F 
ATOM     12  F4  UNL d   1      -1.740   2.577   1.412  0.00  0.00    -0.092 F 
ENDROOT
TORSDOF 0
ENDMDL
