MODEL 1
REMARK minimizedAffinity -1.4865936
REMARK minimizedRMSD -1
REMARK  0 active torsions:
REMARK  status: ('A' for Active; 'I' for Inactive)
ROOT
ATOM      1  C   UNL d   1      -0.735   0.662   1.213  0.00  0.00     0.124 A 
ATOM      2  C1  UNL d   1      -1.491   0.856   0.065  0.00  0.00     0.062 A 
ATOM      3  C2  UNL d   1      -1.342   0.004  -1.025  0.00  0.00     0.162 A 
ATOM      4  C3  UNL d   1      -0.432  -1.053  -0.973  0.00  0.00    -0.034 A 
ATOM      5  C4  UNL d   1       0.326  -1.241   0.184  0.00  0.00     0.162 A 
ATOM      6  C5  UNL d   1       0.173  -0.386   1.271  0.00  0.00     0.062 A 
ATOM      7  F   UNL d   1       0.905  -0.576   2.379  0.00  0.00    -0.097 F 
ATOM      8  F1  UNL d   1       1.210  -2.247   0.268  0.00  0.00    -0.096 F 
ATOM      9  I   UNL d   1      -0.205  -2.330  -2.600  0.00  0.00    -0.060 I 
ATOM     10  F2  UNL d   1      -2.086   0.215  -2.121  0.00  0.00    -0.096 F 
ATOM     11  F3  UNL d   1      -2.368   1.869   0.006  0.00  0.00    -0.097 F 
ATOM     12  F4  UNL d   1      -0.880   1.484   2.259  0.00  0.00    -0.092 F 
ENDROOT
TORSDOF 0
ENDMDL
