MODEL 1
REMARK minimizedAffinity -2.46203327
REMARK minimizedRMSD -1
REMARK  0 active torsions:
REMARK  status: ('A' for Active; 'I' for Inactive)
ROOT
ATOM      1  C   UNL d   1       0.371  -1.920  -2.009  0.00  0.00     0.124 A 
ATOM      2  C1  UNL d   1      -0.911  -1.387  -1.986  0.00  0.00     0.062 A 
ATOM      3  C2  UNL d   1      -1.328  -0.615  -0.906  0.00  0.00     0.162 A 
ATOM      4  C3  UNL d   1      -0.463  -0.370   0.161  0.00  0.00    -0.034 A 
ATOM      5  C4  UNL d   1       0.824  -0.911   0.131  0.00  0.00     0.162 A 
ATOM      6  C5  UNL d   1       1.236  -1.682  -0.951  0.00  0.00     0.062 A 
ATOM      7  F   UNL d   1       2.474  -2.197  -0.971  0.00  0.00    -0.097 F 
ATOM      8  F1  UNL d   1       1.681  -0.696   1.140  0.00  0.00    -0.096 F 
ATOM      9  I   UNL d   1      -1.084   0.784   1.778  0.00  0.00    -0.060 I 
ATOM     10  F2  UNL d   1      -2.572  -0.112  -0.910  0.00  0.00    -0.096 F 
ATOM     11  F3  UNL d   1      -1.749  -1.616  -3.007  0.00  0.00    -0.097 F 
ATOM     12  F4  UNL d   1       0.769  -2.664  -3.049  0.00  0.00    -0.092 F 
ENDROOT
TORSDOF 0
ENDMDL
