MODEL 1
REMARK minimizedAffinity -4.71681118
REMARK minimizedRMSD -1
REMARK  0 active torsions:
REMARK  status: ('A' for Active; 'I' for Inactive)
ROOT
ATOM      1  C   UNL d   1      -1.873   2.632   0.690  0.00  0.00     0.124 A 
ATOM      2  C1  UNL d   1      -1.043   2.949  -0.376  0.00  0.00     0.062 A 
ATOM      3  C2  UNL d   1      -0.090   2.035  -0.818  0.00  0.00     0.162 A 
ATOM      4  C3  UNL d   1       0.036   0.794  -0.195  0.00  0.00    -0.034 A 
ATOM      5  C4  UNL d   1      -0.802   0.482   0.877  0.00  0.00     0.162 A 
ATOM      6  C5  UNL d   1      -1.752   1.399   1.315  0.00  0.00     0.062 A 
ATOM      7  F   UNL d   1      -2.554   1.090   2.345  0.00  0.00    -0.097 F 
ATOM      8  F1  UNL d   1      -0.707  -0.703   1.499  0.00  0.00    -0.096 F 
ATOM      9  I   UNL d   1       1.459  -0.575  -0.853  0.00  0.00    -0.060 I 
ATOM     10  F2  UNL d   1       0.699   2.369  -1.850  0.00  0.00    -0.096 F 
ATOM     11  F3  UNL d   1      -1.157   4.140  -0.981  0.00  0.00    -0.097 F 
ATOM     12  F4  UNL d   1      -2.788   3.513   1.114  0.00  0.00    -0.092 F 
ENDROOT
TORSDOF 0
ENDMDL
