MODEL 1
REMARK minimizedAffinity -3.47064281
REMARK minimizedRMSD -1
REMARK  0 active torsions:
REMARK  status: ('A' for Active; 'I' for Inactive)
ROOT
ATOM      1  C   UNL d   1      -0.929   2.845   1.162  0.00  0.00     0.124 A 
ATOM      2  C1  UNL d   1      -1.147   1.590   1.713  0.00  0.00     0.062 A 
ATOM      3  C2  UNL d   1      -0.578   0.461   1.131  0.00  0.00     0.162 A 
ATOM      4  C3  UNL d   1       0.216   0.582  -0.009  0.00  0.00    -0.034 A 
ATOM      5  C4  UNL d   1       0.430   1.848  -0.559  0.00  0.00     0.162 A 
ATOM      6  C5  UNL d   1      -0.140   2.973   0.027  0.00  0.00     0.062 A 
ATOM      7  F   UNL d   1       0.072   4.184  -0.507  0.00  0.00    -0.097 F 
ATOM      8  F1  UNL d   1       1.189   2.000  -1.654  0.00  0.00    -0.096 F 
ATOM      9  I   UNL d   1       1.068  -1.103  -0.883  0.00  0.00    -0.060 I 
ATOM     10  F2  UNL d   1      -0.806  -0.739   1.685  0.00  0.00    -0.096 F 
ATOM     11  F3  UNL d   1      -1.909   1.464   2.809  0.00  0.00    -0.097 F 
ATOM     12  F4  UNL d   1      -1.478   3.930   1.724  0.00  0.00    -0.092 F 
ENDROOT
TORSDOF 0
ENDMDL
