MODEL 1
REMARK minimizedAffinity 0.828736365
REMARK minimizedRMSD -1
REMARK  0 active torsions:
REMARK  status: ('A' for Active; 'I' for Inactive)
ROOT
ATOM      1  C   UNL d   1       0.667  -3.550  -2.320  0.00  0.00     0.124 A 
ATOM      2  C1  UNL d   1       1.648  -2.584  -2.146  0.00  0.00     0.062 A 
ATOM      3  C2  UNL d   1       1.438  -1.524  -1.268  0.00  0.00     0.162 A 
ATOM      4  C3  UNL d   1       0.242  -1.425  -0.557  0.00  0.00    -0.034 A 
ATOM      5  C4  UNL d   1      -0.740  -2.400  -0.738  0.00  0.00     0.162 A 
ATOM      6  C5  UNL d   1      -0.526  -3.458  -1.617  0.00  0.00     0.062 A 
ATOM      7  F   UNL d   1      -1.475  -4.390  -1.784  0.00  0.00    -0.097 F 
ATOM      8  F1  UNL d   1      -1.902  -2.336  -0.070  0.00  0.00    -0.096 F 
ATOM      9  I   UNL d   1      -0.075   0.158   0.757  0.00  0.00    -0.060 I 
ATOM     10  F2  UNL d   1       2.404  -0.605  -1.119  0.00  0.00    -0.096 F 
ATOM     11  F3  UNL d   1       2.800  -2.671  -2.825  0.00  0.00    -0.097 F 
ATOM     12  F4  UNL d   1       0.870  -4.568  -3.166  0.00  0.00    -0.092 F 
ENDROOT
TORSDOF 0
ENDMDL
