MODEL 1
REMARK minimizedAffinity -1.48581326
REMARK minimizedRMSD -1
REMARK  0 active torsions:
REMARK  status: ('A' for Active; 'I' for Inactive)
ROOT
ATOM      1  C   UNL d   1      -0.512   2.344   1.055  0.00  0.00     0.124 A 
ATOM      2  C1  UNL d   1      -0.798   1.120   1.644  0.00  0.00     0.062 A 
ATOM      3  C2  UNL d   1      -0.288  -0.055   1.099  0.00  0.00     0.162 A 
ATOM      4  C3  UNL d   1       0.514  -0.012  -0.041  0.00  0.00    -0.034 A 
ATOM      5  C4  UNL d   1       0.797   1.223  -0.628  0.00  0.00     0.162 A 
ATOM      6  C5  UNL d   1       0.285   2.394  -0.080  0.00  0.00     0.062 A 
ATOM      7  F   UNL d   1       0.563   3.576  -0.650  0.00  0.00    -0.097 F 
ATOM      8  F1  UNL d   1       1.565   1.301  -1.725  0.00  0.00    -0.096 F 
ATOM      9  I   UNL d   1       1.279  -1.766  -0.859  0.00  0.00    -0.060 I 
ATOM     10  F2  UNL d   1      -0.581  -1.224   1.688  0.00  0.00    -0.096 F 
ATOM     11  F3  UNL d   1      -1.569   1.068   2.740  0.00  0.00    -0.097 F 
ATOM     12  F4  UNL d   1      -1.004   3.473   1.581  0.00  0.00    -0.092 F 
ENDROOT
TORSDOF 0
ENDMDL
