MODEL 1
REMARK minimizedAffinity -3.40429163
REMARK minimizedRMSD -1
REMARK  0 active torsions:
REMARK  status: ('A' for Active; 'I' for Inactive)
ROOT
ATOM      1  C   UNL d   1       0.235  -2.400  -2.042  0.00  0.00     0.124 A 
ATOM      2  C1  UNL d   1      -0.924  -1.677  -2.289  0.00  0.00     0.062 A 
ATOM      3  C2  UNL d   1      -1.314  -0.661  -1.422  0.00  0.00     0.162 A 
ATOM      4  C3  UNL d   1      -0.543  -0.360  -0.299  0.00  0.00    -0.034 A 
ATOM      5  C4  UNL d   1       0.620  -1.092  -0.056  0.00  0.00     0.162 A 
ATOM      6  C5  UNL d   1       1.006  -2.107  -0.926  0.00  0.00     0.062 A 
ATOM      7  F   UNL d   1       2.125  -2.805  -0.685  0.00  0.00    -0.097 F 
ATOM      8  F1  UNL d   1       1.384  -0.830   1.015  0.00  0.00    -0.096 F 
ATOM      9  I   UNL d   1      -1.122   1.159   1.001  0.00  0.00    -0.060 I 
ATOM     10  F2  UNL d   1      -2.438   0.022  -1.686  0.00  0.00    -0.096 F 
ATOM     11  F3  UNL d   1      -1.671  -1.959  -3.367  0.00  0.00    -0.097 F 
ATOM     12  F4  UNL d   1       0.607  -3.378  -2.877  0.00  0.00    -0.092 F 
ENDROOT
TORSDOF 0
ENDMDL
