MODEL 1
REMARK minimizedAffinity -3.50384617
REMARK minimizedRMSD -1
REMARK  0 active torsions:
REMARK  status: ('A' for Active; 'I' for Inactive)
ROOT
ATOM      1  C   UNL d   1      -0.862  -0.286   1.327  0.00  0.00     0.124 A 
ATOM      2  C1  UNL d   1       0.169  -0.187   0.402  0.00  0.00     0.062 A 
ATOM      3  C2  UNL d   1       0.382   1.006  -0.282  0.00  0.00     0.162 A 
ATOM      4  C3  UNL d   1      -0.436   2.111  -0.043  0.00  0.00    -0.034 A 
ATOM      5  C4  UNL d   1      -1.470   2.003   0.888  0.00  0.00     0.162 A 
ATOM      6  C5  UNL d   1      -1.680   0.808   1.569  0.00  0.00     0.062 A 
ATOM      7  F   UNL d   1      -2.676   0.714   2.462  0.00  0.00    -0.097 F 
ATOM      8  F1  UNL d   1      -2.276   3.045   1.141  0.00  0.00    -0.096 F 
ATOM      9  I   UNL d   1      -0.120   3.897  -1.064  0.00  0.00    -0.060 I 
ATOM     10  F2  UNL d   1       1.385   1.074  -1.170  0.00  0.00    -0.096 F 
ATOM     11  F3  UNL d   1       0.960  -1.243   0.166  0.00  0.00    -0.097 F 
ATOM     12  F4  UNL d   1      -1.066  -1.436   1.983  0.00  0.00    -0.092 F 
ENDROOT
TORSDOF 0
ENDMDL
