MODEL 1
REMARK minimizedAffinity -3.72555804
REMARK minimizedRMSD -1
REMARK  0 active torsions:
REMARK  status: ('A' for Active; 'I' for Inactive)
ROOT
ATOM      1  C   UNL d   1      -1.284   2.832   0.863  0.00  0.00     0.124 A 
ATOM      2  C1  UNL d   1      -0.455   2.967  -0.242  0.00  0.00     0.062 A 
ATOM      3  C2  UNL d   1       0.262   1.873  -0.718  0.00  0.00     0.162 A 
ATOM      4  C3  UNL d   1       0.152   0.632  -0.089  0.00  0.00    -0.034 A 
ATOM      5  C4  UNL d   1      -0.683   0.504   1.022  0.00  0.00     0.162 A 
ATOM      6  C5  UNL d   1      -1.397   1.601   1.494  0.00  0.00     0.062 A 
ATOM      7  F   UNL d   1      -2.198   1.468   2.561  0.00  0.00    -0.097 F 
ATOM      8  F1  UNL d   1      -0.812  -0.674   1.650  0.00  0.00    -0.096 F 
ATOM      9  I   UNL d   1       1.222  -1.006  -0.798  0.00  0.00    -0.060 I 
ATOM     10  F2  UNL d   1       1.056   2.033  -1.787  0.00  0.00    -0.096 F 
ATOM     11  F3  UNL d   1      -0.343   4.155  -0.853  0.00  0.00    -0.097 F 
ATOM     12  F4  UNL d   1      -1.971   3.886   1.319  0.00  0.00    -0.092 F 
ENDROOT
TORSDOF 0
ENDMDL
