MODEL 1
REMARK minimizedAffinity 0.261200786
REMARK minimizedRMSD -1
REMARK  0 active torsions:
REMARK  status: ('A' for Active; 'I' for Inactive)
ROOT
ATOM      1  C   UNL d   1       1.306  -0.431  -1.063  0.00  0.00     0.124 A 
ATOM      2  C1  UNL d   1       1.107   0.900  -1.403  0.00  0.00     0.062 A 
ATOM      3  C2  UNL d   1       0.354   1.729  -0.577  0.00  0.00     0.162 A 
ATOM      4  C3  UNL d   1      -0.207   1.229   0.598  0.00  0.00    -0.034 A 
ATOM      5  C4  UNL d   1      -0.005  -0.112   0.933  0.00  0.00     0.162 A 
ATOM      6  C5  UNL d   1       0.750  -0.935   0.104  0.00  0.00     0.062 A 
ATOM      7  F   UNL d   1       0.940  -2.221   0.433  0.00  0.00    -0.097 F 
ATOM      8  F1  UNL d   1      -0.530  -0.625   2.055  0.00  0.00    -0.096 F 
ATOM      9  I   UNL d   1      -1.335   2.464   1.836  0.00  0.00    -0.060 I 
ATOM     10  F2  UNL d   1       0.178   3.011  -0.930  0.00  0.00    -0.096 F 
ATOM     11  F3  UNL d   1       1.643   1.390  -2.531  0.00  0.00    -0.097 F 
ATOM     12  F4  UNL d   1       2.031  -1.226  -1.861  0.00  0.00    -0.092 F 
ENDROOT
TORSDOF 0
ENDMDL
