MODEL 1
REMARK minimizedAffinity -3.86438131
REMARK minimizedRMSD -1
REMARK  0 active torsions:
REMARK  status: ('A' for Active; 'I' for Inactive)
ROOT
ATOM      1  C   UNL d   1      -1.408   3.187   0.582  0.00  0.00     0.124 A 
ATOM      2  C1  UNL d   1      -1.693   1.928   1.093  0.00  0.00     0.062 A 
ATOM      3  C2  UNL d   1      -0.933   0.828   0.708  0.00  0.00     0.162 A 
ATOM      4  C3  UNL d   1       0.120   0.981  -0.194  0.00  0.00    -0.034 A 
ATOM      5  C4  UNL d   1       0.400   2.249  -0.705  0.00  0.00     0.162 A 
ATOM      6  C5  UNL d   1      -0.362   3.346  -0.316  0.00  0.00     0.062 A 
ATOM      7  F   UNL d   1      -0.085   4.561  -0.811  0.00  0.00    -0.097 F 
ATOM      8  F1  UNL d   1       1.406   2.432  -1.573  0.00  0.00    -0.096 F 
ATOM      9  I   UNL d   1       1.258  -0.663  -0.774  0.00  0.00    -0.060 I 
ATOM     10  F2  UNL d   1      -1.231  -0.377   1.217  0.00  0.00    -0.096 F 
ATOM     11  F3  UNL d   1      -2.703   1.772   1.961  0.00  0.00    -0.097 F 
ATOM     12  F4  UNL d   1      -2.141   4.244   0.954  0.00  0.00    -0.092 F 
ENDROOT
TORSDOF 0
ENDMDL
