MODEL 1
REMARK minimizedAffinity -4.68398046
REMARK minimizedRMSD -1
REMARK  0 active torsions:
REMARK  status: ('A' for Active; 'I' for Inactive)
ROOT
ATOM      1  C   UNL d   1      -0.908   2.742   0.506  0.00  0.00     0.124 A 
ATOM      2  C1  UNL d   1      -1.116   1.518   1.126  0.00  0.00     0.062 A 
ATOM      3  C2  UNL d   1      -0.512   0.368   0.627  0.00  0.00     0.162 A 
ATOM      4  C3  UNL d   1       0.307   0.436  -0.500  0.00  0.00    -0.034 A 
ATOM      5  C4  UNL d   1       0.511   1.671  -1.120  0.00  0.00     0.162 A 
ATOM      6  C5  UNL d   1      -0.095   2.817  -0.616  0.00  0.00     0.062 A 
ATOM      7  F   UNL d   1       0.107   3.999  -1.217  0.00  0.00    -0.097 F 
ATOM      8  F1  UNL d   1       1.292   1.772  -2.205  0.00  0.00    -0.096 F 
ATOM      9  I   UNL d   1       1.212  -1.281  -1.251  0.00  0.00    -0.060 I 
ATOM     10  F2  UNL d   1      -0.731  -0.801   1.247  0.00  0.00    -0.096 F 
ATOM     11  F3  UNL d   1      -1.902   1.442   2.210  0.00  0.00    -0.097 F 
ATOM     12  F4  UNL d   1      -1.491   3.847   0.988  0.00  0.00    -0.092 F 
ENDROOT
TORSDOF 0
ENDMDL
