MODEL 1
REMARK minimizedAffinity -5.41558552
REMARK minimizedRMSD -1
REMARK  0 active torsions:
REMARK  status: ('A' for Active; 'I' for Inactive)
ROOT
ATOM      1  C   UNL d   1      -0.850   3.264   0.004  0.00  0.00     0.124 A 
ATOM      2  C1  UNL d   1      -1.603   2.786   1.068  0.00  0.00     0.062 A 
ATOM      3  C2  UNL d   1      -1.443   1.474   1.505  0.00  0.00     0.162 A 
ATOM      4  C3  UNL d   1      -0.524   0.631   0.880  0.00  0.00    -0.034 A 
ATOM      5  C4  UNL d   1       0.229   1.119  -0.189  0.00  0.00     0.162 A 
ATOM      6  C5  UNL d   1       0.066   2.430  -0.623  0.00  0.00     0.062 A 
ATOM      7  F   UNL d   1       0.794   2.891  -1.650  0.00  0.00    -0.097 F 
ATOM      8  F1  UNL d   1       1.121   0.335  -0.813  0.00  0.00    -0.096 F 
ATOM      9  I   UNL d   1      -0.282  -1.331   1.531  0.00  0.00    -0.060 I 
ATOM     10  F2  UNL d   1      -2.184   1.039   2.535  0.00  0.00    -0.096 F 
ATOM     11  F3  UNL d   1      -2.488   3.589   1.675  0.00  0.00    -0.097 F 
ATOM     12  F4  UNL d   1      -1.006   4.526  -0.415  0.00  0.00    -0.092 F 
ENDROOT
TORSDOF 0
ENDMDL
