MODEL 1
REMARK minimizedAffinity -3.31851554
REMARK minimizedRMSD -1
REMARK  0 active torsions:
REMARK  status: ('A' for Active; 'I' for Inactive)
ROOT
ATOM      1  C   UNL d   1       1.018   3.024   0.230  0.00  0.00     0.172 C 
ATOM      2  N   UNL d   1       0.263   1.794   0.264  0.00  0.00    -0.070 N 
ATOM      3  C1  UNL d   1       0.733   0.559  -0.096  0.00  0.00    -0.004 A 
ATOM      4  C2  UNL d   1      -0.289  -0.349   0.080  0.00  0.00    -0.047 A 
ATOM      5  C3  UNL d   1      -1.412   0.365   0.560  0.00  0.00    -0.047 A 
ATOM      6  C4  UNL d   1      -1.042   1.690   0.666  0.00  0.00    -0.004 A 
ENDROOT
TORSDOF 0
ENDMDL
