MODEL 1
REMARK minimizedAffinity -3.33599997
REMARK minimizedRMSD -1
REMARK  0 active torsions:
REMARK  status: ('A' for Active; 'I' for Inactive)
ROOT
ATOM      1  C   UNL d   1      -0.004  -0.611   0.012  0.00  0.00     0.172 C 
ATOM      2  N   UNL d   1      -0.027   0.832  -0.025  0.00  0.00    -0.070 N 
ATOM      3  C1  UNL d   1       1.024   1.639  -0.371  0.00  0.00    -0.004 A 
ATOM      4  C2  UNL d   1       0.600   2.947  -0.282  0.00  0.00    -0.047 A 
ATOM      5  C3  UNL d   1      -0.753   2.926   0.132  0.00  0.00    -0.047 A 
ATOM      6  C4  UNL d   1      -1.116   1.604   0.284  0.00  0.00    -0.004 A 
ENDROOT
TORSDOF 0
ENDMDL
