MODEL 1
REMARK minimizedAffinity -4.02270794
REMARK minimizedRMSD -1
REMARK  0 active torsions:
REMARK  status: ('A' for Active; 'I' for Inactive)
ROOT
ATOM      1  C   UNL d   1       0.020  -0.937  -0.364  0.00  0.00     0.172 C 
ATOM      2  N   UNL d   1      -0.073   0.496  -0.204  0.00  0.00    -0.070 N 
ATOM      3  C1  UNL d   1      -1.127   1.170   0.352  0.00  0.00    -0.004 A 
ATOM      4  C2  UNL d   1      -0.830   2.516   0.321  0.00  0.00    -0.047 A 
ATOM      5  C3  UNL d   1       0.445   2.655  -0.276  0.00  0.00    -0.047 A 
ATOM      6  C4  UNL d   1       0.891   1.389  -0.591  0.00  0.00    -0.004 A 
ENDROOT
TORSDOF 0
ENDMDL
