MODEL 1
REMARK minimizedAffinity -3.33716011
REMARK minimizedRMSD -1
REMARK  0 active torsions:
REMARK  status: ('A' for Active; 'I' for Inactive)
ROOT
ATOM      1  C   UNL d   1       0.138  -1.051  -0.141  0.00  0.00     0.172 C 
ATOM      2  N   UNL d   1      -0.199   0.330   0.117  0.00  0.00    -0.070 N 
ATOM      3  C1  UNL d   1      -1.329   0.770   0.753  0.00  0.00    -0.004 A 
ATOM      4  C2  UNL d   1      -1.278   2.146   0.800  0.00  0.00    -0.047 A 
ATOM      5  C3  UNL d   1      -0.076   2.547   0.169  0.00  0.00    -0.047 A 
ATOM      6  C4  UNL d   1       0.573   1.403  -0.244  0.00  0.00    -0.004 A 
ENDROOT
TORSDOF 0
ENDMDL
