MODEL 1
REMARK minimizedAffinity -2.78289008
REMARK minimizedRMSD -1
REMARK  0 active torsions:
REMARK  status: ('A' for Active; 'I' for Inactive)
ROOT
ATOM      1  C   UNL d   1      -1.527  -0.124   0.799  0.00  0.00     0.172 C 
ATOM      2  N   UNL d   1      -0.628   0.831   0.194  0.00  0.00    -0.070 N 
ATOM      3  C1  UNL d   1      -0.816   2.187   0.149  0.00  0.00    -0.004 A 
ATOM      4  C2  UNL d   1       0.260   2.740  -0.510  0.00  0.00    -0.047 A 
ATOM      5  C3  UNL d   1       1.124   1.681  -0.875  0.00  0.00    -0.047 A 
ATOM      6  C4  UNL d   1       0.550   0.510  -0.427  0.00  0.00    -0.004 A 
ENDROOT
TORSDOF 0
ENDMDL
