MODEL 1
REMARK minimizedAffinity -2.3347156
REMARK minimizedRMSD -1
REMARK  0 active torsions:
REMARK  status: ('A' for Active; 'I' for Inactive)
ROOT
ATOM      1  C   UNL d   1      -0.183  -0.138  -0.440  0.00  0.00     0.172 C 
ATOM      2  N   UNL d   1      -0.032   1.264  -0.128  0.00  0.00    -0.070 N 
ATOM      3  C1  UNL d   1       0.526   2.209  -0.947  0.00  0.00    -0.004 A 
ATOM      4  C2  UNL d   1       0.483   3.418  -0.286  0.00  0.00    -0.047 A 
ATOM      5  C3  UNL d   1      -0.121   3.192   0.973  0.00  0.00    -0.047 A 
ATOM      6  C4  UNL d   1      -0.429   1.850   1.045  0.00  0.00    -0.004 A 
ENDROOT
TORSDOF 0
ENDMDL
