MODEL 1
REMARK minimizedAffinity -4.10847855
REMARK minimizedRMSD -1
REMARK  0 active torsions:
REMARK  status: ('A' for Active; 'I' for Inactive)
ROOT
ATOM      1  C   UNL d   1       0.096  -0.582  -0.335  0.00  0.00     0.172 C 
ATOM      2  N   UNL d   1       0.141   0.858  -0.238  0.00  0.00    -0.070 N 
ATOM      3  C1  UNL d   1      -0.845   1.654   0.283  0.00  0.00    -0.004 A 
ATOM      4  C2  UNL d   1      -0.421   2.963   0.194  0.00  0.00    -0.047 A 
ATOM      5  C3  UNL d   1       0.864   2.952  -0.400  0.00  0.00    -0.047 A 
ATOM      6  C4  UNL d   1       1.187   1.637  -0.657  0.00  0.00    -0.004 A 
ENDROOT
TORSDOF 0
ENDMDL
