MODEL 1
REMARK minimizedAffinity -3.73819613
REMARK minimizedRMSD -1
REMARK  0 active torsions:
REMARK  status: ('A' for Active; 'I' for Inactive)
ROOT
ATOM      1  C   UNL d   1       0.079  -0.582   0.239  0.00  0.00     0.172 C 
ATOM      2  N   UNL d   1       0.029   0.860   0.165  0.00  0.00    -0.070 N 
ATOM      3  C1  UNL d   1       1.108   1.700   0.224  0.00  0.00    -0.004 A 
ATOM      4  C2  UNL d   1       0.643   2.993   0.119  0.00  0.00    -0.047 A 
ATOM      5  C3  UNL d   1      -0.765   2.927  -0.006  0.00  0.00    -0.047 A 
ATOM      6  C4  UNL d   1      -1.119   1.595   0.025  0.00  0.00    -0.004 A 
ENDROOT
TORSDOF 0
ENDMDL
