MODEL 1
REMARK minimizedAffinity -3.21808434
REMARK minimizedRMSD -1
REMARK  0 active torsions:
REMARK  status: ('A' for Active; 'I' for Inactive)
ROOT
ATOM      1  C   UNL d   1       0.096  -0.894   0.065  0.00  0.00     0.172 C 
ATOM      2  N   UNL d   1      -0.206   0.514  -0.040  0.00  0.00    -0.070 N 
ATOM      3  C1  UNL d   1      -1.372   1.112   0.357  0.00  0.00    -0.004 A 
ATOM      4  C2  UNL d   1      -1.268   2.460   0.089  0.00  0.00    -0.047 A 
ATOM      5  C3  UNL d   1       0.005   2.679  -0.490  0.00  0.00    -0.047 A 
ATOM      6  C4  UNL d   1       0.641   1.458  -0.558  0.00  0.00    -0.004 A 
ENDROOT
TORSDOF 0
ENDMDL
