MODEL 1
REMARK minimizedAffinity -2.85188365
REMARK minimizedRMSD -1
REMARK  0 active torsions:
REMARK  status: ('A' for Active; 'I' for Inactive)
ROOT
ATOM      1  C   UNL d   1       0.043  -1.310  -0.462  0.00  0.00     0.172 C 
ATOM      2  N   UNL d   1      -0.128   0.068  -0.064  0.00  0.00    -0.070 N 
ATOM      3  C1  UNL d   1       0.880   0.935   0.263  0.00  0.00    -0.004 A 
ATOM      4  C2  UNL d   1       0.306   2.147   0.583  0.00  0.00    -0.047 A 
ATOM      5  C3  UNL d   1      -1.095   2.002   0.444  0.00  0.00    -0.047 A 
ATOM      6  C4  UNL d   1      -1.336   0.705   0.042  0.00  0.00    -0.004 A 
ENDROOT
TORSDOF 0
ENDMDL
