MODEL 1
REMARK minimizedAffinity -1.95859861
REMARK minimizedRMSD -1
REMARK  0 active torsions:
REMARK  status: ('A' for Active; 'I' for Inactive)
ROOT
ATOM      1  C   UNL d   1      -0.438  -0.504  -0.021  0.00  0.00     0.172 C 
ATOM      2  N   UNL d   1       0.071   0.848  -0.000  0.00  0.00    -0.070 N 
ATOM      3  C1  UNL d   1       0.840   1.426  -0.974  0.00  0.00    -0.004 A 
ATOM      4  C2  UNL d   1       1.116   2.718  -0.582  0.00  0.00    -0.047 A 
ATOM      5  C3  UNL d   1       0.491   2.923   0.671  0.00  0.00    -0.047 A 
ATOM      6  C4  UNL d   1      -0.149   1.750   1.008  0.00  0.00    -0.004 A 
ENDROOT
TORSDOF 0
ENDMDL
