MODEL 1
REMARK minimizedAffinity 4.08698368
REMARK minimizedRMSD -1
REMARK  0 active torsions:
REMARK  status: ('A' for Active; 'I' for Inactive)
ROOT
ATOM      1  C   UNL d   1       1.440  -0.637   0.218  0.00  0.00     0.172 C 
ATOM      2  N   UNL d   1       0.085  -0.143   0.304  0.00  0.00    -0.070 N 
ATOM      3  C1  UNL d   1      -0.758   0.063  -0.755  0.00  0.00    -0.004 A 
ATOM      4  C2  UNL d   1      -1.953   0.536  -0.257  0.00  0.00    -0.047 A 
ATOM      5  C3  UNL d   1      -1.823   0.617   1.150  0.00  0.00    -0.047 A 
ATOM      6  C4  UNL d   1      -0.552   0.191   1.470  0.00  0.00    -0.004 A 
ENDROOT
TORSDOF 0
ENDMDL
