MODEL 1
REMARK minimizedAffinity -3.78171349
REMARK minimizedRMSD -1
REMARK  0 active torsions:
REMARK  status: ('A' for Active; 'I' for Inactive)
ROOT
ATOM      1  C   UNL d   1       0.449  -0.685   0.033  0.00  0.00     0.172 C 
ATOM      2  N   UNL d   1       0.358   0.756   0.052  0.00  0.00    -0.070 N 
ATOM      3  C1  UNL d   1       1.056   1.611  -0.758  0.00  0.00    -0.004 A 
ATOM      4  C2  UNL d   1       0.689   2.898  -0.430  0.00  0.00    -0.047 A 
ATOM      5  C3  UNL d   1      -0.262   2.814   0.615  0.00  0.00    -0.047 A 
ATOM      6  C4  UNL d   1      -0.449   1.477   0.894  0.00  0.00    -0.004 A 
ENDROOT
TORSDOF 0
ENDMDL
