MODEL 1
REMARK minimizedAffinity -0.654431105
REMARK minimizedRMSD -1
REMARK  0 active torsions:
REMARK  status: ('A' for Active; 'I' for Inactive)
ROOT
ATOM      1  C   UNL d   1       1.731   1.027  -0.362  0.00  0.00     0.172 C 
ATOM      2  N   UNL d   1       0.603   0.138  -0.207  0.00  0.00    -0.070 N 
ATOM      3  C1  UNL d   1       0.616  -1.213  -0.427  0.00  0.00    -0.004 A 
ATOM      4  C2  UNL d   1      -0.649  -1.695  -0.169  0.00  0.00    -0.047 A 
ATOM      5  C3  UNL d   1      -1.450  -0.594   0.218  0.00  0.00    -0.047 A 
ATOM      6  C4  UNL d   1      -0.650   0.528   0.186  0.00  0.00    -0.004 A 
ENDROOT
TORSDOF 0
ENDMDL
