MODEL 1
REMARK minimizedAffinity -0.496117443
REMARK minimizedRMSD -1
REMARK  0 active torsions:
REMARK  status: ('A' for Active; 'I' for Inactive)
ROOT
ATOM      1  C   UNL d   1       0.910  -0.902  -0.642  0.00  0.00     0.172 C 
ATOM      2  N   UNL d   1       0.233  -1.961  -1.353  0.00  0.00    -0.070 N 
ATOM      3  C1  UNL d   1       0.602  -2.467  -2.571  0.00  0.00    -0.004 A 
ATOM      4  C2  UNL d   1      -0.294  -3.460  -2.904  0.00  0.00    -0.047 A 
ATOM      5  C3  UNL d   1      -1.234  -3.553  -1.850  0.00  0.00    -0.047 A 
ATOM      6  C4  UNL d   1      -0.884  -2.614  -0.903  0.00  0.00    -0.004 A 
ENDROOT
TORSDOF 0
ENDMDL
