MODEL 1
REMARK minimizedAffinity 2.28332949
REMARK minimizedRMSD -1
REMARK  0 active torsions:
REMARK  status: ('A' for Active; 'I' for Inactive)
ROOT
ATOM      1  C   UNL d   1      -0.483   3.170  -3.343  0.00  0.00     0.020 A 
ATOM      2  C1  UNL d   1       0.014   3.550  -2.097  0.00  0.00     0.020 A 
ATOM      3  C2  UNL d   1      -0.477   2.948  -0.936  0.00  0.00     0.034 A 
ATOM      4  C3  UNL d   1      -1.467   1.963  -1.019  0.00  0.00     0.017 A 
ATOM      5  C4  UNL d   1      -1.965   1.581  -2.270  0.00  0.00     0.017 A 
ATOM      6  C5  UNL d   1      -1.470   2.187  -3.429  0.00  0.00     0.034 A 
ATOM      7 Cl   UNL d   1      -3.187   0.373  -2.453  0.00  0.00    -0.070 Cl
ATOM      8 Cl1  UNL d   1      -2.028   1.261   0.457  0.00  0.00    -0.070 Cl
ENDROOT
TORSDOF 0
ENDMDL
