MODEL 1
REMARK minimizedAffinity 1.49442446
REMARK minimizedRMSD -1
REMARK  0 active torsions:
REMARK  status: ('A' for Active; 'I' for Inactive)
ROOT
ATOM      1  C   UNL d   1      -0.855  -1.725   0.711  0.00  0.00     0.020 A 
ATOM      2  C1  UNL d   1      -0.306  -2.592  -0.234  0.00  0.00     0.020 A 
ATOM      3  C2  UNL d   1       1.058  -2.532  -0.527  0.00  0.00     0.034 A 
ATOM      4  C3  UNL d   1       1.878  -1.604   0.126  0.00  0.00     0.017 A 
ATOM      5  C4  UNL d   1       1.326  -0.735   1.074  0.00  0.00     0.017 A 
ATOM      6  C5  UNL d   1      -0.041  -0.799   1.363  0.00  0.00     0.034 A 
ATOM      7 Cl   UNL d   1       2.274   0.437   1.921  0.00  0.00    -0.070 Cl
ATOM      8 Cl1  UNL d   1       3.556  -1.586  -0.285  0.00  0.00    -0.070 Cl
ENDROOT
TORSDOF 0
ENDMDL
