MODEL 1
REMARK minimizedAffinity 3.08251214
REMARK minimizedRMSD -1
REMARK  0 active torsions:
REMARK  status: ('A' for Active; 'I' for Inactive)
ROOT
ATOM      1  C   UNL d   1      -1.078  -1.365   1.313  0.00  0.00     0.020 A 
ATOM      2  C1  UNL d   1      -0.395  -0.153   1.409  0.00  0.00     0.020 A 
ATOM      3  C2  UNL d   1       0.865  -0.014   0.824  0.00  0.00     0.034 A 
ATOM      4  C3  UNL d   1       1.446  -1.087   0.139  0.00  0.00     0.017 A 
ATOM      5  C4  UNL d   1       0.759  -2.303   0.043  0.00  0.00     0.017 A 
ATOM      6  C5  UNL d   1      -0.502  -2.438   0.631  0.00  0.00     0.034 A 
ATOM      7 Cl   UNL d   1       1.412  -3.673  -0.786  0.00  0.00    -0.070 Cl
ATOM      8 Cl1  UNL d   1       3.007  -0.844  -0.560  0.00  0.00    -0.070 Cl
ENDROOT
TORSDOF 0
ENDMDL
