MODEL 1
REMARK minimizedAffinity -1.97036278
REMARK minimizedRMSD -1
REMARK  0 active torsions:
REMARK  status: ('A' for Active; 'I' for Inactive)
ROOT
ATOM      1  C   UNL d   1      -0.685  -0.054   1.502  0.00  0.00     0.020 A 
ATOM      2  C1  UNL d   1      -1.432  -1.091   0.944  0.00  0.00     0.020 A 
ATOM      3  C2  UNL d   1      -0.787  -2.142   0.288  0.00  0.00     0.034 A 
ATOM      4  C3  UNL d   1       0.609  -2.158   0.189  0.00  0.00     0.017 A 
ATOM      5  C4  UNL d   1       1.358  -1.118   0.750  0.00  0.00     0.017 A 
ATOM      6  C5  UNL d   1       0.707  -0.068   1.405  0.00  0.00     0.034 A 
ATOM      7 Cl   UNL d   1       3.084  -1.070   0.668  0.00  0.00    -0.070 Cl
ATOM      8 Cl1  UNL d   1       1.339  -3.489  -0.636  0.00  0.00    -0.070 Cl
ENDROOT
TORSDOF 0
ENDMDL
