MODEL 1
REMARK minimizedAffinity 0.308304667
REMARK minimizedRMSD -1
REMARK  0 active torsions:
REMARK  status: ('A' for Active; 'I' for Inactive)
ROOT
ATOM      1  C   UNL d   1       2.289  -3.751  -0.704  0.00  0.00     0.020 A 
ATOM      2  C1  UNL d   1       0.941  -4.082  -0.846  0.00  0.00     0.020 A 
ATOM      3  C2  UNL d   1      -0.038  -3.293  -0.239  0.00  0.00     0.034 A 
ATOM      4  C3  UNL d   1       0.327  -2.170   0.512  0.00  0.00     0.017 A 
ATOM      5  C4  UNL d   1       1.680  -1.839   0.654  0.00  0.00     0.017 A 
ATOM      6  C5  UNL d   1       2.657  -2.633   0.044  0.00  0.00     0.034 A 
ATOM      7 Cl   UNL d   1       2.209  -0.469   1.565  0.00  0.00    -0.070 Cl
ATOM      8 Cl1  UNL d   1      -0.937  -1.240   1.234  0.00  0.00    -0.070 Cl
ENDROOT
TORSDOF 0
ENDMDL
