MODEL 1
REMARK minimizedAffinity 0.00389443454
REMARK minimizedRMSD -1
REMARK  0 active torsions:
REMARK  status: ('A' for Active; 'I' for Inactive)
ROOT
ATOM      1  C   UNL d   1      -1.130  -1.006   1.321  0.00  0.00     0.020 A 
ATOM      2  C1  UNL d   1      -1.349  -2.247   0.724  0.00  0.00     0.020 A 
ATOM      3  C2  UNL d   1      -0.274  -2.969   0.202  0.00  0.00     0.034 A 
ATOM      4  C3  UNL d   1       1.025  -2.452   0.276  0.00  0.00     0.017 A 
ATOM      5  C4  UNL d   1       1.243  -1.206   0.876  0.00  0.00     0.017 A 
ATOM      6  C5  UNL d   1       0.163  -0.487   1.397  0.00  0.00     0.034 A 
ATOM      7 Cl   UNL d   1       2.816  -0.502   1.004  0.00  0.00    -0.070 Cl
ATOM      8 Cl1  UNL d   1       2.307  -3.400  -0.390  0.00  0.00    -0.070 Cl
ENDROOT
TORSDOF 0
ENDMDL
