MODEL 1
REMARK minimizedAffinity 1.81301987
REMARK minimizedRMSD -1
REMARK  0 active torsions:
REMARK  status: ('A' for Active; 'I' for Inactive)
ROOT
ATOM      1  C   UNL d   1      -0.145  -0.061   1.690  0.00  0.00     0.020 A 
ATOM      2  C1  UNL d   1      -1.071  -0.921   1.101  0.00  0.00     0.020 A 
ATOM      3  C2  UNL d   1      -0.637  -1.926   0.233  0.00  0.00     0.034 A 
ATOM      4  C3  UNL d   1       0.726  -2.072  -0.049  0.00  0.00     0.017 A 
ATOM      5  C4  UNL d   1       1.654  -1.209   0.543  0.00  0.00     0.017 A 
ATOM      6  C5  UNL d   1       1.215  -0.205   1.412  0.00  0.00     0.034 A 
ATOM      7 Cl   UNL d   1       3.353  -1.328   0.245  0.00  0.00    -0.070 Cl
ATOM      8 Cl1  UNL d   1       1.191  -3.336  -1.131  0.00  0.00    -0.070 Cl
ENDROOT
TORSDOF 0
ENDMDL
