MODEL 1
REMARK minimizedAffinity 6.32076836
REMARK minimizedRMSD -1
REMARK  0 active torsions:
REMARK  status: ('A' for Active; 'I' for Inactive)
ROOT
ATOM      1  C   UNL d   1       0.839  -0.956  -0.435  0.00  0.00     0.020 A 
ATOM      2  C1  UNL d   1      -0.358  -1.105   0.263  0.00  0.00     0.020 A 
ATOM      3  C2  UNL d   1      -0.384  -0.939   1.649  0.00  0.00     0.034 A 
ATOM      4  C3  UNL d   1       0.791  -0.622   2.342  0.00  0.00     0.017 A 
ATOM      5  C4  UNL d   1       1.992  -0.472   1.640  0.00  0.00     0.017 A 
ATOM      6  C5  UNL d   1       2.012  -0.640   0.252  0.00  0.00     0.034 A 
ATOM      7 Cl   UNL d   1       3.482  -0.082   2.425  0.00  0.00    -0.070 Cl
ATOM      8 Cl1  UNL d   1       0.686  -0.431   4.056  0.00  0.00    -0.070 Cl
ENDROOT
TORSDOF 0
ENDMDL
