MODEL 1
REMARK minimizedAffinity 4.26258564
REMARK minimizedRMSD -1
REMARK  0 active torsions:
REMARK  status: ('A' for Active; 'I' for Inactive)
ROOT
ATOM      1  C   UNL d   1      -0.161  -1.654   0.344  0.00  0.00     0.020 A 
ATOM      2  C1  UNL d   1      -0.563  -0.737   1.314  0.00  0.00     0.020 A 
ATOM      3  C2  UNL d   1       0.369   0.135   1.881  0.00  0.00     0.034 A 
ATOM      4  C3  UNL d   1       1.709   0.091   1.478  0.00  0.00     0.017 A 
ATOM      5  C4  UNL d   1       2.112  -0.829   0.504  0.00  0.00     0.017 A 
ATOM      6  C5  UNL d   1       1.174  -1.700  -0.060  0.00  0.00     0.034 A 
ATOM      7 Cl   UNL d   1       3.747  -0.942  -0.044  0.00  0.00    -0.070 Cl
ATOM      8 Cl1  UNL d   1       2.807   1.199   2.221  0.00  0.00    -0.070 Cl
ENDROOT
TORSDOF 0
ENDMDL
