MODEL 1
REMARK minimizedAffinity 1.18492663
REMARK minimizedRMSD -1
REMARK  0 active torsions:
REMARK  status: ('A' for Active; 'I' for Inactive)
ROOT
ATOM      1  C   UNL d   1       0.814  -3.458  -0.713  0.00  0.00     0.020 A 
ATOM      2  C1  UNL d   1       2.147  -3.062  -0.811  0.00  0.00     0.020 A 
ATOM      3  C2  UNL d   1       2.556  -1.844  -0.264  0.00  0.00     0.034 A 
ATOM      4  C3  UNL d   1       1.630  -1.017   0.383  0.00  0.00     0.017 A 
ATOM      5  C4  UNL d   1       0.292  -1.415   0.481  0.00  0.00     0.017 A 
ATOM      6  C5  UNL d   1      -0.112  -2.636  -0.069  0.00  0.00     0.034 A 
ATOM      7 Cl   UNL d   1      -0.908  -0.449   1.264  0.00  0.00    -0.070 Cl
ATOM      8 Cl1  UNL d   1       2.205   0.475   1.037  0.00  0.00    -0.070 Cl
ENDROOT
TORSDOF 0
ENDMDL
