MODEL 1
REMARK minimizedAffinity 0.395041406
REMARK minimizedRMSD -1
REMARK  0 active torsions:
REMARK  status: ('A' for Active; 'I' for Inactive)
ROOT
ATOM      1  C   UNL d   1      -1.337  -1.028   0.560  0.00  0.00     0.020 A 
ATOM      2  C1  UNL d   1      -0.520   0.087   0.742  0.00  0.00     0.020 A 
ATOM      3  C2  UNL d   1       0.869  -0.055   0.724  0.00  0.00     0.034 A 
ATOM      4  C3  UNL d   1       1.445  -1.314   0.523  0.00  0.00     0.017 A 
ATOM      5  C4  UNL d   1       0.625  -2.433   0.341  0.00  0.00     0.017 A 
ATOM      6  C5  UNL d   1      -0.766  -2.286   0.360  0.00  0.00     0.034 A 
ATOM      7 Cl   UNL d   1       1.263  -4.019   0.088  0.00  0.00    -0.070 Cl
ATOM      8 Cl1  UNL d   1       3.170  -1.416   0.513  0.00  0.00    -0.070 Cl
ENDROOT
TORSDOF 0
ENDMDL
