MODEL 1
REMARK minimizedAffinity -2.89633322
REMARK minimizedRMSD -1
REMARK  0 active torsions:
REMARK  status: ('A' for Active; 'I' for Inactive)
ROOT
ATOM      1  C   UNL d   1       0.062  -0.442   0.669  0.00  0.00     0.020 A 
ATOM      2  C1  UNL d   1      -0.623  -1.638   0.459  0.00  0.00     0.020 A 
ATOM      3  C2  UNL d   1       0.083  -2.799   0.135  0.00  0.00     0.034 A 
ATOM      4  C3  UNL d   1       1.478  -2.765   0.019  0.00  0.00     0.017 A 
ATOM      5  C4  UNL d   1       2.164  -1.564   0.231  0.00  0.00     0.017 A 
ATOM      6  C5  UNL d   1       1.452  -0.405   0.555  0.00  0.00     0.034 A 
ATOM      7 Cl   UNL d   1       3.884  -1.445   0.106  0.00  0.00    -0.070 Cl
ATOM      8 Cl1  UNL d   1       2.286  -4.238  -0.384  0.00  0.00    -0.070 Cl
ENDROOT
TORSDOF 0
ENDMDL
