MODEL 1
REMARK minimizedAffinity 0.100588195
REMARK minimizedRMSD -1
REMARK  0 active torsions:
REMARK  status: ('A' for Active; 'I' for Inactive)
ROOT
ATOM      1  C   UNL d   1       2.113  -1.195   0.299  0.00  0.00     0.020 A 
ATOM      2  C1  UNL d   1       1.818  -2.494  -0.114  0.00  0.00     0.020 A 
ATOM      3  C2  UNL d   1       0.519  -2.991   0.015  0.00  0.00     0.034 A 
ATOM      4  C3  UNL d   1      -0.490  -2.188   0.559  0.00  0.00     0.017 A 
ATOM      5  C4  UNL d   1      -0.194  -0.884   0.973  0.00  0.00     0.017 A 
ATOM      6  C5  UNL d   1       1.109  -0.392   0.841  0.00  0.00     0.034 A 
ATOM      7 Cl   UNL d   1      -1.386   0.166   1.652  0.00  0.00    -0.070 Cl
ATOM      8 Cl1  UNL d   1      -2.074  -2.866   0.689  0.00  0.00    -0.070 Cl
ENDROOT
TORSDOF 0
ENDMDL
