MODEL 1
REMARK minimizedAffinity -0.85685426
REMARK minimizedRMSD -1
REMARK  0 active torsions:
REMARK  status: ('A' for Active; 'I' for Inactive)
ROOT
ATOM      1  C   UNL d   1      -0.397  -0.380   1.223  0.00  0.00     0.020 A 
ATOM      2  C1  UNL d   1      -1.010  -1.619   1.035  0.00  0.00     0.020 A 
ATOM      3  C2  UNL d   1      -0.300  -2.666   0.445  0.00  0.00     0.034 A 
ATOM      4  C3  UNL d   1       1.027  -2.478   0.040  0.00  0.00     0.017 A 
ATOM      5  C4  UNL d   1       1.641  -1.235   0.229  0.00  0.00     0.017 A 
ATOM      6  C5  UNL d   1       0.926  -0.189   0.821  0.00  0.00     0.034 A 
ATOM      7 Cl   UNL d   1       3.274  -0.926  -0.244  0.00  0.00    -0.070 Cl
ATOM      8 Cl1  UNL d   1       1.844  -3.817  -0.683  0.00  0.00    -0.070 Cl
ENDROOT
TORSDOF 0
ENDMDL
