MODEL 1
REMARK minimizedAffinity 1.83863211
REMARK minimizedRMSD -1
REMARK  0 active torsions:
REMARK  status: ('A' for Active; 'I' for Inactive)
ROOT
ATOM      1  C   UNL d   1      -0.816  -1.110   1.109  0.00  0.00     0.020 A 
ATOM      2  C1  UNL d   1       0.026  -0.002   1.205  0.00  0.00     0.020 A 
ATOM      3  C2  UNL d   1       1.382  -0.128   0.898  0.00  0.00     0.034 A 
ATOM      4  C3  UNL d   1       1.902  -1.363   0.493  0.00  0.00     0.017 A 
ATOM      5  C4  UNL d   1       1.056  -2.474   0.398  0.00  0.00     0.017 A 
ATOM      6  C5  UNL d   1      -0.301  -2.343   0.706  0.00  0.00     0.034 A 
ATOM      7 Cl   UNL d   1       1.623  -4.031  -0.094  0.00  0.00    -0.070 Cl
ATOM      8 Cl1  UNL d   1       3.589  -1.445   0.129  0.00  0.00    -0.070 Cl
ENDROOT
TORSDOF 0
ENDMDL
