MODEL 1
REMARK minimizedAffinity 8.81244087
REMARK minimizedRMSD -1
REMARK  0 active torsions:
REMARK  status: ('A' for Active; 'I' for Inactive)
ROOT
ATOM      1  C1  DEN d   1       2.174   4.969  -0.071  0.00  0.00     0.130 A 
ATOM      2  C2  DEN d   1       1.602   3.700   0.371  0.00  0.00    -0.031 A 
ATOM      3  C3  DEN d   1       2.639   2.974   1.132  0.00  0.00     0.027 A 
ATOM      4  C4  DEN d   1       5.057   3.689   1.670  0.00  0.00     0.027 A 
ATOM      5  C5  DEN d   1       6.000   4.679   1.498  0.00  0.00    -0.003 A 
ATOM      6  C6  DEN d   1       5.746   5.810   0.768  0.00  0.00     0.001 A 
ATOM      7  C7  DEN d   1       4.505   6.000   0.220  0.00  0.00     0.017 A 
ATOM      8  C8  DEN d   1       3.552   5.003   0.383  0.00  0.00    -0.094 A 
ATOM      9  C9  DEN d   1       3.824   3.873   1.135  0.00  0.00    -0.072 A 
ENDROOT
TORSDOF 0
ENDMDL
