MODEL 1
REMARK minimizedAffinity -3.36143064
REMARK minimizedRMSD -1
REMARK  0 active torsions:
REMARK  status: ('A' for Active; 'I' for Inactive)
ROOT
ATOM      1  C1  DEN d   1       1.822  -3.347  -0.525  0.00  0.00     0.130 A 
ATOM      2  C2  DEN d   1       0.848  -4.359  -0.125  0.00  0.00    -0.031 A 
ATOM      3  C3  DEN d   1      -0.461  -3.695   0.034  0.00  0.00     0.027 A 
ATOM      4  C4  DEN d   1      -1.072  -1.211  -0.302  0.00  0.00     0.027 A 
ATOM      5  C5  DEN d   1      -0.577   0.032  -0.630  0.00  0.00    -0.003 A 
ATOM      6  C6  DEN d   1       0.747   0.240  -0.910  0.00  0.00     0.001 A 
ATOM      7  C7  DEN d   1       1.615  -0.819  -0.912  0.00  0.00     0.017 A 
ATOM      8  C8  DEN d   1       1.126  -2.074  -0.575  0.00  0.00    -0.094 A 
ATOM      9  C9  DEN d   1      -0.219  -2.267  -0.307  0.00  0.00    -0.072 A 
ENDROOT
TORSDOF 0
ENDMDL
