MODEL 1
REMARK minimizedAffinity -1.42423105
REMARK minimizedRMSD -1
REMARK  0 active torsions:
REMARK  status: ('A' for Active; 'I' for Inactive)
ROOT
ATOM      1  C1  DEN d   1       2.165  -0.881  -1.467  0.00  0.00     0.130 A 
ATOM      2  C2  DEN d   1       1.214   0.199  -1.718  0.00  0.00    -0.031 A 
ATOM      3  C3  DEN d   1      -0.016  -0.088  -0.952  0.00  0.00     0.027 A 
ATOM      4  C4  DEN d   1      -0.535  -2.086   0.595  0.00  0.00     0.027 A 
ATOM      5  C5  DEN d   1      -0.041  -3.263   1.112  0.00  0.00    -0.003 A 
ATOM      6  C6  DEN d   1       1.199  -3.742   0.781  0.00  0.00     0.001 A 
ATOM      7  C7  DEN d   1       2.006  -3.017  -0.055  0.00  0.00     0.017 A 
ATOM      8  C8  DEN d   1       1.512  -1.833  -0.586  0.00  0.00    -0.094 A 
ATOM      9  C9  DEN d   1       0.261  -1.359  -0.230  0.00  0.00    -0.072 A 
ENDROOT
TORSDOF 0
ENDMDL
