MODEL 1
REMARK minimizedAffinity -0.510947704
REMARK minimizedRMSD -1
REMARK  0 active torsions:
REMARK  status: ('A' for Active; 'I' for Inactive)
ROOT
ATOM      1  C1  DEN d   1      -0.731  -3.090   0.514  0.00  0.00     0.130 A 
ATOM      2  C2  DEN d   1       0.117  -4.222   0.878  0.00  0.00    -0.031 A 
ATOM      3  C3  DEN d   1       1.490  -3.929   0.424  0.00  0.00     0.027 A 
ATOM      4  C4  DEN d   1       2.384  -1.840  -0.798  0.00  0.00     0.027 A 
ATOM      5  C5  DEN d   1       2.038  -0.619  -1.332  0.00  0.00    -0.003 A 
ATOM      6  C6  DEN d   1       0.750  -0.154  -1.318  0.00  0.00     0.001 A 
ATOM      7  C7  DEN d   1      -0.233  -0.896  -0.719  0.00  0.00     0.017 A 
ATOM      8  C8  DEN d   1       0.106  -2.132  -0.185  0.00  0.00    -0.094 A 
ATOM      9  C9  DEN d   1       1.417  -2.579  -0.198  0.00  0.00    -0.072 A 
ENDROOT
TORSDOF 0
ENDMDL
