MODEL 1
REMARK minimizedAffinity 8.38603973
REMARK minimizedRMSD -1
REMARK  0 active torsions:
REMARK  status: ('A' for Active; 'I' for Inactive)
ROOT
ATOM      1  C1  DEN d   1       1.849  -3.580  -0.402  0.00  0.00     0.130 A 
ATOM      2  C2  DEN d   1       3.086  -3.265   0.307  0.00  0.00    -0.031 A 
ATOM      3  C3  DEN d   1       3.211  -1.795   0.377  0.00  0.00     0.027 A 
ATOM      4  C4  DEN d   1       1.614   0.014  -0.535  0.00  0.00     0.027 A 
ATOM      5  C5  DEN d   1       0.439   0.232  -1.220  0.00  0.00    -0.003 A 
ATOM      6  C6  DEN d   1      -0.324  -0.796  -1.707  0.00  0.00     0.001 A 
ATOM      7  C7  DEN d   1       0.056  -2.092  -1.476  0.00  0.00     0.017 A 
ATOM      8  C8  DEN d   1       1.242  -2.320  -0.791  0.00  0.00    -0.094 A 
ATOM      9  C9  DEN d   1       1.994  -1.267  -0.296  0.00  0.00    -0.072 A 
ENDROOT
TORSDOF 0
ENDMDL
