MODEL 1
REMARK minimizedAffinity -2.6668756
REMARK minimizedRMSD -1
REMARK  0 active torsions:
REMARK  status: ('A' for Active; 'I' for Inactive)
ROOT
ATOM      1  C1  DEN d   1       2.124  -3.147   0.884  0.00  0.00     0.130 A 
ATOM      2  C2  DEN d   1       0.939  -3.997   0.821  0.00  0.00    -0.031 A 
ATOM      3  C3  DEN d   1      -0.098  -3.279   0.053  0.00  0.00     0.027 A 
ATOM      4  C4  DEN d   1       0.017  -0.946  -1.041  0.00  0.00     0.027 A 
ATOM      5  C5  DEN d   1       0.813   0.160  -1.246  0.00  0.00    -0.003 A 
ATOM      6  C6  DEN d   1       2.079   0.254  -0.731  0.00  0.00     0.001 A 
ATOM      7  C7  DEN d   1       2.603  -0.794  -0.022  0.00  0.00     0.017 A 
ATOM      8  C8  DEN d   1       1.804  -1.910   0.195  0.00  0.00    -0.094 A 
ATOM      9  C9  DEN d   1       0.532  -1.991  -0.345  0.00  0.00    -0.072 A 
ENDROOT
TORSDOF 0
ENDMDL
