MODEL 1
REMARK minimizedAffinity -1.67922103
REMARK minimizedRMSD -1
REMARK  0 active torsions:
REMARK  status: ('A' for Active; 'I' for Inactive)
ROOT
ATOM      1  C1  DEN d   1      -1.813  -3.779  -0.894  0.00  0.00     0.130 A 
ATOM      2  C2  DEN d   1      -1.575  -4.603   0.288  0.00  0.00    -0.031 A 
ATOM      3  C3  DEN d   1      -0.521  -3.953   1.093  0.00  0.00     0.027 A 
ATOM      4  C4  DEN d   1       0.753  -1.759   0.629  0.00  0.00     0.027 A 
ATOM      5  C5  DEN d   1       0.904  -0.714  -0.256  0.00  0.00    -0.003 A 
ATOM      6  C6  DEN d   1       0.191  -0.636  -1.423  0.00  0.00     0.001 A 
ATOM      7  C7  DEN d   1      -0.741  -1.597  -1.714  0.00  0.00     0.017 A 
ATOM      8  C8  DEN d   1      -0.893  -2.658  -0.830  0.00  0.00    -0.094 A 
ATOM      9  C9  DEN d   1      -0.171  -2.712   0.350  0.00  0.00    -0.072 A 
ENDROOT
TORSDOF 0
ENDMDL
