MODEL 1
REMARK minimizedAffinity -6.97570038
REMARK minimizedRMSD -1
REMARK  0 active torsions:
REMARK  status: ('A' for Active; 'I' for Inactive)
ROOT
ATOM      1  C1  DEN d   1       2.242  -3.698   0.558  0.00  0.00     0.130 A 
ATOM      2  C2  DEN d   1       1.241  -4.758   0.463  0.00  0.00    -0.031 A 
ATOM      3  C3  DEN d   1      -0.011  -4.159  -0.041  0.00  0.00     0.027 A 
ATOM      4  C4  DEN d   1      -0.494  -1.708  -0.683  0.00  0.00     0.027 A 
ATOM      5  C5  DEN d   1       0.041  -0.442  -0.760  0.00  0.00    -0.003 A 
ATOM      6  C6  DEN d   1       1.326  -0.167  -0.374  0.00  0.00     0.001 A 
ATOM      7  C7  DEN d   1       2.134  -1.183   0.065  0.00  0.00     0.017 A 
ATOM      8  C8  DEN d   1       1.600  -2.461   0.152  0.00  0.00    -0.094 A 
ATOM      9  C9  DEN d   1       0.302  -2.721  -0.255  0.00  0.00    -0.072 A 
ENDROOT
TORSDOF 0
ENDMDL
