MODEL 1
REMARK minimizedAffinity 4.35842514
REMARK minimizedRMSD -1
REMARK  0 active torsions:
REMARK  status: ('A' for Active; 'I' for Inactive)
ROOT
ATOM      1  C1  DEN d   1      -0.713  -1.115  -0.746  0.00  0.00     0.130 A 
ATOM      2  C2  DEN d   1       0.274  -0.224  -1.350  0.00  0.00    -0.031 A 
ATOM      3  C3  DEN d   1       1.611  -0.818  -1.147  0.00  0.00     0.027 A 
ATOM      4  C4  DEN d   1       2.244  -3.022   0.033  0.00  0.00     0.027 A 
ATOM      5  C5  DEN d   1       1.751  -4.114   0.714  0.00  0.00    -0.003 A 
ATOM      6  C6  DEN d   1       0.416  -4.264   0.983  0.00  0.00     0.001 A 
ATOM      7  C7  DEN d   1      -0.477  -3.329   0.529  0.00  0.00     0.017 A 
ATOM      8  C8  DEN d   1       0.014  -2.223  -0.151  0.00  0.00    -0.094 A 
ATOM      9  C9  DEN d   1       1.365  -2.095  -0.424  0.00  0.00    -0.072 A 
ENDROOT
TORSDOF 0
ENDMDL
