MODEL 1
REMARK minimizedAffinity -7.08789539
REMARK minimizedRMSD -1
REMARK  0 active torsions:
REMARK  status: ('A' for Active; 'I' for Inactive)
ROOT
ATOM      1  C1  DEN d   1       1.576  -4.066   0.576  0.00  0.00     0.130 A 
ATOM      2  C2  DEN d   1       0.285  -4.637   0.950  0.00  0.00    -0.031 A 
ATOM      3  C3  DEN d   1      -0.759  -3.632   0.667  0.00  0.00     0.027 A 
ATOM      4  C4  DEN d   1      -0.503  -1.260  -0.314  0.00  0.00     0.027 A 
ATOM      5  C5  DEN d   1       0.400  -0.328  -0.776  0.00  0.00    -0.003 A 
ATOM      6  C6  DEN d   1       1.749  -0.562  -0.789  0.00  0.00     0.001 A 
ATOM      7  C7  DEN d   1       2.232  -1.774  -0.372  0.00  0.00     0.017 A 
ATOM      8  C8  DEN d   1       1.329  -2.716   0.103  0.00  0.00    -0.094 A 
ATOM      9  C9  DEN d   1      -0.033  -2.465   0.096  0.00  0.00    -0.072 A 
ENDROOT
TORSDOF 0
ENDMDL
