MODEL 1
REMARK minimizedAffinity -3.08300042
REMARK minimizedRMSD -1
REMARK  0 active torsions:
REMARK  status: ('A' for Active; 'I' for Inactive)
ROOT
ATOM      1  C1  DEN d   1      -0.673  -3.483   0.824  0.00  0.00     0.130 A 
ATOM      2  C2  DEN d   1       0.392  -4.387   1.251  0.00  0.00    -0.031 A 
ATOM      3  C3  DEN d   1       1.663  -3.895   0.682  0.00  0.00     0.027 A 
ATOM      4  C4  DEN d   1       2.084  -1.831  -0.806  0.00  0.00     0.027 A 
ATOM      5  C5  DEN d   1       1.487  -0.765  -1.442  0.00  0.00    -0.003 A 
ATOM      6  C6  DEN d   1       0.134  -0.552  -1.396  0.00  0.00     0.001 A 
ATOM      7  C7  DEN d   1      -0.661  -1.392  -0.662  0.00  0.00     0.017 A 
ATOM      8  C8  DEN d   1      -0.066  -2.472  -0.023  0.00  0.00    -0.094 A 
ATOM      9  C9  DEN d   1       1.304  -2.664  -0.072  0.00  0.00    -0.072 A 
ENDROOT
TORSDOF 0
ENDMDL
