MODEL 1
REMARK minimizedAffinity -5.46798038
REMARK minimizedRMSD -1
REMARK  0 active torsions:
REMARK  status: ('A' for Active; 'I' for Inactive)
ROOT
ATOM      1  C1  DEN d   1      -0.234  -3.748   0.972  0.00  0.00     0.130 A 
ATOM      2  C2  DEN d   1       0.863  -4.712   0.934  0.00  0.00    -0.031 A 
ATOM      3  C3  DEN d   1       1.973  -4.111   0.169  0.00  0.00     0.027 A 
ATOM      4  C4  DEN d   1       2.103  -1.791  -0.951  0.00  0.00     0.027 A 
ATOM      5  C5  DEN d   1       1.414  -0.625  -1.200  0.00  0.00    -0.003 A 
ATOM      6  C6  DEN d   1       0.126  -0.432  -0.774  0.00  0.00     0.001 A 
ATOM      7  C7  DEN d   1      -0.498  -1.404  -0.038  0.00  0.00     0.017 A 
ATOM      8  C8  DEN d   1       0.188  -2.587   0.210  0.00  0.00    -0.094 A 
ATOM      9  C9  DEN d   1       1.493  -2.757  -0.218  0.00  0.00    -0.072 A 
ENDROOT
TORSDOF 0
ENDMDL
