MODEL 1
REMARK minimizedAffinity -0.813305497
REMARK minimizedRMSD -1
REMARK  0 active torsions:
REMARK  status: ('A' for Active; 'I' for Inactive)
ROOT
ATOM      1  C1  DEN d   1       1.825  -4.321   0.332  0.00  0.00     0.130 A 
ATOM      2  C2  DEN d   1       0.592  -5.036   0.646  0.00  0.00    -0.031 A 
ATOM      3  C3  DEN d   1      -0.543  -4.132   0.372  0.00  0.00     0.027 A 
ATOM      4  C4  DEN d   1      -0.509  -1.708  -0.509  0.00  0.00     0.027 A 
ATOM      5  C5  DEN d   1       0.303  -0.670  -0.909  0.00  0.00    -0.003 A 
ATOM      6  C6  DEN d   1       1.670  -0.764  -0.891  0.00  0.00     0.001 A 
ATOM      7  C7  DEN d   1       2.265  -1.937  -0.507  0.00  0.00     0.017 A 
ATOM      8  C8  DEN d   1       1.452  -2.985  -0.096  0.00  0.00    -0.094 A 
ATOM      9  C9  DEN d   1       0.073  -2.875  -0.133  0.00  0.00    -0.072 A 
ENDROOT
TORSDOF 0
ENDMDL
