MODEL 1
REMARK minimizedAffinity 1.91885149
REMARK minimizedRMSD -1
REMARK  0 active torsions:
REMARK  status: ('A' for Active; 'I' for Inactive)
ROOT
ATOM      1  C1  DEN d   1       2.511  -1.640  -0.972  0.00  0.00     0.130 A 
ATOM      2  C2  DEN d   1       1.746  -0.810  -1.899  0.00  0.00    -0.031 A 
ATOM      3  C3  DEN d   1       0.334  -1.237  -1.836  0.00  0.00     0.027 A 
ATOM      4  C4  DEN d   1      -0.738  -3.091  -0.399  0.00  0.00     0.027 A 
ATOM      5  C5  DEN d   1      -0.489  -4.075   0.532  0.00  0.00    -0.003 A 
ATOM      6  C6  DEN d   1       0.772  -4.337   0.998  0.00  0.00     0.001 A 
ATOM      7  C7  DEN d   1       1.827  -3.575   0.568  0.00  0.00     0.017 A 
ATOM      8  C8  DEN d   1       1.585  -2.587  -0.377  0.00  0.00    -0.094 A 
ATOM      9  C9  DEN d   1       0.301  -2.330  -0.827  0.00  0.00    -0.072 A 
ENDROOT
TORSDOF 0
ENDMDL
