MODEL 1
REMARK minimizedAffinity -4.70063782
REMARK minimizedRMSD -1
REMARK  0 active torsions:
REMARK  status: ('A' for Active; 'I' for Inactive)
ROOT
ATOM      1  O1  BZF d   1      -0.821  -0.653  -0.874  0.00  0.00    -0.204 OA
ATOM      2  C2  BZF d   1      -1.247   0.605  -0.494  0.00  0.00     0.174 A 
ATOM      3  C3  BZF d   1      -0.355   1.182   0.337  0.00  0.00    -0.012 A 
ATOM      4  C3A BZF d   1       0.738   0.262   0.412  0.00  0.00    -0.107 A 
ATOM      5  C4  BZF d   1       1.936   0.279   1.069  0.00  0.00     0.055 A 
ATOM      6  C5  BZF d   1       2.747  -0.809   0.991  0.00  0.00    -0.016 A 
ATOM      7  C6  BZF d   1       2.390  -1.931   0.272  0.00  0.00     0.022 A 
ATOM      8  C7  BZF d   1       1.215  -1.992  -0.400  0.00  0.00     0.029 A 
ATOM      9  C7A BZF d   1       0.408  -0.882  -0.351  0.00  0.00     0.058 A 
ENDROOT
TORSDOF 0
ENDMDL
