MODEL 1
REMARK minimizedAffinity -4.92479897
REMARK minimizedRMSD -1
REMARK  0 active torsions:
REMARK  status: ('A' for Active; 'I' for Inactive)
ROOT
ATOM      1  O1  BZF d   1      -0.054   0.847   1.189  0.00  0.00    -0.204 OA
ATOM      2  C2  BZF d   1      -1.294   0.779   0.585  0.00  0.00     0.174 A 
ATOM      3  C3  BZF d   1      -1.312  -0.178  -0.365  0.00  0.00    -0.012 A 
ATOM      4  C3A BZF d   1      -0.029  -0.806  -0.290  0.00  0.00    -0.107 A 
ATOM      5  C4  BZF d   1       0.552  -1.839  -0.970  0.00  0.00     0.055 A 
ATOM      6  C5  BZF d   1       1.846  -2.158  -0.706  0.00  0.00    -0.016 A 
ATOM      7  C6  BZF d   1       2.589  -1.464   0.226  0.00  0.00     0.022 A 
ATOM      8  C7  BZF d   1       2.055  -0.436   0.929  0.00  0.00     0.029 A 
ATOM      9  C7A BZF d   1       0.738  -0.132   0.688  0.00  0.00     0.058 A 
ENDROOT
TORSDOF 0
ENDMDL
