MODEL 1
REMARK minimizedAffinity -4.73627901
REMARK minimizedRMSD -1
REMARK  0 active torsions:
REMARK  status: ('A' for Active; 'I' for Inactive)
ROOT
ATOM      1  O1  BZF d   1       1.270  -2.751  -1.352  0.00  0.00    -0.204 OA
ATOM      2  C2  BZF d   1       0.003  -2.465  -1.822  0.00  0.00     0.174 A 
ATOM      3  C3  BZF d   1      -0.539  -1.434  -1.141  0.00  0.00    -0.012 A 
ATOM      4  C3A BZF d   1       0.488  -0.992  -0.249  0.00  0.00    -0.107 A 
ATOM      5  C4  BZF d   1       0.561   0.011   0.676  0.00  0.00     0.055 A 
ATOM      6  C5  BZF d   1       1.682   0.130   1.434  0.00  0.00    -0.016 A 
ATOM      7  C6  BZF d   1       2.747  -0.737   1.297  0.00  0.00     0.022 A 
ATOM      8  C7  BZF d   1       2.724  -1.743   0.390  0.00  0.00     0.029 A 
ATOM      9  C7A BZF d   1       1.605  -1.846  -0.401  0.00  0.00     0.058 A 
ENDROOT
TORSDOF 0
ENDMDL
