MODEL 1
REMARK minimizedAffinity -4.8645072
REMARK minimizedRMSD -1
REMARK  0 active torsions:
REMARK  status: ('A' for Active; 'I' for Inactive)
ROOT
ATOM      1  O1  BZF d   1       2.218  -2.408   0.499  0.00  0.00    -0.204 OA
ATOM      2  C2  BZF d   1       2.972  -1.548   1.275  0.00  0.00     0.174 A 
ATOM      3  C3  BZF d   1       2.415  -0.320   1.308  0.00  0.00    -0.012 A 
ATOM      4  C3A BZF d   1       1.190  -0.443   0.578  0.00  0.00    -0.107 A 
ATOM      5  C4  BZF d   1       0.186   0.432   0.274  0.00  0.00     0.055 A 
ATOM      6  C5  BZF d   1      -0.836   0.015  -0.518  0.00  0.00    -0.016 A 
ATOM      7  C6  BZF d   1      -0.883  -1.266  -1.028  0.00  0.00     0.022 A 
ATOM      8  C7  BZF d   1       0.087  -2.171  -0.751  0.00  0.00     0.029 A 
ATOM      9  C7A BZF d   1       1.104  -1.763   0.077  0.00  0.00     0.058 A 
ENDROOT
TORSDOF 0
ENDMDL
