MODEL 1
REMARK minimizedAffinity -2.6601541
REMARK minimizedRMSD -1
REMARK  0 active torsions:
REMARK  status: ('A' for Active; 'I' for Inactive)
ROOT
ATOM      1  O1  BZF d   1       0.779   0.790   0.003  0.00  0.00    -0.204 OA
ATOM      2  C2  BZF d   1      -0.504   1.231  -0.258  0.00  0.00     0.174 A 
ATOM      3  C3  BZF d   1      -1.286   0.212  -0.669  0.00  0.00    -0.012 A 
ATOM      4  C3A BZF d   1      -0.463  -0.955  -0.577  0.00  0.00    -0.107 A 
ATOM      5  C4  BZF d   1      -0.679  -2.279  -0.833  0.00  0.00     0.055 A 
ATOM      6  C5  BZF d   1       0.355  -3.152  -0.711  0.00  0.00    -0.016 A 
ATOM      7  C6  BZF d   1       1.617  -2.736  -0.341  0.00  0.00     0.022 A 
ATOM      8  C7  BZF d   1       1.879  -1.434  -0.071  0.00  0.00     0.029 A 
ATOM      9  C7A BZF d   1       0.828  -0.554  -0.162  0.00  0.00     0.058 A 
ENDROOT
TORSDOF 0
ENDMDL
