MODEL 1
REMARK minimizedAffinity -4.77822065
REMARK minimizedRMSD -1
REMARK  0 active torsions:
REMARK  status: ('A' for Active; 'I' for Inactive)
ROOT
ATOM      1  O1  BZF d   1       2.707  -1.832  -0.678  0.00  0.00    -0.204 OA
ATOM      2  C2  BZF d   1       3.632  -1.367   0.237  0.00  0.00     0.174 A 
ATOM      3  C3  BZF d   1       3.138  -0.318   0.925  0.00  0.00    -0.012 A 
ATOM      4  C3A BZF d   1       1.788  -0.173   0.473  0.00  0.00    -0.107 A 
ATOM      5  C4  BZF d   1       0.777   0.686   0.796  0.00  0.00     0.055 A 
ATOM      6  C5  BZF d   1      -0.398   0.608   0.118  0.00  0.00    -0.016 A 
ATOM      7  C6  BZF d   1      -0.593  -0.311  -0.893  0.00  0.00     0.022 A 
ATOM      8  C7  BZF d   1       0.379  -1.187  -1.246  0.00  0.00     0.029 A 
ATOM      9  C7A BZF d   1       1.556  -1.132  -0.539  0.00  0.00     0.058 A 
ENDROOT
TORSDOF 0
ENDMDL
