MODEL 1
REMARK minimizedAffinity -1.62905872
REMARK minimizedRMSD -1
REMARK  0 active torsions:
REMARK  status: ('A' for Active; 'I' for Inactive)
ROOT
ATOM      1  O1  BZF d   1       1.795  -2.940  -0.351  0.00  0.00    -0.204 OA
ATOM      2  C2  BZF d   1       0.600  -3.632  -0.337  0.00  0.00     0.174 A 
ATOM      3  C3  BZF d   1      -0.442  -2.785  -0.213  0.00  0.00    -0.012 A 
ATOM      4  C3A BZF d   1       0.133  -1.475  -0.240  0.00  0.00    -0.107 A 
ATOM      5  C4  BZF d   1      -0.394  -0.217  -0.172  0.00  0.00     0.055 A 
ATOM      6  C5  BZF d   1       0.446   0.851  -0.151  0.00  0.00    -0.016 A 
ATOM      7  C6  BZF d   1       1.817   0.697  -0.189  0.00  0.00     0.022 A 
ATOM      8  C7  BZF d   1       2.386  -0.531  -0.261  0.00  0.00     0.029 A 
ATOM      9  C7A BZF d   1       1.538  -1.610  -0.316  0.00  0.00     0.058 A 
ENDROOT
TORSDOF 0
ENDMDL
