MODEL 1
REMARK minimizedAffinity -0.498241305
REMARK minimizedRMSD -1
REMARK  0 active torsions:
REMARK  status: ('A' for Active; 'I' for Inactive)
ROOT
ATOM      1  O1  BZF d   1       2.860  -0.891  -0.342  0.00  0.00    -0.204 OA
ATOM      2  C2  BZF d   1       3.189   0.102   0.560  0.00  0.00     0.174 A 
ATOM      3  C3  BZF d   1       2.079   0.679   1.063  0.00  0.00    -0.012 A 
ATOM      4  C3A BZF d   1       0.987  -0.057   0.506  0.00  0.00    -0.107 A 
ATOM      5  C4  BZF d   1      -0.370   0.029   0.641  0.00  0.00     0.055 A 
ATOM      6  C5  BZF d   1      -1.160  -0.793  -0.098  0.00  0.00    -0.016 A 
ATOM      7  C6  BZF d   1      -0.630  -1.709  -0.983  0.00  0.00     0.022 A 
ATOM      8  C7  BZF d   1       0.710  -1.835  -1.147  0.00  0.00     0.029 A 
ATOM      9  C7A BZF d   1       1.512  -1.028  -0.378  0.00  0.00     0.058 A 
ENDROOT
TORSDOF 0
ENDMDL
