MODEL 1
REMARK minimizedAffinity -2.60168004
REMARK minimizedRMSD -1
REMARK  0 active torsions:
REMARK  status: ('A' for Active; 'I' for Inactive)
ROOT
ATOM      1  O1  BZF d   1       0.010   1.464   0.001  0.00  0.00    -0.204 OA
ATOM      2  C2  BZF d   1      -1.161   0.944  -0.517  0.00  0.00     0.174 A 
ATOM      3  C3  BZF d   1      -1.037  -0.380  -0.743  0.00  0.00    -0.012 A 
ATOM      4  C3A BZF d   1       0.263  -0.725  -0.255  0.00  0.00    -0.107 A 
ATOM      5  C4  BZF d   1       0.959  -1.898  -0.186  0.00  0.00     0.055 A 
ATOM      6  C5  BZF d   1       2.236  -1.882   0.279  0.00  0.00    -0.016 A 
ATOM      7  C6  BZF d   1       2.848  -0.713   0.679  0.00  0.00     0.022 A 
ATOM      8  C7  BZF d   1       2.197   0.475   0.633  0.00  0.00     0.029 A 
ATOM      9  C7A BZF d   1       0.895   0.457   0.194  0.00  0.00     0.058 A 
ENDROOT
TORSDOF 0
ENDMDL
