MODEL 1
REMARK minimizedAffinity -4.95391178
REMARK minimizedRMSD -1
REMARK  0 active torsions:
REMARK  status: ('A' for Active; 'I' for Inactive)
ROOT
ATOM      1  O1  BZF d   1      -0.507  -0.232  -0.996  0.00  0.00    -0.204 OA
ATOM      2  C2  BZF d   1      -0.481  -1.504  -1.534  0.00  0.00     0.174 A 
ATOM      3  C3  BZF d   1       0.651  -2.148  -1.184  0.00  0.00    -0.012 A 
ATOM      4  C3A BZF d   1       1.335  -1.254  -0.301  0.00  0.00    -0.107 A 
ATOM      5  C4  BZF d   1       2.511  -1.333   0.389  0.00  0.00     0.055 A 
ATOM      6  C5  BZF d   1       2.930  -0.256   1.104  0.00  0.00    -0.016 A 
ATOM      7  C6  BZF d   1       2.203   0.916   1.147  0.00  0.00     0.022 A 
ATOM      8  C7  BZF d   1       1.028   1.040   0.482  0.00  0.00     0.029 A 
ATOM      9  C7A BZF d   1       0.585  -0.058  -0.215  0.00  0.00     0.058 A 
ENDROOT
TORSDOF 0
ENDMDL
