MODEL 1
REMARK minimizedAffinity -1.21407866
REMARK minimizedRMSD -1
REMARK  0 active torsions:
REMARK  status: ('A' for Active; 'I' for Inactive)
ROOT
ATOM      1  O1  BZF d   1      -0.362  -0.017   0.428  0.00  0.00    -0.204 OA
ATOM      2  C2  BZF d   1       0.021  -0.408  -0.840  0.00  0.00     0.174 A 
ATOM      3  C3  BZF d   1      -1.029  -0.381  -1.687  0.00  0.00    -0.012 A 
ATOM      4  C3A BZF d   1      -2.117   0.142  -0.920  0.00  0.00    -0.107 A 
ATOM      5  C4  BZF d   1      -3.422   0.420  -1.211  0.00  0.00     0.055 A 
ATOM      6  C5  BZF d   1      -4.243   0.853  -0.217  0.00  0.00    -0.016 A 
ATOM      7  C6  BZF d   1      -3.793   1.014   1.077  0.00  0.00     0.022 A 
ATOM      8  C7  BZF d   1      -2.506   0.756   1.413  0.00  0.00     0.029 A 
ATOM      9  C7A BZF d   1      -1.666   0.350   0.404  0.00  0.00     0.058 A 
ENDROOT
TORSDOF 0
ENDMDL
