MODEL 1
REMARK minimizedAffinity -4.74083948
REMARK minimizedRMSD -1
REMARK  0 active torsions:
REMARK  status: ('A' for Active; 'I' for Inactive)
ROOT
ATOM      1  C   UNL d   1       1.562   1.384  -3.006  0.00  0.00     0.078 C 
ATOM      2  C1  UNL d   1       0.884   0.784  -1.811  0.00  0.00    -0.077 A 
ATOM      3  C2  UNL d   1       1.277  -0.463  -1.308  0.00  0.00    -0.001 A 
ATOM      4  C3  UNL d   1       0.630  -1.014  -0.201  0.00  0.00     0.003 A 
ATOM      5  C4  UNL d   1      -0.414  -0.325   0.413  0.00  0.00    -0.005 A 
ATOM      6  C5  UNL d   1      -0.814   0.915  -0.081  0.00  0.00     0.003 A 
ATOM      7  C6  UNL d   1      -0.168   1.467  -1.188  0.00  0.00    -0.001 A 
ENDROOT
TORSDOF 0
ENDMDL
