MODEL 1
REMARK minimizedAffinity -4.10729074
REMARK minimizedRMSD -1
REMARK  0 active torsions:
REMARK  status: ('A' for Active; 'I' for Inactive)
ROOT
ATOM      1  C   UNL d   1      -1.346   1.251  -0.194  0.00  0.00     0.078 C 
ATOM      2  C1  UNL d   1      -1.864   1.067   1.201  0.00  0.00    -0.077 A 
ATOM      3  C2  UNL d   1      -1.487   1.938   2.231  0.00  0.00    -0.001 A 
ATOM      4  C3  UNL d   1      -1.970   1.749   3.527  0.00  0.00     0.003 A 
ATOM      5  C4  UNL d   1      -2.830   0.689   3.806  0.00  0.00    -0.005 A 
ATOM      6  C5  UNL d   1      -3.209  -0.184   2.788  0.00  0.00     0.003 A 
ATOM      7  C6  UNL d   1      -2.728   0.003   1.491  0.00  0.00    -0.001 A 
ENDROOT
TORSDOF 0
ENDMDL
