MODEL 1
REMARK minimizedAffinity -3.88195562
REMARK minimizedRMSD -1
REMARK  0 active torsions:
REMARK  status: ('A' for Active; 'I' for Inactive)
ROOT
ATOM      1  C   UNL d   1      -1.281   0.580   0.304  0.00  0.00     0.078 C 
ATOM      2  C1  UNL d   1       0.033   0.052  -0.190  0.00  0.00    -0.077 A 
ATOM      3  C2  UNL d   1       0.820   0.794  -1.079  0.00  0.00    -0.001 A 
ATOM      4  C3  UNL d   1       2.036   0.285  -1.538  0.00  0.00     0.003 A 
ATOM      5  C4  UNL d   1       2.475  -0.968  -1.114  0.00  0.00    -0.005 A 
ATOM      6  C5  UNL d   1       1.697  -1.714  -0.232  0.00  0.00     0.003 A 
ATOM      7  C6  UNL d   1       0.481  -1.207   0.228  0.00  0.00    -0.001 A 
ENDROOT
TORSDOF 0
ENDMDL
