MODEL 1
REMARK minimizedAffinity -3.8883903
REMARK minimizedRMSD -1
REMARK  0 active torsions:
REMARK  status: ('A' for Active; 'I' for Inactive)
ROOT
ATOM      1  C   UNL d   1      -0.089   0.359   0.057  0.00  0.00     0.078 C 
ATOM      2  C1  UNL d   1      -0.996   0.511   1.242  0.00  0.00    -0.077 A 
ATOM      3  C2  UNL d   1      -2.165  -0.251   1.358  0.00  0.00    -0.001 A 
ATOM      4  C3  UNL d   1      -3.004  -0.092   2.461  0.00  0.00     0.003 A 
ATOM      5  C4  UNL d   1      -2.685   0.830   3.456  0.00  0.00    -0.005 A 
ATOM      6  C5  UNL d   1      -1.525   1.594   3.348  0.00  0.00     0.003 A 
ATOM      7  C6  UNL d   1      -0.684   1.437   2.246  0.00  0.00    -0.001 A 
ENDROOT
TORSDOF 0
ENDMDL
