MODEL 1
REMARK minimizedAffinity -1.14591193
REMARK minimizedRMSD -1
REMARK  0 active torsions:
REMARK  status: ('A' for Active; 'I' for Inactive)
ROOT
ATOM      1  C   UNL d   1      -1.716   0.625   3.887  0.00  0.00     0.078 C 
ATOM      2  C1  UNL d   1      -1.083   0.859   2.548  0.00  0.00    -0.077 A 
ATOM      3  C2  UNL d   1      -1.236  -0.064   1.507  0.00  0.00    -0.001 A 
ATOM      4  C3  UNL d   1      -0.634   0.163   0.268  0.00  0.00     0.003 A 
ATOM      5  C4  UNL d   1       0.127   1.311   0.060  0.00  0.00    -0.005 A 
ATOM      6  C5  UNL d   1       0.287   2.235   1.091  0.00  0.00     0.003 A 
ATOM      7  C6  UNL d   1      -0.315   2.010   2.330  0.00  0.00    -0.001 A 
ENDROOT
TORSDOF 0
ENDMDL
