MODEL 1
REMARK minimizedAffinity -4.86013699
REMARK minimizedRMSD -1
REMARK  0 active torsions:
REMARK  status: ('A' for Active; 'I' for Inactive)
ROOT
ATOM      1  C   UNL d   1       0.065   0.013   0.429  0.00  0.00     0.078 C 
ATOM      2  C1  UNL d   1       1.021   0.351  -0.676  0.00  0.00    -0.077 A 
ATOM      3  C2  UNL d   1       2.017  -0.552  -1.069  0.00  0.00    -0.001 A 
ATOM      4  C3  UNL d   1       2.906  -0.219  -2.092  0.00  0.00     0.003 A 
ATOM      5  C4  UNL d   1       2.810   1.016  -2.730  0.00  0.00    -0.005 A 
ATOM      6  C5  UNL d   1       1.823   1.921  -2.344  0.00  0.00     0.003 A 
ATOM      7  C6  UNL d   1       0.933   1.591  -1.321  0.00  0.00    -0.001 A 
ENDROOT
TORSDOF 0
ENDMDL
