MODEL 1
REMARK minimizedAffinity -4.92281961
REMARK minimizedRMSD -1
REMARK  0 active torsions:
REMARK  status: ('A' for Active; 'I' for Inactive)
ROOT
ATOM      1  C   UNL d   1      -0.832   0.562   0.843  0.00  0.00     0.078 C 
ATOM      2  C1  UNL d   1       0.292   0.155  -0.063  0.00  0.00    -0.077 A 
ATOM      3  C2  UNL d   1       1.131   1.112  -0.646  0.00  0.00    -0.001 A 
ATOM      4  C3  UNL d   1       2.167   0.720  -1.496  0.00  0.00     0.003 A 
ATOM      5  C4  UNL d   1       2.372  -0.631  -1.771  0.00  0.00    -0.005 A 
ATOM      6  C5  UNL d   1       1.541  -1.590  -1.197  0.00  0.00     0.003 A 
ATOM      7  C6  UNL d   1       0.505  -1.200  -0.347  0.00  0.00    -0.001 A 
ENDROOT
TORSDOF 0
ENDMDL
