MODEL 1
REMARK minimizedAffinity -5.76464796
REMARK minimizedRMSD -1
REMARK  0 active torsions:
REMARK  status: ('A' for Active; 'I' for Inactive)
ROOT
ATOM      1  C   UNL d   1      -0.932   0.069   0.108  0.00  0.00     0.078 C 
ATOM      2  C1  UNL d   1       0.408  -0.063  -0.552  0.00  0.00    -0.077 A 
ATOM      3  C2  UNL d   1       1.070  -1.296  -0.601  0.00  0.00    -0.001 A 
ATOM      4  C3  UNL d   1       2.321  -1.402  -1.210  0.00  0.00     0.003 A 
ATOM      5  C4  UNL d   1       2.922  -0.278  -1.775  0.00  0.00    -0.005 A 
ATOM      6  C5  UNL d   1       2.272   0.953  -1.730  0.00  0.00     0.003 A 
ATOM      7  C6  UNL d   1       1.020   1.061  -1.121  0.00  0.00    -0.001 A 
ENDROOT
TORSDOF 0
ENDMDL
