MODEL 1
REMARK minimizedAffinity -0.496244699
REMARK minimizedRMSD -1
REMARK  0 active torsions:
REMARK  status: ('A' for Active; 'I' for Inactive)
ROOT
ATOM      1  C   UNL d   1       3.897  -0.445  -1.310  0.00  0.00     0.078 C 
ATOM      2  C1  UNL d   1       2.847   0.571  -1.648  0.00  0.00    -0.077 A 
ATOM      3  C2  UNL d   1       1.884   0.314  -2.631  0.00  0.00    -0.001 A 
ATOM      4  C3  UNL d   1       0.918   1.273  -2.942  0.00  0.00     0.003 A 
ATOM      5  C4  UNL d   1       0.907   2.496  -2.275  0.00  0.00    -0.005 A 
ATOM      6  C5  UNL d   1       1.862   2.762  -1.296  0.00  0.00     0.003 A 
ATOM      7  C6  UNL d   1       2.829   1.805  -0.984  0.00  0.00    -0.001 A 
ENDROOT
TORSDOF 0
ENDMDL
