MODEL 1
REMARK minimizedAffinity -2.83291054
REMARK minimizedRMSD -1
REMARK  0 active torsions:
REMARK  status: ('A' for Active; 'I' for Inactive)
ROOT
ATOM      1  C   UNL d   1       5.967  -4.350   5.980  0.00  0.00     0.078 C 
ATOM      2  C1  UNL d   1       5.459  -3.091   5.342  0.00  0.00    -0.077 A 
ATOM      3  C2  UNL d   1       5.557  -1.859   6.000  0.00  0.00    -0.001 A 
ATOM      4  C3  UNL d   1       5.071  -0.697   5.399  0.00  0.00     0.003 A 
ATOM      5  C4  UNL d   1       4.482  -0.756   4.137  0.00  0.00    -0.005 A 
ATOM      6  C5  UNL d   1       4.378  -1.978   3.475  0.00  0.00     0.003 A 
ATOM      7  C6  UNL d   1       4.864  -3.141   4.075  0.00  0.00    -0.001 A 
ENDROOT
TORSDOF 0
ENDMDL
