MODEL 1
REMARK minimizedAffinity -5.04331017
REMARK minimizedRMSD -1
REMARK  0 active torsions:
REMARK  status: ('A' for Active; 'I' for Inactive)
ROOT
ATOM      1  C   UNL d   1       2.666  -0.536  -2.008  0.00  0.00     0.078 C 
ATOM      2  C1  UNL d   1       1.377  -0.138  -1.354  0.00  0.00    -0.077 A 
ATOM      3  C2  UNL d   1       0.855   1.151  -1.514  0.00  0.00    -0.001 A 
ATOM      4  C3  UNL d   1      -0.341   1.511  -0.891  0.00  0.00     0.003 A 
ATOM      5  C4  UNL d   1      -1.024   0.588  -0.102  0.00  0.00    -0.005 A 
ATOM      6  C5  UNL d   1      -0.511  -0.697   0.065  0.00  0.00     0.003 A 
ATOM      7  C6  UNL d   1       0.685  -1.058  -0.557  0.00  0.00    -0.001 A 
ENDROOT
TORSDOF 0
ENDMDL
