MODEL 1
REMARK minimizedAffinity -5.15352392
REMARK minimizedRMSD -1
REMARK  0 active torsions:
REMARK  status: ('A' for Active; 'I' for Inactive)
ROOT
ATOM      1  C   UNL d   1      -0.991   0.784   0.989  0.00  0.00     0.078 C 
ATOM      2  C1  UNL d   1      -0.002   0.295  -0.027  0.00  0.00    -0.077 A 
ATOM      3  C2  UNL d   1       0.589  -0.968   0.093  0.00  0.00    -0.001 A 
ATOM      4  C3  UNL d   1       1.515  -1.407  -0.855  0.00  0.00     0.003 A 
ATOM      5  C4  UNL d   1       1.860  -0.587  -1.928  0.00  0.00    -0.005 A 
ATOM      6  C5  UNL d   1       1.278   0.673  -2.054  0.00  0.00     0.003 A 
ATOM      7  C6  UNL d   1       0.352   1.113  -1.107  0.00  0.00    -0.001 A 
ENDROOT
TORSDOF 0
ENDMDL
