MODEL 1
REMARK minimizedAffinity -4.67213011
REMARK minimizedRMSD -1
REMARK  0 active torsions:
REMARK  status: ('A' for Active; 'I' for Inactive)
ROOT
ATOM      1  C   UNL d   1       2.769   0.757  -2.997  0.00  0.00     0.078 C 
ATOM      2  C1  UNL d   1       1.781   0.289  -1.971  0.00  0.00    -0.077 A 
ATOM      3  C2  UNL d   1       1.798  -1.031  -1.504  0.00  0.00    -0.001 A 
ATOM      4  C3  UNL d   1       0.866  -1.456  -0.556  0.00  0.00     0.003 A 
ATOM      5  C4  UNL d   1      -0.090  -0.568  -0.067  0.00  0.00    -0.005 A 
ATOM      6  C5  UNL d   1      -0.115   0.747  -0.527  0.00  0.00     0.003 A 
ATOM      7  C6  UNL d   1       0.816   1.174  -1.475  0.00  0.00    -0.001 A 
ENDROOT
TORSDOF 0
ENDMDL
