MODEL 1
REMARK minimizedAffinity -6.10859156
REMARK minimizedRMSD -1
REMARK  0 active torsions:
REMARK  status: ('A' for Active; 'I' for Inactive)
ROOT
ATOM      1  C2' OXE d   1      -2.769  -1.172  -0.372  0.00  0.00     0.078 C 
ATOM      2  C1' OXE d   1      -1.142   0.023  -2.323  0.00  0.00     0.078 C 
ATOM      3  C1  OXE d   1      -0.471  -0.531  -1.090  0.00  0.00    -0.078 A 
ATOM      4  C2  OXE d   1      -1.280  -1.072  -0.120  0.00  0.00    -0.078 A 
ATOM      5  C3  OXE d   1      -0.708  -1.645   1.012  0.00  0.00     0.003 A 
ATOM      6  C4  OXE d   1       0.669  -1.539   1.243  0.00  0.00    -0.002 A 
ATOM      7  C5  OXE d   1       1.506  -0.957   0.285  0.00  0.00    -0.002 A 
ATOM      8  C6  OXE d   1       0.958  -0.487  -0.904  0.00  0.00     0.003 A 
ENDROOT
TORSDOF 0
ENDMDL
