MODEL 1
REMARK minimizedAffinity -2.85573721
REMARK minimizedRMSD -1
REMARK  0 active torsions:
REMARK  status: ('A' for Active; 'I' for Inactive)
ROOT
ATOM      1  C2' OXE d   1      -1.439  -1.702   2.134  0.00  0.00     0.078 C 
ATOM      2  C1' OXE d   1      -3.110  -1.243  -0.075  0.00  0.00     0.078 C 
ATOM      3  C1  OXE d   1      -1.688  -0.744  -0.152  0.00  0.00    -0.078 A 
ATOM      4  C2  OXE d   1      -0.892  -0.932   0.952  0.00  0.00    -0.078 A 
ATOM      5  C3  OXE d   1       0.443  -0.539   0.913  0.00  0.00     0.003 A 
ATOM      6  C4  OXE d   1       0.939   0.182  -0.180  0.00  0.00    -0.002 A 
ATOM      7  C5  OXE d   1       0.133   0.418  -1.298  0.00  0.00    -0.002 A 
ATOM      8  C6  OXE d   1      -1.168  -0.074  -1.318  0.00  0.00     0.003 A 
ENDROOT
TORSDOF 0
ENDMDL
