MODEL 1
REMARK minimizedAffinity -2.80172658
REMARK minimizedRMSD -1
REMARK  0 active torsions:
REMARK  status: ('A' for Active; 'I' for Inactive)
ROOT
ATOM      1  C2' OXE d   1      -1.096   1.401  -2.243  0.00  0.00     0.078 C 
ATOM      2  C1' OXE d   1       0.425   0.717   0.015  0.00  0.00     0.078 C 
ATOM      3  C1  OXE d   1      -0.796  -0.114  -0.289  0.00  0.00    -0.078 A 
ATOM      4  C2  OXE d   1      -1.561   0.256  -1.369  0.00  0.00    -0.078 A 
ATOM      5  C3  OXE d   1      -2.667  -0.510  -1.726  0.00  0.00     0.003 A 
ATOM      6  C4  OXE d   1      -3.095  -1.561  -0.906  0.00  0.00    -0.002 A 
ATOM      7  C5  OXE d   1      -2.354  -1.930   0.221  0.00  0.00    -0.002 A 
ATOM      8  C6  OXE d   1      -1.181  -1.245   0.519  0.00  0.00     0.003 A 
ENDROOT
TORSDOF 0
ENDMDL
