MODEL 1
REMARK minimizedAffinity -4.61579418
REMARK minimizedRMSD -1
REMARK  0 active torsions:
REMARK  status: ('A' for Active; 'I' for Inactive)
ROOT
ATOM      1  C2' OXE d   1       0.093   0.000  -2.607  0.00  0.00     0.078 C 
ATOM      2  C1' OXE d   1       0.823   1.462  -0.324  0.00  0.00     0.078 C 
ATOM      3  C1  OXE d   1      -0.478   0.699  -0.285  0.00  0.00    -0.078 A 
ATOM      4  C2  OXE d   1      -0.850   0.025  -1.423  0.00  0.00    -0.078 A 
ATOM      5  C3  OXE d   1      -2.013  -0.740  -1.422  0.00  0.00     0.003 A 
ATOM      6  C4  OXE d   1      -2.884  -0.704  -0.326  0.00  0.00    -0.002 A 
ATOM      7  C5  OXE d   1      -2.543   0.009   0.829  0.00  0.00    -0.002 A 
ATOM      8  C6  OXE d   1      -1.326   0.680   0.881  0.00  0.00     0.003 A 
ENDROOT
TORSDOF 0
ENDMDL
