MODEL 1
REMARK minimizedAffinity -4.22168541
REMARK minimizedRMSD -1
REMARK  0 active torsions:
REMARK  status: ('A' for Active; 'I' for Inactive)
ROOT
ATOM      1  C2' OXE d   1      -0.677   0.569  -2.420  0.00  0.00     0.078 C 
ATOM      2  C1' OXE d   1      -2.592  -1.208  -1.394  0.00  0.00     0.078 C 
ATOM      3  C1  OXE d   1      -1.294  -1.062  -0.642  0.00  0.00    -0.078 A 
ATOM      4  C2  OXE d   1      -0.344  -0.226  -1.176  0.00  0.00    -0.078 A 
ATOM      5  C3  OXE d   1       0.850  -0.013  -0.493  0.00  0.00     0.003 A 
ATOM      6  C4  OXE d   1       1.155  -0.759   0.651  0.00  0.00    -0.002 A 
ATOM      7  C5  OXE d   1       0.218  -1.647   1.191  0.00  0.00    -0.002 A 
ATOM      8  C6  OXE d   1      -1.025  -1.778   0.581  0.00  0.00     0.003 A 
ENDROOT
TORSDOF 0
ENDMDL
