MODEL 1
REMARK minimizedAffinity -2.72777295
REMARK minimizedRMSD -1
REMARK  0 active torsions:
REMARK  status: ('A' for Active; 'I' for Inactive)
ROOT
ATOM      1  C2' OXE d   1      -0.583   0.785   0.374  0.00  0.00     0.078 C 
ATOM      2  C1' OXE d   1      -0.076   0.059  -2.290  0.00  0.00     0.078 C 
ATOM      3  C1  OXE d   1      -1.135  -0.710  -1.541  0.00  0.00    -0.078 A 
ATOM      4  C2  OXE d   1      -1.344  -0.379  -0.224  0.00  0.00    -0.078 A 
ATOM      5  C3  OXE d   1      -2.346  -1.021   0.498  0.00  0.00     0.003 A 
ATOM      6  C4  OXE d   1      -3.039  -2.103  -0.059  0.00  0.00    -0.002 A 
ATOM      7  C5  OXE d   1      -2.814  -2.483  -1.387  0.00  0.00    -0.002 A 
ATOM      8  C6  OXE d   1      -1.897  -1.771  -2.153  0.00  0.00     0.003 A 
ENDROOT
TORSDOF 0
ENDMDL
