MODEL 1
REMARK minimizedAffinity -5.25157356
REMARK minimizedRMSD -1
REMARK  0 active torsions:
REMARK  status: ('A' for Active; 'I' for Inactive)
ROOT
ATOM      1  C2' OXE d   1      -2.227  -1.530  -3.155  0.00  0.00     0.078 C 
ATOM      2  C1' OXE d   1      -0.180   0.152  -2.226  0.00  0.00     0.078 C 
ATOM      3  C1  OXE d   1      -1.128  -0.432  -1.208  0.00  0.00    -0.078 A 
ATOM      4  C2  OXE d   1      -2.154  -1.216  -1.676  0.00  0.00    -0.078 A 
ATOM      5  C3  OXE d   1      -3.024  -1.824  -0.775  0.00  0.00     0.003 A 
ATOM      6  C4  OXE d   1      -2.957  -1.520   0.590  0.00  0.00    -0.002 A 
ATOM      7  C5  OXE d   1      -1.943  -0.692   1.084  0.00  0.00    -0.002 A 
ATOM      8  C6  OXE d   1      -0.997  -0.175   0.205  0.00  0.00     0.003 A 
ENDROOT
TORSDOF 0
ENDMDL
