MODEL 1
REMARK minimizedAffinity -2.90337348
REMARK minimizedRMSD -1
REMARK  0 active torsions:
REMARK  status: ('A' for Active; 'I' for Inactive)
ROOT
ATOM      1  C2' OXE d   1      -2.003  -3.541   0.844  0.00  0.00     0.078 C 
ATOM      2  C1' OXE d   1       0.282  -2.081   1.571  0.00  0.00     0.078 C 
ATOM      3  C1  OXE d   1      -0.924  -1.310   1.094  0.00  0.00    -0.078 A 
ATOM      4  C2  OXE d   1      -2.021  -2.035   0.697  0.00  0.00    -0.078 A 
ATOM      5  C3  OXE d   1      -3.179  -1.372   0.300  0.00  0.00     0.003 A 
ATOM      6  C4  OXE d   1      -3.185   0.021   0.157  0.00  0.00    -0.002 A 
ATOM      7  C5  OXE d   1      -2.065   0.776   0.519  0.00  0.00    -0.002 A 
ATOM      8  C6  OXE d   1      -0.943   0.131   1.029  0.00  0.00     0.003 A 
ENDROOT
TORSDOF 0
ENDMDL
