MODEL 1
REMARK minimizedAffinity -4.570364
REMARK minimizedRMSD -1
REMARK  0 active torsions:
REMARK  status: ('A' for Active; 'I' for Inactive)
ROOT
ATOM      1  C2' OXE d   1       0.827   0.386  -0.079  0.00  0.00     0.078 C 
ATOM      2  C1' OXE d   1      -0.859   1.264  -2.145  0.00  0.00     0.078 C 
ATOM      3  C1  OXE d   1      -1.375   0.185  -1.226  0.00  0.00    -0.078 A 
ATOM      4  C2  OXE d   1      -0.526  -0.272  -0.247  0.00  0.00    -0.078 A 
ATOM      5  C3  OXE d   1      -0.971  -1.228   0.661  0.00  0.00     0.003 A 
ATOM      6  C4  OXE d   1      -2.220  -1.839   0.492  0.00  0.00    -0.002 A 
ATOM      7  C5  OXE d   1      -3.085  -1.416  -0.523  0.00  0.00    -0.002 A 
ATOM      8  C6  OXE d   1      -2.696  -0.379  -1.363  0.00  0.00     0.003 A 
ENDROOT
TORSDOF 0
ENDMDL
