MODEL 1
REMARK minimizedAffinity -5.05916071
REMARK minimizedRMSD -1
REMARK  0 active torsions:
REMARK  status: ('A' for Active; 'I' for Inactive)
ROOT
ATOM      1  C2' OXE d   1      -0.454   1.059  -2.140  0.00  0.00     0.078 C 
ATOM      2  C1' OXE d   1       0.702   0.238   0.283  0.00  0.00     0.078 C 
ATOM      3  C1  OXE d   1      -0.625  -0.366  -0.104  0.00  0.00    -0.078 A 
ATOM      4  C2  OXE d   1      -1.206   0.076  -1.268  0.00  0.00    -0.078 A 
ATOM      5  C3  OXE d   1      -2.403  -0.488  -1.700  0.00  0.00     0.003 A 
ATOM      6  C4  OXE d   1      -3.096  -1.389  -0.883  0.00  0.00    -0.002 A 
ATOM      7  C5  OXE d   1      -2.542  -1.823   0.326  0.00  0.00    -0.002 A 
ATOM      8  C6  OXE d   1      -1.290  -1.354   0.709  0.00  0.00     0.003 A 
ENDROOT
TORSDOF 0
ENDMDL
