MODEL 1
REMARK minimizedAffinity -2.12608147
REMARK minimizedRMSD -1
REMARK  0 active torsions:
REMARK  status: ('A' for Active; 'I' for Inactive)
ROOT
ATOM      1  C2' OXE d   1      -2.611   1.478   1.391  0.00  0.00     0.078 C 
ATOM      2  C1' OXE d   1      -0.168   1.889   0.072  0.00  0.00     0.078 C 
ATOM      3  C1  OXE d   1      -0.410   0.539   0.698  0.00  0.00    -0.078 A 
ATOM      4  C2  OXE d   1      -1.589   0.362   1.381  0.00  0.00    -0.078 A 
ATOM      5  C3  OXE d   1      -1.887  -0.882   1.931  0.00  0.00     0.003 A 
ATOM      6  C4  OXE d   1      -0.931  -1.906   1.927  0.00  0.00    -0.002 A 
ATOM      7  C5  OXE d   1       0.292  -1.733   1.270  0.00  0.00    -0.002 A 
ATOM      8  C6  OXE d   1       0.550  -0.534   0.616  0.00  0.00     0.003 A 
ENDROOT
TORSDOF 0
ENDMDL
