MODEL 1
REMARK minimizedAffinity -3.44294167
REMARK minimizedRMSD -1
REMARK  0 active torsions:
REMARK  status: ('A' for Active; 'I' for Inactive)
ROOT
ATOM      1  C2' OXE d   1      -3.635  -0.829  -0.049  0.00  0.00     0.078 C 
ATOM      2  C1' OXE d   1      -1.978  -0.589  -2.301  0.00  0.00     0.078 C 
ATOM      3  C1  OXE d   1      -1.368  -0.322  -0.948  0.00  0.00    -0.078 A 
ATOM      4  C2  OXE d   1      -2.198  -0.396   0.145  0.00  0.00    -0.078 A 
ATOM      5  C3  OXE d   1      -1.675  -0.212   1.422  0.00  0.00     0.003 A 
ATOM      6  C4  OXE d   1      -0.347   0.198   1.591  0.00  0.00    -0.002 A 
ATOM      7  C5  OXE d   1       0.505   0.318   0.488  0.00  0.00    -0.002 A 
ATOM      8  C6  OXE d   1       0.022   0.021  -0.782  0.00  0.00     0.003 A 
ENDROOT
TORSDOF 0
ENDMDL
