MODEL 1
REMARK minimizedAffinity -3.99951458
REMARK minimizedRMSD -1
REMARK  0 active torsions:
REMARK  status: ('A' for Active; 'I' for Inactive)
ROOT
ATOM      1  C2' OXE d   1       4.132   3.637  -1.214  0.00  0.00     0.078 C 
ATOM      2  C1' OXE d   1       4.044   3.810   1.587  0.00  0.00     0.078 C 
ATOM      3  C1  OXE d   1       3.355   2.639   0.932  0.00  0.00    -0.078 A 
ATOM      4  C2  OXE d   1       3.363   2.587  -0.441  0.00  0.00    -0.078 A 
ATOM      5  C3  OXE d   1       2.790   1.500  -1.094  0.00  0.00     0.003 A 
ATOM      6  C4  OXE d   1       2.072   0.538  -0.372  0.00  0.00    -0.002 A 
ATOM      7  C5  OXE d   1       2.017   0.593   1.025  0.00  0.00    -0.002 A 
ATOM      8  C6  OXE d   1       2.688   1.611   1.693  0.00  0.00     0.003 A 
ENDROOT
TORSDOF 0
ENDMDL
