MODEL 1
REMARK minimizedAffinity -2.53753233
REMARK minimizedRMSD -1
REMARK  0 active torsions:
REMARK  status: ('A' for Active; 'I' for Inactive)
ROOT
ATOM      1  C2' OXE d   1       0.014  -0.030  -2.704  0.00  0.00     0.078 C 
ATOM      2  C1' OXE d   1      -2.321  -1.452  -2.065  0.00  0.00     0.078 C 
ATOM      3  C1  OXE d   1      -1.549  -0.821  -0.933  0.00  0.00    -0.078 A 
ATOM      4  C2  OXE d   1      -0.383  -0.166  -1.250  0.00  0.00    -0.078 A 
ATOM      5  C3  OXE d   1       0.338   0.481  -0.250  0.00  0.00     0.003 A 
ATOM      6  C4  OXE d   1      -0.031   0.341   1.093  0.00  0.00    -0.002 A 
ATOM      7  C5  OXE d   1      -1.193  -0.355   1.442  0.00  0.00    -0.002 A 
ATOM      8  C6  OXE d   1      -1.985  -0.904   0.439  0.00  0.00     0.003 A 
ENDROOT
TORSDOF 0
ENDMDL
