MODEL 1
REMARK minimizedAffinity -5.38470173
REMARK minimizedRMSD -1
REMARK  0 active torsions:
REMARK  status: ('A' for Active; 'I' for Inactive)
ROOT
ATOM      1  C2' OXE d   1      -0.715   0.399   2.186  0.00  0.00     0.078 C 
ATOM      2  C1' OXE d   1       1.206   0.088   0.163  0.00  0.00     0.078 C 
ATOM      3  C1  OXE d   1      -0.243  -0.112  -0.205  0.00  0.00    -0.078 A 
ATOM      4  C2  OXE d   1      -1.172  -0.004   0.801  0.00  0.00    -0.078 A 
ATOM      5  C3  OXE d   1      -2.527  -0.125   0.504  0.00  0.00     0.003 A 
ATOM      6  C4  OXE d   1      -2.940  -0.508  -0.777  0.00  0.00    -0.002 A 
ATOM      7  C5  OXE d   1      -2.007  -0.663  -1.808  0.00  0.00    -0.002 A 
ATOM      8  C6  OXE d   1      -0.661  -0.427  -1.549  0.00  0.00     0.003 A 
ENDROOT
TORSDOF 0
ENDMDL
