MODEL 1
REMARK minimizedAffinity -1.49298096
REMARK minimizedRMSD -1
REMARK  0 active torsions:
REMARK  status: ('A' for Active; 'I' for Inactive)
ROOT
ATOM      1  C2' OXE d   1       1.155  -0.487   1.795  0.00  0.00     0.078 C 
ATOM      2  C1' OXE d   1       2.218  -0.097  -0.774  0.00  0.00     0.078 C 
ATOM      3  C1  OXE d   1       2.394   1.010   0.236  0.00  0.00    -0.078 A 
ATOM      4  C2  OXE d   1       1.830   0.829   1.476  0.00  0.00    -0.078 A 
ATOM      5  C3  OXE d   1       2.009   1.796   2.462  0.00  0.00     0.003 A 
ATOM      6  C4  OXE d   1       2.626   3.015   2.156  0.00  0.00    -0.002 A 
ATOM      7  C5  OXE d   1       3.172   3.235   0.887  0.00  0.00    -0.002 A 
ATOM      8  C6  OXE d   1       3.102   2.228  -0.069  0.00  0.00     0.003 A 
ENDROOT
TORSDOF 0
ENDMDL
