MODEL 1
REMARK minimizedAffinity -1.88644147
REMARK minimizedRMSD -1
REMARK  0 active torsions:
REMARK  status: ('A' for Active; 'I' for Inactive)
ROOT
ATOM      1  C   UNL d   1       5.664  -2.037  -5.558  0.00  0.00     0.020 A 
ATOM      2  C1  UNL d   1       4.873  -1.878  -4.420  0.00  0.00     0.020 A 
ATOM      3  C2  UNL d   1       4.418  -2.999  -3.724  0.00  0.00     0.034 A 
ATOM      4  C3  UNL d   1       4.752  -4.285  -4.164  0.00  0.00     0.017 A 
ATOM      5  C4  UNL d   1       5.545  -4.444  -5.306  0.00  0.00     0.017 A 
ATOM      6  C5  UNL d   1       5.999  -3.318  -6.000  0.00  0.00     0.034 A 
ATOM      7 Cl   UNL d   1       5.999  -5.999  -5.910  0.00  0.00    -0.070 Cl
ATOM      8 Cl1  UNL d   1       4.154  -5.627  -3.254  0.00  0.00    -0.070 Cl
ENDROOT
TORSDOF 0
ENDMDL
