MODEL 1
REMARK minimizedAffinity 0.965770841
REMARK minimizedRMSD -1
REMARK  0 active torsions:
REMARK  status: ('A' for Active; 'I' for Inactive)
ROOT
ATOM      1  C   UNL d   1       4.211  -5.999  -5.422  0.00  0.00     0.020 A 
ATOM      2  C1  UNL d   1       5.386  -5.515  -5.996  0.00  0.00     0.020 A 
ATOM      3  C2  UNL d   1       5.921  -4.298  -5.568  0.00  0.00     0.034 A 
ATOM      4  C3  UNL d   1       5.281  -3.561  -4.565  0.00  0.00     0.017 A 
ATOM      5  C4  UNL d   1       4.102  -4.049  -3.990  0.00  0.00     0.017 A 
ATOM      6  C5  UNL d   1       3.570  -5.268  -4.422  0.00  0.00     0.034 A 
ATOM      7 Cl   UNL d   1       3.256  -3.196  -2.747  0.00  0.00    -0.070 Cl
ATOM      8 Cl1  UNL d   1       5.999  -2.065  -4.085  0.00  0.00    -0.070 Cl
ENDROOT
TORSDOF 0
ENDMDL
