MODEL 1
REMARK minimizedAffinity -2.2122798
REMARK minimizedRMSD -1
REMARK  0 active torsions:
REMARK  status: ('A' for Active; 'I' for Inactive)
ROOT
ATOM      1  C   UNL d   1       5.688  -1.993  -5.551  0.00  0.00     0.020 A 
ATOM      2  C1  UNL d   1       4.866  -1.825  -4.438  0.00  0.00     0.020 A 
ATOM      3  C2  UNL d   1       4.354  -2.941  -3.773  0.00  0.00     0.034 A 
ATOM      4  C3  UNL d   1       4.665  -4.231  -4.220  0.00  0.00     0.017 A 
ATOM      5  C4  UNL d   1       5.490  -4.399  -5.337  0.00  0.00     0.017 A 
ATOM      6  C5  UNL d   1       6.000  -3.278  -6.000  0.00  0.00     0.034 A 
ATOM      7 Cl   UNL d   1       5.918  -5.958  -5.948  0.00  0.00    -0.070 Cl
ATOM      8 Cl1  UNL d   1       3.998  -5.565  -3.349  0.00  0.00    -0.070 Cl
ENDROOT
TORSDOF 0
ENDMDL
