MODEL 1
REMARK minimizedAffinity -1.00065899
REMARK minimizedRMSD -1
REMARK  0 active torsions:
REMARK  status: ('A' for Active; 'I' for Inactive)
ROOT
ATOM      1  C   UNL d   1       4.145  -6.000  -4.812  0.00  0.00     0.020 A 
ATOM      2  C1  UNL d   1       5.440  -5.893  -5.317  0.00  0.00     0.020 A 
ATOM      3  C2  UNL d   1       5.994  -4.633  -5.558  0.00  0.00     0.034 A 
ATOM      4  C3  UNL d   1       5.252  -3.476  -5.294  0.00  0.00     0.017 A 
ATOM      5  C4  UNL d   1       3.952  -3.585  -4.787  0.00  0.00     0.017 A 
ATOM      6  C5  UNL d   1       3.403  -4.848  -4.547  0.00  0.00     0.034 A 
ATOM      7 Cl   UNL d   1       2.976  -2.202  -4.436  0.00  0.00    -0.070 Cl
ATOM      8 Cl1  UNL d   1       6.000  -1.952  -5.615  0.00  0.00    -0.070 Cl
ENDROOT
TORSDOF 0
ENDMDL
