MODEL 1
REMARK minimizedAffinity -2.12219334
REMARK minimizedRMSD -1
REMARK  0 active torsions:
REMARK  status: ('A' for Active; 'I' for Inactive)
ROOT
ATOM      1  C   UNL d   1       4.192  -5.636  -4.874  0.00  0.00     0.020 A 
ATOM      2  C1  UNL d   1       5.460  -5.485  -4.313  0.00  0.00     0.020 A 
ATOM      3  C2  UNL d   1       5.999  -4.209  -4.140  0.00  0.00     0.034 A 
ATOM      4  C3  UNL d   1       5.271  -3.078  -4.528  0.00  0.00     0.017 A 
ATOM      5  C4  UNL d   1       3.999  -3.230  -5.091  0.00  0.00     0.017 A 
ATOM      6  C5  UNL d   1       3.463  -4.511  -5.262  0.00  0.00     0.034 A 
ATOM      7 Cl   UNL d   1       3.041  -1.883  -5.594  0.00  0.00    -0.070 Cl
ATOM      8 Cl1  UNL d   1       6.000  -1.530  -4.284  0.00  0.00    -0.070 Cl
ENDROOT
TORSDOF 0
ENDMDL
