MODEL 1
REMARK minimizedAffinity -3.51587558
REMARK minimizedRMSD -1
REMARK  0 active torsions:
REMARK  status: ('A' for Active; 'I' for Inactive)
ROOT
ATOM      1  C   UNL d   1       4.893  -1.878  -4.350  0.00  0.00     0.020 A 
ATOM      2  C1  UNL d   1       4.095  -2.043  -5.482  0.00  0.00     0.020 A 
ATOM      3  C2  UNL d   1       3.839  -3.324  -5.975  0.00  0.00     0.034 A 
ATOM      4  C3  UNL d   1       4.381  -4.446  -5.336  0.00  0.00     0.017 A 
ATOM      5  C4  UNL d   1       5.182  -4.279  -4.200  0.00  0.00     0.017 A 
ATOM      6  C5  UNL d   1       5.435  -2.994  -3.711  0.00  0.00     0.034 A 
ATOM      7 Cl   UNL d   1       5.886  -5.614  -3.358  0.00  0.00    -0.070 Cl
ATOM      8 Cl1  UNL d   1       4.023  -6.000  -6.000  0.00  0.00    -0.070 Cl
ENDROOT
TORSDOF 0
ENDMDL
