MODEL 1
REMARK minimizedAffinity -4.57841587
REMARK minimizedRMSD -1
REMARK  1 active torsions:
REMARK  status: ('A' for Active; 'I' for Inactive)
REMARK    1  A    between atoms: C3_4  and  O_7 
ROOT
ATOM      1  C   UNL d   1      -0.010  -0.455  -0.137  0.00  0.00    -0.033 A 
ATOM      2  C1  UNL d   1       0.971   0.035   0.728  0.00  0.00     0.039 A 
ATOM      3  C2  UNL d   1       0.606   0.796   1.840  0.00  0.00    -0.080 A 
ATOM      4  C3  UNL d   1      -0.741   1.058   2.077  0.00  0.00     0.150 A 
ATOM      5  C4  UNL d   1      -1.723   0.570   1.222  0.00  0.00    -0.007 A 
ATOM      6  C5  UNL d   1      -1.357  -0.189   0.111  0.00  0.00     0.039 A 
ENDROOT
BRANCH   4   7
ATOM      7  O   UNL d   1      -1.145   1.800   3.147  0.00  0.00    -0.526 OA
ATOM      8  H5  UNL d   1      -0.356   2.095   3.633  0.00  0.00     0.418 HD
ENDBRANCH   4   7
TORSDOF 1
ENDMDL
