MODEL 1
REMARK minimizedAffinity 0.897884071
REMARK minimizedRMSD -1
REMARK  1 active torsions:
REMARK  status: ('A' for Active; 'I' for Inactive)
REMARK    1  A    between atoms: C3_4  and  O_7 
ROOT
ATOM      1  C   UNL d   1      -0.702   1.285   1.692  0.00  0.00    -0.033 A 
ATOM      2  C1  UNL d   1      -1.210   0.110   1.134  0.00  0.00     0.039 A 
ATOM      3  C2  UNL d   1      -0.339  -0.890   0.697  0.00  0.00    -0.080 A 
ATOM      4  C3  UNL d   1       1.034  -0.704   0.823  0.00  0.00     0.150 A 
ATOM      5  C4  UNL d   1       1.547   0.463   1.381  0.00  0.00    -0.007 A 
ATOM      6  C5  UNL d   1       0.676   1.461   1.816  0.00  0.00     0.039 A 
ENDROOT
BRANCH   4   7
ATOM      7  O   UNL d   1       1.923  -1.649   0.405  0.00  0.00    -0.526 OA
ATOM      8  H5  UNL d   1       1.426  -2.388   0.015  0.00  0.00     0.418 HD
ENDBRANCH   4   7
TORSDOF 1
ENDMDL
