MODEL 1
REMARK minimizedAffinity 5.63345051
REMARK minimizedRMSD -1
REMARK  1 active torsions:
REMARK  status: ('A' for Active; 'I' for Inactive)
REMARK    1  A    between atoms: C3_4  and  O_7 
ROOT
ATOM      1  C   UNL d   1       3.763   0.579  -2.988  0.00  0.00    -0.033 A 
ATOM      2  C1  UNL d   1       2.645   1.209  -2.438  0.00  0.00     0.039 A 
ATOM      3  C2  UNL d   1       1.377   0.982  -2.976  0.00  0.00    -0.080 A 
ATOM      4  C3  UNL d   1       1.240   0.123  -4.063  0.00  0.00     0.150 A 
ATOM      5  C4  UNL d   1       2.349  -0.511  -4.614  0.00  0.00    -0.007 A 
ATOM      6  C5  UNL d   1       3.614  -0.282  -4.076  0.00  0.00     0.039 A 
ENDROOT
BRANCH   4   7
ATOM      7  O   UNL d   1       0.024  -0.125  -4.626  0.00  0.00    -0.526 OA
ATOM      8  H5  UNL d   1      -0.645   0.403  -4.160  0.00  0.00     0.418 HD
ENDBRANCH   4   7
TORSDOF 1
ENDMDL
