MODEL 1
REMARK minimizedAffinity 0.547352791
REMARK minimizedRMSD -1
REMARK  1 active torsions:
REMARK  status: ('A' for Active; 'I' for Inactive)
REMARK    1  A    between atoms: C3_4  and  O_7 
ROOT
ATOM      1  C   UNL d   1       3.923   0.406  -2.970  0.00  0.00    -0.033 A 
ATOM      2  C1  UNL d   1       2.981   1.238  -2.363  0.00  0.00     0.039 A 
ATOM      3  C2  UNL d   1       1.636   1.158  -2.732  0.00  0.00    -0.080 A 
ATOM      4  C3  UNL d   1       1.248   0.242  -3.706  0.00  0.00     0.150 A 
ATOM      5  C4  UNL d   1       2.182  -0.593  -4.312  0.00  0.00    -0.007 A 
ATOM      6  C5  UNL d   1       3.524  -0.511  -3.943  0.00  0.00     0.039 A 
ENDROOT
BRANCH   4   7
ATOM      7  O   UNL d   1      -0.051   0.131  -4.102  0.00  0.00    -0.526 OA
ATOM      8  H5  UNL d   1      -0.578   0.790  -3.619  0.00  0.00     0.418 HD
ENDBRANCH   4   7
TORSDOF 1
ENDMDL
