MODEL 1
REMARK minimizedAffinity 0.122280955
REMARK minimizedRMSD -1
REMARK  1 active torsions:
REMARK  status: ('A' for Active; 'I' for Inactive)
REMARK    1  A    between atoms: C3_4  and  O_7 
ROOT
ATOM      1  C   UNL d   1       3.271  -0.240  -2.230  0.00  0.00    -0.033 A 
ATOM      2  C1  UNL d   1       1.929  -0.238  -1.843  0.00  0.00     0.039 A 
ATOM      3  C2  UNL d   1       0.937   0.112  -2.760  0.00  0.00    -0.080 A 
ATOM      4  C3  UNL d   1       1.298   0.456  -4.060  0.00  0.00     0.150 A 
ATOM      5  C4  UNL d   1       2.632   0.452  -4.454  0.00  0.00    -0.007 A 
ATOM      6  C5  UNL d   1       3.622   0.103  -3.536  0.00  0.00     0.039 A 
ENDROOT
BRANCH   4   7
ATOM      7  O   UNL d   1       0.365   0.809  -4.989  0.00  0.00    -0.526 OA
ATOM      8  H5  UNL d   1      -0.510   0.795  -4.568  0.00  0.00     0.418 HD
ENDBRANCH   4   7
TORSDOF 1
ENDMDL
