MODEL 1
REMARK minimizedAffinity 3.39286017
REMARK minimizedRMSD -1
REMARK  1 active torsions:
REMARK  status: ('A' for Active; 'I' for Inactive)
REMARK    1  A    between atoms: C3_4  and  O_7 
ROOT
ATOM      1  C   UNL d   1       3.433  -0.701  -3.956  0.00  0.00    -0.033 A 
ATOM      2  C1  UNL d   1       2.066  -0.435  -3.844  0.00  0.00     0.039 A 
ATOM      3  C2  UNL d   1       1.630   0.823  -3.424  0.00  0.00    -0.080 A 
ATOM      4  C3  UNL d   1       2.569   1.805  -3.120  0.00  0.00     0.150 A 
ATOM      5  C4  UNL d   1       3.932   1.548  -3.232  0.00  0.00    -0.007 A 
ATOM      6  C5  UNL d   1       4.365   0.291  -3.651  0.00  0.00     0.039 A 
ENDROOT
BRANCH   4   7
ATOM      7  O   UNL d   1       2.192   3.047  -2.701  0.00  0.00    -0.526 OA
ATOM      8  H5  UNL d   1       1.222   3.070  -2.643  0.00  0.00     0.418 HD
ENDBRANCH   4   7
TORSDOF 1
ENDMDL
