MODEL 1
REMARK minimizedAffinity -2.59823251
REMARK minimizedRMSD -1
REMARK  1 active torsions:
REMARK  status: ('A' for Active; 'I' for Inactive)
REMARK    1  A    between atoms: C1_2  and  C2_3 
ROOT
ATOM      1  C2  UNL d   1       0.065   0.420  -0.454  0.00  0.00    -0.073 A 
ATOM      2  C3  UNL d   1       1.196   1.113  -0.901  0.00  0.00    -0.002 A 
ATOM      3  C4  UNL d   1       2.471   0.576  -0.713  0.00  0.00     0.004 A 
ATOM      4  C5  UNL d   1       2.627  -0.659  -0.084  0.00  0.00    -0.004 A 
ATOM      5  C6  UNL d   1       1.508  -1.372   0.358  0.00  0.00    -0.075 A 
ATOM      6  C7  UNL d   1       1.659  -2.701   1.038  0.00  0.00     0.076 C 
ATOM      7  C8  UNL d   1       0.231  -0.825   0.168  0.00  0.00     0.001 A 
ENDROOT
BRANCH   1   8
ATOM      8  C1  UNL d   1      -1.314   0.992  -0.661  0.00  0.00     0.053 C 
ATOM      9  C   UNL d   1      -1.535   1.443  -2.096  0.00  0.00     0.018 C 
ENDBRANCH   1   8
TORSDOF 1
ENDMDL
