MODEL 1
REMARK minimizedAffinity -3.45171928
REMARK minimizedRMSD -1
REMARK  1 active torsions:
REMARK  status: ('A' for Active; 'I' for Inactive)
REMARK    1  A    between atoms: C1_2  and  C2_3 
ROOT
ATOM      1  C2  UNL d   1       0.124   0.183   0.179  0.00  0.00    -0.073 A 
ATOM      2  C3  UNL d   1       0.291  -0.873   1.082  0.00  0.00    -0.002 A 
ATOM      3  C4  UNL d   1       1.566  -1.366   1.363  0.00  0.00     0.004 A 
ATOM      4  C5  UNL d   1       2.686  -0.805   0.749  0.00  0.00    -0.004 A 
ATOM      5  C6  UNL d   1       2.541   0.259  -0.147  0.00  0.00    -0.075 A 
ATOM      6  C7  UNL d   1       3.736   0.872  -0.817  0.00  0.00     0.076 C 
ATOM      7  C8  UNL d   1       1.257   0.746  -0.425  0.00  0.00     0.001 A 
ENDROOT
BRANCH   1   8
ATOM      8  C1  UNL d   1      -1.250   0.723  -0.122  0.00  0.00     0.053 C 
ATOM      9  C   UNL d   1      -1.678   0.428  -1.551  0.00  0.00     0.018 C 
ENDBRANCH   1   8
TORSDOF 1
ENDMDL
