MODEL 1
REMARK minimizedAffinity -4.79375887
REMARK minimizedRMSD -1
REMARK  1 active torsions:
REMARK  status: ('A' for Active; 'I' for Inactive)
REMARK    1  A    between atoms: C1_2  and  C2_3 
ROOT
ATOM      1  C2  UNL d   1      -0.500   0.173  -0.548  0.00  0.00    -0.073 A 
ATOM      2  C3  UNL d   1      -1.348   0.972   0.227  0.00  0.00    -0.002 A 
ATOM      3  C4  UNL d   1      -2.394   1.676  -0.370  0.00  0.00     0.004 A 
ATOM      4  C5  UNL d   1      -2.607   1.584  -1.745  0.00  0.00    -0.004 A 
ATOM      5  C6  UNL d   1      -1.778   0.781  -2.535  0.00  0.00    -0.075 A 
ATOM      6  C7  UNL d   1      -1.993   0.672  -4.016  0.00  0.00     0.076 C 
ATOM      7  C8  UNL d   1      -0.728   0.079  -1.928  0.00  0.00     0.001 A 
ENDROOT
BRANCH   1   8
ATOM      8  C1  UNL d   1       0.627  -0.595   0.094  0.00  0.00     0.053 C 
ATOM      9  C   UNL d   1       1.833  -0.710  -0.824  0.00  0.00     0.018 C 
ENDBRANCH   1   8
TORSDOF 1
ENDMDL
