MODEL 1
REMARK minimizedAffinity -3.65260363
REMARK minimizedRMSD -1
REMARK  1 active torsions:
REMARK  status: ('A' for Active; 'I' for Inactive)
REMARK    1  A    between atoms: C1_2  and  C2_3 
ROOT
ATOM      1  C2  UNL d   1      -0.331  -0.491   1.972  0.00  0.00    -0.073 A 
ATOM      2  C3  UNL d   1       0.238  -1.276   2.982  0.00  0.00    -0.002 A 
ATOM      3  C4  UNL d   1       1.475  -1.890   2.785  0.00  0.00     0.004 A 
ATOM      4  C5  UNL d   1       2.160  -1.720   1.581  0.00  0.00    -0.004 A 
ATOM      5  C6  UNL d   1       1.613  -0.929   0.565  0.00  0.00    -0.075 A 
ATOM      6  C7  UNL d   1       2.336  -0.739  -0.737  0.00  0.00     0.076 C 
ATOM      7  C8  UNL d   1       0.369  -0.319   0.769  0.00  0.00     0.001 A 
ENDROOT
BRANCH   1   8
ATOM      8  C1  UNL d   1      -1.664   0.179   2.182  0.00  0.00     0.053 C 
ATOM      9  C   UNL d   1      -1.762   1.500   1.437  0.00  0.00     0.018 C 
ENDBRANCH   1   8
TORSDOF 1
ENDMDL
