MODEL 1
REMARK minimizedAffinity -2.24472356
REMARK minimizedRMSD -1
REMARK  1 active torsions:
REMARK  status: ('A' for Active; 'I' for Inactive)
REMARK    1  A    between atoms: C1_2  and  C2_3 
ROOT
ATOM      1  C2  UNL d   1       0.725   0.061   0.209  0.00  0.00    -0.073 A 
ATOM      2  C3  UNL d   1       1.285  -0.993   0.941  0.00  0.00    -0.002 A 
ATOM      3  C4  UNL d   1       2.657  -1.239   0.884  0.00  0.00     0.004 A 
ATOM      4  C5  UNL d   1       3.484  -0.431   0.104  0.00  0.00    -0.004 A 
ATOM      5  C6  UNL d   1       2.945   0.635  -0.625  0.00  0.00    -0.075 A 
ATOM      6  C7  UNL d   1       3.820   1.512  -1.471  0.00  0.00     0.076 C 
ATOM      7  C8  UNL d   1       1.565   0.873  -0.565  0.00  0.00     0.001 A 
ENDROOT
BRANCH   1   8
ATOM      8  C1  UNL d   1      -0.756   0.334   0.272  0.00  0.00     0.053 C 
ATOM      9  C   UNL d   1      -1.333   0.034   1.646  0.00  0.00     0.018 C 
ENDBRANCH   1   8
TORSDOF 1
ENDMDL
