MODEL 1
REMARK minimizedAffinity -4.67336369
REMARK minimizedRMSD -1
REMARK  1 active torsions:
REMARK  status: ('A' for Active; 'I' for Inactive)
REMARK    1  A    between atoms: C1_2  and  C2_3 
ROOT
ATOM      1  C2  UNL d   1       2.984   0.275  -0.216  0.00  0.00    -0.073 A 
ATOM      2  C3  UNL d   1       3.197  -0.901   0.512  0.00  0.00    -0.002 A 
ATOM      3  C4  UNL d   1       2.121  -1.581   1.083  0.00  0.00     0.004 A 
ATOM      4  C5  UNL d   1       0.822  -1.098   0.926  0.00  0.00    -0.004 A 
ATOM      5  C6  UNL d   1       0.587   0.069   0.192  0.00  0.00    -0.075 A 
ATOM      6  C7  UNL d   1      -0.804   0.603   0.016  0.00  0.00     0.076 C 
ATOM      7  C8  UNL d   1       1.674   0.748  -0.376  0.00  0.00     0.001 A 
ENDROOT
BRANCH   1   8
ATOM      8  C1  UNL d   1       4.142   1.010  -0.840  0.00  0.00     0.053 C 
ATOM      9  C   UNL d   1       4.981   0.103  -1.727  0.00  0.00     0.018 C 
ENDBRANCH   1   8
TORSDOF 1
ENDMDL
