MODEL 1
REMARK minimizedAffinity -1.49176538
REMARK minimizedRMSD -1
REMARK  1 active torsions:
REMARK  status: ('A' for Active; 'I' for Inactive)
REMARK    1  A    between atoms: C1_2  and  C2_3 
ROOT
ATOM      1  C2  UNL d   1      -0.190   0.138  -0.802  0.00  0.00    -0.073 A 
ATOM      2  C3  UNL d   1       0.731   1.149  -1.102  0.00  0.00    -0.002 A 
ATOM      3  C4  UNL d   1       1.977   1.175  -0.476  0.00  0.00     0.004 A 
ATOM      4  C5  UNL d   1       2.319   0.190   0.450  0.00  0.00    -0.004 A 
ATOM      5  C6  UNL d   1       1.417  -0.835   0.755  0.00  0.00    -0.075 A 
ATOM      6  C7  UNL d   1       1.769  -1.901   1.750  0.00  0.00     0.076 C 
ATOM      7  C8  UNL d   1       0.166  -0.853   0.124  0.00  0.00     0.001 A 
ENDROOT
BRANCH   1   8
ATOM      8  C1  UNL d   1      -1.535   0.102  -1.480  0.00  0.00     0.053 C 
ATOM      9  C   UNL d   1      -1.709   1.249  -2.462  0.00  0.00     0.018 C 
ENDBRANCH   1   8
TORSDOF 1
ENDMDL
