MODEL 1
REMARK minimizedAffinity -1.10259855
REMARK minimizedRMSD -1
REMARK  1 active torsions:
REMARK  status: ('A' for Active; 'I' for Inactive)
REMARK    1  A    between atoms: C1_2  and  C2_3 
ROOT
ATOM      1  C2  UNL d   1      -0.689   0.702  -0.773  0.00  0.00    -0.073 A 
ATOM      2  C3  UNL d   1      -0.478   1.866  -1.521  0.00  0.00    -0.002 A 
ATOM      3  C4  UNL d   1      -1.327   2.185  -2.581  0.00  0.00     0.004 A 
ATOM      4  C5  UNL d   1      -2.397   1.349  -2.900  0.00  0.00    -0.004 A 
ATOM      5  C6  UNL d   1      -2.631   0.188  -2.157  0.00  0.00    -0.075 A 
ATOM      6  C7  UNL d   1      -3.776  -0.723  -2.489  0.00  0.00     0.076 C 
ATOM      7  C8  UNL d   1      -1.772  -0.128  -1.096  0.00  0.00     0.001 A 
ENDROOT
BRANCH   1   8
ATOM      8  C1  UNL d   1       0.221   0.356   0.377  0.00  0.00     0.053 C 
ATOM      9  C   UNL d   1       1.651   0.113  -0.080  0.00  0.00     0.018 C 
ENDBRANCH   1   8
TORSDOF 1
ENDMDL
