MODEL 1
REMARK minimizedAffinity 10.0497475
REMARK minimizedRMSD -1
REMARK  1 active torsions:
REMARK  status: ('A' for Active; 'I' for Inactive)
REMARK    1  A    between atoms: C1_2  and  C2_3 
ROOT
ATOM      1  C2  UNL d   1       1.428   0.333   0.447  0.00  0.00    -0.073 A 
ATOM      2  C3  UNL d   1       1.848  -0.602   1.399  0.00  0.00    -0.002 A 
ATOM      3  C4  UNL d   1       3.167  -1.058   1.405  0.00  0.00     0.004 A 
ATOM      4  C5  UNL d   1       4.079  -0.581   0.465  0.00  0.00    -0.004 A 
ATOM      5  C6  UNL d   1       3.681   0.363  -0.488  0.00  0.00    -0.075 A 
ATOM      6  C7  UNL d   1       4.650   0.885  -1.508  0.00  0.00     0.076 C 
ATOM      7  C8  UNL d   1       2.355   0.814  -0.489  0.00  0.00     0.001 A 
ENDROOT
BRANCH   1   8
ATOM      8  C1  UNL d   1       0.006   0.833   0.440  0.00  0.00     0.053 C 
ATOM      9  C   UNL d   1      -0.573   0.886  -0.964  0.00  0.00     0.018 C 
ENDBRANCH   1   8
TORSDOF 1
ENDMDL
