MODEL 1
REMARK minimizedAffinity -3.22398949
REMARK minimizedRMSD -1
REMARK  0 active torsions:
REMARK  status: ('A' for Active; 'I' for Inactive)
ROOT
ATOM      1  C   UNL d   1       1.794  -0.619   2.948  0.00  0.00     0.077 C 
ATOM      2  C1  UNL d   1       0.640  -0.363   2.025  0.00  0.00    -0.074 A 
ATOM      3  C2  UNL d   1      -0.637  -0.855   2.317  0.00  0.00    -0.005 A 
ATOM      4  C3  UNL d   1      -1.703  -0.601   1.455  0.00  0.00     0.006 A 
ATOM      5  C4  UNL d   1      -1.504   0.146   0.293  0.00  0.00    -0.005 A 
ATOM      6  C5  UNL d   1      -0.235   0.647  -0.015  0.00  0.00    -0.074 A 
ATOM      7  C6  UNL d   1      -0.006   1.460  -1.255  0.00  0.00     0.077 C 
ATOM      8  C7  UNL d   1       0.830   0.393   0.860  0.00  0.00    -0.001 A 
ENDROOT
TORSDOF 0
ENDMDL
