MODEL 1
REMARK minimizedAffinity -4.46753073
REMARK minimizedRMSD -1
REMARK  0 active torsions:
REMARK  status: ('A' for Active; 'I' for Inactive)
ROOT
ATOM      1  C   UNL d   1       2.221  -1.479   3.251  0.00  0.00     0.077 C 
ATOM      2  C1  UNL d   1       1.499  -0.985   2.033  0.00  0.00    -0.074 A 
ATOM      3  C2  UNL d   1       0.265  -0.335   2.143  0.00  0.00    -0.005 A 
ATOM      4  C3  UNL d   1      -0.390   0.127   1.002  0.00  0.00     0.006 A 
ATOM      5  C4  UNL d   1       0.180  -0.056  -0.259  0.00  0.00    -0.005 A 
ATOM      6  C5  UNL d   1       1.413  -0.702  -0.388  0.00  0.00    -0.074 A 
ATOM      7  C6  UNL d   1       2.044  -0.898  -1.735  0.00  0.00     0.077 C 
ATOM      8  C7  UNL d   1       2.069  -1.158   0.763  0.00  0.00    -0.001 A 
ENDROOT
TORSDOF 0
ENDMDL
