MODEL 1
REMARK minimizedAffinity -0.915351093
REMARK minimizedRMSD -1
REMARK  0 active torsions:
REMARK  status: ('A' for Active; 'I' for Inactive)
ROOT
ATOM      1  C   UNL d   1       1.134  -0.451  -2.175  0.00  0.00     0.077 C 
ATOM      2  C1  UNL d   1       0.334  -0.402  -0.907  0.00  0.00    -0.074 A 
ATOM      3  C2  UNL d   1      -0.993   0.039  -0.912  0.00  0.00    -0.005 A 
ATOM      4  C3  UNL d   1      -1.729   0.070   0.273  0.00  0.00     0.006 A 
ATOM      5  C4  UNL d   1      -1.145  -0.338   1.472  0.00  0.00    -0.005 A 
ATOM      6  C5  UNL d   1       0.180  -0.783   1.497  0.00  0.00    -0.074 A 
ATOM      7  C6  UNL d   1       0.820  -1.236   2.776  0.00  0.00     0.077 C 
ATOM      8  C7  UNL d   1       0.910  -0.819   0.301  0.00  0.00    -0.001 A 
ENDROOT
TORSDOF 0
ENDMDL
