MODEL 1
REMARK minimizedAffinity 0.921322167
REMARK minimizedRMSD -1
REMARK  0 active torsions:
REMARK  status: ('A' for Active; 'I' for Inactive)
ROOT
ATOM      1  C   UNL d   1      -1.180   2.191  -1.493  0.00  0.00     0.077 C 
ATOM      2  C1  UNL d   1      -0.681   1.187  -0.496  0.00  0.00    -0.074 A 
ATOM      3  C2  UNL d   1      -1.295   1.048   0.753  0.00  0.00    -0.005 A 
ATOM      4  C3  UNL d   1      -0.826   0.104   1.666  0.00  0.00     0.006 A 
ATOM      5  C4  UNL d   1       0.260  -0.710   1.340  0.00  0.00    -0.005 A 
ATOM      6  C5  UNL d   1       0.886  -0.586   0.096  0.00  0.00    -0.074 A 
ATOM      7  C6  UNL d   1       2.048  -1.459  -0.275  0.00  0.00     0.077 C 
ATOM      8  C7  UNL d   1       0.404   0.361  -0.819  0.00  0.00    -0.001 A 
ENDROOT
TORSDOF 0
ENDMDL
