MODEL 1
REMARK minimizedAffinity -3.93504429
REMARK minimizedRMSD -1
REMARK  0 active torsions:
REMARK  status: ('A' for Active; 'I' for Inactive)
ROOT
ATOM      1  C   UNL d   1       1.925  -1.069   2.803  0.00  0.00     0.077 C 
ATOM      2  C1  UNL d   1       1.342  -0.809   1.446  0.00  0.00    -0.074 A 
ATOM      3  C2  UNL d   1       2.068  -1.092   0.285  0.00  0.00    -0.005 A 
ATOM      4  C3  UNL d   1       1.509  -0.854  -0.970  0.00  0.00     0.006 A 
ATOM      5  C4  UNL d   1       0.220  -0.331  -1.078  0.00  0.00    -0.005 A 
ATOM      6  C5  UNL d   1      -0.522  -0.042   0.072  0.00  0.00    -0.074 A 
ATOM      7  C6  UNL d   1      -1.913   0.511  -0.026  0.00  0.00     0.077 C 
ATOM      8  C7  UNL d   1       0.044  -0.291   1.330  0.00  0.00    -0.001 A 
ENDROOT
TORSDOF 0
ENDMDL
