MODEL 1
REMARK minimizedAffinity -3.37309313
REMARK minimizedRMSD -1
REMARK  0 active torsions:
REMARK  status: ('A' for Active; 'I' for Inactive)
ROOT
ATOM      1  C   UNL d   1       2.228  -1.668  -0.371  0.00  0.00     0.077 C 
ATOM      2  C1  UNL d   1       1.098  -0.766   0.028  0.00  0.00    -0.074 A 
ATOM      3  C2  UNL d   1       0.567  -0.808   1.321  0.00  0.00    -0.005 A 
ATOM      4  C3  UNL d   1      -0.477   0.044   1.680  0.00  0.00     0.006 A 
ATOM      5  C4  UNL d   1      -1.000   0.945   0.752  0.00  0.00    -0.005 A 
ATOM      6  C5  UNL d   1      -0.481   1.002  -0.546  0.00  0.00    -0.074 A 
ATOM      7  C6  UNL d   1      -1.024   1.972  -1.553  0.00  0.00     0.077 C 
ATOM      8  C7  UNL d   1       0.573   0.147  -0.897  0.00  0.00    -0.001 A 
ENDROOT
TORSDOF 0
ENDMDL
