MODEL 1
REMARK minimizedAffinity -4.06997442
REMARK minimizedRMSD -1
REMARK  0 active torsions:
REMARK  status: ('A' for Active; 'I' for Inactive)
ROOT
ATOM      1  C   UNL d   1       2.345  -0.763   3.057  0.00  0.00     0.077 C 
ATOM      2  C1  UNL d   1       1.470  -0.459   1.877  0.00  0.00    -0.074 A 
ATOM      3  C2  UNL d   1       2.025  -0.101   0.644  0.00  0.00    -0.005 A 
ATOM      4  C3  UNL d   1       1.199   0.169  -0.447  0.00  0.00     0.006 A 
ATOM      5  C4  UNL d   1      -0.187   0.084  -0.317  0.00  0.00    -0.005 A 
ATOM      6  C5  UNL d   1      -0.760  -0.273   0.908  0.00  0.00    -0.074 A 
ATOM      7  C6  UNL d   1      -2.248  -0.379   1.063  0.00  0.00     0.077 C 
ATOM      8  C7  UNL d   1       0.077  -0.550   1.998  0.00  0.00    -0.001 A 
ENDROOT
TORSDOF 0
ENDMDL
