MODEL 1
REMARK minimizedAffinity 3.75568199
REMARK minimizedRMSD -1
REMARK  0 active torsions:
REMARK  status: ('A' for Active; 'I' for Inactive)
ROOT
ATOM      1  C   UNL d   1      -1.147  -0.430  -0.575  0.00  0.00     0.077 C 
ATOM      2  C1  UNL d   1       0.300  -0.559  -0.204  0.00  0.00    -0.074 A 
ATOM      3  C2  UNL d   1       1.303  -0.050  -1.035  0.00  0.00    -0.005 A 
ATOM      4  C3  UNL d   1       2.645  -0.168  -0.672  0.00  0.00     0.006 A 
ATOM      5  C4  UNL d   1       2.996  -0.796   0.524  0.00  0.00    -0.005 A 
ATOM      6  C5  UNL d   1       2.007  -1.310   1.368  0.00  0.00    -0.074 A 
ATOM      7  C6  UNL d   1       2.367  -1.979   2.661  0.00  0.00     0.077 C 
ATOM      8  C7  UNL d   1       0.661  -1.181   1.000  0.00  0.00    -0.001 A 
ENDROOT
TORSDOF 0
ENDMDL
