MODEL 1
REMARK minimizedAffinity -4.06273174
REMARK minimizedRMSD -1
REMARK  3 active torsions:
REMARK  status: ('A' for Active; 'I' for Inactive)
REMARK    1  A    between atoms: C3'_2  and  C2'_3 
REMARK    2  A    between atoms: C2'_3  and  C1'_4 
REMARK    3  A    between atoms: C1'_4  and  C1_5 
ROOT
ATOM      1  C1  N4B d   1       0.010   0.252  -0.510  0.00  0.00    -0.075 A 
ATOM      2  C2  N4B d   1       1.352   0.484  -0.137  0.00  0.00     0.002 A 
ATOM      3  C3  N4B d   1       2.237  -0.564  -0.069  0.00  0.00     0.002 A 
ATOM      4  C4  N4B d   1       1.800  -1.850  -0.350  0.00  0.00    -0.004 A 
ATOM      5  C5  N4B d   1       0.509  -2.062  -0.734  0.00  0.00     0.002 A 
ATOM      6  C6  N4B d   1      -0.391  -1.018  -0.811  0.00  0.00     0.002 A 
ENDROOT
BRANCH   1   7
ATOM      7  C1' N4B d   1      -1.015   1.353  -0.515  0.00  0.00     0.057 C 
BRANCH   7   8
ATOM      8  C2' N4B d   1      -0.815   2.218  -1.755  0.00  0.00     0.009 C 
BRANCH   8   9
ATOM      9  C3' N4B d   1      -1.620   1.711  -2.939  0.00  0.00     0.004 C 
ATOM     10  C4' N4B d   1      -2.904   1.052  -2.528  0.00  0.00     0.003 C 
ENDBRANCH   8   9
ENDBRANCH   7   8
ENDBRANCH   1   7
TORSDOF 3
ENDMDL
