MODEL 1
REMARK minimizedAffinity -5.49268579
REMARK minimizedRMSD -1
REMARK  3 active torsions:
REMARK  status: ('A' for Active; 'I' for Inactive)
REMARK    1  A    between atoms: C3'_2  and  C2'_3 
REMARK    2  A    between atoms: C2'_3  and  C1'_4 
REMARK    3  A    between atoms: C1'_4  and  C1_5 
ROOT
ATOM      1  C1  N4B d   1       0.016   0.071   0.682  0.00  0.00    -0.075 A 
ATOM      2  C2  N4B d   1      -0.327  -0.565   1.896  0.00  0.00     0.002 A 
ATOM      3  C3  N4B d   1       0.461  -1.577   2.387  0.00  0.00     0.002 A 
ATOM      4  C4  N4B d   1       1.580  -1.982   1.676  0.00  0.00    -0.004 A 
ATOM      5  C5  N4B d   1       1.919  -1.345   0.518  0.00  0.00     0.002 A 
ATOM      6  C6  N4B d   1       1.139  -0.324   0.014  0.00  0.00     0.002 A 
ENDROOT
BRANCH   1   7
ATOM      7  C1' N4B d   1      -0.860   1.124   0.062  0.00  0.00     0.057 C 
BRANCH   7   8
ATOM      8  C2' N4B d   1      -1.041   0.816  -1.421  0.00  0.00     0.009 C 
BRANCH   8   9
ATOM      9  C3' N4B d   1      -2.098   1.699  -2.061  0.00  0.00     0.004 C 
ATOM     10  C4' N4B d   1      -3.439   1.032  -2.143  0.00  0.00     0.003 C 
ENDBRANCH   8   9
ENDBRANCH   7   8
ENDBRANCH   1   7
TORSDOF 3
ENDMDL
