MODEL 1
REMARK minimizedAffinity -3.06250882
REMARK minimizedRMSD -1
REMARK  3 active torsions:
REMARK  status: ('A' for Active; 'I' for Inactive)
REMARK    1  A    between atoms: C3'_2  and  C2'_3 
REMARK    2  A    between atoms: C2'_3  and  C1'_4 
REMARK    3  A    between atoms: C1'_4  and  C1_5 
ROOT
ATOM      1  C1  N4B d   1      -0.157   0.060   0.384  0.00  0.00    -0.075 A 
ATOM      2  C2  N4B d   1       1.014  -0.530  -0.142  0.00  0.00     0.002 A 
ATOM      3  C3  N4B d   1       1.576  -1.615   0.484  0.00  0.00     0.002 A 
ATOM      4  C4  N4B d   1       0.999  -2.114   1.642  0.00  0.00    -0.004 A 
ATOM      5  C5  N4B d   1      -0.145  -1.553   2.130  0.00  0.00     0.002 A 
ATOM      6  C6  N4B d   1      -0.723  -0.465   1.509  0.00  0.00     0.002 A 
ENDROOT
BRANCH   1   7
ATOM      7  C1' N4B d   1      -0.759   1.301  -0.217  0.00  0.00     0.057 C 
BRANCH   7   8
ATOM      8  C2' N4B d   1      -1.540   0.921  -1.471  0.00  0.00     0.009 C 
BRANCH   8   9
ATOM      9  C3' N4B d   1      -1.587   2.058  -2.478  0.00  0.00     0.004 C 
ATOM     10  C4' N4B d   1      -2.475   1.761  -3.649  0.00  0.00     0.003 C 
ENDBRANCH   8   9
ENDBRANCH   7   8
ENDBRANCH   1   7
TORSDOF 3
ENDMDL
