MODEL 1
REMARK minimizedAffinity 3.10232615
REMARK minimizedRMSD -1
REMARK  0 active torsions:
REMARK  status: ('A' for Active; 'I' for Inactive)
ROOT
ATOM      1  C1  DEN d   1       3.417  -1.883   0.019  0.00  0.00     0.130 A 
ATOM      2  C2  DEN d   1       2.202  -2.655  -0.228  0.00  0.00    -0.031 A 
ATOM      3  C3  DEN d   1       1.048  -1.742  -0.104  0.00  0.00     0.027 A 
ATOM      4  C4  DEN d   1       1.023   0.779   0.440  0.00  0.00     0.027 A 
ATOM      5  C5  DEN d   1       1.808   1.870   0.740  0.00  0.00    -0.003 A 
ATOM      6  C6  DEN d   1       3.170   1.780   0.854  0.00  0.00     0.001 A 
ATOM      7  C7  DEN d   1       3.794   0.583   0.622  0.00  0.00     0.017 A 
ATOM      8  C8  DEN d   1       3.008  -0.524   0.326  0.00  0.00    -0.094 A 
ATOM      9  C9  DEN d   1       1.634  -0.410   0.203  0.00  0.00    -0.072 A 
ENDROOT
TORSDOF 0
ENDMDL
