MODEL 1
REMARK minimizedAffinity -1.74247301
REMARK minimizedRMSD -1
REMARK  0 active torsions:
REMARK  status: ('A' for Active; 'I' for Inactive)
ROOT
ATOM      1  C1  DEN d   1       1.126   1.453  -0.449  0.00  0.00     0.130 A 
ATOM      2  C2  DEN d   1       2.018   2.130   0.488  0.00  0.00    -0.031 A 
ATOM      3  C3  DEN d   1       2.852   1.105   1.147  0.00  0.00     0.027 A 
ATOM      4  C4  DEN d   1       2.851  -1.452   0.805  0.00  0.00     0.027 A 
ATOM      5  C5  DEN d   1       2.261  -2.493   0.123  0.00  0.00    -0.003 A 
ATOM      6  C6  DEN d   1       1.237  -2.297  -0.765  0.00  0.00     0.001 A 
ATOM      7  C7  DEN d   1       0.801  -1.025  -1.028  0.00  0.00     0.017 A 
ATOM      8  C8  DEN d   1       1.386   0.029  -0.339  0.00  0.00    -0.094 A 
ATOM      9  C9  DEN d   1       2.429  -0.189   0.546  0.00  0.00    -0.072 A 
ENDROOT
TORSDOF 0
ENDMDL
