MODEL 1
REMARK minimizedAffinity 4.03429079
REMARK minimizedRMSD -1
REMARK  0 active torsions:
REMARK  status: ('A' for Active; 'I' for Inactive)
ROOT
ATOM      1  C1  DEN d   1      -2.954   1.979  -3.684  0.00  0.00     0.130 A 
ATOM      2  C2  DEN d   1      -1.995   0.915  -3.399  0.00  0.00    -0.031 A 
ATOM      3  C3  DEN d   1      -2.482   0.164  -2.225  0.00  0.00     0.027 A 
ATOM      4  C4  DEN d   1      -4.618   0.541  -0.830  0.00  0.00     0.027 A 
ATOM      5  C5  DEN d   1      -5.737   1.330  -0.681  0.00  0.00    -0.003 A 
ATOM      6  C6  DEN d   1      -5.988   2.402  -1.495  0.00  0.00     0.001 A 
ATOM      7  C7  DEN d   1      -5.130   2.688  -2.524  0.00  0.00     0.017 A 
ATOM      8  C8  DEN d   1      -3.996   1.902  -2.676  0.00  0.00    -0.094 A 
ATOM      9  C9  DEN d   1      -3.766   0.814  -1.850  0.00  0.00    -0.072 A 
ENDROOT
TORSDOF 0
ENDMDL
