MODEL 1
REMARK minimizedAffinity 7.59924221
REMARK minimizedRMSD -1
REMARK  0 active torsions:
REMARK  status: ('A' for Active; 'I' for Inactive)
ROOT
ATOM      1  C1  DEN d   1       1.424   1.291  -0.091  0.00  0.00     0.130 A 
ATOM      2  C2  DEN d   1       1.754   2.144   1.048  0.00  0.00    -0.031 A 
ATOM      3  C3  DEN d   1       2.511   1.332   2.022  0.00  0.00     0.027 A 
ATOM      4  C4  DEN d   1       3.206  -1.147   1.876  0.00  0.00     0.027 A 
ATOM      5  C5  DEN d   1       3.143  -2.287   1.105  0.00  0.00    -0.003 A 
ATOM      6  C6  DEN d   1       2.480  -2.323  -0.093  0.00  0.00     0.001 A 
ATOM      7  C7  DEN d   1       1.890  -1.185  -0.576  0.00  0.00     0.017 A 
ATOM      8  C8  DEN d   1       1.943  -0.034   0.199  0.00  0.00    -0.094 A 
ATOM      9  C9  DEN d   1       2.629  -0.015   1.401  0.00  0.00    -0.072 A 
ENDROOT
TORSDOF 0
ENDMDL
