MODEL 1
REMARK minimizedAffinity 6.43758869
REMARK minimizedRMSD -1
REMARK  0 active torsions:
REMARK  status: ('A' for Active; 'I' for Inactive)
ROOT
ATOM      1  C1  DEN d   1       5.003   0.643  -1.490  0.00  0.00     0.130 A 
ATOM      2  C2  DEN d   1       4.841  -0.068  -2.756  0.00  0.00    -0.031 A 
ATOM      3  C3  DEN d   1       3.970  -1.235  -2.516  0.00  0.00     0.027 A 
ATOM      4  C4  DEN d   1       2.856  -2.005  -0.320  0.00  0.00     0.027 A 
ATOM      5  C5  DEN d   1       2.711  -1.728   1.022  0.00  0.00    -0.003 A 
ATOM      6  C6  DEN d   1       3.340  -0.670   1.622  0.00  0.00     0.001 A 
ATOM      7  C7  DEN d   1       4.110   0.177   0.870  0.00  0.00     0.017 A 
ATOM      8  C8  DEN d   1       4.268  -0.099  -0.482  0.00  0.00    -0.094 A 
ATOM      9  C9  DEN d   1       3.613  -1.167  -1.073  0.00  0.00    -0.072 A 
ENDROOT
TORSDOF 0
ENDMDL
