MODEL 1
REMARK minimizedAffinity -3.83374953
REMARK minimizedRMSD -1
REMARK  2 active torsions:
REMARK  status: ('A' for Active; 'I' for Inactive)
REMARK    1  A    between atoms: C2'_3  and  C1'_4 
REMARK    2  A    between atoms: C1'_4  and  C1_5 
ROOT
ATOM      1  C1  I4B d   1      -0.692   0.478   0.284  0.00  0.00    -0.075 A 
ATOM      2  C2  I4B d   1      -1.739   0.120   1.096  0.00  0.00     0.003 A 
ATOM      3  C3  I4B d   1      -1.770   0.543   2.447  0.00  0.00     0.002 A 
ATOM      4  C4  I4B d   1      -0.715   1.274   2.955  0.00  0.00    -0.004 A 
ATOM      5  C5  I4B d   1       0.334   1.655   2.124  0.00  0.00     0.002 A 
ATOM      6  C6  I4B d   1       0.340   1.265   0.777  0.00  0.00     0.003 A 
ENDROOT
BRANCH   1   7
ATOM      7  C1' I4B d   1      -0.676  -0.013  -1.129  0.00  0.00     0.060 C 
BRANCH   7   8
ATOM      8  C2' I4B d   1       0.770  -0.205  -1.539  0.00  0.00    -0.013 C 
ATOM      9  C4' I4B d   1       1.385  -1.386  -0.835  0.00  0.00     0.013 C 
ATOM     10  C3' I4B d   1       0.809  -0.382  -3.028  0.00  0.00     0.013 C 
ENDBRANCH   7   8
ENDBRANCH   1   7
TORSDOF 2
ENDMDL
