MODEL 1
REMARK minimizedAffinity -4.37956429
REMARK minimizedRMSD -1
REMARK  2 active torsions:
REMARK  status: ('A' for Active; 'I' for Inactive)
REMARK    1  A    between atoms: C2'_3  and  C1'_4 
REMARK    2  A    between atoms: C1'_4  and  C1_5 
ROOT
ATOM      1  C1  I4B d   1       0.639  -0.313  -1.210  0.00  0.00    -0.075 A 
ATOM      2  C2  I4B d   1       0.088  -1.342  -1.934  0.00  0.00     0.003 A 
ATOM      3  C3  I4B d   1       0.332  -1.445  -3.325  0.00  0.00     0.002 A 
ATOM      4  C4  I4B d   1       1.085  -0.476  -3.957  0.00  0.00    -0.004 A 
ATOM      5  C5  I4B d   1       1.661   0.553  -3.217  0.00  0.00     0.002 A 
ATOM      6  C6  I4B d   1       1.447   0.628  -1.833  0.00  0.00     0.003 A 
ENDROOT
BRANCH   1   7
ATOM      7  C1' I4B d   1       0.334  -0.216   0.251  0.00  0.00     0.060 C 
BRANCH   7   8
ATOM      8  C2' I4B d   1      -1.091   0.278   0.399  0.00  0.00    -0.013 C 
ATOM      9  C4' I4B d   1      -1.431   0.536   1.843  0.00  0.00     0.013 C 
ATOM     10  C3' I4B d   1      -1.236   1.525  -0.423  0.00  0.00     0.013 C 
ENDBRANCH   7   8
ENDBRANCH   1   7
TORSDOF 2
ENDMDL
