MODEL 1
REMARK minimizedAffinity -2.59846067
REMARK minimizedRMSD -1
REMARK  2 active torsions:
REMARK  status: ('A' for Active; 'I' for Inactive)
REMARK    1  A    between atoms: C2'_3  and  C1'_4 
REMARK    2  A    between atoms: C1'_4  and  C1_5 
ROOT
ATOM      1  C1  I4B d   1      -0.175   0.834   0.761  0.00  0.00    -0.075 A 
ATOM      2  C2  I4B d   1      -1.361   0.208   1.055  0.00  0.00     0.003 A 
ATOM      3  C3  I4B d   1      -1.852   0.197   2.383  0.00  0.00     0.002 A 
ATOM      4  C4  I4B d   1      -1.104   0.777   3.388  0.00  0.00    -0.004 A 
ATOM      5  C5  I4B d   1       0.086   1.431   3.085  0.00  0.00     0.002 A 
ATOM      6  C6  I4B d   1       0.548   1.471   1.761  0.00  0.00     0.003 A 
ENDROOT
BRANCH   1   7
ATOM      7  C1' I4B d   1       0.329   0.799  -0.647  0.00  0.00     0.060 C 
BRANCH   7   8
ATOM      8  C2' I4B d   1       0.960  -0.559  -0.882  0.00  0.00    -0.013 C 
ATOM      9  C4' I4B d   1       1.832  -0.963   0.278  0.00  0.00     0.013 C 
ATOM     10  C3' I4B d   1      -0.143  -1.550  -1.101  0.00  0.00     0.013 C 
ENDBRANCH   7   8
ENDBRANCH   1   7
TORSDOF 2
ENDMDL
