MODEL 1
REMARK minimizedAffinity -2.32458067
REMARK minimizedRMSD -1
REMARK  2 active torsions:
REMARK  status: ('A' for Active; 'I' for Inactive)
REMARK    1  A    between atoms: C2'_3  and  C1'_4 
REMARK    2  A    between atoms: C1'_4  and  C1_5 
ROOT
ATOM      1  C1  I4B d   1       0.169   0.087  -0.834  0.00  0.00    -0.075 A 
ATOM      2  C2  I4B d   1      -0.879   0.961  -0.683  0.00  0.00     0.003 A 
ATOM      3  C3  I4B d   1      -1.210   1.463   0.599  0.00  0.00     0.002 A 
ATOM      4  C4  I4B d   1      -0.503   1.030   1.702  0.00  0.00    -0.004 A 
ATOM      5  C5  I4B d   1       0.574   0.162   1.544  0.00  0.00     0.002 A 
ATOM      6  C6  I4B d   1       0.920  -0.303   0.267  0.00  0.00     0.003 A 
ENDROOT
BRANCH   1   7
ATOM      7  C1' I4B d   1       0.470  -0.449  -2.197  0.00  0.00     0.060 C 
BRANCH   7   8
ATOM      8  C2' I4B d   1       1.123   0.657  -3.000  0.00  0.00    -0.013 C 
ATOM      9  C4' I4B d   1       2.617   0.663  -2.806  0.00  0.00     0.013 C 
ATOM     10  C3' I4B d   1       0.766   0.455  -4.443  0.00  0.00     0.013 C 
ENDBRANCH   7   8
ENDBRANCH   1   7
TORSDOF 2
ENDMDL
