MODEL 1
REMARK minimizedAffinity -5.52845383
REMARK minimizedRMSD -1
REMARK  2 active torsions:
REMARK  status: ('A' for Active; 'I' for Inactive)
REMARK    1  A    between atoms: C2'_3  and  C1'_4 
REMARK    2  A    between atoms: C1'_4  and  C1_5 
ROOT
ATOM      1  C1  I4B d   1      -0.452   0.339   1.067  0.00  0.00    -0.075 A 
ATOM      2  C2  I4B d   1      -1.587   0.364   1.838  0.00  0.00     0.003 A 
ATOM      3  C3  I4B d   1      -1.489   0.391   3.250  0.00  0.00     0.002 A 
ATOM      4  C4  I4B d   1      -0.246   0.342   3.846  0.00  0.00    -0.004 A 
ATOM      5  C5  I4B d   1       0.905   0.340   3.063  0.00  0.00     0.002 A 
ATOM      6  C6  I4B d   1       0.802   0.351   1.664  0.00  0.00     0.003 A 
ENDROOT
BRANCH   1   7
ATOM      7  C1' I4B d   1      -0.593   0.277  -0.421  0.00  0.00     0.060 C 
BRANCH   7   8
ATOM      8  C2' I4B d   1       0.663  -0.358  -0.983  0.00  0.00    -0.013 C 
ATOM      9  C4' I4B d   1       0.677  -1.844  -0.740  0.00  0.00     0.013 C 
ATOM     10  C3' I4B d   1       0.723  -0.048  -2.449  0.00  0.00     0.013 C 
ENDBRANCH   7   8
ENDBRANCH   1   7
TORSDOF 2
ENDMDL
