MODEL 1
REMARK minimizedAffinity -5.6226244
REMARK minimizedRMSD -1
REMARK  2 active torsions:
REMARK  status: ('A' for Active; 'I' for Inactive)
REMARK    1  A    between atoms: C2'_3  and  C1'_4 
REMARK    2  A    between atoms: C1'_4  and  C1_5 
ROOT
ATOM      1  C1  I4B d   1      -0.828   0.602  -0.362  0.00  0.00    -0.075 A 
ATOM      2  C2  I4B d   1      -0.119  -0.562  -0.197  0.00  0.00     0.003 A 
ATOM      3  C3  I4B d   1       0.791  -0.990  -1.194  0.00  0.00     0.002 A 
ATOM      4  C4  I4B d   1       0.924  -0.253  -2.354  0.00  0.00    -0.004 A 
ATOM      5  C5  I4B d   1       0.222   0.938  -2.508  0.00  0.00     0.002 A 
ATOM      6  C6  I4B d   1      -0.650   1.376  -1.501  0.00  0.00     0.003 A 
ENDROOT
BRANCH   1   7
ATOM      7  C1' I4B d   1      -1.805   1.006   0.696  0.00  0.00     0.060 C 
BRANCH   7   8
ATOM      8  C2' I4B d   1      -1.313   0.458   2.020  0.00  0.00    -0.013 C 
ATOM      9  C4' I4B d   1      -0.956   1.570   2.971  0.00  0.00     0.013 C 
ATOM     10  C3' I4B d   1      -2.392  -0.415   2.589  0.00  0.00     0.013 C 
ENDBRANCH   7   8
ENDBRANCH   1   7
TORSDOF 2
ENDMDL
