MODEL 1
REMARK minimizedAffinity -4.76524401
REMARK minimizedRMSD -1
REMARK  2 active torsions:
REMARK  status: ('A' for Active; 'I' for Inactive)
REMARK    1  A    between atoms: C2'_3  and  C1'_4 
REMARK    2  A    between atoms: C1'_4  and  C1_5 
ROOT
ATOM      1  C1  I4B d   1       0.170  -0.493   1.655  0.00  0.00    -0.075 A 
ATOM      2  C2  I4B d   1      -0.793   0.114   2.422  0.00  0.00     0.003 A 
ATOM      3  C3  I4B d   1      -0.539   0.409   3.783  0.00  0.00     0.002 A 
ATOM      4  C4  I4B d   1       0.664   0.037   4.346  0.00  0.00    -0.004 A 
ATOM      5  C5  I4B d   1       1.648  -0.557   3.561  0.00  0.00     0.002 A 
ATOM      6  C6  I4B d   1       1.405  -0.813   2.204  0.00  0.00     0.003 A 
ENDROOT
BRANCH   1   7
ATOM      7  C1' I4B d   1      -0.144  -0.820   0.230  0.00  0.00     0.060 C 
BRANCH   7   8
ATOM      8  C2' I4B d   1       0.206   0.388  -0.615  0.00  0.00    -0.013 C 
ATOM      9  C4' I4B d   1       0.633  -0.019  -2.000  0.00  0.00     0.013 C 
ATOM     10  C3' I4B d   1      -0.995   1.285  -0.660  0.00  0.00     0.013 C 
ENDBRANCH   7   8
ENDBRANCH   1   7
TORSDOF 2
ENDMDL
