MODEL 1
REMARK minimizedAffinity -4.90137482
REMARK minimizedRMSD -1
REMARK  1 active torsions:
REMARK  status: ('A' for Active; 'I' for Inactive)
REMARK    1  A    between atoms: N_2  and  C1_3 
ROOT
ATOM      1  C1  UNL d   1       0.464  -0.522  -2.576  0.00  0.00     0.143 A 
ATOM      2  C2  UNL d   1      -0.791  -0.459  -3.192  0.00  0.00    -0.057 A 
ATOM      3  C3  UNL d   1      -0.987   0.275  -4.368  0.00  0.00     0.033 A 
ATOM      4  C4  UNL d   1       0.066   0.984  -4.936  0.00  0.00    -0.042 A 
ATOM      5  C5  UNL d   1       1.316   0.956  -4.328  0.00  0.00     0.033 A 
ATOM      6  C6  UNL d   1       1.507   0.217  -3.157  0.00  0.00    -0.057 A 
ENDROOT
BRANCH   1   7
ATOM      7  N   UNL d   1       0.700  -1.153  -1.353  0.00  0.00    -0.732 N 
ATOM      8  C   UNL d   1       0.034  -0.701  -0.150  0.00  0.00     0.284 C 
ATOM      9  H3  UNL d   1       0.755  -2.165  -1.442  0.00  0.00     0.395 HD
ENDBRANCH   1   7
TORSDOF 1
ENDMDL
