MODEL 1
REMARK minimizedAffinity -0.547341943
REMARK minimizedRMSD -1
REMARK  1 active torsions:
REMARK  status: ('A' for Active; 'I' for Inactive)
REMARK    1  A    between atoms: N_2  and  C1_3 
ROOT
ATOM      1  C1  UNL d   1       0.527  -0.019   1.049  0.00  0.00     0.143 A 
ATOM      2  C2  UNL d   1      -0.756   0.485   1.289  0.00  0.00    -0.057 A 
ATOM      3  C3  UNL d   1      -1.227   0.683   2.593  0.00  0.00     0.033 A 
ATOM      4  C4  UNL d   1      -0.431   0.351   3.684  0.00  0.00    -0.042 A 
ATOM      5  C5  UNL d   1       0.838  -0.175   3.470  0.00  0.00     0.033 A 
ATOM      6  C6  UNL d   1       1.305  -0.364   2.165  0.00  0.00    -0.057 A 
ENDROOT
BRANCH   1   7
ATOM      7  N   UNL d   1       1.016  -0.331  -0.222  0.00  0.00    -0.732 N 
ATOM      8  C   UNL d   1       0.212  -1.092  -1.154  0.00  0.00     0.284 C 
ATOM      9  H3  UNL d   1       1.520   0.445  -0.645  0.00  0.00     0.395 HD
ENDBRANCH   1   7
TORSDOF 1
ENDMDL
