MODEL 1
REMARK minimizedAffinity -3.82223558
REMARK minimizedRMSD -1
REMARK  1 active torsions:
REMARK  status: ('A' for Active; 'I' for Inactive)
REMARK    1  A    between atoms: N_2  and  C1_3 
ROOT
ATOM      1  C1  UNL d   1       0.165   0.402   0.430  0.00  0.00     0.143 A 
ATOM      2  C2  UNL d   1      -1.157   0.048   0.721  0.00  0.00    -0.057 A 
ATOM      3  C3  UNL d   1      -1.739   0.363   1.955  0.00  0.00     0.033 A 
ATOM      4  C4  UNL d   1      -0.996   1.015   2.934  0.00  0.00    -0.042 A 
ATOM      5  C5  UNL d   1       0.327   1.354   2.676  0.00  0.00     0.033 A 
ATOM      6  C6  UNL d   1       0.900   1.042   1.440  0.00  0.00    -0.057 A 
ENDROOT
BRANCH   1   7
ATOM      7  N   UNL d   1       0.830   0.029  -0.740  0.00  0.00    -0.732 N 
ATOM      8  C   UNL d   1       0.353   0.473  -2.032  0.00  0.00     0.284 C 
ATOM      9  H3  UNL d   1       1.842   0.059  -0.638  0.00  0.00     0.395 HD
ENDBRANCH   1   7
TORSDOF 1
ENDMDL
