MODEL 1
REMARK minimizedAffinity -2.43457055
REMARK minimizedRMSD -1
REMARK  1 active torsions:
REMARK  status: ('A' for Active; 'I' for Inactive)
REMARK    1  A    between atoms: N_2  and  C1_3 
ROOT
ATOM      1  C1  UNL d   1      -0.786   0.148  -4.462  0.00  0.00     0.143 A 
ATOM      2  C2  UNL d   1       0.228   1.055  -4.789  0.00  0.00    -0.057 A 
ATOM      3  C3  UNL d   1       1.445   1.064  -4.096  0.00  0.00     0.033 A 
ATOM      4  C4  UNL d   1       1.658   0.182  -3.042  0.00  0.00    -0.042 A 
ATOM      5  C5  UNL d   1       0.655  -0.711  -2.683  0.00  0.00     0.033 A 
ATOM      6  C6  UNL d   1      -0.556  -0.720  -3.383  0.00  0.00    -0.057 A 
ENDROOT
BRANCH   1   7
ATOM      7  N   UNL d   1      -2.054   0.156  -5.048  0.00  0.00    -0.732 N 
ATOM      8  C   UNL d   1      -2.768  -1.082  -5.276  0.00  0.00     0.284 C 
ATOM      9  H3  UNL d   1      -2.638   0.914  -4.703  0.00  0.00     0.395 HD
ENDBRANCH   1   7
TORSDOF 1
ENDMDL
