MODEL 1
REMARK minimizedAffinity 1.52291834
REMARK minimizedRMSD -1
REMARK  1 active torsions:
REMARK  status: ('A' for Active; 'I' for Inactive)
REMARK    1  A    between atoms: N_2  and  C1_3 
ROOT
ATOM      1  C1  UNL d   1      -0.062   0.099   2.826  0.00  0.00     0.143 A 
ATOM      2  C2  UNL d   1       0.801   0.317   1.747  0.00  0.00    -0.057 A 
ATOM      3  C3  UNL d   1       0.322   0.368   0.433  0.00  0.00     0.033 A 
ATOM      4  C4  UNL d   1      -1.030   0.172   0.171  0.00  0.00    -0.042 A 
ATOM      5  C5  UNL d   1      -1.903  -0.071   1.226  0.00  0.00     0.033 A 
ATOM      6  C6  UNL d   1      -1.419  -0.114   2.537  0.00  0.00    -0.057 A 
ENDROOT
BRANCH   1   7
ATOM      7  N   UNL d   1       0.367  -0.061   4.146  0.00  0.00    -0.732 N 
ATOM      8  C   UNL d   1       0.380  -1.369   4.764  0.00  0.00     0.284 C 
ATOM      9  H3  UNL d   1       1.183   0.508   4.361  0.00  0.00     0.395 HD
ENDBRANCH   1   7
TORSDOF 1
ENDMDL
