MODEL 1
REMARK minimizedAffinity -2.88592982
REMARK minimizedRMSD -1
REMARK  1 active torsions:
REMARK  status: ('A' for Active; 'I' for Inactive)
REMARK    1  A    between atoms: N_2  and  C1_3 
ROOT
ATOM      1  C1  UNL d   1       0.653  -0.067   2.855  0.00  0.00     0.143 A 
ATOM      2  C2  UNL d   1      -0.208   0.958   3.261  0.00  0.00    -0.057 A 
ATOM      3  C3  UNL d   1      -0.492   1.174   4.615  0.00  0.00     0.033 A 
ATOM      4  C4  UNL d   1       0.060   0.347   5.588  0.00  0.00    -0.042 A 
ATOM      5  C5  UNL d   1       0.899  -0.694   5.205  0.00  0.00     0.033 A 
ATOM      6  C6  UNL d   1       1.184  -0.900   3.852  0.00  0.00    -0.057 A 
ENDROOT
BRANCH   1   7
ATOM      7  N   UNL d   1       0.897  -0.394   1.519  0.00  0.00    -0.732 N 
ATOM      8  C   UNL d   1      -0.181  -0.402   0.553  0.00  0.00     0.284 C 
ATOM      9  H3  UNL d   1       1.764   0.011   1.171  0.00  0.00     0.395 HD
ENDBRANCH   1   7
TORSDOF 1
ENDMDL
