MODEL 1
REMARK minimizedAffinity 12.5995502
REMARK minimizedRMSD -1
REMARK  0 active torsions:
REMARK  status: ('A' for Active; 'I' for Inactive)
ROOT
ATOM      1  C   UNL d   1      -2.521   1.527   0.724  0.00  0.00     0.077 C 
ATOM      2  C1  UNL d   1      -1.354   0.608   0.928  0.00  0.00    -0.074 A 
ATOM      3  C2  UNL d   1      -1.528  -0.779   0.962  0.00  0.00    -0.005 A 
ATOM      4  C3  UNL d   1      -0.431  -1.622   1.143  0.00  0.00     0.006 A 
ATOM      5  C4  UNL d   1       0.849  -1.086   1.292  0.00  0.00    -0.005 A 
ATOM      6  C5  UNL d   1       1.043   0.298   1.260  0.00  0.00    -0.074 A 
ATOM      7  C6  UNL d   1       2.413   0.890   1.408  0.00  0.00     0.077 C 
ATOM      8  C7  UNL d   1      -0.063   1.138   1.070  0.00  0.00    -0.001 A 
ENDROOT
TORSDOF 0
ENDMDL
