MODEL 1
REMARK minimizedAffinity 6.95219612
REMARK minimizedRMSD -1
REMARK  0 active torsions:
REMARK  status: ('A' for Active; 'I' for Inactive)
ROOT
ATOM      1  C   UNL d   1       5.999  -0.943  -5.997  0.00  0.00     0.077 C 
ATOM      2  C1  UNL d   1       5.039  -0.357  -5.005  0.00  0.00    -0.074 A 
ATOM      3  C2  UNL d   1       4.284   0.778  -5.318  0.00  0.00    -0.005 A 
ATOM      4  C3  UNL d   1       3.388   1.306  -4.389  0.00  0.00     0.006 A 
ATOM      5  C4  UNL d   1       3.239   0.706  -3.138  0.00  0.00    -0.005 A 
ATOM      6  C5  UNL d   1       3.985  -0.430  -2.806  0.00  0.00    -0.074 A 
ATOM      7  C6  UNL d   1       3.830  -1.093  -1.470  0.00  0.00     0.077 C 
ATOM      8  C7  UNL d   1       4.878  -0.958  -3.749  0.00  0.00    -0.001 A 
ENDROOT
TORSDOF 0
ENDMDL
