MODEL 1
REMARK minimizedAffinity 8.75839043
REMARK minimizedRMSD -1
REMARK  0 active torsions:
REMARK  status: ('A' for Active; 'I' for Inactive)
ROOT
ATOM      1  C   UNL d   1      -4.962  -1.552  -5.109  0.00  0.00     0.077 C 
ATOM      2  C1  UNL d   1      -5.004  -3.050  -5.180  0.00  0.00    -0.074 A 
ATOM      3  C2  UNL d   1      -5.979  -3.707  -5.936  0.00  0.00    -0.005 A 
ATOM      4  C3  UNL d   1      -6.000  -5.100  -6.000  0.00  0.00     0.006 A 
ATOM      5  C4  UNL d   1      -5.047  -5.849  -5.309  0.00  0.00    -0.005 A 
ATOM      6  C5  UNL d   1      -4.063  -5.210  -4.548  0.00  0.00    -0.074 A 
ATOM      7  C6  UNL d   1      -3.025  -6.000  -3.808  0.00  0.00     0.077 C 
ATOM      8  C7  UNL d   1      -4.044  -3.809  -4.495  0.00  0.00    -0.001 A 
ENDROOT
TORSDOF 0
ENDMDL
