MODEL 1
REMARK minimizedAffinity 9.76461601
REMARK minimizedRMSD -1
REMARK  0 active torsions:
REMARK  status: ('A' for Active; 'I' for Inactive)
ROOT
ATOM      1  C   UNL d   1       6.000  -4.091   4.170  0.00  0.00     0.077 C 
ATOM      2  C1  UNL d   1       4.500  -4.060   4.153  0.00  0.00    -0.074 A 
ATOM      3  C2  UNL d   1       3.755  -4.911   4.975  0.00  0.00    -0.005 A 
ATOM      4  C3  UNL d   1       2.361  -4.864   4.955  0.00  0.00     0.006 A 
ATOM      5  C4  UNL d   1       1.700  -3.968   4.114  0.00  0.00    -0.005 A 
ATOM      6  C5  UNL d   1       2.429  -3.109   3.286  0.00  0.00    -0.074 A 
ATOM      7  C6  UNL d   1       1.734  -2.134   2.383  0.00  0.00     0.077 C 
ATOM      8  C7  UNL d   1       3.829  -3.157   3.317  0.00  0.00    -0.001 A 
ENDROOT
TORSDOF 0
ENDMDL
