MODEL 1
REMARK minimizedAffinity 14.2100554
REMARK minimizedRMSD -1
REMARK  0 active torsions:
REMARK  status: ('A' for Active; 'I' for Inactive)
ROOT
ATOM      1  C   UNL d   1       2.949  -1.021  -1.418  0.00  0.00     0.077 C 
ATOM      2  C1  UNL d   1       2.359  -0.729  -0.070  0.00  0.00    -0.074 A 
ATOM      3  C2  UNL d   1       2.226   0.586   0.387  0.00  0.00    -0.005 A 
ATOM      4  C3  UNL d   1       1.667   0.842   1.639  0.00  0.00     0.006 A 
ATOM      5  C4  UNL d   1       1.235  -0.212   2.445  0.00  0.00    -0.005 A 
ATOM      6  C5  UNL d   1       1.359  -1.533   2.004  0.00  0.00    -0.074 A 
ATOM      7  C6  UNL d   1       0.891  -2.677   2.854  0.00  0.00     0.077 C 
ATOM      8  C7  UNL d   1       1.916  -1.783   0.742  0.00  0.00    -0.001 A 
ENDROOT
TORSDOF 0
ENDMDL
