MODEL 1
REMARK minimizedAffinity 0.0761885047
REMARK minimizedRMSD -1
REMARK  0 active torsions:
REMARK  status: ('A' for Active; 'I' for Inactive)
ROOT
ATOM      1  C   UNL d   1       4.512   2.312  -5.997  0.00  0.00     0.077 C 
ATOM      2  C1  UNL d   1       4.738   0.912  -5.509  0.00  0.00    -0.074 A 
ATOM      3  C2  UNL d   1       5.797   0.142  -6.000  0.00  0.00    -0.005 A 
ATOM      4  C3  UNL d   1       6.000  -1.155  -5.529  0.00  0.00     0.006 A 
ATOM      5  C4  UNL d   1       5.148  -1.695  -4.565  0.00  0.00    -0.005 A 
ATOM      6  C5  UNL d   1       4.084  -0.939  -4.062  0.00  0.00    -0.074 A 
ATOM      7  C6  UNL d   1       3.164  -1.500  -3.018  0.00  0.00     0.077 C 
ATOM      8  C7  UNL d   1       3.890   0.366  -4.535  0.00  0.00    -0.001 A 
ENDROOT
TORSDOF 0
ENDMDL
