MODEL 1
REMARK minimizedAffinity -3.00789595
REMARK minimizedRMSD -1
REMARK  0 active torsions:
REMARK  status: ('A' for Active; 'I' for Inactive)
ROOT
ATOM      1  C   UNL d   1      -2.881   0.165   1.715  0.00  0.00     0.124 A 
ATOM      2  C1  UNL d   1      -2.032  -0.306   2.707  0.00  0.00     0.062 A 
ATOM      3  C2  UNL d   1      -0.664  -0.408   2.468  0.00  0.00     0.162 A 
ATOM      4  C3  UNL d   1      -0.136  -0.037   1.232  0.00  0.00    -0.034 A 
ATOM      5  C4  UNL d   1      -0.997   0.435   0.238  0.00  0.00     0.162 A 
ATOM      6  C5  UNL d   1      -2.362   0.534   0.482  0.00  0.00     0.062 A 
ATOM      7  F   UNL d   1      -3.181   0.990  -0.477  0.00  0.00    -0.097 F 
ATOM      8  F1  UNL d   1      -0.523   0.800  -0.962  0.00  0.00    -0.096 F 
ATOM      9  I   UNL d   1       1.908  -0.188   0.870  0.00  0.00    -0.060 I 
ATOM     10  F2  UNL d   1       0.133  -0.867   3.445  0.00  0.00    -0.096 F 
ATOM     11  F3  UNL d   1      -2.530  -0.665   3.899  0.00  0.00    -0.097 F 
ATOM     12  F4  UNL d   1      -4.196   0.261   1.948  0.00  0.00    -0.092 F 
ENDROOT
TORSDOF 0
ENDMDL
