MODEL 1
REMARK minimizedAffinity -3.23160434
REMARK minimizedRMSD -1
REMARK  0 active torsions:
REMARK  status: ('A' for Active; 'I' for Inactive)
ROOT
ATOM      1  C   UNL d   1      -0.802   0.460   0.509  0.00  0.00     0.124 A 
ATOM      2  C1  UNL d   1      -1.042   0.804  -0.814  0.00  0.00     0.062 A 
ATOM      3  C2  UNL d   1      -0.251   0.276  -1.830  0.00  0.00     0.162 A 
ATOM      4  C3  UNL d   1       0.788  -0.603  -1.527  0.00  0.00    -0.034 A 
ATOM      5  C4  UNL d   1       1.025  -0.945  -0.194  0.00  0.00     0.162 A 
ATOM      6  C5  UNL d   1       0.231  -0.414   0.818  0.00  0.00     0.062 A 
ATOM      7  F   UNL d   1       0.465  -0.748   2.095  0.00  0.00    -0.097 F 
ATOM      8  F1  UNL d   1       2.016  -1.788   0.132  0.00  0.00    -0.096 F 
ATOM      9  I   UNL d   1       1.974  -1.395  -3.043  0.00  0.00    -0.060 I 
ATOM     10  F2  UNL d   1      -0.506   0.627  -3.099  0.00  0.00    -0.096 F 
ATOM     11  F3  UNL d   1      -2.039   1.649  -1.115  0.00  0.00    -0.097 F 
ATOM     12  F4  UNL d   1      -1.564   0.970   1.485  0.00  0.00    -0.092 F 
ENDROOT
TORSDOF 0
ENDMDL
