MODEL 1
REMARK minimizedAffinity -0.937691748
REMARK minimizedRMSD -1
REMARK  0 active torsions:
REMARK  status: ('A' for Active; 'I' for Inactive)
ROOT
ATOM      1  C   UNL d   1      -0.887   0.469   1.804  0.00  0.00     0.124 A 
ATOM      2  C1  UNL d   1      -1.629   0.445   0.631  0.00  0.00     0.062 A 
ATOM      3  C2  UNL d   1      -1.031   0.068  -0.568  0.00  0.00     0.162 A 
ATOM      4  C3  UNL d   1       0.317  -0.290  -0.600  0.00  0.00    -0.034 A 
ATOM      5  C4  UNL d   1       1.057  -0.262   0.583  0.00  0.00     0.162 A 
ATOM      6  C5  UNL d   1       0.455   0.116   1.779  0.00  0.00     0.062 A 
ATOM      7  F   UNL d   1       1.173   0.138   2.911  0.00  0.00    -0.097 F 
ATOM      8  F1  UNL d   1       2.355  -0.600   0.588  0.00  0.00    -0.096 F 
ATOM      9  I   UNL d   1       1.215  -0.855  -2.391  0.00  0.00    -0.060 I 
ATOM     10  F2  UNL d   1      -1.772   0.054  -1.686  0.00  0.00    -0.096 F 
ATOM     11  F3  UNL d   1      -2.925   0.788   0.652  0.00  0.00    -0.097 F 
ATOM     12  F4  UNL d   1      -1.465   0.834   2.956  0.00  0.00    -0.092 F 
ENDROOT
TORSDOF 0
ENDMDL
