MODEL 1
REMARK minimizedAffinity -4.94934464
REMARK minimizedRMSD -1
REMARK  0 active torsions:
REMARK  status: ('A' for Active; 'I' for Inactive)
ROOT
ATOM      1  C   UNL d   1      -1.215   0.174   2.206  0.00  0.00     0.124 A 
ATOM      2  C1  UNL d   1      -1.942   0.437   1.054  0.00  0.00     0.062 A 
ATOM      3  C2  UNL d   1      -1.323   0.384  -0.192  0.00  0.00     0.162 A 
ATOM      4  C3  UNL d   1       0.032   0.067  -0.292  0.00  0.00    -0.034 A 
ATOM      5  C4  UNL d   1       0.757  -0.195   0.872  0.00  0.00     0.162 A 
ATOM      6  C5  UNL d   1       0.133  -0.141   2.115  0.00  0.00     0.062 A 
ATOM      7  F   UNL d   1       0.838  -0.395   3.227  0.00  0.00    -0.097 F 
ATOM      8  F1  UNL d   1       2.061  -0.503   0.813  0.00  0.00    -0.096 F 
ATOM      9  I   UNL d   1       0.961  -0.013  -2.152  0.00  0.00    -0.060 I 
ATOM     10  F2  UNL d   1      -2.050   0.642  -1.289  0.00  0.00    -0.096 F 
ATOM     11  F3  UNL d   1      -3.245   0.743   1.139  0.00  0.00    -0.097 F 
ATOM     12  F4  UNL d   1      -1.813   0.227   3.403  0.00  0.00    -0.092 F 
ENDROOT
TORSDOF 0
ENDMDL
