MODEL 1
REMARK minimizedAffinity -1.22790706
REMARK minimizedRMSD -1
REMARK  0 active torsions:
REMARK  status: ('A' for Active; 'I' for Inactive)
ROOT
ATOM      1  C   UNL d   1      -0.393  -0.146   2.148  0.00  0.00     0.124 A 
ATOM      2  C1  UNL d   1      -1.204  -0.266   1.028  0.00  0.00     0.062 A 
ATOM      3  C2  UNL d   1      -0.650  -0.209  -0.247  0.00  0.00     0.162 A 
ATOM      4  C3  UNL d   1       0.725  -0.033  -0.410  0.00  0.00    -0.034 A 
ATOM      5  C4  UNL d   1       1.534   0.087   0.721  0.00  0.00     0.162 A 
ATOM      6  C5  UNL d   1       0.975   0.030   1.994  0.00  0.00     0.062 A 
ATOM      7  F   UNL d   1       1.760   0.145   3.074  0.00  0.00    -0.097 F 
ATOM      8  F1  UNL d   1       2.859   0.257   0.601  0.00  0.00    -0.096 F 
ATOM      9  I   UNL d   1       1.558   0.052  -2.315  0.00  0.00    -0.060 I 
ATOM     10  F2  UNL d   1      -1.457  -0.327  -1.312  0.00  0.00    -0.096 F 
ATOM     11  F3  UNL d   1      -2.526  -0.435   1.174  0.00  0.00    -0.097 F 
ATOM     12  F4  UNL d   1      -0.930  -0.200   3.374  0.00  0.00    -0.092 F 
ENDROOT
TORSDOF 0
ENDMDL
