MODEL 1
REMARK minimizedAffinity -1.57517004
REMARK minimizedRMSD -1
REMARK  0 active torsions:
REMARK  status: ('A' for Active; 'I' for Inactive)
ROOT
ATOM      1  C   UNL d   1      -1.624   0.290   2.297  0.00  0.00     0.124 A 
ATOM      2  C1  UNL d   1      -0.293  -0.099   2.249  0.00  0.00     0.062 A 
ATOM      3  C2  UNL d   1       0.398  -0.084   1.042  0.00  0.00     0.162 A 
ATOM      4  C3  UNL d   1      -0.240   0.324  -0.130  0.00  0.00    -0.034 A 
ATOM      5  C4  UNL d   1      -1.579   0.714  -0.074  0.00  0.00     0.162 A 
ATOM      6  C5  UNL d   1      -2.266   0.696   1.135  0.00  0.00     0.062 A 
ATOM      7  F   UNL d   1      -3.552   1.073   1.179  0.00  0.00    -0.097 F 
ATOM      8  F1  UNL d   1      -2.224   1.112  -1.181  0.00  0.00    -0.096 F 
ATOM      9  I   UNL d   1       0.791   0.350  -1.938  0.00  0.00    -0.060 I 
ATOM     10  F2  UNL d   1       1.684  -0.465   1.025  0.00  0.00    -0.096 F 
ATOM     11  F3  UNL d   1       0.329  -0.493   3.370  0.00  0.00    -0.097 F 
ATOM     12  F4  UNL d   1      -2.288   0.273   3.460  0.00  0.00    -0.092 F 
ENDROOT
TORSDOF 0
ENDMDL
