MODEL 1
REMARK minimizedAffinity -6.54934216
REMARK minimizedRMSD -1
REMARK  0 active torsions:
REMARK  status: ('A' for Active; 'I' for Inactive)
ROOT
ATOM      1  C   UNL d   1      -3.014  -0.127   1.186  0.00  0.00     0.124 A 
ATOM      2  C1  UNL d   1      -2.293  -0.752   2.195  0.00  0.00     0.062 A 
ATOM      3  C2  UNL d   1      -0.913  -0.591   2.272  0.00  0.00     0.162 A 
ATOM      4  C3  UNL d   1      -0.244   0.199   1.337  0.00  0.00    -0.034 A 
ATOM      5  C4  UNL d   1      -0.975   0.823   0.325  0.00  0.00     0.162 A 
ATOM      6  C5  UNL d   1      -2.354   0.659   0.252  0.00  0.00     0.062 A 
ATOM      7  F   UNL d   1      -3.049   1.263  -0.723  0.00  0.00    -0.097 F 
ATOM      8  F1  UNL d   1      -0.363   1.590  -0.590  0.00  0.00    -0.096 F 
ATOM      9  I   UNL d   1       1.820   0.443   1.448  0.00  0.00    -0.060 I 
ATOM     10  F2  UNL d   1      -0.242  -1.206   3.257  0.00  0.00    -0.096 F 
ATOM     11  F3  UNL d   1      -2.928  -1.513   3.098  0.00  0.00    -0.097 F 
ATOM     12  F4  UNL d   1      -4.342  -0.285   1.114  0.00  0.00    -0.092 F 
ENDROOT
TORSDOF 0
ENDMDL
