MODEL 1
REMARK minimizedAffinity 4.69545507
REMARK minimizedRMSD -1
REMARK  0 active torsions:
REMARK  status: ('A' for Active; 'I' for Inactive)
ROOT
ATOM      1  C   UNL d   1      -1.623   0.629   2.155  0.00  0.00     0.124 A 
ATOM      2  C1  UNL d   1      -0.276   0.311   2.254  0.00  0.00     0.062 A 
ATOM      3  C2  UNL d   1       0.438  -0.072   1.122  0.00  0.00     0.162 A 
ATOM      4  C3  UNL d   1      -0.195  -0.139  -0.120  0.00  0.00    -0.034 A 
ATOM      5  C4  UNL d   1      -1.551   0.182  -0.211  0.00  0.00     0.162 A 
ATOM      6  C5  UNL d   1      -2.259   0.564   0.923  0.00  0.00     0.062 A 
ATOM      7  F   UNL d   1      -3.561   0.872   0.826  0.00  0.00    -0.097 F 
ATOM      8  F1  UNL d   1      -2.190   0.128  -1.389  0.00  0.00    -0.096 F 
ATOM      9  I   UNL d   1       0.868  -0.712  -1.815  0.00  0.00    -0.060 I 
ATOM     10  F2  UNL d   1       1.739  -0.374   1.246  0.00  0.00    -0.096 F 
ATOM     11  F3  UNL d   1       0.341   0.372   3.443  0.00  0.00    -0.097 F 
ATOM     12  F4  UNL d   1      -2.307   0.997   3.246  0.00  0.00    -0.092 F 
ENDROOT
TORSDOF 0
ENDMDL
