MODEL 1
REMARK minimizedAffinity -3.87588668
REMARK minimizedRMSD -1
REMARK  0 active torsions:
REMARK  status: ('A' for Active; 'I' for Inactive)
ROOT
ATOM      1  C   UNL d   1       0.074   0.822  -0.119  0.00  0.00     0.124 A 
ATOM      2  C1  UNL d   1      -1.301   0.650  -0.041  0.00  0.00     0.062 A 
ATOM      3  C2  UNL d   1      -1.892   0.268   1.160  0.00  0.00     0.162 A 
ATOM      4  C3  UNL d   1      -1.107   0.056   2.294  0.00  0.00    -0.034 A 
ATOM      5  C4  UNL d   1       0.275   0.230   2.207  0.00  0.00     0.162 A 
ATOM      6  C5  UNL d   1       0.860   0.612   1.005  0.00  0.00     0.062 A 
ATOM      7  F   UNL d   1       2.189   0.777   0.931  0.00  0.00    -0.097 F 
ATOM      8  F1  UNL d   1       1.059   0.034   3.278  0.00  0.00    -0.096 F 
ATOM      9  I   UNL d   1      -1.987  -0.515   4.092  0.00  0.00    -0.060 I 
ATOM     10  F2  UNL d   1      -3.223   0.109   1.207  0.00  0.00    -0.096 F 
ATOM     11  F3  UNL d   1      -2.063   0.851  -1.125  0.00  0.00    -0.097 F 
ATOM     12  F4  UNL d   1       0.639   1.188  -1.276  0.00  0.00    -0.092 F 
ENDROOT
TORSDOF 0
ENDMDL
