MODEL 1
REMARK minimizedAffinity -1.31810379
REMARK minimizedRMSD -1
REMARK  0 active torsions:
REMARK  status: ('A' for Active; 'I' for Inactive)
ROOT
ATOM      1  C   UNL d   1      -1.432   0.322   2.236  0.00  0.00     0.124 A 
ATOM      2  C1  UNL d   1      -2.187   0.629   1.112  0.00  0.00     0.062 A 
ATOM      3  C2  UNL d   1      -1.593   0.649  -0.147  0.00  0.00     0.162 A 
ATOM      4  C3  UNL d   1      -0.235   0.361  -0.288  0.00  0.00    -0.034 A 
ATOM      5  C4  UNL d   1       0.518   0.055   0.846  0.00  0.00     0.162 A 
ATOM      6  C5  UNL d   1      -0.081   0.036   2.102  0.00  0.00     0.062 A 
ATOM      7  F   UNL d   1       0.650  -0.260   3.186  0.00  0.00    -0.097 F 
ATOM      8  F1  UNL d   1       1.825  -0.227   0.746  0.00  0.00    -0.096 F 
ATOM      9  I   UNL d   1       0.657   0.390  -2.168  0.00  0.00    -0.060 I 
ATOM     10  F2  UNL d   1      -2.347   0.948  -1.215  0.00  0.00    -0.096 F 
ATOM     11  F3  UNL d   1      -3.493   0.907   1.239  0.00  0.00    -0.097 F 
ATOM     12  F4  UNL d   1      -2.006   0.305   3.445  0.00  0.00    -0.092 F 
ENDROOT
TORSDOF 0
ENDMDL
