MODEL 1
REMARK minimizedAffinity -2.74172807
REMARK minimizedRMSD -1
REMARK  0 active torsions:
REMARK  status: ('A' for Active; 'I' for Inactive)
ROOT
ATOM      1  C   UNL d   1      -1.772   0.433   2.313  0.00  0.00     0.124 A 
ATOM      2  C1  UNL d   1      -2.296   0.973   1.147  0.00  0.00     0.062 A 
ATOM      3  C2  UNL d   1      -1.564   0.931  -0.036  0.00  0.00     0.162 A 
ATOM      4  C3  UNL d   1      -0.298   0.345  -0.058  0.00  0.00    -0.034 A 
ATOM      5  C4  UNL d   1       0.224  -0.194   1.119  0.00  0.00     0.162 A 
ATOM      6  C5  UNL d   1      -0.512  -0.149   2.298  0.00  0.00     0.062 A 
ATOM      7  F   UNL d   1      -0.004  -0.671   3.424  0.00  0.00    -0.097 F 
ATOM      8  F1  UNL d   1       1.438  -0.764   1.132  0.00  0.00    -0.096 F 
ATOM      9  I   UNL d   1       0.802   0.280  -1.824  0.00  0.00    -0.060 I 
ATOM     10  F2  UNL d   1      -2.095   1.460  -1.147  0.00  0.00    -0.096 F 
ATOM     11  F3  UNL d   1      -3.513   1.538   1.159  0.00  0.00    -0.097 F 
ATOM     12  F4  UNL d   1      -2.479   0.476   3.450  0.00  0.00    -0.092 F 
ENDROOT
TORSDOF 0
ENDMDL
