MODEL 1
REMARK minimizedAffinity 1.58080077
REMARK minimizedRMSD -1
REMARK  0 active torsions:
REMARK  status: ('A' for Active; 'I' for Inactive)
ROOT
ATOM      1  C   UNL d   1       1.018  -1.206  -3.109  0.00  0.00     0.124 A 
ATOM      2  C1  UNL d   1       0.420  -2.119  -2.250  0.00  0.00     0.062 A 
ATOM      3  C2  UNL d   1      -0.022  -1.713  -0.995  0.00  0.00     0.162 A 
ATOM      4  C3  UNL d   1       0.131  -0.387  -0.589  0.00  0.00    -0.034 A 
ATOM      5  C4  UNL d   1       0.734   0.525  -1.458  0.00  0.00     0.162 A 
ATOM      6  C5  UNL d   1       1.174   0.114  -2.712  0.00  0.00     0.062 A 
ATOM      7  F   UNL d   1       1.751   0.997  -3.539  0.00  0.00    -0.097 F 
ATOM      8  F1  UNL d   1       0.896   1.807  -1.100  0.00  0.00    -0.096 F 
ATOM      9  I   UNL d   1      -0.529   0.224   1.287  0.00  0.00    -0.060 I 
ATOM     10  F2  UNL d   1      -0.596  -2.616  -0.186  0.00  0.00    -0.096 F 
ATOM     11  F3  UNL d   1       0.269  -3.396  -2.631  0.00  0.00    -0.097 F 
ATOM     12  F4  UNL d   1       1.443  -1.600  -4.316  0.00  0.00    -0.092 F 
ENDROOT
TORSDOF 0
ENDMDL
