MODEL 1
REMARK minimizedAffinity -0.189105168
REMARK minimizedRMSD -1
REMARK  0 active torsions:
REMARK  status: ('A' for Active; 'I' for Inactive)
ROOT
ATOM      1  C   UNL d   1      -0.964   0.329   1.756  0.00  0.00     0.124 A 
ATOM      2  C1  UNL d   1       0.361  -0.083   1.729  0.00  0.00     0.062 A 
ATOM      3  C2  UNL d   1       1.042  -0.172   0.519  0.00  0.00     0.162 A 
ATOM      4  C3  UNL d   1       0.400   0.153  -0.676  0.00  0.00    -0.034 A 
ATOM      5  C4  UNL d   1      -0.934   0.566  -0.641  0.00  0.00     0.162 A 
ATOM      6  C5  UNL d   1      -1.610   0.653   0.571  0.00  0.00     0.062 A 
ATOM      7  F   UNL d   1      -2.890   1.051   0.595  0.00  0.00    -0.097 F 
ATOM      8  F1  UNL d   1      -1.582   0.886  -1.771  0.00  0.00    -0.096 F 
ATOM      9  I   UNL d   1       1.415   0.022  -2.488  0.00  0.00    -0.060 I 
ATOM     10  F2  UNL d   1       2.322  -0.572   0.523  0.00  0.00    -0.096 F 
ATOM     11  F3  UNL d   1       0.987  -0.397   2.872  0.00  0.00    -0.097 F 
ATOM     12  F4  UNL d   1      -1.617   0.412   2.922  0.00  0.00    -0.092 F 
ENDROOT
TORSDOF 0
ENDMDL
