MODEL 1
REMARK minimizedAffinity -2.84037519
REMARK minimizedRMSD -1
REMARK  0 active torsions:
REMARK  status: ('A' for Active; 'I' for Inactive)
ROOT
ATOM      1  C   UNL d   1      -1.480   0.392   2.522  0.00  0.00     0.124 A 
ATOM      2  C1  UNL d   1      -0.133   0.081   2.402  0.00  0.00     0.062 A 
ATOM      3  C2  UNL d   1       0.465   0.030   1.146  0.00  0.00     0.162 A 
ATOM      4  C3  UNL d   1      -0.284   0.291  -0.001  0.00  0.00    -0.034 A 
ATOM      5  C4  UNL d   1      -1.639   0.603   0.128  0.00  0.00     0.162 A 
ATOM      6  C5  UNL d   1      -2.232   0.652   1.385  0.00  0.00     0.062 A 
ATOM      7  F   UNL d   1      -3.534   0.953   1.499  0.00  0.00    -0.097 F 
ATOM      8  F1  UNL d   1      -2.389   0.860  -0.954  0.00  0.00    -0.096 F 
ATOM      9  I   UNL d   1       0.606   0.216  -1.881  0.00  0.00    -0.060 I 
ATOM     10  F2  UNL d   1       1.769  -0.274   1.060  0.00  0.00    -0.096 F 
ATOM     11  F3  UNL d   1       0.596  -0.173   3.499  0.00  0.00    -0.097 F 
ATOM     12  F4  UNL d   1      -2.053   0.439   3.732  0.00  0.00    -0.092 F 
ENDROOT
TORSDOF 0
ENDMDL
