MODEL 1
REMARK minimizedAffinity -5.54760408
REMARK minimizedRMSD -1
REMARK  0 active torsions:
REMARK  status: ('A' for Active; 'I' for Inactive)
ROOT
ATOM      1  C   UNL d   1       0.715   0.299  -0.516  0.00  0.00     0.124 A 
ATOM      2  C1  UNL d   1       1.405   0.295   0.688  0.00  0.00     0.062 A 
ATOM      3  C2  UNL d   1       0.721   0.110   1.886  0.00  0.00     0.162 A 
ATOM      4  C3  UNL d   1      -0.662  -0.074   1.886  0.00  0.00    -0.034 A 
ATOM      5  C4  UNL d   1      -1.349  -0.068   0.670  0.00  0.00     0.162 A 
ATOM      6  C5  UNL d   1      -0.660   0.118  -0.524  0.00  0.00     0.062 A 
ATOM      7  F   UNL d   1      -1.329   0.122  -1.687  0.00  0.00    -0.097 F 
ATOM      8  F1  UNL d   1      -2.678  -0.242   0.634  0.00  0.00    -0.096 F 
ATOM      9  I   UNL d   1      -1.688  -0.352   3.675  0.00  0.00    -0.060 I 
ATOM     10  F2  UNL d   1       1.413   0.111   3.035  0.00  0.00    -0.096 F 
ATOM     11  F3  UNL d   1       2.734   0.472   0.698  0.00  0.00    -0.097 F 
ATOM     12  F4  UNL d   1       1.376   0.479  -1.667  0.00  0.00    -0.092 F 
ENDROOT
TORSDOF 0
ENDMDL
