MODEL 1
REMARK minimizedAffinity -5.23169041
REMARK minimizedRMSD -1
REMARK  0 active torsions:
REMARK  status: ('A' for Active; 'I' for Inactive)
ROOT
ATOM      1  C   UNL d   1       0.339   0.803  -0.378  0.00  0.00     0.124 A 
ATOM      2  C1  UNL d   1       0.848   0.508   0.879  0.00  0.00     0.062 A 
ATOM      3  C2  UNL d   1      -0.013   0.211   1.931  0.00  0.00     0.162 A 
ATOM      4  C3  UNL d   1      -1.394   0.207   1.731  0.00  0.00    -0.034 A 
ATOM      5  C4  UNL d   1      -1.898   0.506   0.464  0.00  0.00     0.162 A 
ATOM      6  C5  UNL d   1      -1.033   0.802  -0.584  0.00  0.00     0.062 A 
ATOM      7  F   UNL d   1      -1.527   1.086  -1.798  0.00  0.00    -0.097 F 
ATOM      8  F1  UNL d   1      -3.220   0.511   0.237  0.00  0.00    -0.096 F 
ATOM      9  I   UNL d   1      -2.685  -0.236   3.302  0.00  0.00    -0.060 I 
ATOM     10  F2  UNL d   1       0.507  -0.070   3.136  0.00  0.00    -0.096 F 
ATOM     11  F3  UNL d   1       2.174   0.509   1.081  0.00  0.00    -0.097 F 
ATOM     12  F4  UNL d   1       1.170   1.089  -1.388  0.00  0.00    -0.092 F 
ENDROOT
TORSDOF 0
ENDMDL
