MODEL 1
REMARK minimizedAffinity -4.96858406
REMARK minimizedRMSD -1
REMARK  0 active torsions:
REMARK  status: ('A' for Active; 'I' for Inactive)
ROOT
ATOM      1  C   UNL d   1      -2.540  -0.234   3.150  0.00  0.00     0.124 A 
ATOM      2  C1  UNL d   1      -3.134   0.396   2.065  0.00  0.00     0.062 A 
ATOM      3  C2  UNL d   1      -2.471   0.458   0.843  0.00  0.00     0.162 A 
ATOM      4  C3  UNL d   1      -1.205  -0.111   0.699  0.00  0.00    -0.034 A 
ATOM      5  C4  UNL d   1      -0.614  -0.742   1.795  0.00  0.00     0.162 A 
ATOM      6  C5  UNL d   1      -1.281  -0.802   3.014  0.00  0.00     0.062 A 
ATOM      7  F   UNL d   1      -0.705  -1.410   4.062  0.00  0.00    -0.097 F 
ATOM      8  F1  UNL d   1       0.601  -1.300   1.691  0.00  0.00    -0.096 F 
ATOM      9  I   UNL d   1      -0.211  -0.020  -1.127  0.00  0.00    -0.060 I 
ATOM     10  F2  UNL d   1      -3.069   1.073  -0.189  0.00  0.00    -0.096 F 
ATOM     11  F3  UNL d   1      -4.350   0.946   2.194  0.00  0.00    -0.097 F 
ATOM     12  F4  UNL d   1      -3.180  -0.292   4.325  0.00  0.00    -0.092 F 
ENDROOT
TORSDOF 0
ENDMDL
