MODEL 1
REMARK minimizedAffinity -3.9155643
REMARK minimizedRMSD -1
REMARK  0 active torsions:
REMARK  status: ('A' for Active; 'I' for Inactive)
ROOT
ATOM      1  C   UNL d   1      -2.190  -0.009   2.789  0.00  0.00     0.124 A 
ATOM      2  C1  UNL d   1      -0.982  -0.683   2.674  0.00  0.00     0.062 A 
ATOM      3  C2  UNL d   1      -0.299  -0.693   1.462  0.00  0.00     0.162 A 
ATOM      4  C3  UNL d   1      -0.820  -0.026   0.354  0.00  0.00    -0.034 A 
ATOM      5  C4  UNL d   1      -2.036   0.649   0.477  0.00  0.00     0.162 A 
ATOM      6  C5  UNL d   1      -2.716   0.657   1.690  0.00  0.00     0.062 A 
ATOM      7  F   UNL d   1      -3.882   1.309   1.799  0.00  0.00    -0.097 F 
ATOM      8  F1  UNL d   1      -2.567   1.301  -0.569  0.00  0.00    -0.096 F 
ATOM      9  I   UNL d   1       0.199  -0.039  -1.461  0.00  0.00    -0.060 I 
ATOM     10  F2  UNL d   1       0.866  -1.353   1.380  0.00  0.00    -0.096 F 
ATOM     11  F3  UNL d   1      -0.473  -1.327   3.734  0.00  0.00    -0.097 F 
ATOM     12  F4  UNL d   1      -2.846  -0.001   3.956  0.00  0.00    -0.092 F 
ENDROOT
TORSDOF 0
ENDMDL
