MODEL 1
REMARK minimizedAffinity 3.73309755
REMARK minimizedRMSD -1
REMARK  2 active torsions:
REMARK  status: ('A' for Active; 'I' for Inactive)
REMARK    1  A    between atoms: C2'_3  and  C1'_4 
REMARK    2  A    between atoms: C1'_4  and  C1_5 
ROOT
ATOM      1  C1  I4B d   1       1.547   0.872   0.171  0.00  0.00    -0.075 A 
ATOM      2  C2  I4B d   1       2.625   1.594  -0.278  0.00  0.00     0.003 A 
ATOM      3  C3  I4B d   1       3.571   0.997  -1.146  0.00  0.00     0.002 A 
ATOM      4  C4  I4B d   1       3.428  -0.329  -1.498  0.00  0.00    -0.004 A 
ATOM      5  C5  I4B d   1       2.322  -1.053  -1.061  0.00  0.00     0.002 A 
ATOM      6  C6  I4B d   1       1.369  -0.445  -0.231  0.00  0.00     0.003 A 
ENDROOT
BRANCH   1   7
ATOM      7  C1' I4B d   1       0.585   1.524   1.113  0.00  0.00     0.060 C 
BRANCH   7   8
ATOM      8  C2' I4B d   1       1.063   1.260   2.526  0.00  0.00    -0.013 C 
ATOM      9  C4' I4B d   1       1.714   2.482   3.119  0.00  0.00     0.013 C 
ATOM     10  C3' I4B d   1      -0.118   0.825   3.341  0.00  0.00     0.013 C 
ENDBRANCH   7   8
ENDBRANCH   1   7
TORSDOF 2
ENDMDL
