MODEL 1
REMARK minimizedAffinity 1.82840002
REMARK minimizedRMSD -1
REMARK  2 active torsions:
REMARK  status: ('A' for Active; 'I' for Inactive)
REMARK    1  A    between atoms: C2'_3  and  C1'_4 
REMARK    2  A    between atoms: C1'_4  and  C1_5 
ROOT
ATOM      1  C1  I4B d   1       3.314   0.945  -1.245  0.00  0.00    -0.075 A 
ATOM      2  C2  I4B d   1       2.544   0.456  -0.219  0.00  0.00     0.003 A 
ATOM      3  C3  I4B d   1       1.942  -0.821  -0.327  0.00  0.00     0.002 A 
ATOM      4  C4  I4B d   1       2.094  -1.548  -1.490  0.00  0.00    -0.004 A 
ATOM      5  C5  I4B d   1       2.894  -1.061  -2.519  0.00  0.00     0.002 A 
ATOM      6  C6  I4B d   1       3.519   0.189  -2.391  0.00  0.00     0.003 A 
ENDROOT
BRANCH   1   7
ATOM      7  C1' I4B d   1       3.908   2.312  -1.111  0.00  0.00     0.060 C 
BRANCH   7   8
ATOM      8  C2' I4B d   1       5.410   2.185  -1.266  0.00  0.00    -0.013 C 
ATOM      9  C4' I4B d   1       5.997   3.415  -1.908  0.00  0.00     0.013 C 
ATOM     10  C3' I4B d   1       5.997   1.951   0.094  0.00  0.00     0.013 C 
ENDBRANCH   7   8
ENDBRANCH   1   7
TORSDOF 2
ENDMDL
