MODEL 1
REMARK minimizedAffinity 2.07950497
REMARK minimizedRMSD -1
REMARK  2 active torsions:
REMARK  status: ('A' for Active; 'I' for Inactive)
REMARK    1  A    between atoms: C2'_3  and  C1'_4 
REMARK    2  A    between atoms: C1'_4  and  C1_5 
ROOT
ATOM      1  C1  I4B d   1       2.309   0.073  -0.628  0.00  0.00    -0.075 A 
ATOM      2  C2  I4B d   1       2.039  -0.496   0.591  0.00  0.00     0.003 A 
ATOM      3  C3  I4B d   1       1.695  -1.867   0.677  0.00  0.00     0.002 A 
ATOM      4  C4  I4B d   1       1.583  -2.614  -0.478  0.00  0.00    -0.004 A 
ATOM      5  C5  I4B d   1       1.880  -2.040  -1.711  0.00  0.00     0.002 A 
ATOM      6  C6  I4B d   1       2.257  -0.692  -1.786  0.00  0.00     0.003 A 
ENDROOT
BRANCH   1   7
ATOM      7  C1' I4B d   1       2.637   1.531  -0.686  0.00  0.00     0.060 C 
BRANCH   7   8
ATOM      8  C2' I4B d   1       4.118   1.665  -0.977  0.00  0.00    -0.013 C 
ATOM      9  C4' I4B d   1       4.358   2.043  -2.415  0.00  0.00     0.013 C 
ATOM     10  C3' I4B d   1       4.682   2.696  -0.046  0.00  0.00     0.013 C 
ENDBRANCH   7   8
ENDBRANCH   1   7
TORSDOF 2
ENDMDL
