MODEL 1
REMARK minimizedAffinity 8.52502537
REMARK minimizedRMSD -1
REMARK  2 active torsions:
REMARK  status: ('A' for Active; 'I' for Inactive)
REMARK    1  A    between atoms: C2'_3  and  C1'_4 
REMARK    2  A    between atoms: C1'_4  and  C1_5 
ROOT
ATOM      1  C1  I4B d   1       0.457  -1.677   1.034  0.00  0.00    -0.075 A 
ATOM      2  C2  I4B d   1      -0.801  -2.199   0.857  0.00  0.00     0.003 A 
ATOM      3  C3  I4B d   1      -1.408  -2.178  -0.422  0.00  0.00     0.002 A 
ATOM      4  C4  I4B d   1      -0.747  -1.585  -1.479  0.00  0.00    -0.004 A 
ATOM      5  C5  I4B d   1       0.537  -1.077  -1.303  0.00  0.00     0.002 A 
ATOM      6  C6  I4B d   1       1.148  -1.134  -0.041  0.00  0.00     0.003 A 
ENDROOT
BRANCH   1   7
ATOM      7  C1' I4B d   1       1.054  -1.686   2.405  0.00  0.00     0.060 C 
BRANCH   7   8
ATOM      8  C2' I4B d   1      -0.047  -1.366   3.396  0.00  0.00    -0.013 C 
ATOM      9  C4' I4B d   1      -0.285  -2.518   4.336  0.00  0.00     0.013 C 
ATOM     10  C3' I4B d   1       0.350  -0.129   4.145  0.00  0.00     0.013 C 
ENDBRANCH   7   8
ENDBRANCH   1   7
TORSDOF 2
ENDMDL
