MODEL 1
REMARK minimizedAffinity 6.69637442
REMARK minimizedRMSD -1
REMARK  2 active torsions:
REMARK  status: ('A' for Active; 'I' for Inactive)
REMARK    1  A    between atoms: C2'_3  and  C1'_4 
REMARK    2  A    between atoms: C1'_4  and  C1_5 
ROOT
ATOM      1  C1  I4B d   1       3.305   1.626  -0.616  0.00  0.00    -0.075 A 
ATOM      2  C2  I4B d   1       3.118   2.938  -0.258  0.00  0.00     0.003 A 
ATOM      3  C3  I4B d   1       4.233   3.792  -0.075  0.00  0.00     0.002 A 
ATOM      4  C4  I4B d   1       5.508   3.283  -0.208  0.00  0.00    -0.004 A 
ATOM      5  C5  I4B d   1       5.695   1.958  -0.593  0.00  0.00     0.002 A 
ATOM      6  C6  I4B d   1       4.586   1.127  -0.810  0.00  0.00     0.003 A 
ENDROOT
BRANCH   1   7
ATOM      7  C1' I4B d   1       2.106   0.743  -0.769  0.00  0.00     0.060 C 
BRANCH   7   8
ATOM      8  C2' I4B d   1       2.569  -0.695  -0.657  0.00  0.00    -0.013 C 
ATOM      9  C4' I4B d   1       1.950  -1.375   0.536  0.00  0.00     0.013 C 
ATOM     10  C3' I4B d   1       2.205  -1.399  -1.930  0.00  0.00     0.013 C 
ENDBRANCH   7   8
ENDBRANCH   1   7
TORSDOF 2
ENDMDL
