MODEL 1
REMARK minimizedAffinity 4.87650061
REMARK minimizedRMSD -1
REMARK  2 active torsions:
REMARK  status: ('A' for Active; 'I' for Inactive)
REMARK    1  A    between atoms: C2'_3  and  C1'_4 
REMARK    2  A    between atoms: C1'_4  and  C1_5 
ROOT
ATOM      1  C1  I4B d   1       3.405   0.910  -0.755  0.00  0.00    -0.075 A 
ATOM      2  C2  I4B d   1       3.503   1.628  -1.920  0.00  0.00     0.003 A 
ATOM      3  C3  I4B d   1       4.756   2.136  -2.341  0.00  0.00     0.002 A 
ATOM      4  C4  I4B d   1       5.868   1.946  -1.546  0.00  0.00    -0.004 A 
ATOM      5  C5  I4B d   1       5.771   1.198  -0.377  0.00  0.00     0.002 A 
ATOM      6  C6  I4B d   1       4.535   0.665   0.016  0.00  0.00     0.003 A 
ENDROOT
BRANCH   1   7
ATOM      7  C1' I4B d   1       2.061   0.416  -0.323  0.00  0.00     0.060 C 
BRANCH   7   8
ATOM      8  C2' I4B d   1       2.148  -1.086  -0.150  0.00  0.00    -0.013 C 
ATOM      9  C4' I4B d   1       1.566  -1.518   1.171  0.00  0.00     0.013 C 
ATOM     10  C3' I4B d   1       1.425  -1.728  -1.296  0.00  0.00     0.013 C 
ENDBRANCH   7   8
ENDBRANCH   1   7
TORSDOF 2
ENDMDL
