MODEL 1
REMARK minimizedAffinity 4.33141088
REMARK minimizedRMSD -1
REMARK  2 active torsions:
REMARK  status: ('A' for Active; 'I' for Inactive)
REMARK    1  A    between atoms: C2'_3  and  C1'_4 
REMARK    2  A    between atoms: C1'_4  and  C1_5 
ROOT
ATOM      1  C1  I4B d   1       4.554   0.058  -1.191  0.00  0.00    -0.075 A 
ATOM      2  C2  I4B d   1       3.711  -0.386  -0.203  0.00  0.00     0.003 A 
ATOM      3  C3  I4B d   1       2.668  -1.292  -0.510  0.00  0.00     0.002 A 
ATOM      4  C4  I4B d   1       2.472  -1.687  -1.817  0.00  0.00    -0.004 A 
ATOM      5  C5  I4B d   1       3.342  -1.254  -2.815  0.00  0.00     0.002 A 
ATOM      6  C6  I4B d   1       4.397  -0.386  -2.498  0.00  0.00     0.003 A 
ENDROOT
BRANCH   1   7
ATOM      7  C1' I4B d   1       5.625   1.040  -0.838  0.00  0.00     0.060 C 
BRANCH   7   8
ATOM      8  C2' I4B d   1       5.090   2.432  -1.107  0.00  0.00    -0.013 C 
ATOM      9  C4' I4B d   1       3.657   2.561  -0.659  0.00  0.00     0.013 C 
ATOM     10  C3' I4B d   1       5.971   3.413  -0.393  0.00  0.00     0.013 C 
ENDBRANCH   7   8
ENDBRANCH   1   7
TORSDOF 2
ENDMDL
