MODEL 1
REMARK minimizedAffinity 5.56288481
REMARK minimizedRMSD -1
REMARK  2 active torsions:
REMARK  status: ('A' for Active; 'I' for Inactive)
REMARK    1  A    between atoms: C2'_3  and  C1'_4 
REMARK    2  A    between atoms: C1'_4  and  C1_5 
ROOT
ATOM      1  C1  I4B d   1       1.833   0.520  -0.308  0.00  0.00    -0.075 A 
ATOM      2  C2  I4B d   1       2.723   1.065  -1.199  0.00  0.00     0.003 A 
ATOM      3  C3  I4B d   1       3.412   0.236  -2.117  0.00  0.00     0.002 A 
ATOM      4  C4  I4B d   1       3.220  -1.130  -2.075  0.00  0.00    -0.004 A 
ATOM      5  C5  I4B d   1       2.301  -1.679  -1.187  0.00  0.00     0.002 A 
ATOM      6  C6  I4B d   1       1.593  -0.848  -0.306  0.00  0.00     0.003 A 
ENDROOT
BRANCH   1   7
ATOM      7  C1' I4B d   1       1.148   1.421   0.669  0.00  0.00     0.060 C 
BRANCH   7   8
ATOM      8  C2' I4B d   1       1.676   1.098   2.052  0.00  0.00    -0.013 C 
ATOM      9  C4' I4B d   1       2.681   2.124   2.505  0.00  0.00     0.013 C 
ATOM     10  C3' I4B d   1       0.508   1.033   2.990  0.00  0.00     0.013 C 
ENDBRANCH   7   8
ENDBRANCH   1   7
TORSDOF 2
ENDMDL
