MODEL 1
REMARK minimizedAffinity 6.13933849
REMARK minimizedRMSD -1
REMARK  2 active torsions:
REMARK  status: ('A' for Active; 'I' for Inactive)
REMARK    1  A    between atoms: C2'_3  and  C1'_4 
REMARK    2  A    between atoms: C1'_4  and  C1_5 
ROOT
ATOM      1  C1  I4B d   1       3.522   1.742  -0.866  0.00  0.00    -0.075 A 
ATOM      2  C2  I4B d   1       3.934   2.195  -2.094  0.00  0.00     0.003 A 
ATOM      3  C3  I4B d   1       5.201   2.812  -2.238  0.00  0.00     0.002 A 
ATOM      4  C4  I4B d   1       5.995   3.000  -1.125  0.00  0.00    -0.004 A 
ATOM      5  C5  I4B d   1       5.585   2.519   0.115  0.00  0.00     0.002 A 
ATOM      6  C6  I4B d   1       4.346   1.875   0.244  0.00  0.00     0.003 A 
ENDROOT
BRANCH   1   7
ATOM      7  C1' I4B d   1       2.165   1.124  -0.745  0.00  0.00     0.060 C 
BRANCH   7   8
ATOM      8  C2' I4B d   1       2.348  -0.360  -0.501  0.00  0.00    -0.013 C 
ATOM      9  C4' I4B d   1       1.869  -0.750   0.872  0.00  0.00     0.013 C 
ATOM     10  C3' I4B d   1       1.596  -1.100  -1.567  0.00  0.00     0.013 C 
ENDBRANCH   7   8
ENDBRANCH   1   7
TORSDOF 2
ENDMDL
