MODEL 1
REMARK minimizedAffinity -1.97210383
REMARK minimizedRMSD -1
REMARK  1 active torsions:
REMARK  status: ('A' for Active; 'I' for Inactive)
REMARK    1  A    between atoms: C1_2  and  C2_3 
ROOT
ATOM      1  C2  UNL d   1      -0.053  -0.752  -0.202  0.00  0.00    -0.073 A 
ATOM      2  C3  UNL d   1       0.699   0.185  -0.919  0.00  0.00    -0.002 A 
ATOM      3  C4  UNL d   1       0.503   1.551  -0.715  0.00  0.00     0.004 A 
ATOM      4  C5  UNL d   1      -0.440   1.994   0.212  0.00  0.00    -0.004 A 
ATOM      5  C6  UNL d   1      -1.193   1.073   0.947  0.00  0.00    -0.075 A 
ATOM      6  C7  UNL d   1      -2.213   1.533   1.947  0.00  0.00     0.076 C 
ATOM      7  C8  UNL d   1      -0.993  -0.298   0.734  0.00  0.00     0.001 A 
ENDROOT
BRANCH   1   8
ATOM      8  C1  UNL d   1       0.159  -2.229  -0.415  0.00  0.00     0.053 C 
ATOM      9  C   UNL d   1       0.921  -2.516  -1.700  0.00  0.00     0.018 C 
ENDBRANCH   1   8
TORSDOF 1
ENDMDL
