MODEL 1
REMARK minimizedAffinity -2.00475526
REMARK minimizedRMSD -1
REMARK  1 active torsions:
REMARK  status: ('A' for Active; 'I' for Inactive)
REMARK    1  A    between atoms: C1_2  and  C2_3 
ROOT
ATOM      1  C2  UNL d   1       0.130  -0.272   0.392  0.00  0.00    -0.073 A 
ATOM      2  C3  UNL d   1      -0.073  -1.300   1.319  0.00  0.00    -0.002 A 
ATOM      3  C4  UNL d   1      -0.843  -1.078   2.462  0.00  0.00     0.004 A 
ATOM      4  C5  UNL d   1      -1.423   0.170   2.685  0.00  0.00    -0.004 A 
ATOM      5  C6  UNL d   1      -1.242   1.207   1.765  0.00  0.00    -0.075 A 
ATOM      6  C7  UNL d   1      -1.858   2.557   1.992  0.00  0.00     0.076 C 
ATOM      7  C8  UNL d   1      -0.465   0.977   0.621  0.00  0.00     0.001 A 
ENDROOT
BRANCH   1   8
ATOM      8  C1  UNL d   1       0.955  -0.508  -0.846  0.00  0.00     0.053 C 
ATOM      9  C   UNL d   1       0.810  -1.930  -1.364  0.00  0.00     0.018 C 
ENDBRANCH   1   8
TORSDOF 1
ENDMDL
