MODEL 1
REMARK minimizedAffinity -5.0709033
REMARK minimizedRMSD -1
REMARK  1 active torsions:
REMARK  status: ('A' for Active; 'I' for Inactive)
REMARK    1  A    between atoms: C1_2  and  C2_3 
ROOT
ATOM      1  C2  UNL d   1      -0.472  -1.073  -0.027  0.00  0.00    -0.073 A 
ATOM      2  C3  UNL d   1      -1.027  -1.050   1.258  0.00  0.00    -0.002 A 
ATOM      3  C4  UNL d   1      -1.328   0.165   1.874  0.00  0.00     0.004 A 
ATOM      4  C5  UNL d   1      -1.083   1.368   1.211  0.00  0.00    -0.004 A 
ATOM      5  C6  UNL d   1      -0.540   1.365  -0.077  0.00  0.00    -0.075 A 
ATOM      6  C7  UNL d   1      -0.268   2.650  -0.803  0.00  0.00     0.076 C 
ATOM      7  C8  UNL d   1      -0.238   0.141  -0.689  0.00  0.00     0.001 A 
ENDROOT
BRANCH   1   8
ATOM      8  C1  UNL d   1      -0.151  -2.383  -0.699  0.00  0.00     0.053 C 
ATOM      9  C   UNL d   1      -0.452  -2.348  -2.189  0.00  0.00     0.018 C 
ENDBRANCH   1   8
TORSDOF 1
ENDMDL
