MODEL 1
REMARK minimizedAffinity -3.86484623
REMARK minimizedRMSD -1
REMARK  1 active torsions:
REMARK  status: ('A' for Active; 'I' for Inactive)
REMARK    1  A    between atoms: C1_2  and  C2_3 
ROOT
ATOM      1  C2  UNL d   1       0.423  -0.806  -0.431  0.00  0.00    -0.073 A 
ATOM      2  C3  UNL d   1       1.121   0.165  -1.158  0.00  0.00    -0.002 A 
ATOM      3  C4  UNL d   1       0.678   1.488  -1.174  0.00  0.00     0.004 A 
ATOM      4  C5  UNL d   1      -0.462   1.855  -0.458  0.00  0.00    -0.004 A 
ATOM      5  C6  UNL d   1      -1.166   0.902   0.285  0.00  0.00    -0.075 A 
ATOM      6  C7  UNL d   1      -2.394   1.280   1.059  0.00  0.00     0.076 C 
ATOM      7  C8  UNL d   1      -0.716  -0.426   0.293  0.00  0.00     0.001 A 
ENDROOT
BRANCH   1   8
ATOM      8  C1  UNL d   1       0.901  -2.235  -0.406  0.00  0.00     0.053 C 
ATOM      9  C   UNL d   1       0.142  -3.107  -1.394  0.00  0.00     0.018 C 
ENDBRANCH   1   8
TORSDOF 1
ENDMDL
