MODEL 1
REMARK minimizedAffinity -4.81227541
REMARK minimizedRMSD -1
REMARK  1 active torsions:
REMARK  status: ('A' for Active; 'I' for Inactive)
REMARK    1  A    between atoms: C1_2  and  C2_3 
ROOT
ATOM      1  C2  UNL d   1       0.335  -0.508  -0.493  0.00  0.00    -0.073 A 
ATOM      2  C3  UNL d   1       0.812   0.436  -1.409  0.00  0.00    -0.002 A 
ATOM      3  C4  UNL d   1       0.456   1.780  -1.287  0.00  0.00     0.004 A 
ATOM      4  C5  UNL d   1      -0.375   2.194  -0.246  0.00  0.00    -0.004 A 
ATOM      5  C6  UNL d   1      -0.854   1.267   0.686  0.00  0.00    -0.075 A 
ATOM      6  C7  UNL d   1      -1.750   1.695   1.810  0.00  0.00     0.076 C 
ATOM      7  C8  UNL d   1      -0.493  -0.081   0.555  0.00  0.00     0.001 A 
ENDROOT
BRANCH   1   8
ATOM      8  C1  UNL d   1       0.722  -1.959  -0.618  0.00  0.00     0.053 C 
ATOM      9  C   UNL d   1       0.219  -2.575  -1.914  0.00  0.00     0.018 C 
ENDBRANCH   1   8
TORSDOF 1
ENDMDL
