MODEL 1
REMARK minimizedAffinity -3.19796491
REMARK minimizedRMSD -1
REMARK  1 active torsions:
REMARK  status: ('A' for Active; 'I' for Inactive)
REMARK    1  A    between atoms: C1_2  and  C2_3 
ROOT
ATOM      1  C2  UNL d   1      -0.101   0.299  -0.301  0.00  0.00    -0.073 A 
ATOM      2  C3  UNL d   1       0.143  -0.563   0.774  0.00  0.00    -0.002 A 
ATOM      3  C4  UNL d   1      -0.453  -0.330   2.014  0.00  0.00     0.004 A 
ATOM      4  C5  UNL d   1      -1.304   0.762   2.190  0.00  0.00    -0.004 A 
ATOM      5  C6  UNL d   1      -1.569   1.628   1.124  0.00  0.00    -0.075 A 
ATOM      6  C7  UNL d   1      -2.480   2.808   1.297  0.00  0.00     0.076 C 
ATOM      7  C8  UNL d   1      -0.964   1.388  -0.117  0.00  0.00     0.001 A 
ENDROOT
BRANCH   1   8
ATOM      8  C1  UNL d   1       0.536   0.047  -1.643  0.00  0.00     0.053 C 
ATOM      9  C   UNL d   1      -0.196  -1.030  -2.428  0.00  0.00     0.018 C 
ENDBRANCH   1   8
TORSDOF 1
ENDMDL
