MODEL 1
REMARK minimizedAffinity -5.61601257
REMARK minimizedRMSD -1
REMARK  1 active torsions:
REMARK  status: ('A' for Active; 'I' for Inactive)
REMARK    1  A    between atoms: C1_2  and  C2_3 
ROOT
ATOM      1  C2  UNL d   1       0.011  -0.205  -0.117  0.00  0.00    -0.073 A 
ATOM      2  C3  UNL d   1       0.057  -0.902   1.096  0.00  0.00    -0.002 A 
ATOM      3  C4  UNL d   1      -0.782  -0.539   2.150  0.00  0.00     0.004 A 
ATOM      4  C5  UNL d   1      -1.680   0.518   2.001  0.00  0.00    -0.004 A 
ATOM      5  C6  UNL d   1      -1.749   1.219   0.792  0.00  0.00    -0.075 A 
ATOM      6  C7  UNL d   1      -2.707   2.360   0.616  0.00  0.00     0.076 C 
ATOM      7  C8  UNL d   1      -0.901   0.850  -0.261  0.00  0.00     0.001 A 
ENDROOT
BRANCH   1   8
ATOM      8  C1  UNL d   1       0.911  -0.598  -1.260  0.00  0.00     0.053 C 
ATOM      9  C   UNL d   1       0.378  -1.803  -2.017  0.00  0.00     0.018 C 
ENDBRANCH   1   8
TORSDOF 1
ENDMDL
