MODEL 1
REMARK minimizedAffinity 9.62317753
REMARK minimizedRMSD -1
REMARK  1 active torsions:
REMARK  status: ('A' for Active; 'I' for Inactive)
REMARK    1  A    between atoms: C1_2  and  C2_3 
ROOT
ATOM      1  C2  UNL d   1      -2.965  -4.515  -2.381  0.00  0.00    -0.076 A 
ATOM      2  C3  UNL d   1      -3.607  -3.434  -1.753  0.00  0.00     0.004 A 
ATOM      3  C4  UNL d   1      -3.084  -2.145  -1.831  0.00  0.00    -0.003 A 
ATOM      4  C5  UNL d   1      -1.910  -1.915  -2.540  0.00  0.00     0.000 A 
ATOM      5  C6  UNL d   1      -1.269  -2.972  -3.185  0.00  0.00     0.000 A 
ATOM      6  C7  UNL d   1      -1.792  -4.275  -3.129  0.00  0.00    -0.073 A 
ATOM      7  C8  UNL d   1      -1.056  -5.379  -3.838  0.00  0.00     0.078 C 
ENDROOT
BRANCH   1   8
ATOM      8  C1  UNL d   1      -3.564  -5.896  -2.239  0.00  0.00     0.053 C 
ATOM      9  C   UNL d   1      -4.886  -5.883  -1.487  0.00  0.00     0.018 C 
ENDBRANCH   1   8
TORSDOF 1
ENDMDL
