MODEL 1
REMARK minimizedAffinity 6.53147078
REMARK minimizedRMSD -1
REMARK  1 active torsions:
REMARK  status: ('A' for Active; 'I' for Inactive)
REMARK    1  A    between atoms: C1_2  and  C2_3 
ROOT
ATOM      1  C2  UNL d   1      -0.973   0.779   2.635  0.00  0.00    -0.076 A 
ATOM      2  C3  UNL d   1      -1.532   2.042   2.373  0.00  0.00     0.004 A 
ATOM      3  C4  UNL d   1      -2.908   2.249   2.457  0.00  0.00    -0.003 A 
ATOM      4  C5  UNL d   1      -3.747   1.197   2.806  0.00  0.00     0.000 A 
ATOM      5  C6  UNL d   1      -3.208  -0.058   3.087  0.00  0.00     0.000 A 
ATOM      6  C7  UNL d   1      -1.822  -0.280   3.022  0.00  0.00    -0.073 A 
ATOM      7  C8  UNL d   1      -1.296  -1.656   3.329  0.00  0.00     0.078 C 
ENDROOT
BRANCH   1   8
ATOM      8  C1  UNL d   1       0.523   0.607   2.500  0.00  0.00     0.053 C 
ATOM      9  C   UNL d   1       1.178   1.761   1.757  0.00  0.00     0.018 C 
ENDBRANCH   1   8
TORSDOF 1
ENDMDL
