MODEL 1
REMARK minimizedAffinity 12.819314
REMARK minimizedRMSD -1
REMARK  1 active torsions:
REMARK  status: ('A' for Active; 'I' for Inactive)
REMARK    1  A    between atoms: C1_2  and  C2_3 
ROOT
ATOM      1  C2  UNL d   1      -0.844   0.540   2.795  0.00  0.00    -0.076 A 
ATOM      2  C3  UNL d   1      -1.329   1.853   2.670  0.00  0.00     0.004 A 
ATOM      3  C4  UNL d   1      -2.698   2.116   2.674  0.00  0.00    -0.003 A 
ATOM      4  C5  UNL d   1      -3.604   1.069   2.804  0.00  0.00     0.000 A 
ATOM      5  C6  UNL d   1      -3.140  -0.238   2.947  0.00  0.00     0.000 A 
ATOM      6  C7  UNL d   1      -1.763  -0.518   2.961  0.00  0.00    -0.073 A 
ATOM      7  C8  UNL d   1      -1.319  -1.947   3.113  0.00  0.00     0.078 C 
ENDROOT
BRANCH   1   8
ATOM      8  C1  UNL d   1       0.650   0.313   2.758  0.00  0.00     0.053 C 
ATOM      9  C   UNL d   1       1.339   1.143   1.685  0.00  0.00     0.018 C 
ENDBRANCH   1   8
TORSDOF 1
ENDMDL
