MODEL 1
REMARK minimizedAffinity 6.14655447
REMARK minimizedRMSD -1
REMARK  1 active torsions:
REMARK  status: ('A' for Active; 'I' for Inactive)
REMARK    1  A    between atoms: C1_2  and  C2_3 
ROOT
ATOM      1  C2  UNL d   1       3.244   2.086   1.278  0.00  0.00    -0.076 A 
ATOM      2  C3  UNL d   1       2.085   2.833   1.553  0.00  0.00     0.004 A 
ATOM      3  C4  UNL d   1       0.918   2.210   1.991  0.00  0.00    -0.003 A 
ATOM      4  C5  UNL d   1       0.891   0.830   2.162  0.00  0.00     0.000 A 
ATOM      5  C6  UNL d   1       2.036   0.076   1.911  0.00  0.00     0.000 A 
ATOM      6  C7  UNL d   1       3.226   0.690   1.484  0.00  0.00    -0.073 A 
ATOM      7  C8  UNL d   1       4.430  -0.173   1.222  0.00  0.00     0.078 C 
ENDROOT
BRANCH   1   8
ATOM      8  C1  UNL d   1       4.473   2.813   0.779  0.00  0.00     0.053 C 
ATOM      9  C   UNL d   1       4.794   4.049   1.605  0.00  0.00     0.018 C 
ENDBRANCH   1   8
TORSDOF 1
ENDMDL
