MODEL 1
REMARK minimizedAffinity 4.93948841
REMARK minimizedRMSD -1
REMARK  1 active torsions:
REMARK  status: ('A' for Active; 'I' for Inactive)
REMARK    1  A    between atoms: C1_2  and  C2_3 
ROOT
ATOM      1  C2  UNL d   1       4.385   0.917   1.341  0.00  0.00    -0.076 A 
ATOM      2  C3  UNL d   1       3.396   0.122   1.946  0.00  0.00     0.004 A 
ATOM      3  C4  UNL d   1       2.044   0.337   1.686  0.00  0.00    -0.003 A 
ATOM      4  C5  UNL d   1       1.658   1.350   0.815  0.00  0.00     0.000 A 
ATOM      5  C6  UNL d   1       2.626   2.137   0.192  0.00  0.00     0.000 A 
ATOM      6  C7  UNL d   1       3.994   1.923   0.431  0.00  0.00    -0.073 A 
ATOM      7  C8  UNL d   1       4.995   2.805  -0.264  0.00  0.00     0.078 C 
ENDROOT
BRANCH   1   8
ATOM      8  C1  UNL d   1       5.834   0.656   1.682  0.00  0.00     0.053 C 
ATOM      9  C   UNL d   1       5.995  -0.165   2.953  0.00  0.00     0.018 C 
ENDBRANCH   1   8
TORSDOF 1
ENDMDL
