MODEL 1
REMARK minimizedAffinity -2.14509892
REMARK minimizedRMSD -1
REMARK  1 active torsions:
REMARK  status: ('A' for Active; 'I' for Inactive)
REMARK    1  A    between atoms: C1_2  and  C2_3 
ROOT
ATOM      1  C2  UNL d   1      -5.593   3.567   4.967  0.00  0.00    -0.076 A 
ATOM      2  C3  UNL d   1      -5.226   2.685   5.999  0.00  0.00     0.004 A 
ATOM      3  C4  UNL d   1      -4.882   1.363   5.724  0.00  0.00    -0.003 A 
ATOM      4  C5  UNL d   1      -4.898   0.901   4.413  0.00  0.00     0.000 A 
ATOM      5  C6  UNL d   1      -5.242   1.766   3.375  0.00  0.00     0.000 A 
ATOM      6  C7  UNL d   1      -5.576   3.107   3.633  0.00  0.00    -0.073 A 
ATOM      7  C8  UNL d   1      -5.946   3.994   2.476  0.00  0.00     0.078 C 
ENDROOT
BRANCH   1   8
ATOM      8  C1  UNL d   1      -5.983   4.982   5.329  0.00  0.00     0.053 C 
ATOM      9  C   UNL d   1      -4.931   6.000   4.915  0.00  0.00     0.018 C 
ENDBRANCH   1   8
TORSDOF 1
ENDMDL
