MODEL 1
REMARK minimizedAffinity 8.98621368
REMARK minimizedRMSD -1
REMARK  1 active torsions:
REMARK  status: ('A' for Active; 'I' for Inactive)
REMARK    1  A    between atoms: C1_2  and  C2_3 
ROOT
ATOM      1  C2  UNL d   1      -4.841   0.195   3.860  0.00  0.00    -0.076 A 
ATOM      2  C3  UNL d   1      -5.275   0.554   5.148  0.00  0.00     0.004 A 
ATOM      3  C4  UNL d   1      -5.850  -0.387   6.000  0.00  0.00    -0.003 A 
ATOM      4  C5  UNL d   1      -5.999  -1.704   5.578  0.00  0.00     0.000 A 
ATOM      5  C6  UNL d   1      -5.559  -2.082   4.311  0.00  0.00     0.000 A 
ATOM      6  C7  UNL d   1      -4.962  -1.149   3.445  0.00  0.00    -0.073 A 
ATOM      7  C8  UNL d   1      -4.510  -1.611   2.087  0.00  0.00     0.078 C 
ENDROOT
BRANCH   1   8
ATOM      8  C1  UNL d   1      -4.250   1.264   2.970  0.00  0.00     0.053 C 
ATOM      9  C   UNL d   1      -3.714   2.449   3.759  0.00  0.00     0.018 C 
ENDBRANCH   1   8
TORSDOF 1
ENDMDL
