MODEL 1
REMARK minimizedAffinity 17.1151352
REMARK minimizedRMSD -1
REMARK  1 active torsions:
REMARK  status: ('A' for Active; 'I' for Inactive)
REMARK    1  A    between atoms: C1_2  and  C2_3 
ROOT
ATOM      1  C2  UNL d   1       2.581   2.621   1.333  0.00  0.00    -0.076 A 
ATOM      2  C3  UNL d   1       3.601   2.328   0.412  0.00  0.00     0.004 A 
ATOM      3  C4  UNL d   1       3.747   1.044  -0.113  0.00  0.00    -0.003 A 
ATOM      4  C5  UNL d   1       2.874   0.034   0.275  0.00  0.00     0.000 A 
ATOM      5  C6  UNL d   1       1.845   0.312   1.174  0.00  0.00     0.000 A 
ATOM      6  C7  UNL d   1       1.674   1.604   1.700  0.00  0.00    -0.073 A 
ATOM      7  C8  UNL d   1       0.551   1.846   2.671  0.00  0.00     0.078 C 
ENDROOT
BRANCH   1   8
ATOM      8  C1  UNL d   1       2.488   4.024   1.888  0.00  0.00     0.053 C 
ATOM      9  C   UNL d   1       3.798   4.787   1.766  0.00  0.00     0.018 C 
ENDBRANCH   1   8
TORSDOF 1
ENDMDL
