MODEL 1
REMARK minimizedAffinity 11.8543472
REMARK minimizedRMSD -1
REMARK  1 active torsions:
REMARK  status: ('A' for Active; 'I' for Inactive)
REMARK    1  A    between atoms: C1_2  and  C2_3 
ROOT
ATOM      1  C2  UNL d   1       4.181   1.094   0.073  0.00  0.00    -0.076 A 
ATOM      2  C3  UNL d   1       3.051   1.925  -0.011  0.00  0.00     0.004 A 
ATOM      3  C4  UNL d   1       1.980   1.772   0.868  0.00  0.00    -0.003 A 
ATOM      4  C5  UNL d   1       2.022   0.784   1.845  0.00  0.00     0.000 A 
ATOM      5  C6  UNL d   1       3.143  -0.039   1.954  0.00  0.00     0.000 A 
ATOM      6  C7  UNL d   1       4.238   0.114   1.087  0.00  0.00    -0.073 A 
ATOM      7  C8  UNL d   1       5.418  -0.805   1.245  0.00  0.00     0.078 C 
ENDROOT
BRANCH   1   8
ATOM      8  C1  UNL d   1       5.300   1.290  -0.925  0.00  0.00     0.053 C 
ATOM      9  C   UNL d   1       4.828   1.963  -2.205  0.00  0.00     0.018 C 
ENDBRANCH   1   8
TORSDOF 1
ENDMDL
