MODEL 1
REMARK minimizedAffinity 5.51121092
REMARK minimizedRMSD -1
REMARK  1 active torsions:
REMARK  status: ('A' for Active; 'I' for Inactive)
REMARK    1  A    between atoms: C1_2  and  C2_3 
ROOT
ATOM      1  C2  UNL d   1       4.331   3.009  -4.741  0.00  0.00    -0.076 A 
ATOM      2  C3  UNL d   1       4.419   3.724  -3.533  0.00  0.00     0.004 A 
ATOM      3  C4  UNL d   1       4.734   3.078  -2.339  0.00  0.00    -0.003 A 
ATOM      4  C5  UNL d   1       4.967   1.708  -2.333  0.00  0.00     0.000 A 
ATOM      5  C6  UNL d   1       4.902   0.986  -3.524  0.00  0.00     0.000 A 
ATOM      6  C7  UNL d   1       4.601   1.624  -4.740  0.00  0.00    -0.073 A 
ATOM      7  C8  UNL d   1       4.537   0.796  -5.994  0.00  0.00     0.078 C 
ENDROOT
BRANCH   1   8
ATOM      8  C1  UNL d   1       3.958   3.759  -6.000  0.00  0.00     0.053 C 
ATOM      9  C   UNL d   1       3.740   5.243  -5.752  0.00  0.00     0.018 C 
ENDBRANCH   1   8
TORSDOF 1
ENDMDL
