MODEL 1
REMARK minimizedAffinity 15.6110001
REMARK minimizedRMSD -1
REMARK  1 active torsions:
REMARK  status: ('A' for Active; 'I' for Inactive)
REMARK    1  A    between atoms: C1_2  and  C2_3 
ROOT
ATOM      1  C2  UNL d   1       1.865   0.985   2.596  0.00  0.00    -0.076 A 
ATOM      2  C3  UNL d   1       2.147  -0.015   3.543  0.00  0.00     0.004 A 
ATOM      3  C4  UNL d   1       1.424  -0.102   4.732  0.00  0.00    -0.003 A 
ATOM      4  C5  UNL d   1       0.408   0.810   4.993  0.00  0.00     0.000 A 
ATOM      5  C6  UNL d   1       0.103   1.798   4.057  0.00  0.00     0.000 A 
ATOM      6  C7  UNL d   1       0.811   1.889   2.846  0.00  0.00    -0.073 A 
ATOM      7  C8  UNL d   1       0.445   2.979   1.876  0.00  0.00     0.078 C 
ENDROOT
BRANCH   1   8
ATOM      8  C1  UNL d   1       2.700   1.046   1.337  0.00  0.00     0.053 C 
ATOM      9  C   UNL d   1       3.887   0.096   1.379  0.00  0.00     0.018 C 
ENDBRANCH   1   8
TORSDOF 1
ENDMDL
