MODEL 1
REMARK minimizedAffinity 14.9447727
REMARK minimizedRMSD -1
REMARK  1 active torsions:
REMARK  status: ('A' for Active; 'I' for Inactive)
REMARK    1  A    between atoms: C1_2  and  C2_3 
ROOT
ATOM      1  C2  UNL d   1      -1.586  -2.650  -1.318  0.00  0.00    -0.076 A 
ATOM      2  C3  UNL d   1      -0.464  -2.521  -0.481  0.00  0.00     0.004 A 
ATOM      3  C4  UNL d   1      -0.589  -2.603   0.904  0.00  0.00    -0.003 A 
ATOM      4  C5  UNL d   1      -1.839  -2.815   1.476  0.00  0.00     0.000 A 
ATOM      5  C6  UNL d   1      -2.960  -2.963   0.660  0.00  0.00     0.000 A 
ATOM      6  C7  UNL d   1      -2.849  -2.900  -0.739  0.00  0.00    -0.073 A 
ATOM      7  C8  UNL d   1      -4.092  -3.060  -1.570  0.00  0.00     0.078 C 
ENDROOT
BRANCH   1   8
ATOM      8  C1  UNL d   1      -1.394  -2.526  -2.813  0.00  0.00     0.053 C 
ATOM      9  C   UNL d   1      -0.807  -3.786  -3.431  0.00  0.00     0.018 C 
ENDBRANCH   1   8
TORSDOF 1
ENDMDL
