MODEL 1
REMARK minimizedAffinity 9.5042696
REMARK minimizedRMSD -1
REMARK  1 active torsions:
REMARK  status: ('A' for Active; 'I' for Inactive)
REMARK    1  A    between atoms: C1_2  and  C2_3 
ROOT
ATOM      1  C2  UNL d   1      -2.599  -4.128  -0.350  0.00  0.00    -0.076 A 
ATOM      2  C3  UNL d   1      -3.212  -4.201  -1.612  0.00  0.00     0.004 A 
ATOM      3  C4  UNL d   1      -2.861  -3.318  -2.632  0.00  0.00    -0.003 A 
ATOM      4  C5  UNL d   1      -1.890  -2.348  -2.406  0.00  0.00     0.000 A 
ATOM      5  C6  UNL d   1      -1.259  -2.273  -1.165  0.00  0.00     0.000 A 
ATOM      6  C7  UNL d   1      -1.589  -3.166  -0.131  0.00  0.00    -0.073 A 
ATOM      7  C8  UNL d   1      -0.881  -3.037   1.189  0.00  0.00     0.078 C 
ENDROOT
BRANCH   1   8
ATOM      8  C1  UNL d   1      -3.039  -5.095   0.726  0.00  0.00     0.053 C 
ATOM      9  C   UNL d   1      -4.185  -5.988   0.274  0.00  0.00     0.018 C 
ENDBRANCH   1   8
TORSDOF 1
ENDMDL
