MODEL 1
REMARK minimizedAffinity -2.15611839
REMARK minimizedRMSD -1
REMARK  2 active torsions:
REMARK  status: ('A' for Active; 'I' for Inactive)
REMARK    1  A    between atoms: C2'_3  and  C1'_4 
REMARK    2  A    between atoms: C1'_4  and  C1_5 
ROOT
ATOM      1  C1  I4B d   1       5.096  -2.692   5.181  0.00  0.00    -0.075 A 
ATOM      2  C2  I4B d   1       5.996  -1.690   5.448  0.00  0.00     0.003 A 
ATOM      3  C3  I4B d   1       5.996  -0.507   4.671  0.00  0.00     0.002 A 
ATOM      4  C4  I4B d   1       5.119  -0.388   3.612  0.00  0.00    -0.004 A 
ATOM      5  C5  I4B d   1       4.191  -1.394   3.358  0.00  0.00     0.002 A 
ATOM      6  C6  I4B d   1       4.171  -2.548   4.154  0.00  0.00     0.003 A 
ENDROOT
BRANCH   1   7
ATOM      7  C1' I4B d   1       5.145  -3.942   6.000  0.00  0.00     0.060 C 
BRANCH   7   8
ATOM      8  C2' I4B d   1       4.658  -5.087   5.134  0.00  0.00    -0.013 C 
ATOM      9  C4' I4B d   1       5.812  -5.824   4.506  0.00  0.00     0.013 C 
ATOM     10  C3' I4B d   1       3.835  -6.000   5.993  0.00  0.00     0.013 C 
ENDBRANCH   7   8
ENDBRANCH   1   7
TORSDOF 2
ENDMDL
