MODEL 1
REMARK minimizedAffinity -2.28832221
REMARK minimizedRMSD -1
REMARK  2 active torsions:
REMARK  status: ('A' for Active; 'I' for Inactive)
REMARK    1  A    between atoms: C2'_3  and  C1'_4 
REMARK    2  A    between atoms: C1'_4  and  C1_5 
ROOT
ATOM      1  C1  I4B d   1       5.253  -2.757   5.499  0.00  0.00    -0.075 A 
ATOM      2  C2  I4B d   1       5.994  -1.702   5.969  0.00  0.00     0.003 A 
ATOM      3  C3  I4B d   1       5.746  -0.390   5.495  0.00  0.00     0.002 A 
ATOM      4  C4  I4B d   1       4.790  -0.189   4.521  0.00  0.00    -0.004 A 
ATOM      5  C5  I4B d   1       4.024  -1.257   4.062  0.00  0.00     0.002 A 
ATOM      6  C6  I4B d   1       4.248  -2.547   4.563  0.00  0.00     0.003 A 
ENDROOT
BRANCH   1   7
ATOM      7  C1' I4B d   1       5.563  -4.133   5.996  0.00  0.00     0.060 C 
BRANCH   7   8
ATOM      8  C2' I4B d   1       4.937  -5.128   5.040  0.00  0.00    -0.013 C 
ATOM      9  C4' I4B d   1       5.988  -5.952   4.344  0.00  0.00     0.013 C 
ATOM     10  C3' I4B d   1       3.999  -5.997   5.823  0.00  0.00     0.013 C 
ENDBRANCH   7   8
ENDBRANCH   1   7
TORSDOF 2
ENDMDL
