MODEL 1
REMARK minimizedAffinity -1.23213065
REMARK minimizedRMSD -1
REMARK  2 active torsions:
REMARK  status: ('A' for Active; 'I' for Inactive)
REMARK    1  A    between atoms: C2'_3  and  C1'_4 
REMARK    2  A    between atoms: C1'_4  and  C1_5 
ROOT
ATOM      1  C1  I4B d   1       5.699   0.550   4.351  0.00  0.00    -0.075 A 
ATOM      2  C2  I4B d   1       5.418   0.887   5.652  0.00  0.00     0.003 A 
ATOM      3  C3  I4B d   1       5.158   2.235   5.999  0.00  0.00     0.002 A 
ATOM      4  C4  I4B d   1       5.240   3.214   5.030  0.00  0.00    -0.004 A 
ATOM      5  C5  I4B d   1       5.502   2.868   3.707  0.00  0.00     0.002 A 
ATOM      6  C6  I4B d   1       5.721   1.526   3.363  0.00  0.00     0.003 A 
ENDROOT
BRANCH   1   7
ATOM      7  C1' I4B d   1       6.000  -0.879   4.026  0.00  0.00     0.060 C 
BRANCH   7   8
ATOM      8  C2' I4B d   1       5.127  -1.752   4.905  0.00  0.00    -0.013 C 
ATOM      9  C4' I4B d   1       4.432  -2.816   4.098  0.00  0.00     0.013 C 
ATOM     10  C3' I4B d   1       5.998  -2.358   5.964  0.00  0.00     0.013 C 
ENDBRANCH   7   8
ENDBRANCH   1   7
TORSDOF 2
ENDMDL
