MODEL 1
REMARK minimizedAffinity 10.5795794
REMARK minimizedRMSD -1
REMARK  2 active torsions:
REMARK  status: ('A' for Active; 'I' for Inactive)
REMARK    1  A    between atoms: C2'_3  and  C1'_4 
REMARK    2  A    between atoms: C1'_4  and  C1_5 
ROOT
ATOM      1  C1  I4B d   1      -1.155  -1.083   2.094  0.00  0.00    -0.075 A 
ATOM      2  C2  I4B d   1      -2.415  -1.625   2.051  0.00  0.00     0.003 A 
ATOM      3  C3  I4B d   1      -3.503  -0.951   2.658  0.00  0.00     0.002 A 
ATOM      4  C4  I4B d   1      -3.277   0.229   3.336  0.00  0.00    -0.004 A 
ATOM      5  C5  I4B d   1      -2.003   0.789   3.359  0.00  0.00     0.002 A 
ATOM      6  C6  I4B d   1      -0.937   0.136   2.724  0.00  0.00     0.003 A 
ENDROOT
BRANCH   1   7
ATOM      7  C1' I4B d   1      -0.024  -1.837   1.471  0.00  0.00     0.060 C 
BRANCH   7   8
ATOM      8  C2' I4B d   1      -0.095  -1.632  -0.028  0.00  0.00    -0.013 C 
ATOM      9  C4' I4B d   1       0.659  -0.397  -0.446  0.00  0.00     0.013 C 
ATOM     10  C3' I4B d   1       0.462  -2.857  -0.690  0.00  0.00     0.013 C 
ENDBRANCH   7   8
ENDBRANCH   1   7
TORSDOF 2
ENDMDL
