MODEL 1
REMARK minimizedAffinity 7.52729893
REMARK minimizedRMSD -1
REMARK  2 active torsions:
REMARK  status: ('A' for Active; 'I' for Inactive)
REMARK    1  A    between atoms: C2'_3  and  C1'_4 
REMARK    2  A    between atoms: C1'_4  and  C1_5 
ROOT
ATOM      1  C1  I4B d   1       1.214   0.288  -0.361  0.00  0.00    -0.075 A 
ATOM      2  C2  I4B d   1       0.061  -0.427  -0.154  0.00  0.00     0.003 A 
ATOM      3  C3  I4B d   1       0.125  -1.790   0.221  0.00  0.00     0.002 A 
ATOM      4  C4  I4B d   1       1.355  -2.408   0.328  0.00  0.00    -0.004 A 
ATOM      5  C5  I4B d   1       2.523  -1.676   0.140  0.00  0.00     0.002 A 
ATOM      6  C6  I4B d   1       2.453  -0.316  -0.195  0.00  0.00     0.003 A 
ENDROOT
BRANCH   1   7
ATOM      7  C1' I4B d   1       1.109   1.718  -0.789  0.00  0.00     0.060 C 
BRANCH   7   8
ATOM      8  C2' I4B d   1       0.513   2.506   0.360  0.00  0.00    -0.013 C 
ATOM      9  C4' I4B d   1       1.460   3.574   0.838  0.00  0.00     0.013 C 
ATOM     10  C3' I4B d   1      -0.782   3.101  -0.109  0.00  0.00     0.013 C 
ENDBRANCH   7   8
ENDBRANCH   1   7
TORSDOF 2
ENDMDL
