MODEL 1
REMARK minimizedAffinity -0.42185989
REMARK minimizedRMSD -1
REMARK  2 active torsions:
REMARK  status: ('A' for Active; 'I' for Inactive)
REMARK    1  A    between atoms: C2'_3  and  C1'_4 
REMARK    2  A    between atoms: C1'_4  and  C1_5 
ROOT
ATOM      1  C1  I4B d   1       5.822   1.131   4.616  0.00  0.00    -0.075 A 
ATOM      2  C2  I4B d   1       5.503   0.361   3.526  0.00  0.00     0.003 A 
ATOM      3  C3  I4B d   1       5.360  -1.041   3.660  0.00  0.00     0.002 A 
ATOM      4  C4  I4B d   1       5.593  -1.634   4.884  0.00  0.00    -0.004 A 
ATOM      5  C5  I4B d   1       5.895  -0.850   5.994  0.00  0.00     0.002 A 
ATOM      6  C6  I4B d   1       5.998   0.543   5.862  0.00  0.00     0.003 A 
ENDROOT
BRANCH   1   7
ATOM      7  C1' I4B d   1       5.998   2.605   4.432  0.00  0.00     0.060 C 
BRANCH   7   8
ATOM      8  C2' I4B d   1       5.403   3.300   5.640  0.00  0.00    -0.013 C 
ATOM      9  C4' I4B d   1       6.000   4.671   5.828  0.00  0.00     0.013 C 
ATOM     10  C3' I4B d   1       3.919   3.378   5.445  0.00  0.00     0.013 C 
ENDBRANCH   7   8
ENDBRANCH   1   7
TORSDOF 2
ENDMDL
