MODEL 1
REMARK minimizedAffinity 4.40177965
REMARK minimizedRMSD -1
REMARK  2 active torsions:
REMARK  status: ('A' for Active; 'I' for Inactive)
REMARK    1  A    between atoms: C2'_3  and  C1'_4 
REMARK    2  A    between atoms: C1'_4  and  C1_5 
ROOT
ATOM      1  C1  I4B d   1      -0.683   0.660   1.726  0.00  0.00    -0.075 A 
ATOM      2  C2  I4B d   1      -0.279   1.971   1.738  0.00  0.00     0.003 A 
ATOM      3  C3  I4B d   1       0.460   2.499   0.651  0.00  0.00     0.002 A 
ATOM      4  C4  I4B d   1       0.814   1.672  -0.395  0.00  0.00    -0.004 A 
ATOM      5  C5  I4B d   1       0.384   0.349  -0.416  0.00  0.00     0.002 A 
ATOM      6  C6  I4B d   1      -0.380  -0.158   0.646  0.00  0.00     0.003 A 
ENDROOT
BRANCH   1   7
ATOM      7  C1' I4B d   1      -1.433   0.127   2.905  0.00  0.00     0.060 C 
BRANCH   7   8
ATOM      8  C2' I4B d   1      -2.914   0.242   2.607  0.00  0.00    -0.013 C 
ATOM      9  C4' I4B d   1      -3.671  -0.949   3.134  0.00  0.00     0.013 C 
ATOM     10  C3' I4B d   1      -3.413   1.515   3.223  0.00  0.00     0.013 C 
ENDBRANCH   7   8
ENDBRANCH   1   7
TORSDOF 2
ENDMDL
