MODEL 1
REMARK minimizedAffinity 7.01997614
REMARK minimizedRMSD -1
REMARK  2 active torsions:
REMARK  status: ('A' for Active; 'I' for Inactive)
REMARK    1  A    between atoms: C2'_3  and  C1'_4 
REMARK    2  A    between atoms: C1'_4  and  C1_5 
ROOT
ATOM      1  C1  I4B d   1       0.439   0.242  -0.404  0.00  0.00    -0.075 A 
ATOM      2  C2  I4B d   1      -0.690   0.029   0.348  0.00  0.00     0.003 A 
ATOM      3  C3  I4B d   1      -1.039  -1.282   0.755  0.00  0.00     0.002 A 
ATOM      4  C4  I4B d   1      -0.263  -2.349   0.348  0.00  0.00    -0.004 A 
ATOM      5  C5  I4B d   1       0.893  -2.128  -0.395  0.00  0.00     0.002 A 
ATOM      6  C6  I4B d   1       1.253  -0.824  -0.763  0.00  0.00     0.003 A 
ENDROOT
BRANCH   1   7
ATOM      7  C1' I4B d   1       0.759   1.635  -0.844  0.00  0.00     0.060 C 
BRANCH   7   8
ATOM      8  C2' I4B d   1       0.079   2.595   0.111  0.00  0.00    -0.013 C 
ATOM      9  C4' I4B d   1       1.027   3.669   0.572  0.00  0.00     0.013 C 
ATOM     10  C3' I4B d   1      -1.108   3.184  -0.591  0.00  0.00     0.013 C 
ENDBRANCH   7   8
ENDBRANCH   1   7
TORSDOF 2
ENDMDL
