MODEL 1
REMARK minimizedAffinity -0.764194727
REMARK minimizedRMSD -1
REMARK  2 active torsions:
REMARK  status: ('A' for Active; 'I' for Inactive)
REMARK    1  A    between atoms: C2'_3  and  C1'_4 
REMARK    2  A    between atoms: C1'_4  and  C1_5 
ROOT
ATOM      1  C1  I4B d   1       5.662   1.122   5.309  0.00  0.00    -0.075 A 
ATOM      2  C2  I4B d   1       5.321   1.181   3.981  0.00  0.00     0.003 A 
ATOM      3  C3  I4B d   1       5.299   2.425   3.305  0.00  0.00     0.002 A 
ATOM      4  C4  I4B d   1       5.574   3.583   4.004  0.00  0.00    -0.004 A 
ATOM      5  C5  I4B d   1       5.942   3.519   5.344  0.00  0.00     0.002 A 
ATOM      6  C6  I4B d   1       5.998   2.280   5.999  0.00  0.00     0.003 A 
ENDROOT
BRANCH   1   7
ATOM      7  C1' I4B d   1       5.643  -0.204   6.000  0.00  0.00     0.060 C 
BRANCH   7   8
ATOM      8  C2' I4B d   1       5.917  -1.275   4.962  0.00  0.00    -0.013 C 
ATOM      9  C4' I4B d   1       5.999  -2.639   5.595  0.00  0.00     0.013 C 
ATOM     10  C3' I4B d   1       4.822  -1.218   3.939  0.00  0.00     0.013 C 
ENDBRANCH   7   8
ENDBRANCH   1   7
TORSDOF 2
ENDMDL
