MODEL 1
REMARK minimizedAffinity -1.88423812
REMARK minimizedRMSD -1
REMARK  2 active torsions:
REMARK  status: ('A' for Active; 'I' for Inactive)
REMARK    1  A    between atoms: C2'_3  and  C1'_4 
REMARK    2  A    between atoms: C1'_4  and  C1_5 
ROOT
ATOM      1  C1  I4B d   1       5.409   0.755   5.350  0.00  0.00    -0.075 A 
ATOM      2  C2  I4B d   1       4.864  -0.324   6.000  0.00  0.00     0.003 A 
ATOM      3  C3  I4B d   1       4.889  -1.605   5.398  0.00  0.00     0.002 A 
ATOM      4  C4  I4B d   1       5.419  -1.752   4.133  0.00  0.00    -0.004 A 
ATOM      5  C5  I4B d   1       5.992  -0.662   3.485  0.00  0.00     0.002 A 
ATOM      6  C6  I4B d   1       5.999   0.598   4.102  0.00  0.00     0.003 A 
ENDROOT
BRANCH   1   7
ATOM      7  C1' I4B d   1       5.337   2.100   6.000  0.00  0.00     0.060 C 
BRANCH   7   8
ATOM      8  C2' I4B d   1       5.930   3.114   5.043  0.00  0.00    -0.013 C 
ATOM      9  C4' I4B d   1       5.193   3.121   3.730  0.00  0.00     0.013 C 
ATOM     10  C3' I4B d   1       5.876   4.460   5.701  0.00  0.00     0.013 C 
ENDBRANCH   7   8
ENDBRANCH   1   7
TORSDOF 2
ENDMDL
