MODEL 1
REMARK minimizedAffinity 0.3738693
REMARK minimizedRMSD -1
REMARK  2 active torsions:
REMARK  status: ('A' for Active; 'I' for Inactive)
REMARK    1  A    between atoms: C2'_3  and  C1'_4 
REMARK    2  A    between atoms: C1'_4  and  C1_5 
ROOT
ATOM      1  C1  I4B d   1       5.369   1.232   5.090  0.00  0.00    -0.075 A 
ATOM      2  C2  I4B d   1       6.000   2.389   5.472  0.00  0.00     0.003 A 
ATOM      3  C3  I4B d   1       5.972   3.527   4.631  0.00  0.00     0.002 A 
ATOM      4  C4  I4B d   1       5.349   3.449   3.402  0.00  0.00    -0.004 A 
ATOM      5  C5  I4B d   1       4.689   2.282   3.027  0.00  0.00     0.002 A 
ATOM      6  C6  I4B d   1       4.689   1.170   3.881  0.00  0.00     0.003 A 
ENDROOT
BRANCH   1   7
ATOM      7  C1' I4B d   1       5.446   0.038   5.989  0.00  0.00     0.060 C 
BRANCH   7   8
ATOM      8  C2' I4B d   1       5.890  -1.146   5.154  0.00  0.00    -0.013 C 
ATOM      9  C4' I4B d   1       5.999  -2.393   5.991  0.00  0.00     0.013 C 
ATOM     10  C3' I4B d   1       4.900  -1.326   4.042  0.00  0.00     0.013 C 
ENDBRANCH   7   8
ENDBRANCH   1   7
TORSDOF 2
ENDMDL
