MODEL 1
REMARK minimizedAffinity 0.999230623
REMARK minimizedRMSD -1
REMARK  2 active torsions:
REMARK  status: ('A' for Active; 'I' for Inactive)
REMARK    1  A    between atoms: C2'_3  and  C1'_4 
REMARK    2  A    between atoms: C1'_4  and  C1_5 
ROOT
ATOM      1  C1  I4B d   1       5.751   0.085   5.289  0.00  0.00    -0.075 A 
ATOM      2  C2  I4B d   1       5.706   0.080   3.917  0.00  0.00     0.003 A 
ATOM      3  C3  I4B d   1       5.505  -1.133   3.215  0.00  0.00     0.002 A 
ATOM      4  C4  I4B d   1       5.404  -2.316   3.917  0.00  0.00    -0.004 A 
ATOM      5  C5  I4B d   1       5.427  -2.307   5.308  0.00  0.00     0.002 A 
ATOM      6  C6  I4B d   1       5.589  -1.098   6.000  0.00  0.00     0.003 A 
ENDROOT
BRANCH   1   7
ATOM      7  C1' I4B d   1       5.998   1.378   5.998  0.00  0.00     0.060 C 
BRANCH   7   8
ATOM      8  C2' I4B d   1       5.257   2.469   5.251  0.00  0.00    -0.013 C 
ATOM      9  C4' I4B d   1       3.773   2.384   5.494  0.00  0.00     0.013 C 
ATOM     10  C3' I4B d   1       5.804   3.791   5.700  0.00  0.00     0.013 C 
ENDBRANCH   7   8
ENDBRANCH   1   7
TORSDOF 2
ENDMDL
