MODEL 1
REMARK minimizedAffinity 0.0451084748
REMARK minimizedRMSD -1
REMARK  2 active torsions:
REMARK  status: ('A' for Active; 'I' for Inactive)
REMARK    1  A    between atoms: C2'_3  and  C1'_4 
REMARK    2  A    between atoms: C1'_4  and  C1_5 
ROOT
ATOM      1  C1  I4B d   1       5.965  -0.622   4.234  0.00  0.00    -0.075 A 
ATOM      2  C2  I4B d   1       5.983  -0.970   5.561  0.00  0.00     0.003 A 
ATOM      3  C3  I4B d   1       5.998  -2.335   5.940  0.00  0.00     0.002 A 
ATOM      4  C4  I4B d   1       5.943  -3.311   4.967  0.00  0.00    -0.004 A 
ATOM      5  C5  I4B d   1       5.947  -2.956   3.621  0.00  0.00     0.002 A 
ATOM      6  C6  I4B d   1       5.971  -1.603   3.251  0.00  0.00     0.003 A 
ENDROOT
BRANCH   1   7
ATOM      7  C1' I4B d   1       5.916   0.828   3.870  0.00  0.00     0.060 C 
BRANCH   7   8
ATOM      8  C2' I4B d   1       5.986   1.634   5.151  0.00  0.00    -0.013 C 
ATOM      9  C4' I4B d   1       6.000   3.112   4.865  0.00  0.00     0.013 C 
ATOM     10  C3' I4B d   1       4.808   1.257   6.000  0.00  0.00     0.013 C 
ENDBRANCH   7   8
ENDBRANCH   1   7
TORSDOF 2
ENDMDL
