MODEL 1
REMARK minimizedAffinity -0.310093045
REMARK minimizedRMSD -1
REMARK  2 active torsions:
REMARK  status: ('A' for Active; 'I' for Inactive)
REMARK    1  A    between atoms: C2'_3  and  C1'_4 
REMARK    2  A    between atoms: C1'_4  and  C1_5 
ROOT
ATOM      1  C1  I4B d   1       5.459   1.764   5.140  0.00  0.00    -0.075 A 
ATOM      2  C2  I4B d   1       5.893   2.934   5.711  0.00  0.00     0.003 A 
ATOM      3  C3  I4B d   1       6.000   4.111   4.930  0.00  0.00     0.002 A 
ATOM      4  C4  I4B d   1       5.713   4.060   3.582  0.00  0.00    -0.004 A 
ATOM      5  C5  I4B d   1       5.251   2.878   3.010  0.00  0.00     0.002 A 
ATOM      6  C6  I4B d   1       5.111   1.725   3.796  0.00  0.00     0.003 A 
ENDROOT
BRANCH   1   7
ATOM      7  C1' I4B d   1       5.389   0.532   5.986  0.00  0.00     0.060 C 
BRANCH   7   8
ATOM      8  C2' I4B d   1       5.999  -0.610   5.199  0.00  0.00    -0.013 C 
ATOM      9  C4' I4B d   1       5.995  -1.887   5.998  0.00  0.00     0.013 C 
ATOM     10  C3' I4B d   1       5.219  -0.764   3.928  0.00  0.00     0.013 C 
ENDBRANCH   7   8
ENDBRANCH   1   7
TORSDOF 2
ENDMDL
