MODEL 1
REMARK minimizedAffinity 6.39901018
REMARK minimizedRMSD -1
REMARK  2 active torsions:
REMARK  status: ('A' for Active; 'I' for Inactive)
REMARK    1  A    between atoms: C2'_3  and  C1'_4 
REMARK    2  A    between atoms: C1'_4  and  C1_5 
ROOT
ATOM      1  C1  I4B d   1       0.711  -0.193  -1.802  0.00  0.00    -0.075 A 
ATOM      2  C2  I4B d   1      -0.331  -0.228  -0.909  0.00  0.00     0.003 A 
ATOM      3  C3  I4B d   1      -0.548  -1.378  -0.112  0.00  0.00     0.002 A 
ATOM      4  C4  I4B d   1       0.264  -2.482  -0.276  0.00  0.00    -0.004 A 
ATOM      5  C5  I4B d   1       1.334  -2.436  -1.165  0.00  0.00     0.002 A 
ATOM      6  C6  I4B d   1       1.567  -1.280  -1.924  0.00  0.00     0.003 A 
ENDROOT
BRANCH   1   7
ATOM      7  C1' I4B d   1       0.892   1.025  -2.651  0.00  0.00     0.060 C 
BRANCH   7   8
ATOM      8  C2' I4B d   1       1.523   0.593  -3.959  0.00  0.00    -0.013 C 
ATOM      9  C4' I4B d   1       0.710  -0.485  -4.627  0.00  0.00     0.013 C 
ATOM     10  C3' I4B d   1       1.643   1.803  -4.837  0.00  0.00     0.013 C 
ENDBRANCH   7   8
ENDBRANCH   1   7
TORSDOF 2
ENDMDL
