MODEL 1
REMARK minimizedAffinity 11.5546122
REMARK minimizedRMSD -1
REMARK  0 active torsions:
REMARK  status: ('A' for Active; 'I' for Inactive)
ROOT
ATOM      1  C   UNL d   1      -4.365  -6.000  -1.494  0.00  0.00     0.020 A 
ATOM      2  C1  UNL d   1      -5.635  -5.999  -2.069  0.00  0.00     0.020 A 
ATOM      3  C2  UNL d   1      -5.983  -5.011  -2.992  0.00  0.00     0.034 A 
ATOM      4  C3  UNL d   1      -5.059  -4.020  -3.344  0.00  0.00     0.017 A 
ATOM      5  C4  UNL d   1      -3.784  -4.022  -2.767  0.00  0.00     0.017 A 
ATOM      6  C5  UNL d   1      -3.441  -5.014  -1.843  0.00  0.00     0.034 A 
ATOM      7 Cl   UNL d   1      -2.590  -2.832  -3.151  0.00  0.00    -0.070 Cl
ATOM      8 Cl1  UNL d   1      -5.556  -2.829  -4.493  0.00  0.00    -0.070 Cl
ENDROOT
TORSDOF 0
ENDMDL
