MODEL 1
REMARK minimizedAffinity 4.98807383
REMARK minimizedRMSD -1
REMARK  0 active torsions:
REMARK  status: ('A' for Active; 'I' for Inactive)
ROOT
ATOM      1  C   UNL d   1       2.448   5.977  -4.573  0.00  0.00     0.020 A 
ATOM      2  C1  UNL d   1       2.253   5.368  -5.812  0.00  0.00     0.020 A 
ATOM      3  C2  UNL d   1       2.620   4.034  -6.000  0.00  0.00     0.034 A 
ATOM      4  C3  UNL d   1       3.182   3.303  -4.947  0.00  0.00     0.017 A 
ATOM      5  C4  UNL d   1       3.377   3.915  -3.703  0.00  0.00     0.017 A 
ATOM      6  C5  UNL d   1       3.008   5.252  -3.521  0.00  0.00     0.034 A 
ATOM      7 Cl   UNL d   1       4.065   3.079  -2.356  0.00  0.00    -0.070 Cl
ATOM      8 Cl1  UNL d   1       3.612   1.657  -5.250  0.00  0.00    -0.070 Cl
ENDROOT
TORSDOF 0
ENDMDL
