MODEL 1
REMARK minimizedAffinity 14.2579975
REMARK minimizedRMSD -1
REMARK  0 active torsions:
REMARK  status: ('A' for Active; 'I' for Inactive)
ROOT
ATOM      1  C   UNL d   1      -4.717  -5.405  -1.969  0.00  0.00     0.020 A 
ATOM      2  C1  UNL d   1      -5.277  -4.130  -1.907  0.00  0.00     0.020 A 
ATOM      3  C2  UNL d   1      -4.530  -3.019  -2.304  0.00  0.00     0.034 A 
ATOM      4  C3  UNL d   1      -3.219  -3.180  -2.765  0.00  0.00     0.017 A 
ATOM      5  C4  UNL d   1      -2.657  -4.461  -2.827  0.00  0.00     0.017 A 
ATOM      6  C5  UNL d   1      -3.409  -5.570  -2.428  0.00  0.00     0.034 A 
ATOM      7 Cl   UNL d   1      -1.045  -4.739  -3.385  0.00  0.00    -0.070 Cl
ATOM      8 Cl1  UNL d   1      -2.354  -1.762  -3.240  0.00  0.00    -0.070 Cl
ENDROOT
TORSDOF 0
ENDMDL
