MODEL 1
REMARK minimizedAffinity 9.71354198
REMARK minimizedRMSD -1
REMARK  0 active torsions:
REMARK  status: ('A' for Active; 'I' for Inactive)
ROOT
ATOM      1  C   UNL d   1       2.735   4.025  -5.356  0.00  0.00     0.020 A 
ATOM      2  C1  UNL d   1       2.973   4.497  -4.066  0.00  0.00     0.020 A 
ATOM      3  C2  UNL d   1       3.590   3.672  -3.123  0.00  0.00     0.034 A 
ATOM      4  C3  UNL d   1       3.971   2.371  -3.469  0.00  0.00     0.017 A 
ATOM      5  C4  UNL d   1       3.733   1.898  -4.765  0.00  0.00     0.017 A 
ATOM      6  C5  UNL d   1       3.115   2.729  -5.705  0.00  0.00     0.034 A 
ATOM      7 Cl   UNL d   1       4.175   0.304  -5.266  0.00  0.00    -0.070 Cl
ATOM      8 Cl1  UNL d   1       4.730   1.406  -2.253  0.00  0.00    -0.070 Cl
ENDROOT
TORSDOF 0
ENDMDL
