MODEL 1
REMARK minimizedAffinity 10.2316179
REMARK minimizedRMSD -1
REMARK  0 active torsions:
REMARK  status: ('A' for Active; 'I' for Inactive)
ROOT
ATOM      1  C   UNL d   1      -2.093  -5.052  -2.261  0.00  0.00     0.020 A 
ATOM      2  C1  UNL d   1      -2.024  -3.744  -2.739  0.00  0.00     0.020 A 
ATOM      3  C2  UNL d   1      -3.193  -3.071  -3.102  0.00  0.00     0.034 A 
ATOM      4  C3  UNL d   1      -4.435  -3.705  -2.986  0.00  0.00     0.017 A 
ATOM      5  C4  UNL d   1      -4.503  -5.018  -2.506  0.00  0.00     0.017 A 
ATOM      6  C5  UNL d   1      -3.330  -5.687  -2.145  0.00  0.00     0.034 A 
ATOM      7 Cl   UNL d   1      -5.999  -5.866  -2.336  0.00  0.00    -0.070 Cl
ATOM      8 Cl1  UNL d   1      -5.839  -2.813  -3.452  0.00  0.00    -0.070 Cl
ENDROOT
TORSDOF 0
ENDMDL
