MODEL 1
REMARK minimizedAffinity 10.4186029
REMARK minimizedRMSD -1
REMARK  0 active torsions:
REMARK  status: ('A' for Active; 'I' for Inactive)
ROOT
ATOM      1  C   UNL d   1       5.104  -0.867   0.948  0.00  0.00     0.020 A 
ATOM      2  C1  UNL d   1       6.000  -0.467  -0.043  0.00  0.00     0.020 A 
ATOM      3  C2  UNL d   1       5.758   0.698  -0.774  0.00  0.00     0.034 A 
ATOM      4  C3  UNL d   1       4.617   1.466  -0.516  0.00  0.00     0.017 A 
ATOM      5  C4  UNL d   1       3.718   1.064   0.478  0.00  0.00     0.017 A 
ATOM      6  C5  UNL d   1       3.965  -0.104   1.207  0.00  0.00     0.034 A 
ATOM      7 Cl   UNL d   1       2.289   1.960   0.853  0.00  0.00    -0.070 Cl
ATOM      8 Cl1  UNL d   1       4.381   2.895  -1.459  0.00  0.00    -0.070 Cl
ENDROOT
TORSDOF 0
ENDMDL
