MODEL 1
REMARK minimizedAffinity 12.3393898
REMARK minimizedRMSD -1
REMARK  0 active torsions:
REMARK  status: ('A' for Active; 'I' for Inactive)
ROOT
ATOM      1  C   UNL d   1      -4.247  -6.000  -1.504  0.00  0.00     0.020 A 
ATOM      2  C1  UNL d   1      -5.579  -5.997  -1.914  0.00  0.00     0.020 A 
ATOM      3  C2  UNL d   1      -5.952  -5.313  -3.073  0.00  0.00     0.034 A 
ATOM      4  C3  UNL d   1      -4.991  -4.628  -3.826  0.00  0.00     0.017 A 
ATOM      5  C4  UNL d   1      -3.653  -4.631  -3.414  0.00  0.00     0.017 A 
ATOM      6  C5  UNL d   1      -3.286  -5.318  -2.252  0.00  0.00     0.034 A 
ATOM      7 Cl   UNL d   1      -2.411  -3.810  -4.290  0.00  0.00    -0.070 Cl
ATOM      8 Cl1  UNL d   1      -5.522  -3.804  -5.249  0.00  0.00    -0.070 Cl
ENDROOT
TORSDOF 0
ENDMDL
