MODEL 1
REMARK minimizedAffinity 13.338233
REMARK minimizedRMSD -1
REMARK  0 active torsions:
REMARK  status: ('A' for Active; 'I' for Inactive)
ROOT
ATOM      1  C   UNL d   1      -5.974  -5.223  -2.695  0.00  0.00     0.020 A 
ATOM      2  C1  UNL d   1      -5.982  -3.986  -3.338  0.00  0.00     0.020 A 
ATOM      3  C2  UNL d   1      -4.778  -3.333  -3.612  0.00  0.00     0.034 A 
ATOM      4  C3  UNL d   1      -3.561  -3.918  -3.242  0.00  0.00     0.017 A 
ATOM      5  C4  UNL d   1      -3.554  -5.159  -2.597  0.00  0.00     0.017 A 
ATOM      6  C5  UNL d   1      -4.763  -5.808  -2.325  0.00  0.00     0.034 A 
ATOM      7 Cl   UNL d   1      -2.093  -5.943  -2.111  0.00  0.00    -0.070 Cl
ATOM      8 Cl1  UNL d   1      -2.111  -3.055  -3.613  0.00  0.00    -0.070 Cl
ENDROOT
TORSDOF 0
ENDMDL
