MODEL 1
REMARK minimizedAffinity 8.8195467
REMARK minimizedRMSD -1
REMARK  0 active torsions:
REMARK  status: ('A' for Active; 'I' for Inactive)
ROOT
ATOM      1  C   UNL d   1      -3.722  -5.975  -2.090  0.00  0.00     0.020 A 
ATOM      2  C1  UNL d   1      -4.416  -4.770  -1.989  0.00  0.00     0.020 A 
ATOM      3  C2  UNL d   1      -3.817  -3.582  -2.413  0.00  0.00     0.034 A 
ATOM      4  C3  UNL d   1      -2.520  -3.596  -2.939  0.00  0.00     0.017 A 
ATOM      5  C4  UNL d   1      -1.824  -4.806  -3.039  0.00  0.00     0.017 A 
ATOM      6  C5  UNL d   1      -2.429  -5.993  -2.613  0.00  0.00     0.034 A 
ATOM      7 Cl   UNL d   1      -0.221  -4.903  -3.677  0.00  0.00    -0.070 Cl
ATOM      8 Cl1  UNL d   1      -1.841  -2.089  -3.443  0.00  0.00    -0.070 Cl
ENDROOT
TORSDOF 0
ENDMDL
