MODEL 1
REMARK minimizedAffinity 8.36293125
REMARK minimizedRMSD -1
REMARK  0 active torsions:
REMARK  status: ('A' for Active; 'I' for Inactive)
ROOT
ATOM      1  C   UNL d   1      -5.629  -5.637  -2.961  0.00  0.00     0.020 A 
ATOM      2  C1  UNL d   1      -6.000  -4.908  -4.091  0.00  0.00     0.020 A 
ATOM      3  C2  UNL d   1      -5.030  -4.504  -5.010  0.00  0.00     0.034 A 
ATOM      4  C3  UNL d   1      -3.684  -4.828  -4.802  0.00  0.00     0.017 A 
ATOM      5  C4  UNL d   1      -3.313  -5.560  -3.668  0.00  0.00     0.017 A 
ATOM      6  C5  UNL d   1      -4.289  -5.962  -2.751  0.00  0.00     0.034 A 
ATOM      7 Cl   UNL d   1      -1.673  -5.998  -3.343  0.00  0.00    -0.070 Cl
ATOM      8 Cl1  UNL d   1      -2.538  -4.296  -5.980  0.00  0.00    -0.070 Cl
ENDROOT
TORSDOF 0
ENDMDL
