MODEL 1
REMARK minimizedAffinity 5.51791382
REMARK minimizedRMSD -1
REMARK  0 active torsions:
REMARK  status: ('A' for Active; 'I' for Inactive)
ROOT
ATOM      1  C   UNL d   1      -1.123  -4.074   3.002  0.00  0.00     0.020 A 
ATOM      2  C1  UNL d   1      -1.455  -5.426   3.079  0.00  0.00     0.020 A 
ATOM      3  C2  UNL d   1      -2.275  -6.000   2.105  0.00  0.00     0.034 A 
ATOM      4  C3  UNL d   1      -2.765  -5.222   1.050  0.00  0.00     0.017 A 
ATOM      5  C4  UNL d   1      -2.432  -3.865   0.973  0.00  0.00     0.017 A 
ATOM      6  C5  UNL d   1      -1.610  -3.295   1.951  0.00  0.00     0.034 A 
ATOM      7 Cl   UNL d   1      -2.999  -2.841  -0.299  0.00  0.00    -0.070 Cl
ATOM      8 Cl1  UNL d   1      -3.774  -5.998  -0.119  0.00  0.00    -0.070 Cl
ENDROOT
TORSDOF 0
ENDMDL
