MODEL 1
REMARK minimizedAffinity 0.0599701144
REMARK minimizedRMSD -1
REMARK  0 active torsions:
REMARK  status: ('A' for Active; 'I' for Inactive)
ROOT
ATOM      1  C   UNL d   1      -5.521  -5.136  -3.779  0.00  0.00     0.020 A 
ATOM      2  C1  UNL d   1      -5.930  -4.096  -2.945  0.00  0.00     0.020 A 
ATOM      3  C2  UNL d   1      -4.978  -3.274  -2.338  0.00  0.00     0.034 A 
ATOM      4  C3  UNL d   1      -3.614  -3.490  -2.564  0.00  0.00     0.017 A 
ATOM      5  C4  UNL d   1      -3.205  -4.534  -3.401  0.00  0.00     0.017 A 
ATOM      6  C5  UNL d   1      -4.162  -5.354  -4.006  0.00  0.00     0.034 A 
ATOM      7 Cl   UNL d   1      -1.540  -4.862  -3.728  0.00  0.00    -0.070 Cl
ATOM      8 Cl1  UNL d   1      -2.493  -2.434  -1.780  0.00  0.00    -0.070 Cl
ENDROOT
TORSDOF 0
ENDMDL
