MODEL 1
REMARK minimizedAffinity 10.9826698
REMARK minimizedRMSD -1
REMARK  0 active torsions:
REMARK  status: ('A' for Active; 'I' for Inactive)
ROOT
ATOM      1  C   UNL d   1      -3.151  -5.999   1.868  0.00  0.00     0.020 A 
ATOM      2  C1  UNL d   1      -2.027  -5.949   2.691  0.00  0.00     0.020 A 
ATOM      3  C2  UNL d   1      -1.113  -4.901   2.562  0.00  0.00     0.034 A 
ATOM      4  C3  UNL d   1      -1.322  -3.899   1.607  0.00  0.00     0.017 A 
ATOM      5  C4  UNL d   1      -2.451  -3.950   0.782  0.00  0.00     0.017 A 
ATOM      6  C5  UNL d   1      -3.363  -5.001   0.916  0.00  0.00     0.034 A 
ATOM      7 Cl   UNL d   1      -2.776  -2.750  -0.419  0.00  0.00    -0.070 Cl
ATOM      8 Cl1  UNL d   1      -0.151  -2.633   1.503  0.00  0.00    -0.070 Cl
ENDROOT
TORSDOF 0
ENDMDL
