MODEL 1
REMARK minimizedAffinity 19.6692295
REMARK minimizedRMSD -1
REMARK  0 active torsions:
REMARK  status: ('A' for Active; 'I' for Inactive)
ROOT
ATOM      1  C   UNL d   1      -2.208  -2.127  -2.490  0.00  0.00     0.020 A 
ATOM      2  C1  UNL d   1      -1.025  -2.128  -3.228  0.00  0.00     0.020 A 
ATOM      3  C2  UNL d   1      -0.480  -3.334  -3.673  0.00  0.00     0.034 A 
ATOM      4  C3  UNL d   1      -1.119  -4.545  -3.380  0.00  0.00     0.017 A 
ATOM      5  C4  UNL d   1      -2.306  -4.543  -2.639  0.00  0.00     0.017 A 
ATOM      6  C5  UNL d   1      -2.847  -3.332  -2.196  0.00  0.00     0.034 A 
ATOM      7 Cl   UNL d   1      -3.151  -5.996  -2.239  0.00  0.00    -0.070 Cl
ATOM      8 Cl1  UNL d   1      -0.389  -5.999  -3.962  0.00  0.00    -0.070 Cl
ENDROOT
TORSDOF 0
ENDMDL
