MODEL 1
REMARK minimizedAffinity 8.64880657
REMARK minimizedRMSD -1
REMARK  0 active torsions:
REMARK  status: ('A' for Active; 'I' for Inactive)
ROOT
ATOM      1  C   UNL d   1      -4.223  -5.833  -0.083  0.00  0.00     0.020 A 
ATOM      2  C1  UNL d   1      -5.514  -6.000  -0.583  0.00  0.00     0.020 A 
ATOM      3  C2  UNL d   1      -6.000  -5.133  -1.564  0.00  0.00     0.034 A 
ATOM      4  C3  UNL d   1      -5.195  -4.094  -2.047  0.00  0.00     0.017 A 
ATOM      5  C4  UNL d   1      -3.900  -3.927  -1.544  0.00  0.00     0.017 A 
ATOM      6  C5  UNL d   1      -3.418  -4.799  -0.562  0.00  0.00     0.034 A 
ATOM      7 Cl   UNL d   1      -2.848  -2.670  -2.091  0.00  0.00    -0.070 Cl
ATOM      8 Cl1  UNL d   1      -5.861  -3.060  -3.260  0.00  0.00    -0.070 Cl
ENDROOT
TORSDOF 0
ENDMDL
