MODEL 1
REMARK minimizedAffinity 14.8334293
REMARK minimizedRMSD -1
REMARK  0 active torsions:
REMARK  status: ('A' for Active; 'I' for Inactive)
ROOT
ATOM      1  C   UNL d   1      -2.589  -5.998   1.730  0.00  0.00     0.020 A 
ATOM      2  C1  UNL d   1      -1.606  -5.893   2.714  0.00  0.00     0.020 A 
ATOM      3  C2  UNL d   1      -1.098  -4.639   3.062  0.00  0.00     0.034 A 
ATOM      4  C3  UNL d   1      -1.573  -3.486   2.426  0.00  0.00     0.017 A 
ATOM      5  C4  UNL d   1      -2.560  -3.593   1.439  0.00  0.00     0.017 A 
ATOM      6  C5  UNL d   1      -3.065  -4.851   1.094  0.00  0.00     0.034 A 
ATOM      7 Cl   UNL d   1      -3.196  -2.216   0.610  0.00  0.00    -0.070 Cl
ATOM      8 Cl1  UNL d   1      -0.901  -1.969   2.906  0.00  0.00    -0.070 Cl
ENDROOT
TORSDOF 0
ENDMDL
