MODEL 1
REMARK minimizedAffinity 3.61340356
REMARK minimizedRMSD -1
REMARK  0 active torsions:
REMARK  status: ('A' for Active; 'I' for Inactive)
ROOT
ATOM      1  O1  BZF d   1      -0.159  -4.182  -5.924  0.00  0.00    -0.204 OA
ATOM      2  C2  BZF d   1      -0.109  -2.801  -5.924  0.00  0.00     0.174 A 
ATOM      3  C3  BZF d   1      -1.350  -2.278  -5.999  0.00  0.00    -0.012 A 
ATOM      4  C3A BZF d   1      -2.236  -3.401  -5.955  0.00  0.00    -0.107 A 
ATOM      5  C4  BZF d   1      -3.595  -3.526  -5.977  0.00  0.00     0.055 A 
ATOM      6  C5  BZF d   1      -4.144  -4.769  -5.995  0.00  0.00    -0.016 A 
ATOM      7  C6  BZF d   1      -3.364  -5.907  -5.997  0.00  0.00     0.022 A 
ATOM      8  C7  BZF d   1      -2.011  -5.834  -5.971  0.00  0.00     0.029 A 
ATOM      9  C7A BZF d   1      -1.454  -4.579  -5.919  0.00  0.00     0.058 A 
ENDROOT
TORSDOF 0
ENDMDL
