MODEL 1
REMARK minimizedAffinity 12.3025131
REMARK minimizedRMSD -1
REMARK  0 active torsions:
REMARK  status: ('A' for Active; 'I' for Inactive)
ROOT
ATOM      1  O1  BZF d   1      -5.430  -1.598   2.375  0.00  0.00    -0.204 OA
ATOM      2  C2  BZF d   1      -6.000  -0.824   3.367  0.00  0.00     0.174 A 
ATOM      3  C3  BZF d   1      -6.000   0.479   3.018  0.00  0.00    -0.012 A 
ATOM      4  C3A BZF d   1      -5.475   0.511   1.687  0.00  0.00    -0.107 A 
ATOM      5  C4  BZF d   1      -5.244   1.518   0.794  0.00  0.00     0.055 A 
ATOM      6  C5  BZF d   1      -4.655   1.224  -0.395  0.00  0.00    -0.016 A 
ATOM      7  C6  BZF d   1      -4.281  -0.064  -0.720  0.00  0.00     0.022 A 
ATOM      8  C7  BZF d   1      -4.494  -1.096   0.131  0.00  0.00     0.029 A 
ATOM      9  C7A BZF d   1      -5.119  -0.807   1.320  0.00  0.00     0.058 A 
ENDROOT
TORSDOF 0
ENDMDL
