MODEL 1
REMARK minimizedAffinity 10.4779425
REMARK minimizedRMSD -1
REMARK  0 active torsions:
REMARK  status: ('A' for Active; 'I' for Inactive)
ROOT
ATOM      1  O1  BZF d   1      -2.138   0.214   3.309  0.00  0.00    -0.204 OA
ATOM      2  C2  BZF d   1      -2.268   1.573   3.096  0.00  0.00     0.174 A 
ATOM      3  C3  BZF d   1      -3.567   1.935   3.094  0.00  0.00    -0.012 A 
ATOM      4  C3A BZF d   1      -4.290   0.743   3.413  0.00  0.00    -0.107 A 
ATOM      5  C4  BZF d   1      -5.617   0.465   3.575  0.00  0.00     0.055 A 
ATOM      6  C5  BZF d   1      -5.999  -0.818   3.811  0.00  0.00    -0.016 A 
ATOM      7  C6  BZF d   1      -5.083  -1.846   3.886  0.00  0.00     0.022 A 
ATOM      8  C7  BZF d   1      -3.755  -1.619   3.737  0.00  0.00     0.029 A 
ATOM      9  C7A BZF d   1      -3.363  -0.319   3.531  0.00  0.00     0.058 A 
ENDROOT
TORSDOF 0
ENDMDL
