MODEL 1
REMARK minimizedAffinity 5.37002325
REMARK minimizedRMSD -1
REMARK  0 active torsions:
REMARK  status: ('A' for Active; 'I' for Inactive)
ROOT
ATOM      1  O1  BZF d   1       1.894  -3.371   4.561  0.00  0.00    -0.204 OA
ATOM      2  C2  BZF d   1       1.790  -3.004   5.888  0.00  0.00     0.174 A 
ATOM      3  C3  BZF d   1       1.503  -1.691   6.000  0.00  0.00    -0.012 A 
ATOM      4  C3A BZF d   1       1.331  -1.228   4.657  0.00  0.00    -0.107 A 
ATOM      5  C4  BZF d   1       1.018  -0.014   4.115  0.00  0.00     0.055 A 
ATOM      6  C5  BZF d   1       1.001   0.121   2.763  0.00  0.00    -0.016 A 
ATOM      7  C6  BZF d   1       1.297  -0.933   1.924  0.00  0.00     0.022 A 
ATOM      8  C7  BZF d   1       1.609  -2.157   2.415  0.00  0.00     0.029 A 
ATOM      9  C7A BZF d   1       1.594  -2.306   3.780  0.00  0.00     0.058 A 
ENDROOT
TORSDOF 0
ENDMDL
