MODEL 1
REMARK minimizedAffinity 3.12188625
REMARK minimizedRMSD -1
REMARK  0 active torsions:
REMARK  status: ('A' for Active; 'I' for Inactive)
ROOT
ATOM      1  O1  BZF d   1      -5.238   0.823   1.097  0.00  0.00    -0.204 OA
ATOM      2  C2  BZF d   1      -4.281   0.337   0.227  0.00  0.00     0.174 A 
ATOM      3  C3  BZF d   1      -3.621  -0.703   0.774  0.00  0.00    -0.012 A 
ATOM      4  C3A BZF d   1      -4.263  -0.937   2.031  0.00  0.00    -0.107 A 
ATOM      5  C4  BZF d   1      -4.069  -1.849   3.029  0.00  0.00     0.055 A 
ATOM      6  C5  BZF d   1      -4.820  -1.761   4.159  0.00  0.00    -0.016 A 
ATOM      7  C6  BZF d   1      -5.768  -0.773   4.325  0.00  0.00     0.022 A 
ATOM      8  C7  BZF d   1      -6.000   0.150   3.361  0.00  0.00     0.029 A 
ATOM      9  C7A BZF d   1      -5.266   0.045   2.205  0.00  0.00     0.058 A 
ENDROOT
TORSDOF 0
ENDMDL
