MODEL 1
REMARK minimizedAffinity 8.68313313
REMARK minimizedRMSD -1
REMARK  0 active torsions:
REMARK  status: ('A' for Active; 'I' for Inactive)
ROOT
ATOM      1  O1  BZF d   1       3.012  -1.415  -0.482  0.00  0.00    -0.204 OA
ATOM      2  C2  BZF d   1       1.975  -2.053   0.172  0.00  0.00     0.174 A 
ATOM      3  C3  BZF d   1       2.241  -3.366   0.326  0.00  0.00    -0.012 A 
ATOM      4  C3A BZF d   1       3.566  -3.543  -0.186  0.00  0.00    -0.107 A 
ATOM      5  C4  BZF d   1       4.393  -4.624  -0.295  0.00  0.00     0.055 A 
ATOM      6  C5  BZF d   1       5.596  -4.477  -0.910  0.00  0.00    -0.016 A 
ATOM      7  C6  BZF d   1       6.000  -3.265  -1.432  0.00  0.00     0.022 A 
ATOM      8  C7  BZF d   1       5.216  -2.164  -1.344  0.00  0.00     0.029 A 
ATOM      9  C7A BZF d   1       4.014  -2.302  -0.694  0.00  0.00     0.058 A 
ENDROOT
TORSDOF 0
ENDMDL
