MODEL 1
REMARK minimizedAffinity 12.5416269
REMARK minimizedRMSD -1
REMARK  0 active torsions:
REMARK  status: ('A' for Active; 'I' for Inactive)
ROOT
ATOM      1  O1  BZF d   1       0.370   4.120  -1.063  0.00  0.00    -0.204 OA
ATOM      2  C2  BZF d   1       0.290   2.962  -0.314  0.00  0.00     0.174 A 
ATOM      3  C3  BZF d   1      -0.827   2.270  -0.621  0.00  0.00    -0.012 A 
ATOM      4  C3A BZF d   1      -1.439   2.998  -1.690  0.00  0.00    -0.107 A 
ATOM      5  C4  BZF d   1      -2.568   2.803  -2.433  0.00  0.00     0.055 A 
ATOM      6  C5  BZF d   1      -2.924   3.739  -3.351  0.00  0.00    -0.016 A 
ATOM      7  C6  BZF d   1      -2.178   4.882  -3.549  0.00  0.00     0.022 A 
ATOM      8  C7  BZF d   1      -1.047   5.117  -2.840  0.00  0.00     0.029 A 
ATOM      9  C7A BZF d   1      -0.667   4.157  -1.934  0.00  0.00     0.058 A 
ENDROOT
TORSDOF 0
ENDMDL
