MODEL 1
REMARK minimizedAffinity 0.887220263
REMARK minimizedRMSD -1
REMARK  0 active torsions:
REMARK  status: ('A' for Active; 'I' for Inactive)
ROOT
ATOM      1  O1  BZF d   1      -4.612  -3.848  -5.999  0.00  0.00    -0.204 OA
ATOM      2  C2  BZF d   1      -4.940  -5.190  -5.985  0.00  0.00     0.174 A 
ATOM      3  C3  BZF d   1      -3.828  -5.954  -5.986  0.00  0.00    -0.012 A 
ATOM      4  C3A BZF d   1      -2.738  -5.031  -5.908  0.00  0.00    -0.107 A 
ATOM      5  C4  BZF d   1      -1.381  -5.183  -5.858  0.00  0.00     0.055 A 
ATOM      6  C5  BZF d   1      -0.592  -4.076  -5.861  0.00  0.00    -0.016 A 
ATOM      7  C6  BZF d   1      -1.125  -2.805  -5.919  0.00  0.00     0.022 A 
ATOM      8  C7  BZF d   1      -2.464  -2.604  -5.965  0.00  0.00     0.029 A 
ATOM      9  C7A BZF d   1      -3.265  -3.719  -5.928  0.00  0.00     0.058 A 
ENDROOT
TORSDOF 0
ENDMDL
