MODEL 1
REMARK minimizedAffinity 3.52063942
REMARK minimizedRMSD -1
REMARK  0 active torsions:
REMARK  status: ('A' for Active; 'I' for Inactive)
ROOT
ATOM      1  O1  BZF d   1      -3.814  -1.506   0.994  0.00  0.00    -0.204 OA
ATOM      2  C2  BZF d   1      -4.107  -0.328   0.335  0.00  0.00     0.174 A 
ATOM      3  C3  BZF d   1      -4.993   0.406   1.040  0.00  0.00    -0.012 A 
ATOM      4  C3A BZF d   1      -5.199  -0.319   2.256  0.00  0.00    -0.107 A 
ATOM      5  C4  BZF d   1      -5.959  -0.092   3.368  0.00  0.00     0.055 A 
ATOM      6  C5  BZF d   1      -5.995  -1.033   4.347  0.00  0.00    -0.016 A 
ATOM      7  C6  BZF d   1      -5.288  -2.213   4.246  0.00  0.00     0.022 A 
ATOM      8  C7  BZF d   1      -4.516  -2.481   3.165  0.00  0.00     0.029 A 
ATOM      9  C7A BZF d   1      -4.452  -1.518   2.188  0.00  0.00     0.058 A 
ENDROOT
TORSDOF 0
ENDMDL
