MODEL 1
REMARK minimizedAffinity 6.55354023
REMARK minimizedRMSD -1
REMARK  0 active torsions:
REMARK  status: ('A' for Active; 'I' for Inactive)
ROOT
ATOM      1  O1  BZF d   1      -4.229  -2.862   3.837  0.00  0.00    -0.204 OA
ATOM      2  C2  BZF d   1      -5.188  -3.155   4.787  0.00  0.00     0.174 A 
ATOM      3  C3  BZF d   1      -5.998  -2.097   4.991  0.00  0.00    -0.012 A 
ATOM      4  C3A BZF d   1      -5.572  -1.109   4.047  0.00  0.00    -0.107 A 
ATOM      5  C4  BZF d   1      -6.000   0.154   3.752  0.00  0.00     0.055 A 
ATOM      6  C5  BZF d   1      -5.322   0.881   2.826  0.00  0.00    -0.016 A 
ATOM      7  C6  BZF d   1      -4.210   0.380   2.180  0.00  0.00     0.022 A 
ATOM      8  C7  BZF d   1      -3.752  -0.870   2.436  0.00  0.00     0.029 A 
ATOM      9  C7A BZF d   1      -4.454  -1.619   3.348  0.00  0.00     0.058 A 
ENDROOT
TORSDOF 0
ENDMDL
