MODEL 1
REMARK minimizedAffinity 10.7960768
REMARK minimizedRMSD -1
REMARK  0 active torsions:
REMARK  status: ('A' for Active; 'I' for Inactive)
ROOT
ATOM      1  O1  BZF d   1      -5.053  -5.998  -5.769  0.00  0.00    -0.204 OA
ATOM      2  C2  BZF d   1      -5.993  -5.001  -5.945  0.00  0.00     0.174 A 
ATOM      3  C3  BZF d   1      -5.445  -3.786  -5.747  0.00  0.00    -0.012 A 
ATOM      4  C3A BZF d   1      -4.054  -4.033  -5.518  0.00  0.00    -0.107 A 
ATOM      5  C4  BZF d   1      -2.984  -3.221  -5.275  0.00  0.00     0.055 A 
ATOM      6  C5  BZF d   1      -1.772  -3.783  -5.022  0.00  0.00    -0.016 A 
ATOM      7  C6  BZF d   1      -1.597  -5.151  -5.000  0.00  0.00     0.022 A 
ATOM      8  C7  BZF d   1      -2.628  -5.997  -5.241  0.00  0.00     0.029 A 
ATOM      9  C7A BZF d   1      -3.846  -5.432  -5.529  0.00  0.00     0.058 A 
ENDROOT
TORSDOF 0
ENDMDL
