MODEL 1
REMARK minimizedAffinity 3.10228109
REMARK minimizedRMSD -1
REMARK  0 active torsions:
REMARK  status: ('A' for Active; 'I' for Inactive)
ROOT
ATOM      1  O1  BZF d   1      -1.180   5.114  -5.998  0.00  0.00    -0.204 OA
ATOM      2  C2  BZF d   1      -0.363   5.721  -5.064  0.00  0.00     0.174 A 
ATOM      3  C3  BZF d   1      -1.049   5.999  -3.937  0.00  0.00    -0.012 A 
ATOM      4  C3A BZF d   1      -2.355   5.454  -4.147  0.00  0.00    -0.107 A 
ATOM      5  C4  BZF d   1      -3.483   5.398  -3.380  0.00  0.00     0.055 A 
ATOM      6  C5  BZF d   1      -4.614   4.859  -3.907  0.00  0.00    -0.016 A 
ATOM      7  C6  BZF d   1      -4.654   4.372  -5.197  0.00  0.00     0.022 A 
ATOM      8  C7  BZF d   1      -3.558   4.401  -5.994  0.00  0.00     0.029 A 
ATOM      9  C7A BZF d   1      -2.405   4.915  -5.453  0.00  0.00     0.058 A 
ENDROOT
TORSDOF 0
ENDMDL
