MODEL 1
REMARK minimizedAffinity 4.14220285
REMARK minimizedRMSD -1
REMARK  0 active torsions:
REMARK  status: ('A' for Active; 'I' for Inactive)
ROOT
ATOM      1  O1  BZF d   1       4.973  -4.100  -0.281  0.00  0.00    -0.204 OA
ATOM      2  C2  BZF d   1       5.512  -5.020  -1.159  0.00  0.00     0.174 A 
ATOM      3  C3  BZF d   1       4.539  -5.698  -1.800  0.00  0.00    -0.012 A 
ATOM      4  C3A BZF d   1       3.314  -5.104  -1.359  0.00  0.00    -0.107 A 
ATOM      5  C4  BZF d   1       2.000  -5.334  -1.653  0.00  0.00     0.055 A 
ATOM      6  C5  BZF d   1       1.043  -4.629  -0.994  0.00  0.00    -0.016 A 
ATOM      7  C6  BZF d   1       1.363  -3.691  -0.034  0.00  0.00     0.022 A 
ATOM      8  C7  BZF d   1       2.653  -3.425   0.288  0.00  0.00     0.029 A 
ATOM      9  C7A BZF d   1       3.623  -4.113  -0.400  0.00  0.00     0.058 A 
ENDROOT
TORSDOF 0
ENDMDL
