MODEL 1
REMARK minimizedAffinity 5.98331642
REMARK minimizedRMSD -1
REMARK  0 active torsions:
REMARK  status: ('A' for Active; 'I' for Inactive)
ROOT
ATOM      1  O1  BZF d   1      -5.305  -5.682  -3.775  0.00  0.00    -0.204 OA
ATOM      2  C2  BZF d   1      -5.968  -5.993  -4.947  0.00  0.00     0.174 A 
ATOM      3  C3  BZF d   1      -5.121  -5.970  -5.996  0.00  0.00    -0.012 A 
ATOM      4  C3A BZF d   1      -3.831  -5.714  -5.433  0.00  0.00    -0.107 A 
ATOM      5  C4  BZF d   1      -2.581  -5.592  -5.968  0.00  0.00     0.055 A 
ATOM      6  C5  BZF d   1      -1.542  -5.268  -5.154  0.00  0.00    -0.016 A 
ATOM      7  C6  BZF d   1      -1.719  -5.054  -3.803  0.00  0.00     0.022 A 
ATOM      8  C7  BZF d   1      -2.940  -5.169  -3.225  0.00  0.00     0.029 A 
ATOM      9  C7A BZF d   1      -3.985  -5.529  -4.040  0.00  0.00     0.058 A 
ENDROOT
TORSDOF 0
ENDMDL
