MODEL 1
REMARK minimizedAffinity -1.69594836
REMARK minimizedRMSD -1
REMARK  1 active torsions:
REMARK  status: ('A' for Active; 'I' for Inactive)
REMARK    1  A    between atoms: C3_4  and  O_7 
ROOT
ATOM      1  C   UNL d   1       2.006  -1.277   0.786  0.00  0.00    -0.033 A 
ATOM      2  C1  UNL d   1       1.577  -0.215   1.586  0.00  0.00     0.039 A 
ATOM      3  C2  UNL d   1       0.228   0.144   1.608  0.00  0.00    -0.080 A 
ATOM      4  C3  UNL d   1      -0.681  -0.566   0.829  0.00  0.00     0.150 A 
ATOM      5  C4  UNL d   1      -0.262  -1.627   0.032  0.00  0.00    -0.007 A 
ATOM      6  C5  UNL d   1       1.086  -1.983   0.011  0.00  0.00     0.039 A 
ENDROOT
BRANCH   4   7
ATOM      7  O   UNL d   1      -2.007  -0.249   0.814  0.00  0.00    -0.526 OA
ATOM      8  H5  UNL d   1      -2.145   0.522   1.389  0.00  0.00     0.418 HD
ENDBRANCH   4   7
TORSDOF 1
ENDMDL
