MODEL 1
REMARK minimizedAffinity -3.25725651
REMARK minimizedRMSD -1
REMARK  1 active torsions:
REMARK  status: ('A' for Active; 'I' for Inactive)
REMARK    1  A    between atoms: C3_4  and  O_7 
ROOT
ATOM      1  C   UNL d   1       1.930  -1.199   0.617  0.00  0.00    -0.033 A 
ATOM      2  C1  UNL d   1       0.916  -1.601  -0.254  0.00  0.00     0.039 A 
ATOM      3  C2  UNL d   1      -0.364  -1.056  -0.138  0.00  0.00    -0.080 A 
ATOM      4  C3  UNL d   1      -0.616  -0.109   0.852  0.00  0.00     0.150 A 
ATOM      5  C4  UNL d   1       0.391   0.298   1.721  0.00  0.00    -0.007 A 
ATOM      6  C5  UNL d   1       1.668  -0.248   1.603  0.00  0.00     0.039 A 
ENDROOT
BRANCH   4   7
ATOM      7  O   UNL d   1      -1.850   0.448   1.008  0.00  0.00    -0.526 OA
ATOM      8  H5  UNL d   1      -2.452   0.050   0.357  0.00  0.00     0.418 HD
ENDBRANCH   4   7
TORSDOF 1
ENDMDL
