MODEL 1
REMARK minimizedAffinity -4.82404661
REMARK minimizedRMSD -1
REMARK  1 active torsions:
REMARK  status: ('A' for Active; 'I' for Inactive)
REMARK    1  A    between atoms: C3_4  and  O_7 
ROOT
ATOM      1  C   UNL d   1      -0.428  -0.567   1.015  0.00  0.00    -0.033 A 
ATOM      2  C1  UNL d   1      -0.997  -1.749   0.537  0.00  0.00     0.039 A 
ATOM      3  C2  UNL d   1      -0.178  -2.797   0.112  0.00  0.00    -0.080 A 
ATOM      4  C3  UNL d   1       1.205  -2.652   0.171  0.00  0.00     0.150 A 
ATOM      5  C4  UNL d   1       1.778  -1.478   0.649  0.00  0.00    -0.007 A 
ATOM      6  C5  UNL d   1       0.960  -0.432   1.072  0.00  0.00     0.039 A 
ENDROOT
BRANCH   4   7
ATOM      7  O   UNL d   1       2.044  -3.646  -0.237  0.00  0.00    -0.526 OA
ATOM      8  H5  UNL d   1       1.507  -4.384  -0.570  0.00  0.00     0.418 HD
ENDBRANCH   4   7
TORSDOF 1
ENDMDL
