MODEL 1
REMARK minimizedAffinity 6.31964254
REMARK minimizedRMSD -1
REMARK  1 active torsions:
REMARK  status: ('A' for Active; 'I' for Inactive)
REMARK    1  A    between atoms: C3_4  and  O_7 
ROOT
ATOM      1  C   UNL d   1      -3.773   1.974   6.000  0.00  0.00    -0.033 A 
ATOM      2  C1  UNL d   1      -2.735   1.121   5.622  0.00  0.00     0.039 A 
ATOM      3  C2  UNL d   1      -2.115   1.280   4.381  0.00  0.00    -0.080 A 
ATOM      4  C3  UNL d   1      -2.542   2.294   3.529  0.00  0.00     0.150 A 
ATOM      5  C4  UNL d   1      -3.574   3.150   3.900  0.00  0.00    -0.007 A 
ATOM      6  C5  UNL d   1      -4.192   2.989   5.140  0.00  0.00     0.039 A 
ENDROOT
BRANCH   4   7
ATOM      7  O   UNL d   1      -1.972   2.485   2.305  0.00  0.00    -0.526 OA
ATOM      8  H5  UNL d   1      -1.293   1.803   2.173  0.00  0.00     0.418 HD
ENDBRANCH   4   7
TORSDOF 1
ENDMDL
