MODEL 1
REMARK minimizedAffinity 0.32575509
REMARK minimizedRMSD -1
REMARK  1 active torsions:
REMARK  status: ('A' for Active; 'I' for Inactive)
REMARK    1  A    between atoms: C3_4  and  O_7 
ROOT
ATOM      1  C   UNL d   1      -1.105  -2.019   0.841  0.00  0.00    -0.033 A 
ATOM      2  C1  UNL d   1      -0.285  -2.880   0.109  0.00  0.00     0.039 A 
ATOM      3  C2  UNL d   1       1.019  -2.499  -0.214  0.00  0.00    -0.080 A 
ATOM      4  C3  UNL d   1       1.490  -1.256   0.201  0.00  0.00     0.150 A 
ATOM      5  C4  UNL d   1       0.680  -0.395   0.933  0.00  0.00    -0.007 A 
ATOM      6  C5  UNL d   1      -0.622  -0.777   1.254  0.00  0.00     0.039 A 
ENDROOT
BRANCH   4   7
ATOM      7  O   UNL d   1       2.753  -0.838  -0.095  0.00  0.00    -0.526 OA
ATOM      8  H5  UNL d   1       3.187  -1.524  -0.630  0.00  0.00     0.418 HD
ENDBRANCH   4   7
TORSDOF 1
ENDMDL
