MODEL 1
REMARK minimizedAffinity 0.210146084
REMARK minimizedRMSD -1
REMARK  1 active torsions:
REMARK  status: ('A' for Active; 'I' for Inactive)
REMARK    1  A    between atoms: C3_4  and  O_7 
ROOT
ATOM      1  C   UNL d   1      -1.314   0.216   1.790  0.00  0.00    -0.033 A 
ATOM      2  C1  UNL d   1      -0.010  -0.172   2.103  0.00  0.00     0.039 A 
ATOM      3  C2  UNL d   1       0.545  -1.306   1.507  0.00  0.00    -0.080 A 
ATOM      4  C3  UNL d   1      -0.213  -2.042   0.600  0.00  0.00     0.150 A 
ATOM      5  C4  UNL d   1      -1.512  -1.659   0.281  0.00  0.00    -0.007 A 
ATOM      6  C5  UNL d   1      -2.065  -0.527   0.878  0.00  0.00     0.039 A 
ENDROOT
BRANCH   4   7
ATOM      7  O   UNL d   1       0.284  -3.159  -0.004  0.00  0.00    -0.526 OA
ATOM      8  H5  UNL d   1       1.181  -3.318   0.335  0.00  0.00     0.418 HD
ENDBRANCH   4   7
TORSDOF 1
ENDMDL
