MODEL 1
REMARK minimizedAffinity 0.29919678
REMARK minimizedRMSD -1
REMARK  1 active torsions:
REMARK  status: ('A' for Active; 'I' for Inactive)
REMARK    1  A    between atoms: C3_4  and  O_7 
ROOT
ATOM      1  C   UNL d   1       2.670  -1.557   0.405  0.00  0.00    -0.033 A 
ATOM      2  C1  UNL d   1       1.798  -0.811   1.201  0.00  0.00     0.039 A 
ATOM      3  C2  UNL d   1       0.445  -1.150   1.265  0.00  0.00    -0.080 A 
ATOM      4  C3  UNL d   1      -0.022  -2.237   0.531  0.00  0.00     0.150 A 
ATOM      5  C4  UNL d   1       0.842  -2.987  -0.260  0.00  0.00    -0.007 A 
ATOM      6  C5  UNL d   1       2.192  -2.646  -0.324  0.00  0.00     0.039 A 
ENDROOT
BRANCH   4   7
ATOM      7  O   UNL d   1      -1.335  -2.604   0.558  0.00  0.00    -0.526 OA
ATOM      8  H5  UNL d   1      -1.818  -1.979   1.124  0.00  0.00     0.418 HD
ENDBRANCH   4   7
TORSDOF 1
ENDMDL
