MODEL 1
REMARK minimizedAffinity 3.11861277
REMARK minimizedRMSD -1
REMARK  1 active torsions:
REMARK  status: ('A' for Active; 'I' for Inactive)
REMARK    1  A    between atoms: C3_4  and  O_7 
ROOT
ATOM      1  C   UNL d   1      -0.916  -1.777   0.532  0.00  0.00    -0.033 A 
ATOM      2  C1  UNL d   1      -1.024  -2.787  -0.426  0.00  0.00     0.039 A 
ATOM      3  C2  UNL d   1       0.090  -3.562  -0.754  0.00  0.00    -0.080 A 
ATOM      4  C3  UNL d   1       1.304  -3.319  -0.117  0.00  0.00     0.150 A 
ATOM      5  C4  UNL d   1       1.417  -2.318   0.842  0.00  0.00    -0.007 A 
ATOM      6  C5  UNL d   1       0.304  -1.544   1.167  0.00  0.00     0.039 A 
ENDROOT
BRANCH   4   7
ATOM      7  O   UNL d   1       2.419  -4.047  -0.407  0.00  0.00    -0.526 OA
ATOM      8  H5  UNL d   1       2.198  -4.683  -1.108  0.00  0.00     0.418 HD
ENDBRANCH   4   7
TORSDOF 1
ENDMDL
