MODEL 1
REMARK minimizedAffinity -3.58849216
REMARK minimizedRMSD -1
REMARK  1 active torsions:
REMARK  status: ('A' for Active; 'I' for Inactive)
REMARK    1  A    between atoms: C3_4  and  O_7 
ROOT
ATOM      1  C   UNL d   1      -0.081  -0.399   0.937  0.00  0.00    -0.033 A 
ATOM      2  C1  UNL d   1      -0.711  -1.592   1.294  0.00  0.00     0.039 A 
ATOM      3  C2  UNL d   1      -0.163  -2.817   0.907  0.00  0.00    -0.080 A 
ATOM      4  C3  UNL d   1       1.016  -2.834   0.166  0.00  0.00     0.150 A 
ATOM      5  C4  UNL d   1       1.651  -1.649  -0.190  0.00  0.00    -0.007 A 
ATOM      6  C5  UNL d   1       1.102  -0.427   0.196  0.00  0.00     0.039 A 
ENDROOT
BRANCH   4   7
ATOM      7  O   UNL d   1       1.586  -4.004  -0.239  0.00  0.00    -0.526 OA
ATOM      8  H5  UNL d   1       1.022  -4.739   0.054  0.00  0.00     0.418 HD
ENDBRANCH   4   7
TORSDOF 1
ENDMDL
