MODEL 1
REMARK minimizedAffinity -4.71827555
REMARK minimizedRMSD -1
REMARK  1 active torsions:
REMARK  status: ('A' for Active; 'I' for Inactive)
REMARK    1  A    between atoms: C3_4  and  O_7 
ROOT
ATOM      1  C   UNL d   1       0.161  -0.460   0.503  0.00  0.00    -0.033 A 
ATOM      2  C1  UNL d   1      -0.554  -1.633   0.254  0.00  0.00     0.039 A 
ATOM      3  C2  UNL d   1       0.124  -2.816  -0.046  0.00  0.00    -0.080 A 
ATOM      4  C3  UNL d   1       1.516  -2.813  -0.093  0.00  0.00     0.150 A 
ATOM      5  C4  UNL d   1       2.235  -1.649   0.158  0.00  0.00    -0.007 A 
ATOM      6  C5  UNL d   1       1.556  -0.468   0.457  0.00  0.00     0.039 A 
ENDROOT
BRANCH   4   7
ATOM      7  O   UNL d   1       2.221  -3.942  -0.386  0.00  0.00    -0.526 OA
ATOM      8  H5  UNL d   1       1.592  -4.660  -0.565  0.00  0.00     0.418 HD
ENDBRANCH   4   7
TORSDOF 1
ENDMDL
