MODEL 1
REMARK minimizedAffinity -0.307293862
REMARK minimizedRMSD -1
REMARK  1 active torsions:
REMARK  status: ('A' for Active; 'I' for Inactive)
REMARK    1  A    between atoms: C3_4  and  O_7 
ROOT
ATOM      1  C   UNL d   1       2.893  -3.013  -0.619  0.00  0.00    -0.033 A 
ATOM      2  C1  UNL d   1       2.919  -1.675  -0.221  0.00  0.00     0.039 A 
ATOM      3  C2  UNL d   1       1.742  -1.042   0.184  0.00  0.00    -0.080 A 
ATOM      4  C3  UNL d   1       0.548  -1.758   0.187  0.00  0.00     0.150 A 
ATOM      5  C4  UNL d   1       0.515  -3.092  -0.205  0.00  0.00    -0.007 A 
ATOM      6  C5  UNL d   1       1.691  -3.722  -0.610  0.00  0.00     0.039 A 
ENDROOT
BRANCH   4   7
ATOM      7  O   UNL d   1      -0.627  -1.182   0.570  0.00  0.00    -0.526 OA
ATOM      8  H5  UNL d   1      -0.457  -0.250   0.786  0.00  0.00     0.418 HD
ENDBRANCH   4   7
TORSDOF 1
ENDMDL
