MODEL 1
REMARK minimizedAffinity 0.666065574
REMARK minimizedRMSD -1
REMARK  1 active torsions:
REMARK  status: ('A' for Active; 'I' for Inactive)
REMARK    1  A    between atoms: C3_4  and  O_7 
ROOT
ATOM      1  C   UNL d   1      -0.077  -1.698  -0.122  0.00  0.00    -0.033 A 
ATOM      2  C1  UNL d   1      -0.552  -1.032   1.010  0.00  0.00     0.039 A 
ATOM      3  C2  UNL d   1       0.344  -0.461   1.915  0.00  0.00    -0.080 A 
ATOM      4  C3  UNL d   1       1.712  -0.562   1.677  0.00  0.00     0.150 A 
ATOM      5  C4  UNL d   1       2.193  -1.220   0.550  0.00  0.00    -0.007 A 
ATOM      6  C5  UNL d   1       1.296  -1.791  -0.352  0.00  0.00     0.039 A 
ENDROOT
BRANCH   4   7
ATOM      7  O   UNL d   1       2.626  -0.025   2.534  0.00  0.00    -0.526 OA
ATOM      8  H5  UNL d   1       2.150   0.373   3.282  0.00  0.00     0.418 HD
ENDBRANCH   4   7
TORSDOF 1
ENDMDL
