MODEL 1
REMARK minimizedAffinity 2.13058329
REMARK minimizedRMSD -1
REMARK  1 active torsions:
REMARK  status: ('A' for Active; 'I' for Inactive)
REMARK    1  A    between atoms: C3_4  and  O_7 
ROOT
ATOM      1  C   UNL d   1       0.536  -0.337   1.730  0.00  0.00    -0.033 A 
ATOM      2  C1  UNL d   1      -0.693  -0.903   1.383  0.00  0.00     0.039 A 
ATOM      3  C2  UNL d   1      -0.886  -1.426   0.103  0.00  0.00    -0.080 A 
ATOM      4  C3  UNL d   1       0.156  -1.378  -0.819  0.00  0.00     0.150 A 
ATOM      5  C4  UNL d   1       1.384  -0.820  -0.479  0.00  0.00    -0.007 A 
ATOM      6  C5  UNL d   1       1.574  -0.297   0.800  0.00  0.00     0.039 A 
ENDROOT
BRANCH   4   7
ATOM      7  O   UNL d   1       0.013  -1.872  -2.082  0.00  0.00    -0.526 OA
ATOM      8  H5  UNL d   1      -0.896  -2.200  -2.183  0.00  0.00     0.418 HD
ENDBRANCH   4   7
TORSDOF 1
ENDMDL
