MODEL 1
REMARK minimizedAffinity 3.92542267
REMARK minimizedRMSD -1
REMARK  1 active torsions:
REMARK  status: ('A' for Active; 'I' for Inactive)
REMARK    1  A    between atoms: C3_4  and  O_7 
ROOT
ATOM      1  C   UNL d   1       0.082  -2.201  -0.091  0.00  0.00    -0.033 A 
ATOM      2  C1  UNL d   1      -0.557  -1.397   0.855  0.00  0.00     0.039 A 
ATOM      3  C2  UNL d   1       0.197  -0.656   1.768  0.00  0.00    -0.080 A 
ATOM      4  C3  UNL d   1       1.587  -0.728   1.723  0.00  0.00     0.150 A 
ATOM      5  C4  UNL d   1       2.230  -1.524   0.781  0.00  0.00    -0.007 A 
ATOM      6  C5  UNL d   1       1.475  -2.264  -0.129  0.00  0.00     0.039 A 
ENDROOT
BRANCH   4   7
ATOM      7  O   UNL d   1       2.365  -0.027   2.596  0.00  0.00    -0.526 OA
ATOM      8  H5  UNL d   1       1.784   0.456   3.207  0.00  0.00     0.418 HD
ENDBRANCH   4   7
TORSDOF 1
ENDMDL
