MODEL 1
REMARK minimizedAffinity -4.51397371
REMARK minimizedRMSD -1
REMARK  1 active torsions:
REMARK  status: ('A' for Active; 'I' for Inactive)
REMARK    1  A    between atoms: C3_4  and  O_7 
ROOT
ATOM      1  C   UNL d   1      -2.127   0.391   1.433  0.00  0.00    -0.033 A 
ATOM      2  C1  UNL d   1      -1.054   0.019   2.245  0.00  0.00     0.039 A 
ATOM      3  C2  UNL d   1      -0.357  -1.163   1.986  0.00  0.00    -0.080 A 
ATOM      4  C3  UNL d   1      -0.742  -1.961   0.912  0.00  0.00     0.150 A 
ATOM      5  C4  UNL d   1      -1.807  -1.594   0.096  0.00  0.00    -0.007 A 
ATOM      6  C5  UNL d   1      -2.502  -0.414   0.358  0.00  0.00     0.039 A 
ENDROOT
BRANCH   4   7
ATOM      7  O   UNL d   1      -0.095  -3.126   0.622  0.00  0.00    -0.526 OA
ATOM      8  H5  UNL d   1       0.600  -3.266   1.287  0.00  0.00     0.418 HD
ENDBRANCH   4   7
TORSDOF 1
ENDMDL
