MODEL 1
REMARK minimizedAffinity -0.246312454
REMARK minimizedRMSD -1
REMARK  1 active torsions:
REMARK  status: ('A' for Active; 'I' for Inactive)
REMARK    1  A    between atoms: C3_4  and  O_7 
ROOT
ATOM      1  C   UNL d   1       2.421  -2.113  -0.082  0.00  0.00    -0.033 A 
ATOM      2  C1  UNL d   1       1.284  -2.922  -0.024  0.00  0.00     0.039 A 
ATOM      3  C2  UNL d   1       0.135  -2.468   0.627  0.00  0.00    -0.080 A 
ATOM      4  C3  UNL d   1       0.136  -1.206   1.214  0.00  0.00     0.150 A 
ATOM      5  C4  UNL d   1       1.264  -0.394   1.157  0.00  0.00    -0.007 A 
ATOM      6  C5  UNL d   1       2.410  -0.849   0.507  0.00  0.00     0.039 A 
ENDROOT
BRANCH   4   7
ATOM      7  O   UNL d   1      -0.960  -0.722   1.865  0.00  0.00    -0.526 OA
ATOM      8  H5  UNL d   1      -1.653  -1.403   1.849  0.00  0.00     0.418 HD
ENDBRANCH   4   7
TORSDOF 1
ENDMDL
