MODEL 1
REMARK minimizedAffinity 5.53998709
REMARK minimizedRMSD -1
REMARK  1 active torsions:
REMARK  status: ('A' for Active; 'I' for Inactive)
REMARK    1  A    between atoms: C3_4  and  O_7 
ROOT
ATOM      1  C   UNL d   1       1.417   1.173  -3.667  0.00  0.00    -0.033 A 
ATOM      2  C1  UNL d   1       2.243   0.667  -2.661  0.00  0.00     0.039 A 
ATOM      3  C2  UNL d   1       3.367   1.386  -2.251  0.00  0.00    -0.080 A 
ATOM      4  C3  UNL d   1       3.653   2.608  -2.852  0.00  0.00     0.150 A 
ATOM      5  C4  UNL d   1       2.833   3.120  -3.852  0.00  0.00    -0.007 A 
ATOM      6  C5  UNL d   1       1.711   2.400  -4.262  0.00  0.00     0.039 A 
ENDROOT
BRANCH   4   7
ATOM      7  O   UNL d   1       4.742   3.344  -2.489  0.00  0.00    -0.526 OA
ATOM      8  H5  UNL d   1       5.231   2.853  -1.808  0.00  0.00     0.418 HD
ENDBRANCH   4   7
TORSDOF 1
ENDMDL
