MODEL 1
REMARK minimizedAffinity -4.38145351
REMARK minimizedRMSD -1
REMARK  0 active torsions:
REMARK  status: ('A' for Active; 'I' for Inactive)
ROOT
ATOM      1  C1  BNZ d   1       0.497  -2.073   1.227  0.00  0.00     0.000 A 
ATOM      2  C2  BNZ d   1      -0.687  -1.386   1.263  0.00  0.00     0.000 A 
ATOM      3  C3  BNZ d   1      -0.834  -0.207   0.587  0.00  0.00     0.000 A 
ATOM      4  C4  BNZ d   1       0.215   0.303  -0.091  0.00  0.00     0.000 A 
ATOM      5  C5  BNZ d   1       1.418  -0.373  -0.130  0.00  0.00     0.000 A 
ATOM      6  C6  BNZ d   1       1.550  -1.579   0.520  0.00  0.00     0.000 A 
ENDROOT
TORSDOF 0
ENDMDL
