MODEL 1
REMARK minimizedAffinity -4.53406334
REMARK minimizedRMSD -1
REMARK  0 active torsions:
REMARK  status: ('A' for Active; 'I' for Inactive)
ROOT
ATOM      1  C1  BNZ d   1       0.199  -2.542   1.363  0.00  0.00     0.000 A 
ATOM      2  C2  BNZ d   1      -0.428  -1.346   1.139  0.00  0.00     0.000 A 
ATOM      3  C3  BNZ d   1       0.200  -0.344   0.453  0.00  0.00     0.000 A 
ATOM      4  C4  BNZ d   1       1.467  -0.525   0.027  0.00  0.00     0.000 A 
ATOM      5  C5  BNZ d   1       2.116  -1.723   0.254  0.00  0.00     0.000 A 
ATOM      6  C6  BNZ d   1       1.466  -2.742   0.911  0.00  0.00     0.000 A 
ENDROOT
TORSDOF 0
ENDMDL
