MODEL 1
REMARK minimizedAffinity -5.30679512
REMARK minimizedRMSD -1
REMARK  0 active torsions:
REMARK  status: ('A' for Active; 'I' for Inactive)
ROOT
ATOM      1  C1  BNZ d   1       0.037  -0.909   0.871  0.00  0.00     0.000 A 
ATOM      2  C2  BNZ d   1      -0.642  -1.085   2.047  0.00  0.00     0.000 A 
ATOM      3  C3  BNZ d   1      -0.207  -1.985   2.979  0.00  0.00     0.000 A 
ATOM      4  C4  BNZ d   1       0.883  -2.735   2.718  0.00  0.00     0.000 A 
ATOM      5  C5  BNZ d   1       1.574  -2.576   1.533  0.00  0.00     0.000 A 
ATOM      6  C6  BNZ d   1       1.155  -1.642   0.614  0.00  0.00     0.000 A 
ENDROOT
TORSDOF 0
ENDMDL
