MODEL 1
REMARK minimizedAffinity -3.63706827
REMARK minimizedRMSD -1
REMARK  0 active torsions:
REMARK  status: ('A' for Active; 'I' for Inactive)
ROOT
ATOM      1  C1  BNZ d   1      -0.016   0.298  -0.443  0.00  0.00     0.000 A 
ATOM      2  C2  BNZ d   1       1.198  -0.335  -0.483  0.00  0.00     0.000 A 
ATOM      3  C3  BNZ d   1       1.484  -1.354   0.381  0.00  0.00     0.000 A 
ATOM      4  C4  BNZ d   1       0.573  -1.712   1.309  0.00  0.00     0.000 A 
ATOM      5  C5  BNZ d   1      -0.652  -1.078   1.368  0.00  0.00     0.000 A 
ATOM      6  C6  BNZ d   1      -0.951  -0.078   0.471  0.00  0.00     0.000 A 
ENDROOT
TORSDOF 0
ENDMDL
