MODEL 1
REMARK minimizedAffinity -3.75695992
REMARK minimizedRMSD -1
REMARK  0 active torsions:
REMARK  status: ('A' for Active; 'I' for Inactive)
ROOT
ATOM      1  C1  BNZ d   1       1.600  -0.268  -0.633  0.00  0.00     0.000 A 
ATOM      2  C2  BNZ d   1       2.598  -1.147  -0.307  0.00  0.00     0.000 A 
ATOM      3  C3  BNZ d   1       2.505  -1.928   0.812  0.00  0.00     0.000 A 
ATOM      4  C4  BNZ d   1       1.435  -1.800   1.622  0.00  0.00     0.000 A 
ATOM      5  C5  BNZ d   1       0.425  -0.911   1.312  0.00  0.00     0.000 A 
ATOM      6  C6  BNZ d   1       0.504  -0.155   0.165  0.00  0.00     0.000 A 
ENDROOT
TORSDOF 0
ENDMDL
