MODEL 1
REMARK minimizedAffinity -2.7580657
REMARK minimizedRMSD -1
REMARK  0 active torsions:
REMARK  status: ('A' for Active; 'I' for Inactive)
ROOT
ATOM      1  C1  BNZ d   1      -1.242  -0.958   1.757  0.00  0.00     0.000 A 
ATOM      2  C2  BNZ d   1      -1.521   0.290   1.265  0.00  0.00     0.000 A 
ATOM      3  C3  BNZ d   1      -0.843   0.786   0.187  0.00  0.00     0.000 A 
ATOM      4  C4  BNZ d   1       0.140   0.051  -0.373  0.00  0.00     0.000 A 
ATOM      5  C5  BNZ d   1       0.440  -1.204   0.117  0.00  0.00     0.000 A 
ATOM      6  C6  BNZ d   1      -0.272  -1.716   1.178  0.00  0.00     0.000 A 
ENDROOT
TORSDOF 0
ENDMDL
