MODEL 1
REMARK minimizedAffinity -5.06995964
REMARK minimizedRMSD -1
REMARK  0 active torsions:
REMARK  status: ('A' for Active; 'I' for Inactive)
ROOT
ATOM      1  C1  BNZ d   1      -0.947  -1.394   1.508  0.00  0.00     0.000 A 
ATOM      2  C2  BNZ d   1       0.090  -2.235   1.202  0.00  0.00     0.000 A 
ATOM      3  C3  BNZ d   1       1.081  -1.842   0.346  0.00  0.00     0.000 A 
ATOM      4  C4  BNZ d   1       1.013  -0.627  -0.233  0.00  0.00     0.000 A 
ATOM      5  C5  BNZ d   1      -0.031   0.229   0.057  0.00  0.00     0.000 A 
ATOM      6  C6  BNZ d   1      -1.006  -0.155   0.949  0.00  0.00     0.000 A 
ENDROOT
TORSDOF 0
ENDMDL
