MODEL 1
REMARK minimizedAffinity -4.0786314
REMARK minimizedRMSD -1
REMARK  0 active torsions:
REMARK  status: ('A' for Active; 'I' for Inactive)
ROOT
ATOM      1  C1  BNZ d   1       1.136   0.487  -0.549  0.00  0.00     0.000 A 
ATOM      2  C2  BNZ d   1       1.313  -0.733   0.046  0.00  0.00     0.000 A 
ATOM      3  C3  BNZ d   1       0.325  -1.291   0.809  0.00  0.00     0.000 A 
ATOM      4  C4  BNZ d   1      -0.822  -0.611   1.007  0.00  0.00     0.000 A 
ATOM      5  C5  BNZ d   1      -1.013   0.625   0.421  0.00  0.00     0.000 A 
ATOM      6  C6  BNZ d   1      -0.032   1.165  -0.377  0.00  0.00     0.000 A 
ENDROOT
TORSDOF 0
ENDMDL
