MODEL 1
REMARK minimizedAffinity -4.36726379
REMARK minimizedRMSD -1
REMARK  0 active torsions:
REMARK  status: ('A' for Active; 'I' for Inactive)
ROOT
ATOM      1  C1  BNZ d   1       2.454  -1.108   0.836  0.00  0.00     0.000 A 
ATOM      2  C2  BNZ d   1       2.007  -2.147   1.608  0.00  0.00     0.000 A 
ATOM      3  C3  BNZ d   1       0.680  -2.471   1.644  0.00  0.00     0.000 A 
ATOM      4  C4  BNZ d   1      -0.203  -1.732   0.941  0.00  0.00     0.000 A 
ATOM      5  C5  BNZ d   1       0.232  -0.676   0.165  0.00  0.00     0.000 A 
ATOM      6  C6  BNZ d   1       1.573  -0.377   0.101  0.00  0.00     0.000 A 
ENDROOT
TORSDOF 0
ENDMDL
