MODEL 1
REMARK minimizedAffinity -2.9154501
REMARK minimizedRMSD -1
REMARK  0 active torsions:
REMARK  status: ('A' for Active; 'I' for Inactive)
ROOT
ATOM      1  C1  BNZ d   1       1.187   0.937  -0.489  0.00  0.00     0.000 A 
ATOM      2  C2  BNZ d   1       1.504  -0.369  -0.223  0.00  0.00     0.000 A 
ATOM      3  C3  BNZ d   1       0.526  -1.284   0.050  0.00  0.00     0.000 A 
ATOM      4  C4  BNZ d   1      -0.761  -0.885   0.097  0.00  0.00     0.000 A 
ATOM      5  C5  BNZ d   1      -1.096   0.429  -0.160  0.00  0.00     0.000 A 
ATOM      6  C6  BNZ d   1      -0.113   1.340  -0.473  0.00  0.00     0.000 A 
ENDROOT
TORSDOF 0
ENDMDL
