MODEL 1
REMARK minimizedAffinity -4.15462875
REMARK minimizedRMSD -1
REMARK  0 active torsions:
REMARK  status: ('A' for Active; 'I' for Inactive)
ROOT
ATOM      1  C1  BNZ d   1      -0.695  -0.946   1.128  0.00  0.00     0.000 A 
ATOM      2  C2  BNZ d   1      -0.960   0.288   0.597  0.00  0.00     0.000 A 
ATOM      3  C3  BNZ d   1      -0.041   0.922  -0.192  0.00  0.00     0.000 A 
ATOM      4  C4  BNZ d   1       1.155   0.341  -0.416  0.00  0.00     0.000 A 
ATOM      5  C5  BNZ d   1       1.441  -0.899   0.120  0.00  0.00     0.000 A 
ATOM      6  C6  BNZ d   1       0.499  -1.552   0.882  0.00  0.00     0.000 A 
ENDROOT
TORSDOF 0
ENDMDL
