MODEL 1
REMARK minimizedAffinity -4.38777494
REMARK minimizedRMSD -1
REMARK  0 active torsions:
REMARK  status: ('A' for Active; 'I' for Inactive)
ROOT
ATOM      1  C1  BNZ d   1      -0.188  -2.125   1.168  0.00  0.00     0.000 A 
ATOM      2  C2  BNZ d   1       1.126  -2.504   1.081  0.00  0.00     0.000 A 
ATOM      3  C3  BNZ d   1       2.073  -1.641   0.605  0.00  0.00     0.000 A 
ATOM      4  C4  BNZ d   1       1.700  -0.416   0.179  0.00  0.00     0.000 A 
ATOM      5  C5  BNZ d   1       0.379  -0.023   0.251  0.00  0.00     0.000 A 
ATOM      6  C6  BNZ d   1      -0.566  -0.881   0.767  0.00  0.00     0.000 A 
ENDROOT
TORSDOF 0
ENDMDL
