MODEL 1
REMARK minimizedAffinity -2.67419672
REMARK minimizedRMSD -1
REMARK  0 active torsions:
REMARK  status: ('A' for Active; 'I' for Inactive)
ROOT
ATOM      1  C1  BNZ d   1       2.911  -1.656   1.516  0.00  0.00     0.000 A 
ATOM      2  C2  BNZ d   1       2.722  -0.620   0.640  0.00  0.00     0.000 A 
ATOM      3  C3  BNZ d   1       1.629  -0.588  -0.180  0.00  0.00     0.000 A 
ATOM      4  C4  BNZ d   1       0.749  -1.609  -0.152  0.00  0.00     0.000 A 
ATOM      5  C5  BNZ d   1       0.930  -2.665   0.719  0.00  0.00     0.000 A 
ATOM      6  C6  BNZ d   1       2.011  -2.675   1.571  0.00  0.00     0.000 A 
ENDROOT
TORSDOF 0
ENDMDL
