MODEL 1
REMARK minimizedAffinity -4.1295619
REMARK minimizedRMSD -1
REMARK  0 active torsions:
REMARK  status: ('A' for Active; 'I' for Inactive)
ROOT
ATOM      1  C1  BNZ d   1       0.489  -1.368   0.749  0.00  0.00     0.000 A 
ATOM      2  C2  BNZ d   1      -0.727  -0.798   1.016  0.00  0.00     0.000 A 
ATOM      3  C3  BNZ d   1      -1.026   0.457   0.564  0.00  0.00     0.000 A 
ATOM      4  C4  BNZ d   1      -0.096   1.155  -0.118  0.00  0.00     0.000 A 
ATOM      5  C5  BNZ d   1       1.138   0.598  -0.387  0.00  0.00     0.000 A 
ATOM      6  C6  BNZ d   1       1.422  -0.680   0.035  0.00  0.00     0.000 A 
ENDROOT
TORSDOF 0
ENDMDL
