MODEL 1
REMARK minimizedAffinity 0.832211137
REMARK minimizedRMSD -1
REMARK  0 active torsions:
REMARK  status: ('A' for Active; 'I' for Inactive)
ROOT
ATOM      1  O1  BZF d   1      -0.709  -1.050  -1.198  0.00  0.00    -0.204 OA
ATOM      2  C2  BZF d   1      -1.992  -0.845  -1.668  0.00  0.00     0.174 A 
ATOM      3  C3  BZF d   1      -2.796  -0.395  -0.683  0.00  0.00    -0.012 A 
ATOM      4  C3A BZF d   1      -1.942  -0.226   0.453  0.00  0.00    -0.107 A 
ATOM      5  C4  BZF d   1      -2.153   0.209   1.730  0.00  0.00     0.055 A 
ATOM      6  C5  BZF d   1      -1.122   0.184   2.615  0.00  0.00    -0.016 A 
ATOM      7  C6  BZF d   1       0.130  -0.274   2.259  0.00  0.00     0.022 A 
ATOM      8  C7  BZF d   1       0.389  -0.711   1.002  0.00  0.00     0.029 A 
ATOM      9  C7A BZF d   1      -0.642  -0.657   0.097  0.00  0.00     0.058 A 
ENDROOT
TORSDOF 0
ENDMDL
