MODEL 1
REMARK minimizedAffinity -0.0897318199
REMARK minimizedRMSD -1
REMARK  0 active torsions:
REMARK  status: ('A' for Active; 'I' for Inactive)
ROOT
ATOM      1  O1  BZF d   1      -1.964  -0.895   2.802  0.00  0.00    -0.204 OA
ATOM      2  C2  BZF d   1      -2.174   0.380   2.314  0.00  0.00     0.174 A 
ATOM      3  C3  BZF d   1      -1.056   1.126   2.424  0.00  0.00    -0.012 A 
ATOM      4  C3A BZF d   1      -0.059   0.235   2.934  0.00  0.00    -0.107 A 
ATOM      5  C4  BZF d   1       1.263   0.384   3.243  0.00  0.00     0.055 A 
ATOM      6  C5  BZF d   1       1.935  -0.663   3.790  0.00  0.00    -0.016 A 
ATOM      7  C6  BZF d   1       1.316  -1.869   4.045  0.00  0.00     0.022 A 
ATOM      8  C7  BZF d   1       0.008  -2.066   3.751  0.00  0.00     0.029 A 
ATOM      9  C7A BZF d   1      -0.666  -1.020   3.168  0.00  0.00     0.058 A 
ENDROOT
TORSDOF 0
ENDMDL
