MODEL 1
REMARK minimizedAffinity 6.37290812
REMARK minimizedRMSD -1
REMARK  0 active torsions:
REMARK  status: ('A' for Active; 'I' for Inactive)
ROOT
ATOM      1  O1  BZF d   1      -4.027  -4.072  -5.997  0.00  0.00    -0.204 OA
ATOM      2  C2  BZF d   1      -4.930  -3.027  -5.974  0.00  0.00     0.174 A 
ATOM      3  C3  BZF d   1      -4.290  -1.844  -5.880  0.00  0.00    -0.012 A 
ATOM      4  C3A BZF d   1      -2.896  -2.165  -5.935  0.00  0.00    -0.107 A 
ATOM      5  C4  BZF d   1      -1.758  -1.411  -5.904  0.00  0.00     0.055 A 
ATOM      6  C5  BZF d   1      -0.552  -2.037  -5.903  0.00  0.00    -0.016 A 
ATOM      7  C6  BZF d   1      -0.447  -3.413  -5.928  0.00  0.00     0.022 A 
ATOM      8  C7  BZF d   1      -1.549  -4.202  -5.964  0.00  0.00     0.029 A 
ATOM      9  C7A BZF d   1      -2.768  -3.571  -5.998  0.00  0.00     0.058 A 
ENDROOT
TORSDOF 0
ENDMDL
