MODEL 1
REMARK minimizedAffinity 2.64631176
REMARK minimizedRMSD -1
REMARK  0 active torsions:
REMARK  status: ('A' for Active; 'I' for Inactive)
ROOT
ATOM      1  O1  BZF d   1      -1.446  -1.657   4.529  0.00  0.00    -0.204 OA
ATOM      2  C2  BZF d   1      -0.165  -1.786   5.030  0.00  0.00     0.174 A 
ATOM      3  C3  BZF d   1       0.745  -1.356   4.132  0.00  0.00    -0.012 A 
ATOM      4  C3A BZF d   1      -0.020  -0.846   3.036  0.00  0.00    -0.107 A 
ATOM      5  C4  BZF d   1       0.316  -0.266   1.846  0.00  0.00     0.055 A 
ATOM      6  C5  BZF d   1      -0.668   0.053   0.965  0.00  0.00    -0.016 A 
ATOM      7  C6  BZF d   1      -1.997  -0.198   1.239  0.00  0.00     0.022 A 
ATOM      8  C7  BZF d   1      -2.379  -0.767   2.408  0.00  0.00     0.029 A 
ATOM      9  C7A BZF d   1      -1.389  -1.060   3.314  0.00  0.00     0.058 A 
ENDROOT
TORSDOF 0
ENDMDL
