MODEL 1
REMARK minimizedAffinity 2.03674245
REMARK minimizedRMSD -1
REMARK  0 active torsions:
REMARK  status: ('A' for Active; 'I' for Inactive)
ROOT
ATOM      1  O1  BZF d   1       1.639  -1.095   2.677  0.00  0.00    -0.204 OA
ATOM      2  C2  BZF d   1       1.357  -1.532   3.957  0.00  0.00     0.174 A 
ATOM      3  C3  BZF d   1       0.078  -1.258   4.284  0.00  0.00    -0.012 A 
ATOM      4  C3A BZF d   1      -0.500  -0.692   3.104  0.00  0.00    -0.107 A 
ATOM      5  C4  BZF d   1      -1.749  -0.231   2.798  0.00  0.00     0.055 A 
ATOM      6  C5  BZF d   1      -1.966   0.327   1.579  0.00  0.00    -0.016 A 
ATOM      7  C6  BZF d   1      -0.958   0.447   0.645  0.00  0.00     0.022 A 
ATOM      8  C7  BZF d   1       0.295   0.000   0.901  0.00  0.00     0.029 A 
ATOM      9  C7A BZF d   1       0.510  -0.595   2.120  0.00  0.00     0.058 A 
ENDROOT
TORSDOF 0
ENDMDL
