MODEL 1
REMARK minimizedAffinity -1.39776468
REMARK minimizedRMSD -1
REMARK  0 active torsions:
REMARK  status: ('A' for Active; 'I' for Inactive)
ROOT
ATOM      1  O1  BZF d   1       0.189  -2.450   4.555  0.00  0.00    -0.204 OA
ATOM      2  C2  BZF d   1       1.263  -1.689   4.134  0.00  0.00     0.174 A 
ATOM      3  C3  BZF d   1       0.855  -0.702   3.310  0.00  0.00    -0.012 A 
ATOM      4  C3A BZF d   1      -0.572  -0.799   3.284  0.00  0.00    -0.107 A 
ATOM      5  C4  BZF d   1      -1.550  -0.083   2.655  0.00  0.00     0.055 A 
ATOM      6  C5  BZF d   1      -2.844  -0.481   2.779  0.00  0.00    -0.016 A 
ATOM      7  C6  BZF d   1      -3.193  -1.592   3.518  0.00  0.00     0.022 A 
ATOM      8  C7  BZF d   1      -2.259  -2.331   4.164  0.00  0.00     0.029 A 
ATOM      9  C7A BZF d   1      -0.954  -1.912   4.067  0.00  0.00     0.058 A 
ENDROOT
TORSDOF 0
ENDMDL
