MODEL 1
REMARK minimizedAffinity 2.67811632
REMARK minimizedRMSD -1
REMARK  0 active torsions:
REMARK  status: ('A' for Active; 'I' for Inactive)
ROOT
ATOM      1  O1  BZF d   1      -1.854   0.014   1.163  0.00  0.00    -0.204 OA
ATOM      2  C2  BZF d   1      -1.200   0.212  -0.038  0.00  0.00     0.174 A 
ATOM      3  C3  BZF d   1       0.132   0.298   0.152  0.00  0.00    -0.012 A 
ATOM      4  C3A BZF d   1       0.330   0.053   1.548  0.00  0.00    -0.107 A 
ATOM      5  C4  BZF d   1       1.440  -0.010   2.341  0.00  0.00     0.055 A 
ATOM      6  C5  BZF d   1       1.285  -0.196   3.679  0.00  0.00    -0.016 A 
ATOM      7  C6  BZF d   1       0.038  -0.316   4.256  0.00  0.00     0.022 A 
ATOM      8  C7  BZF d   1      -1.092  -0.265   3.508  0.00  0.00     0.029 A 
ATOM      9  C7A BZF d   1      -0.937  -0.111   2.152  0.00  0.00     0.058 A 
ENDROOT
TORSDOF 0
ENDMDL
