MODEL 1
REMARK minimizedAffinity -3.85140419
REMARK minimizedRMSD -1
REMARK  0 active torsions:
REMARK  status: ('A' for Active; 'I' for Inactive)
ROOT
ATOM      1  O1  BZF d   1       1.328  -2.268  -1.127  0.00  0.00    -0.204 OA
ATOM      2  C2  BZF d   1       2.349  -1.828  -0.306  0.00  0.00     0.174 A 
ATOM      3  C3  BZF d   1       1.924  -0.824   0.489  0.00  0.00    -0.012 A 
ATOM      4  C3A BZF d   1       0.528  -0.687   0.209  0.00  0.00    -0.107 A 
ATOM      5  C4  BZF d   1      -0.451   0.132   0.694  0.00  0.00     0.055 A 
ATOM      6  C5  BZF d   1      -1.698   0.061   0.158  0.00  0.00    -0.016 A 
ATOM      7  C6  BZF d   1      -1.998  -0.811  -0.867  0.00  0.00     0.022 A 
ATOM      8  C7  BZF d   1      -1.062  -1.647  -1.379  0.00  0.00     0.029 A 
ATOM      9  C7A BZF d   1       0.190  -1.601  -0.816  0.00  0.00     0.058 A 
ENDROOT
TORSDOF 0
ENDMDL
