MODEL 1
REMARK minimizedAffinity -1.57313192
REMARK minimizedRMSD -1
REMARK  0 active torsions:
REMARK  status: ('A' for Active; 'I' for Inactive)
ROOT
ATOM      1  C   UNL d   1       1.146   3.589  -1.873  0.00  0.00     0.077 C 
ATOM      2  C1  UNL d   1       1.289   2.389  -0.984  0.00  0.00    -0.074 A 
ATOM      3  C2  UNL d   1       1.381   1.102  -1.523  0.00  0.00    -0.005 A 
ATOM      4  C3  UNL d   1       1.524  -0.003  -0.684  0.00  0.00     0.006 A 
ATOM      5  C4  UNL d   1       1.577   0.168   0.700  0.00  0.00    -0.005 A 
ATOM      6  C5  UNL d   1       1.487   1.447   1.257  0.00  0.00    -0.074 A 
ATOM      7  C6  UNL d   1       1.552   1.649   2.742  0.00  0.00     0.077 C 
ATOM      8  C7  UNL d   1       1.351   2.553   0.407  0.00  0.00    -0.001 A 
ENDROOT
TORSDOF 0
ENDMDL
