MODEL 1
REMARK minimizedAffinity -3.66614628
REMARK minimizedRMSD -1
REMARK  0 active torsions:
REMARK  status: ('A' for Active; 'I' for Inactive)
ROOT
ATOM      1  C   UNL d   1       1.327   0.006  -1.864  0.00  0.00     0.077 C 
ATOM      2  C1  UNL d   1       1.294   1.159  -0.905  0.00  0.00    -0.074 A 
ATOM      3  C2  UNL d   1       1.117   0.948   0.466  0.00  0.00    -0.005 A 
ATOM      4  C3  UNL d   1       1.098   2.030   1.347  0.00  0.00     0.006 A 
ATOM      5  C4  UNL d   1       1.256   3.330   0.867  0.00  0.00    -0.005 A 
ATOM      6  C5  UNL d   1       1.436   3.560  -0.501  0.00  0.00    -0.074 A 
ATOM      7  C6  UNL d   1       1.617   4.951  -1.033  0.00  0.00     0.077 C 
ATOM      8  C7  UNL d   1       1.460   2.468  -1.379  0.00  0.00    -0.001 A 
ENDROOT
TORSDOF 0
ENDMDL
