MODEL 1
REMARK minimizedAffinity -1.28293729
REMARK minimizedRMSD -1
REMARK  0 active torsions:
REMARK  status: ('A' for Active; 'I' for Inactive)
ROOT
ATOM      1  C   UNL d   1       1.812   5.695  -1.183  0.00  0.00     0.077 C 
ATOM      2  C1  UNL d   1       1.401   4.253  -1.202  0.00  0.00    -0.074 A 
ATOM      3  C2  UNL d   1       0.981   3.641  -2.387  0.00  0.00    -0.005 A 
ATOM      4  C3  UNL d   1       0.611   2.296  -2.391  0.00  0.00     0.006 A 
ATOM      5  C4  UNL d   1       0.658   1.551  -1.212  0.00  0.00    -0.005 A 
ATOM      6  C5  UNL d   1       1.077   2.145  -0.018  0.00  0.00    -0.074 A 
ATOM      7  C6  UNL d   1       1.142   1.356   1.256  0.00  0.00     0.077 C 
ATOM      8  C7  UNL d   1       1.453   3.495  -0.023  0.00  0.00    -0.001 A 
ENDROOT
TORSDOF 0
ENDMDL
