MODEL 1
REMARK minimizedAffinity -1.20078993
REMARK minimizedRMSD -1
REMARK  0 active torsions:
REMARK  status: ('A' for Active; 'I' for Inactive)
ROOT
ATOM      1  C   UNL d   1       1.815   5.955  -1.150  0.00  0.00     0.077 C 
ATOM      2  C1  UNL d   1       1.585   4.580  -0.597  0.00  0.00    -0.074 A 
ATOM      3  C2  UNL d   1       1.498   4.365   0.782  0.00  0.00    -0.005 A 
ATOM      4  C3  UNL d   1       1.274   3.081   1.281  0.00  0.00     0.006 A 
ATOM      5  C4  UNL d   1       1.134   2.002   0.407  0.00  0.00    -0.005 A 
ATOM      6  C5  UNL d   1       1.217   2.199  -0.975  0.00  0.00    -0.074 A 
ATOM      7  C6  UNL d   1       1.060   1.051  -1.929  0.00  0.00     0.077 C 
ATOM      8  C7  UNL d   1       1.436   3.492  -1.469  0.00  0.00    -0.001 A 
ENDROOT
TORSDOF 0
ENDMDL
