MODEL 1
REMARK minimizedAffinity -3.1470468
REMARK minimizedRMSD -1
REMARK  0 active torsions:
REMARK  status: ('A' for Active; 'I' for Inactive)
ROOT
ATOM      1  C   UNL d   1       1.348   1.028  -2.118  0.00  0.00     0.077 C 
ATOM      2  C1  UNL d   1       1.499   2.159  -1.145  0.00  0.00    -0.074 A 
ATOM      3  C2  UNL d   1       1.356   1.950   0.230  0.00  0.00    -0.005 A 
ATOM      4  C3  UNL d   1       1.509   3.010   1.123  0.00  0.00     0.006 A 
ATOM      5  C4  UNL d   1       1.807   4.289   0.651  0.00  0.00    -0.005 A 
ATOM      6  C5  UNL d   1       1.955   4.518  -0.721  0.00  0.00    -0.074 A 
ATOM      7  C6  UNL d   1       2.285   5.884  -1.244  0.00  0.00     0.077 C 
ATOM      8  C7  UNL d   1       1.806   3.446  -1.611  0.00  0.00    -0.001 A 
ENDROOT
TORSDOF 0
ENDMDL
