MODEL 1
REMARK minimizedAffinity -2.23732281
REMARK minimizedRMSD -1
REMARK  0 active torsions:
REMARK  status: ('A' for Active; 'I' for Inactive)
ROOT
ATOM      1  C   UNL d   1       0.749   3.801   1.703  0.00  0.00     0.077 C 
ATOM      2  C1  UNL d   1       0.911   2.912   0.506  0.00  0.00    -0.074 A 
ATOM      3  C2  UNL d   1       1.005   3.449  -0.782  0.00  0.00    -0.005 A 
ATOM      4  C3  UNL d   1       1.165   2.610  -1.884  0.00  0.00     0.006 A 
ATOM      5  C4  UNL d   1       1.232   1.227  -1.711  0.00  0.00    -0.005 A 
ATOM      6  C5  UNL d   1       1.141   0.671  -0.430  0.00  0.00    -0.074 A 
ATOM      7  C6  UNL d   1       1.221  -0.812  -0.225  0.00  0.00     0.077 C 
ATOM      8  C7  UNL d   1       0.987   1.522   0.673  0.00  0.00    -0.001 A 
ENDROOT
TORSDOF 0
ENDMDL
