MODEL 1
REMARK minimizedAffinity 5.42235804
REMARK minimizedRMSD -1
REMARK  0 active torsions:
REMARK  status: ('A' for Active; 'I' for Inactive)
ROOT
ATOM      1  C   UNL d   1       1.548   4.796  -0.739  0.00  0.00     0.077 C 
ATOM      2  C1  UNL d   1       1.384   3.400  -1.263  0.00  0.00    -0.074 A 
ATOM      3  C2  UNL d   1       0.499   3.124  -2.310  0.00  0.00    -0.005 A 
ATOM      4  C3  UNL d   1       0.364   1.823  -2.793  0.00  0.00     0.006 A 
ATOM      5  C4  UNL d   1       1.112   0.785  -2.234  0.00  0.00    -0.005 A 
ATOM      6  C5  UNL d   1       2.003   1.042  -1.187  0.00  0.00    -0.074 A 
ATOM      7  C6  UNL d   1       2.821  -0.060  -0.583  0.00  0.00     0.077 C 
ATOM      8  C7  UNL d   1       2.138   2.354  -0.713  0.00  0.00    -0.001 A 
ENDROOT
TORSDOF 0
ENDMDL
