MODEL 1
REMARK minimizedAffinity 3.3657434
REMARK minimizedRMSD -1
REMARK  0 active torsions:
REMARK  status: ('A' for Active; 'I' for Inactive)
ROOT
ATOM      1  C   UNL d   1       2.626   6.000  -1.860  0.00  0.00     0.077 C 
ATOM      2  C1  UNL d   1       2.143   4.809  -1.087  0.00  0.00    -0.074 A 
ATOM      3  C2  UNL d   1       1.980   4.870   0.301  0.00  0.00    -0.005 A 
ATOM      4  C3  UNL d   1       1.521   3.757   1.005  0.00  0.00     0.006 A 
ATOM      5  C4  UNL d   1       1.221   2.573   0.330  0.00  0.00    -0.005 A 
ATOM      6  C5  UNL d   1       1.377   2.493  -1.058  0.00  0.00    -0.074 A 
ATOM      7  C6  UNL d   1       1.049   1.232  -1.800  0.00  0.00     0.077 C 
ATOM      8  C7  UNL d   1       1.832   3.618  -1.759  0.00  0.00    -0.001 A 
ENDROOT
TORSDOF 0
ENDMDL
