MODEL 1
REMARK minimizedAffinity -3.51381326
REMARK minimizedRMSD -1
REMARK  0 active torsions:
REMARK  status: ('A' for Active; 'I' for Inactive)
ROOT
ATOM      1  C   UNL d   1       1.821   4.561  -0.632  0.00  0.00     0.077 C 
ATOM      2  C1  UNL d   1       1.549   3.086  -0.619  0.00  0.00    -0.074 A 
ATOM      3  C2  UNL d   1       1.405   2.371  -1.812  0.00  0.00    -0.005 A 
ATOM      4  C3  UNL d   1       1.161   0.998  -1.785  0.00  0.00     0.006 A 
ATOM      5  C4  UNL d   1       1.058   0.327  -0.565  0.00  0.00    -0.005 A 
ATOM      6  C5  UNL d   1       1.200   1.025   0.638  0.00  0.00    -0.074 A 
ATOM      7  C6  UNL d   1       1.103   0.318   1.957  0.00  0.00     0.077 C 
ATOM      8  C7  UNL d   1       1.452   2.403   0.602  0.00  0.00    -0.001 A 
ENDROOT
TORSDOF 0
ENDMDL
