MODEL 1
REMARK minimizedAffinity -3.43568182
REMARK minimizedRMSD -1
REMARK  0 active torsions:
REMARK  status: ('A' for Active; 'I' for Inactive)
ROOT
ATOM      1  C   UNL d   1       1.187   0.454  -1.980  0.00  0.00     0.077 C 
ATOM      2  C1  UNL d   1       0.988   1.530  -0.955  0.00  0.00    -0.074 A 
ATOM      3  C2  UNL d   1       0.462   1.233   0.306  0.00  0.00    -0.005 A 
ATOM      4  C3  UNL d   1       0.292   2.244   1.253  0.00  0.00     0.006 A 
ATOM      5  C4  UNL d   1       0.644   3.559   0.948  0.00  0.00    -0.005 A 
ATOM      6  C5  UNL d   1       1.172   3.875  -0.308  0.00  0.00    -0.074 A 
ATOM      7  C6  UNL d   1       1.566   5.281  -0.649  0.00  0.00     0.077 C 
ATOM      8  C7  UNL d   1       1.347   2.853  -1.251  0.00  0.00    -0.001 A 
ENDROOT
TORSDOF 0
ENDMDL
