MODEL 1
REMARK minimizedAffinity 4.59895802
REMARK minimizedRMSD -1
REMARK  0 active torsions:
REMARK  status: ('A' for Active; 'I' for Inactive)
ROOT
ATOM      1  C   UNL d   1       1.340   3.851   1.719  0.00  0.00     0.077 C 
ATOM      2  C1  UNL d   1       1.381   3.073   0.436  0.00  0.00    -0.074 A 
ATOM      3  C2  UNL d   1       1.334   3.724  -0.800  0.00  0.00    -0.005 A 
ATOM      4  C3  UNL d   1       1.383   2.989  -1.985  0.00  0.00     0.006 A 
ATOM      5  C4  UNL d   1       1.479   1.597  -1.944  0.00  0.00    -0.005 A 
ATOM      6  C5  UNL d   1       1.528   0.929  -0.716  0.00  0.00    -0.074 A 
ATOM      7  C6  UNL d   1       1.641  -0.565  -0.655  0.00  0.00     0.077 C 
ATOM      8  C7  UNL d   1       1.485   1.676   0.469  0.00  0.00    -0.001 A 
ENDROOT
TORSDOF 0
ENDMDL
