MODEL 1
REMARK minimizedAffinity 0.686173975
REMARK minimizedRMSD -1
REMARK  0 active torsions:
REMARK  status: ('A' for Active; 'I' for Inactive)
ROOT
ATOM      1  C   UNL d   1       3.360   1.115   1.513  0.00  0.00     0.077 C 
ATOM      2  C1  UNL d   1       2.553   0.763   0.299  0.00  0.00    -0.074 A 
ATOM      3  C2  UNL d   1       2.367  -0.570  -0.079  0.00  0.00    -0.005 A 
ATOM      4  C3  UNL d   1       1.605  -0.883  -1.205  0.00  0.00     0.006 A 
ATOM      5  C4  UNL d   1       1.024   0.134  -1.964  0.00  0.00    -0.005 A 
ATOM      6  C5  UNL d   1       1.199   1.473  -1.601  0.00  0.00    -0.074 A 
ATOM      7  C6  UNL d   1       0.572   2.577  -2.401  0.00  0.00     0.077 C 
ATOM      8  C7  UNL d   1       1.959   1.778  -0.464  0.00  0.00    -0.001 A 
ENDROOT
TORSDOF 0
ENDMDL
