MODEL 1
REMARK minimizedAffinity -1.83983052
REMARK minimizedRMSD -1
REMARK  0 active torsions:
REMARK  status: ('A' for Active; 'I' for Inactive)
ROOT
ATOM      1  C   UNL d   1       0.439  -2.621  -1.074  0.00  0.00     0.077 C 
ATOM      2  C1  UNL d   1       0.878  -1.187  -1.059  0.00  0.00    -0.074 A 
ATOM      3  C2  UNL d   1       1.100  -0.490  -2.252  0.00  0.00    -0.005 A 
ATOM      4  C3  UNL d   1       1.499   0.846  -2.222  0.00  0.00     0.006 A 
ATOM      5  C4  UNL d   1       1.680   1.498  -1.002  0.00  0.00    -0.005 A 
ATOM      6  C5  UNL d   1       1.462   0.819   0.201  0.00  0.00    -0.074 A 
ATOM      7  C6  UNL d   1       1.642   1.508   1.520  0.00  0.00     0.077 C 
ATOM      8  C7  UNL d   1       1.054  -0.522   0.163  0.00  0.00    -0.001 A 
ENDROOT
TORSDOF 0
ENDMDL
