MODEL 1
REMARK minimizedAffinity -4.35343695
REMARK minimizedRMSD -1
REMARK  0 active torsions:
REMARK  status: ('A' for Active; 'I' for Inactive)
ROOT
ATOM      1  C   UNL d   1       0.622   3.916   1.496  0.00  0.00     0.077 C 
ATOM      2  C1  UNL d   1       1.043   3.135   0.287  0.00  0.00    -0.074 A 
ATOM      3  C2  UNL d   1       1.301   3.776  -0.929  0.00  0.00    -0.005 A 
ATOM      4  C3  UNL d   1       1.701   3.037  -2.043  0.00  0.00     0.006 A 
ATOM      5  C4  UNL d   1       1.847   1.652  -1.952  0.00  0.00    -0.005 A 
ATOM      6  C5  UNL d   1       1.594   0.994  -0.744  0.00  0.00    -0.074 A 
ATOM      7  C6  UNL d   1       1.755  -0.492  -0.627  0.00  0.00     0.077 C 
ATOM      8  C7  UNL d   1       1.199   1.744   0.372  0.00  0.00    -0.001 A 
ENDROOT
TORSDOF 0
ENDMDL
