MODEL 1
REMARK minimizedAffinity 2.22297692
REMARK minimizedRMSD -1
REMARK  0 active torsions:
REMARK  status: ('A' for Active; 'I' for Inactive)
ROOT
ATOM      1  C   UNL d   1       2.629   0.193   0.399  0.00  0.00     0.077 C 
ATOM      2  C1  UNL d   1       2.068   1.118  -0.640  0.00  0.00    -0.074 A 
ATOM      3  C2  UNL d   1       1.326   0.623  -1.717  0.00  0.00    -0.005 A 
ATOM      4  C3  UNL d   1       0.803   1.496  -2.671  0.00  0.00     0.006 A 
ATOM      5  C4  UNL d   1       1.016   2.870  -2.558  0.00  0.00    -0.005 A 
ATOM      6  C5  UNL d   1       1.756   3.383  -1.488  0.00  0.00    -0.074 A 
ATOM      7  C6  UNL d   1       1.986   4.858  -1.346  0.00  0.00     0.077 C 
ATOM      8  C7  UNL d   1       2.272   2.500  -0.530  0.00  0.00    -0.001 A 
ENDROOT
TORSDOF 0
ENDMDL
