MODEL 1
REMARK minimizedAffinity 6.42064095
REMARK minimizedRMSD -1
REMARK  0 active torsions:
REMARK  status: ('A' for Active; 'I' for Inactive)
ROOT
ATOM      1  C   UNL d   1       1.587   4.857   1.998  0.00  0.00     0.077 C 
ATOM      2  C1  UNL d   1       1.846   4.890   0.521  0.00  0.00    -0.074 A 
ATOM      3  C2  UNL d   1       2.483   5.984  -0.074  0.00  0.00    -0.005 A 
ATOM      4  C3  UNL d   1       2.725   5.995  -1.447  0.00  0.00     0.006 A 
ATOM      5  C4  UNL d   1       2.333   4.915  -2.239  0.00  0.00    -0.005 A 
ATOM      6  C5  UNL d   1       1.696   3.812  -1.662  0.00  0.00    -0.074 A 
ATOM      7  C6  UNL d   1       1.277   2.638  -2.497  0.00  0.00     0.077 C 
ATOM      8  C7  UNL d   1       1.462   3.805  -0.280  0.00  0.00    -0.001 A 
ENDROOT
TORSDOF 0
ENDMDL
