MODEL 1
REMARK minimizedAffinity 7.62740183
REMARK minimizedRMSD -1
REMARK  1 active torsions:
REMARK  status: ('A' for Active; 'I' for Inactive)
REMARK    1  A    between atoms: C3_4  and  O_7 
ROOT
ATOM      1  C   UNL d   1       2.239  -2.075  -1.096  0.00  0.00    -0.033 A 
ATOM      2  C1  UNL d   1       1.912  -0.727  -1.261  0.00  0.00     0.039 A 
ATOM      3  C2  UNL d   1       2.686   0.261  -0.650  0.00  0.00    -0.080 A 
ATOM      4  C3  UNL d   1       3.783  -0.111   0.122  0.00  0.00     0.150 A 
ATOM      5  C4  UNL d   1       4.117  -1.451   0.288  0.00  0.00    -0.007 A 
ATOM      6  C5  UNL d   1       3.342  -2.436  -0.323  0.00  0.00     0.039 A 
ENDROOT
BRANCH   4   7
ATOM      7  O   UNL d   1       4.566   0.817   0.742  0.00  0.00    -0.526 OA
ATOM      8  H5  UNL d   1       4.198   1.699   0.563  0.00  0.00     0.418 HD
ENDBRANCH   4   7
TORSDOF 1
ENDMDL
