MODEL 1
REMARK minimizedAffinity 4.77783012
REMARK minimizedRMSD -1
REMARK  1 active torsions:
REMARK  status: ('A' for Active; 'I' for Inactive)
REMARK    1  A    between atoms: C3_4  and  O_7 
ROOT
ATOM      1  C   UNL d   1      -2.041  -0.298   2.353  0.00  0.00    -0.033 A 
ATOM      2  C1  UNL d   1      -3.343  -0.725   2.626  0.00  0.00     0.039 A 
ATOM      3  C2  UNL d   1      -4.292   0.183   3.098  0.00  0.00    -0.080 A 
ATOM      4  C3  UNL d   1      -3.929   1.513   3.291  0.00  0.00     0.150 A 
ATOM      5  C4  UNL d   1      -2.636   1.946   3.018  0.00  0.00    -0.007 A 
ATOM      6  C5  UNL d   1      -1.688   1.037   2.547  0.00  0.00     0.039 A 
ENDROOT
BRANCH   4   7
ATOM      7  O   UNL d   1      -4.820   2.435   3.755  0.00  0.00    -0.526 OA
ATOM      8  H5  UNL d   1      -5.665   1.987   3.927  0.00  0.00     0.418 HD
ENDBRANCH   4   7
TORSDOF 1
ENDMDL
