MODEL 1
REMARK minimizedAffinity 20.2497444
REMARK minimizedRMSD -1
REMARK  1 active torsions:
REMARK  status: ('A' for Active; 'I' for Inactive)
REMARK    1  A    between atoms: C3_4  and  O_7 
ROOT
ATOM      1  C   UNL d   1       2.239  -1.693  -0.569  0.00  0.00    -0.033 A 
ATOM      2  C1  UNL d   1       3.449  -1.952   0.078  0.00  0.00     0.039 A 
ATOM      3  C2  UNL d   1       4.244  -0.895   0.524  0.00  0.00    -0.080 A 
ATOM      4  C3  UNL d   1       3.818   0.415   0.319  0.00  0.00     0.150 A 
ATOM      5  C4  UNL d   1       2.612   0.680  -0.321  0.00  0.00    -0.007 A 
ATOM      6  C5  UNL d   1       1.820  -0.377  -0.767  0.00  0.00     0.039 A 
ENDROOT
BRANCH   4   7
ATOM      7  O   UNL d   1       4.563   1.479   0.732  0.00  0.00    -0.526 OA
ATOM      8  H5  UNL d   1       5.383   1.145   1.132  0.00  0.00     0.418 HD
ENDBRANCH   4   7
TORSDOF 1
ENDMDL
