MODEL 1
REMARK minimizedAffinity 2.88406825
REMARK minimizedRMSD -1
REMARK  1 active torsions:
REMARK  status: ('A' for Active; 'I' for Inactive)
REMARK    1  A    between atoms: C3_4  and  O_7 
ROOT
ATOM      1  C   UNL d   1      -2.979   6.000  -5.281  0.00  0.00    -0.033 A 
ATOM      2  C1  UNL d   1      -2.160   5.840  -4.161  0.00  0.00     0.039 A 
ATOM      3  C2  UNL d   1      -1.769   4.562  -3.757  0.00  0.00    -0.080 A 
ATOM      4  C3  UNL d   1      -2.204   3.454  -4.480  0.00  0.00     0.150 A 
ATOM      5  C4  UNL d   1      -3.017   3.606  -5.598  0.00  0.00    -0.007 A 
ATOM      6  C5  UNL d   1      -3.406   4.883  -6.000  0.00  0.00     0.039 A 
ENDROOT
BRANCH   4   7
ATOM      7  O   UNL d   1      -1.853   2.186  -4.120  0.00  0.00    -0.526 OA
ATOM      8  H5  UNL d   1      -1.314   2.233  -3.313  0.00  0.00     0.418 HD
ENDBRANCH   4   7
TORSDOF 1
ENDMDL
