MODEL 1
REMARK minimizedAffinity 10.1993275
REMARK minimizedRMSD -1
REMARK  1 active torsions:
REMARK  status: ('A' for Active; 'I' for Inactive)
REMARK    1  A    between atoms: C3_4  and  O_7 
ROOT
ATOM      1  C   UNL d   1       2.422  -0.323  -1.161  0.00  0.00    -0.033 A 
ATOM      2  C1  UNL d   1       2.428   1.034  -1.491  0.00  0.00     0.039 A 
ATOM      3  C2  UNL d   1       3.425   1.872  -0.989  0.00  0.00    -0.080 A 
ATOM      4  C3  UNL d   1       4.409   1.342  -0.159  0.00  0.00     0.150 A 
ATOM      5  C4  UNL d   1       4.412  -0.009   0.171  0.00  0.00    -0.007 A 
ATOM      6  C5  UNL d   1       3.415  -0.845  -0.331  0.00  0.00     0.039 A 
ENDROOT
BRANCH   4   7
ATOM      7  O   UNL d   1       5.400   2.122   0.359  0.00  0.00    -0.526 OA
ATOM      8  H5  UNL d   1       5.254   3.038   0.069  0.00  0.00     0.418 HD
ENDBRANCH   4   7
TORSDOF 1
ENDMDL
