MODEL 1
REMARK minimizedAffinity 15.8182821
REMARK minimizedRMSD -1
REMARK  1 active torsions:
REMARK  status: ('A' for Active; 'I' for Inactive)
REMARK    1  A    between atoms: C3_4  and  O_7 
ROOT
ATOM      1  C   UNL d   1      -0.035   1.933   1.913  0.00  0.00    -0.033 A 
ATOM      2  C1  UNL d   1       0.312   0.932   2.823  0.00  0.00     0.039 A 
ATOM      3  C2  UNL d   1      -0.681   0.160   3.428  0.00  0.00    -0.080 A 
ATOM      4  C3  UNL d   1      -2.017   0.397   3.114  0.00  0.00     0.150 A 
ATOM      5  C4  UNL d   1      -2.370   1.390   2.206  0.00  0.00    -0.007 A 
ATOM      6  C5  UNL d   1      -1.377   2.160   1.604  0.00  0.00     0.039 A 
ENDROOT
BRANCH   4   7
ATOM      7  O   UNL d   1      -3.022  -0.327   3.683  0.00  0.00    -0.526 OA
ATOM      8  H5  UNL d   1      -2.630  -0.957   4.311  0.00  0.00     0.418 HD
ENDBRANCH   4   7
TORSDOF 1
ENDMDL
