MODEL 1
REMARK minimizedAffinity 3.85423374
REMARK minimizedRMSD -1
REMARK  1 active torsions:
REMARK  status: ('A' for Active; 'I' for Inactive)
REMARK    1  A    between atoms: C3_4  and  O_7 
ROOT
ATOM      1  C   UNL d   1       2.770  -1.949  -0.587  0.00  0.00    -0.033 A 
ATOM      2  C1  UNL d   1       3.756  -1.954   0.401  0.00  0.00     0.039 A 
ATOM      3  C2  UNL d   1       4.324  -0.752   0.829  0.00  0.00    -0.080 A 
ATOM      4  C3  UNL d   1       3.898   0.445   0.261  0.00  0.00     0.150 A 
ATOM      5  C4  UNL d   1       2.914   0.457  -0.722  0.00  0.00    -0.007 A 
ATOM      6  C5  UNL d   1       2.348  -0.744  -1.148  0.00  0.00     0.039 A 
ENDROOT
BRANCH   4   7
ATOM      7  O   UNL d   1       4.427   1.643   0.642  0.00  0.00    -0.526 OA
ATOM      8  H5  UNL d   1       5.115   1.477   1.307  0.00  0.00     0.418 HD
ENDBRANCH   4   7
TORSDOF 1
ENDMDL
