MODEL 1
REMARK minimizedAffinity 8.56397915
REMARK minimizedRMSD -1
REMARK  1 active torsions:
REMARK  status: ('A' for Active; 'I' for Inactive)
REMARK    1  A    between atoms: C3_4  and  O_7 
ROOT
ATOM      1  C   UNL d   1       1.170  -2.245  -2.032  0.00  0.00    -0.033 A 
ATOM      2  C1  UNL d   1       1.414  -3.335  -1.193  0.00  0.00     0.039 A 
ATOM      3  C2  UNL d   1       2.553  -3.355  -0.386  0.00  0.00    -0.080 A 
ATOM      4  C3  UNL d   1       3.438  -2.281  -0.426  0.00  0.00     0.150 A 
ATOM      5  C4  UNL d   1       3.199  -1.191  -1.257  0.00  0.00    -0.007 A 
ATOM      6  C5  UNL d   1       2.061  -1.173  -2.063  0.00  0.00     0.039 A 
ENDROOT
BRANCH   4   7
ATOM      7  O   UNL d   1       4.565  -2.258   0.340  0.00  0.00    -0.526 OA
ATOM      8  H5  UNL d   1       4.614  -3.089   0.841  0.00  0.00     0.418 HD
ENDBRANCH   4   7
TORSDOF 1
ENDMDL
