MODEL 1
REMARK minimizedAffinity 12.6371965
REMARK minimizedRMSD -1
REMARK  1 active torsions:
REMARK  status: ('A' for Active; 'I' for Inactive)
REMARK    1  A    between atoms: C3_4  and  O_7 
ROOT
ATOM      1  C   UNL d   1       3.924  -4.802   0.474  0.00  0.00    -0.033 A 
ATOM      2  C1  UNL d   1       2.556  -4.554   0.344  0.00  0.00     0.039 A 
ATOM      3  C2  UNL d   1       2.111  -3.322  -0.138  0.00  0.00    -0.080 A 
ATOM      4  C3  UNL d   1       3.043  -2.347  -0.486  0.00  0.00     0.150 A 
ATOM      5  C4  UNL d   1       4.407  -2.589  -0.363  0.00  0.00    -0.007 A 
ATOM      6  C5  UNL d   1       4.849  -3.820   0.119  0.00  0.00     0.039 A 
ENDROOT
BRANCH   4   7
ATOM      7  O   UNL d   1       2.656  -1.127  -0.956  0.00  0.00    -0.526 OA
ATOM      8  H5  UNL d   1       1.685  -1.093  -0.961  0.00  0.00     0.418 HD
ENDBRANCH   4   7
TORSDOF 1
ENDMDL
