MODEL 1
REMARK minimizedAffinity 14.405076
REMARK minimizedRMSD -1
REMARK  1 active torsions:
REMARK  status: ('A' for Active; 'I' for Inactive)
REMARK    1  A    between atoms: C3_4  and  O_7 
ROOT
ATOM      1  C   UNL d   1      -0.509   0.661   2.149  0.00  0.00    -0.033 A 
ATOM      2  C1  UNL d   1      -0.268   1.880   2.785  0.00  0.00     0.039 A 
ATOM      3  C2  UNL d   1       0.439   1.914   3.988  0.00  0.00    -0.080 A 
ATOM      4  C3  UNL d   1       0.900   0.724   4.544  0.00  0.00     0.150 A 
ATOM      5  C4  UNL d   1       0.668  -0.494   3.913  0.00  0.00    -0.007 A 
ATOM      6  C5  UNL d   1      -0.040  -0.526   2.712  0.00  0.00     0.039 A 
ENDROOT
BRANCH   4   7
ATOM      7  O   UNL d   1       1.591   0.706   5.719  0.00  0.00    -0.526 OA
ATOM      8  H5  UNL d   1       1.651   1.616   6.054  0.00  0.00     0.418 HD
ENDBRANCH   4   7
TORSDOF 1
ENDMDL
