MODEL 1
REMARK minimizedAffinity 3.02304554
REMARK minimizedRMSD -1
REMARK  1 active torsions:
REMARK  status: ('A' for Active; 'I' for Inactive)
REMARK    1  A    between atoms: C3_4  and  O_7 
ROOT
ATOM      1  C   UNL d   1       3.193  -2.804  -0.827  0.00  0.00    -0.033 A 
ATOM      2  C1  UNL d   1       4.208  -2.712   0.128  0.00  0.00     0.039 A 
ATOM      3  C2  UNL d   1       4.560  -1.469   0.657  0.00  0.00    -0.080 A 
ATOM      4  C3  UNL d   1       3.890  -0.328   0.225  0.00  0.00     0.150 A 
ATOM      5  C4  UNL d   1       2.876  -0.413  -0.723  0.00  0.00    -0.007 A 
ATOM      6  C5  UNL d   1       2.526  -1.655  -1.252  0.00  0.00     0.039 A 
ENDROOT
BRANCH   4   7
ATOM      7  O   UNL d   1       4.202   0.908   0.709  0.00  0.00    -0.526 OA
ATOM      8  H5  UNL d   1       4.940   0.816   1.335  0.00  0.00     0.418 HD
ENDBRANCH   4   7
TORSDOF 1
ENDMDL
