MODEL 1
REMARK minimizedAffinity 11.0590687
REMARK minimizedRMSD -1
REMARK  1 active torsions:
REMARK  status: ('A' for Active; 'I' for Inactive)
REMARK    1  A    between atoms: C3_4  and  O_7 
ROOT
ATOM      1  C   UNL d   1       0.548   2.806   5.999  0.00  0.00    -0.033 A 
ATOM      2  C1  UNL d   1       1.091   1.520   5.993  0.00  0.00     0.039 A 
ATOM      3  C2  UNL d   1       1.078   0.760   4.822  0.00  0.00    -0.080 A 
ATOM      4  C3  UNL d   1       0.519   1.297   3.665  0.00  0.00     0.150 A 
ATOM      5  C4  UNL d   1      -0.021   2.579   3.663  0.00  0.00    -0.007 A 
ATOM      6  C5  UNL d   1      -0.007   3.336   4.834  0.00  0.00     0.039 A 
ENDROOT
BRANCH   4   7
ATOM      7  O   UNL d   1       0.479   0.592   2.499  0.00  0.00    -0.526 OA
ATOM      8  H5  UNL d   1       0.862  -0.287   2.658  0.00  0.00     0.418 HD
ENDBRANCH   4   7
TORSDOF 1
ENDMDL
