MODEL 1
REMARK minimizedAffinity 10.5214443
REMARK minimizedRMSD -1
REMARK  1 active torsions:
REMARK  status: ('A' for Active; 'I' for Inactive)
REMARK    1  A    between atoms: C3_4  and  O_7 
ROOT
ATOM      1  C   UNL d   1      -5.001  -2.221   3.417  0.00  0.00    -0.033 A 
ATOM      2  C1  UNL d   1      -4.104  -1.697   4.350  0.00  0.00     0.039 A 
ATOM      3  C2  UNL d   1      -3.508  -0.454   4.126  0.00  0.00    -0.080 A 
ATOM      4  C3  UNL d   1      -3.818   0.253   2.968  0.00  0.00     0.150 A 
ATOM      5  C4  UNL d   1      -4.713  -0.261   2.036  0.00  0.00    -0.007 A 
ATOM      6  C5  UNL d   1      -5.307  -1.503   2.261  0.00  0.00     0.039 A 
ENDROOT
BRANCH   4   7
ATOM      7  O   UNL d   1      -3.258   1.468   2.704  0.00  0.00    -0.526 OA
ATOM      8  H5  UNL d   1      -2.638   1.683   3.420  0.00  0.00     0.418 HD
ENDBRANCH   4   7
TORSDOF 1
ENDMDL
