MODEL 1
REMARK minimizedAffinity 4.58727074
REMARK minimizedRMSD -1
REMARK  1 active torsions:
REMARK  status: ('A' for Active; 'I' for Inactive)
REMARK    1  A    between atoms: C3_4  and  O_7 
ROOT
ATOM      1  C   UNL d   1      -3.947  -2.272  -5.877  0.00  0.00    -0.033 A 
ATOM      2  C1  UNL d   1      -3.210  -3.456  -5.949  0.00  0.00     0.039 A 
ATOM      3  C2  UNL d   1      -3.867  -4.687  -5.993  0.00  0.00    -0.080 A 
ATOM      4  C3  UNL d   1      -5.258  -4.721  -5.964  0.00  0.00     0.150 A 
ATOM      5  C4  UNL d   1      -5.998  -3.546  -5.896  0.00  0.00    -0.007 A 
ATOM      6  C5  UNL d   1      -5.341  -2.317  -5.852  0.00  0.00     0.039 A 
ENDROOT
BRANCH   4   7
ATOM      7  O   UNL d   1      -5.943  -5.899  -6.000  0.00  0.00    -0.526 OA
ATOM      8  H5  UNL d   1      -5.301  -6.628  -6.017  0.00  0.00     0.418 HD
ENDBRANCH   4   7
TORSDOF 1
ENDMDL
