MODEL 1
REMARK minimizedAffinity 2.50982428
REMARK minimizedRMSD -1
REMARK  1 active torsions:
REMARK  status: ('A' for Active; 'I' for Inactive)
REMARK    1  A    between atoms: C3_4  and  O_7 
ROOT
ATOM      1  C   UNL d   1      -0.819  -4.396  -4.432  0.00  0.00    -0.033 A 
ATOM      2  C1  UNL d   1      -1.717  -4.214  -3.379  0.00  0.00     0.039 A 
ATOM      3  C2  UNL d   1      -3.012  -3.758  -3.635  0.00  0.00    -0.080 A 
ATOM      4  C3  UNL d   1      -3.395  -3.489  -4.946  0.00  0.00     0.150 A 
ATOM      5  C4  UNL d   1      -2.507  -3.672  -6.000  0.00  0.00    -0.007 A 
ATOM      6  C5  UNL d   1      -1.214  -4.127  -5.743  0.00  0.00     0.039 A 
ENDROOT
BRANCH   4   7
ATOM      7  O   UNL d   1      -4.647  -3.037  -5.244  0.00  0.00    -0.526 OA
ATOM      8  H5  UNL d   1      -5.141  -2.930  -4.414  0.00  0.00     0.418 HD
ENDBRANCH   4   7
TORSDOF 1
ENDMDL
