MODEL 1
REMARK minimizedAffinity 5.7303772
REMARK minimizedRMSD -1
REMARK  1 active torsions:
REMARK  status: ('A' for Active; 'I' for Inactive)
REMARK    1  A    between atoms: C3_4  and  O_7 
ROOT
ATOM      1  C   UNL d   1       0.729   1.152   3.736  0.00  0.00    -0.033 A 
ATOM      2  C1  UNL d   1       0.313  -0.123   3.348  0.00  0.00     0.039 A 
ATOM      3  C2  UNL d   1      -0.971  -0.314   2.834  0.00  0.00    -0.080 A 
ATOM      4  C3  UNL d   1      -1.828   0.777   2.713  0.00  0.00     0.150 A 
ATOM      5  C4  UNL d   1      -1.418   2.051   3.094  0.00  0.00    -0.007 A 
ATOM      6  C5  UNL d   1      -0.136   2.239   3.607  0.00  0.00     0.039 A 
ENDROOT
BRANCH   4   7
ATOM      7  O   UNL d   1      -3.092   0.639   2.222  0.00  0.00    -0.526 OA
ATOM      8  H5  UNL d   1      -3.246  -0.301   2.027  0.00  0.00     0.418 HD
ENDBRANCH   4   7
TORSDOF 1
ENDMDL
