MODEL 1
REMARK minimizedAffinity 11.7289228
REMARK minimizedRMSD -1
REMARK  1 active torsions:
REMARK  status: ('A' for Active; 'I' for Inactive)
REMARK    1  A    between atoms: C1_2  and  C2_3 
ROOT
ATOM      1  C2  UNL d   1      -4.096   1.560  -2.868  0.00  0.00    -0.073 A 
ATOM      2  C3  UNL d   1      -4.540   0.846  -3.987  0.00  0.00    -0.002 A 
ATOM      3  C4  UNL d   1      -4.995   1.522  -5.120  0.00  0.00     0.004 A 
ATOM      4  C5  UNL d   1      -5.005   2.916  -5.148  0.00  0.00    -0.004 A 
ATOM      5  C6  UNL d   1      -4.555   3.648  -4.045  0.00  0.00    -0.075 A 
ATOM      6  C7  UNL d   1      -4.561   5.148  -4.059  0.00  0.00     0.076 C 
ATOM      7  C8  UNL d   1      -4.101   2.962  -2.910  0.00  0.00     0.001 A 
ENDROOT
BRANCH   1   8
ATOM      8  C1  UNL d   1      -3.598   0.834  -1.645  0.00  0.00     0.053 C 
ATOM      9  C   UNL d   1      -3.398  -0.650  -1.905  0.00  0.00     0.018 C 
ENDBRANCH   1   8
TORSDOF 1
ENDMDL
