MODEL 1
REMARK minimizedAffinity 12.4961653
REMARK minimizedRMSD -1
REMARK  1 active torsions:
REMARK  status: ('A' for Active; 'I' for Inactive)
REMARK    1  A    between atoms: C1_2  and  C2_3 
ROOT
ATOM      1  C2  UNL d   1      -2.620   4.059  -5.332  0.00  0.00    -0.073 A 
ATOM      2  C3  UNL d   1      -3.847   4.141  -6.000  0.00  0.00    -0.002 A 
ATOM      3  C4  UNL d   1      -5.020   3.714  -5.375  0.00  0.00     0.004 A 
ATOM      4  C5  UNL d   1      -4.979   3.209  -4.075  0.00  0.00    -0.004 A 
ATOM      5  C6  UNL d   1      -3.764   3.131  -3.387  0.00  0.00    -0.075 A 
ATOM      6  C7  UNL d   1      -3.703   2.588  -1.989  0.00  0.00     0.076 C 
ATOM      7  C8  UNL d   1      -2.591   3.558  -4.022  0.00  0.00     0.001 A 
ENDROOT
BRANCH   1   8
ATOM      8  C1  UNL d   1      -1.352   4.524  -6.000  0.00  0.00     0.053 C 
ATOM      9  C   UNL d   1      -1.059   5.988  -5.710  0.00  0.00     0.018 C 
ENDBRANCH   1   8
TORSDOF 1
ENDMDL
