MODEL 1
REMARK minimizedAffinity 8.29568195
REMARK minimizedRMSD -1
REMARK  1 active torsions:
REMARK  status: ('A' for Active; 'I' for Inactive)
REMARK    1  A    between atoms: C1_2  and  C2_3 
ROOT
ATOM      1  C2  UNL d   1       1.368   3.284   4.164  0.00  0.00    -0.073 A 
ATOM      2  C3  UNL d   1       0.074   3.810   4.244  0.00  0.00    -0.002 A 
ATOM      3  C4  UNL d   1      -0.155   5.023   4.896  0.00  0.00     0.004 A 
ATOM      4  C5  UNL d   1       0.906   5.724   5.467  0.00  0.00    -0.004 A 
ATOM      5  C6  UNL d   1       2.209   5.221   5.388  0.00  0.00    -0.075 A 
ATOM      6  C7  UNL d   1       3.361   5.962   5.999  0.00  0.00     0.076 C 
ATOM      7  C8  UNL d   1       2.430   4.001   4.734  0.00  0.00     0.001 A 
ENDROOT
BRANCH   1   8
ATOM      8  C1  UNL d   1       1.622   1.979   3.456  0.00  0.00     0.053 C 
ATOM      9  C   UNL d   1       2.095   2.188   2.026  0.00  0.00     0.018 C 
ENDBRANCH   1   8
TORSDOF 1
ENDMDL
