MODEL 1
REMARK minimizedAffinity 7.78577042
REMARK minimizedRMSD -1
REMARK  1 active torsions:
REMARK  status: ('A' for Active; 'I' for Inactive)
REMARK    1  A    between atoms: C1_2  and  C2_3 
ROOT
ATOM      1  C2  UNL d   1       2.153  -3.215   1.649  0.00  0.00    -0.073 A 
ATOM      2  C3  UNL d   1       1.893  -4.540   2.017  0.00  0.00    -0.002 A 
ATOM      3  C4  UNL d   1       2.921  -5.483   2.026  0.00  0.00     0.004 A 
ATOM      4  C5  UNL d   1       4.219  -5.111   1.675  0.00  0.00    -0.004 A 
ATOM      5  C6  UNL d   1       4.501  -3.789   1.316  0.00  0.00    -0.075 A 
ATOM      6  C7  UNL d   1       5.891  -3.374   0.933  0.00  0.00     0.076 C 
ATOM      7  C8  UNL d   1       3.463  -2.848   1.306  0.00  0.00     0.001 A 
ENDROOT
BRANCH   1   8
ATOM      8  C1  UNL d   1       1.048  -2.191   1.644  0.00  0.00     0.053 C 
ATOM      9  C   UNL d   1       0.467  -1.972   3.032  0.00  0.00     0.018 C 
ENDBRANCH   1   8
TORSDOF 1
ENDMDL
