MODEL 1
REMARK minimizedAffinity 5.13698912
REMARK minimizedRMSD -1
REMARK  1 active torsions:
REMARK  status: ('A' for Active; 'I' for Inactive)
REMARK    1  A    between atoms: C1_2  and  C2_3 
ROOT
ATOM      1  C2  UNL d   1       3.311  -4.159   0.739  0.00  0.00    -0.073 A 
ATOM      2  C3  UNL d   1       4.092  -3.144   1.302  0.00  0.00    -0.002 A 
ATOM      3  C4  UNL d   1       5.431  -2.999   0.937  0.00  0.00     0.004 A 
ATOM      4  C5  UNL d   1       6.000  -3.862  -0.000  0.00  0.00    -0.004 A 
ATOM      5  C6  UNL d   1       5.232  -4.875  -0.584  0.00  0.00    -0.075 A 
ATOM      6  C7  UNL d   1       5.830  -5.813  -1.591  0.00  0.00     0.076 C 
ATOM      7  C8  UNL d   1       3.889  -5.016  -0.209  0.00  0.00     0.001 A 
ENDROOT
BRANCH   1   8
ATOM      8  C1  UNL d   1       1.863  -4.315   1.126  0.00  0.00     0.053 C 
ATOM      9  C   UNL d   1       1.227  -2.986   1.501  0.00  0.00     0.018 C 
ENDBRANCH   1   8
TORSDOF 1
ENDMDL
