MODEL 1
REMARK minimizedAffinity -4.73290968
REMARK minimizedRMSD -1
REMARK  0 active torsions:
REMARK  status: ('A' for Active; 'I' for Inactive)
ROOT
ATOM      1  C1  BNZ d   1      -0.275   2.606  -1.224  0.00  0.00     0.000 A 
ATOM      2  C2  BNZ d   1      -0.493   1.920  -0.058  0.00  0.00     0.000 A 
ATOM      3  C3  BNZ d   1       0.308   2.121   1.032  0.00  0.00     0.000 A 
ATOM      4  C4  BNZ d   1       1.348   2.975   0.942  0.00  0.00     0.000 A 
ATOM      5  C5  BNZ d   1       1.586   3.667  -0.229  0.00  0.00     0.000 A 
ATOM      6  C6  BNZ d   1       0.755   3.491  -1.311  0.00  0.00     0.000 A 
ENDROOT
TORSDOF 0
ENDMDL
