MODEL 1
REMARK minimizedAffinity -2.10694814
REMARK minimizedRMSD -1
REMARK  0 active torsions:
REMARK  status: ('A' for Active; 'I' for Inactive)
ROOT
ATOM      1  C1  BNZ d   1       5.998  -3.015  -2.918  0.00  0.00     0.000 A 
ATOM      2  C2  BNZ d   1       4.998  -3.949  -2.974  0.00  0.00     0.000 A 
ATOM      3  C3  BNZ d   1       3.923  -3.776  -3.800  0.00  0.00     0.000 A 
ATOM      4  C4  BNZ d   1       3.830  -2.652  -4.540  0.00  0.00     0.000 A 
ATOM      5  C5  BNZ d   1       4.825  -1.697  -4.488  0.00  0.00     0.000 A 
ATOM      6  C6  BNZ d   1       5.925  -1.893  -3.684  0.00  0.00     0.000 A 
ENDROOT
TORSDOF 0
ENDMDL
