MODEL 1
REMARK minimizedAffinity -0.270086557
REMARK minimizedRMSD -1
REMARK  0 active torsions:
REMARK  status: ('A' for Active; 'I' for Inactive)
ROOT
ATOM      1  C1  BNZ d   1       0.033   2.674  -1.063  0.00  0.00     0.000 A 
ATOM      2  C2  BNZ d   1      -0.274   1.730  -0.120  0.00  0.00     0.000 A 
ATOM      3  C3  BNZ d   1       0.160   1.862   1.169  0.00  0.00     0.000 A 
ATOM      4  C4  BNZ d   1       0.933   2.915   1.504  0.00  0.00     0.000 A 
ATOM      5  C5  BNZ d   1       1.259   3.870   0.562  0.00  0.00     0.000 A 
ATOM      6  C6  BNZ d   1       0.788   3.755  -0.725  0.00  0.00     0.000 A 
ENDROOT
TORSDOF 0
ENDMDL
