MODEL 1
REMARK minimizedAffinity -1.46262598
REMARK minimizedRMSD -1
REMARK  0 active torsions:
REMARK  status: ('A' for Active; 'I' for Inactive)
ROOT
ATOM      1  C1  BNZ d   1       0.442   1.770   0.859  0.00  0.00     0.000 A 
ATOM      2  C2  BNZ d   1       1.204   2.876   0.592  0.00  0.00     0.000 A 
ATOM      3  C3  BNZ d   1       0.950   3.653  -0.503  0.00  0.00     0.000 A 
ATOM      4  C4  BNZ d   1      -0.038   3.301  -1.352  0.00  0.00     0.000 A 
ATOM      5  C5  BNZ d   1      -0.808   2.183  -1.102  0.00  0.00     0.000 A 
ATOM      6  C6  BNZ d   1      -0.575   1.426   0.023  0.00  0.00     0.000 A 
ENDROOT
TORSDOF 0
ENDMDL
