MODEL 1
REMARK minimizedAffinity 1.11384332
REMARK minimizedRMSD -1
REMARK  0 active torsions:
REMARK  status: ('A' for Active; 'I' for Inactive)
ROOT
ATOM      1  C1  BNZ d   1       0.116   2.074  -0.558  0.00  0.00     0.000 A 
ATOM      2  C2  BNZ d   1      -0.006   1.478   0.669  0.00  0.00     0.000 A 
ATOM      3  C3  BNZ d   1       0.787   1.859   1.715  0.00  0.00     0.000 A 
ATOM      4  C4  BNZ d   1       1.728   2.806   1.522  0.00  0.00     0.000 A 
ATOM      5  C5  BNZ d   1       1.870   3.410   0.288  0.00  0.00     0.000 A 
ATOM      6  C6  BNZ d   1       1.043   3.051  -0.751  0.00  0.00     0.000 A 
ENDROOT
TORSDOF 0
ENDMDL
