MODEL 1
REMARK minimizedAffinity 2.50253391
REMARK minimizedRMSD -1
REMARK  0 active torsions:
REMARK  status: ('A' for Active; 'I' for Inactive)
ROOT
ATOM      1  C1  BNZ d   1       0.373   3.015  -1.588  0.00  0.00     0.000 A 
ATOM      2  C2  BNZ d   1       0.366   2.088  -0.580  0.00  0.00     0.000 A 
ATOM      3  C3  BNZ d   1       1.077   2.297   0.569  0.00  0.00     0.000 A 
ATOM      4  C4  BNZ d   1       1.826   3.413   0.691  0.00  0.00     0.000 A 
ATOM      5  C5  BNZ d   1       1.851   4.352  -0.321  0.00  0.00     0.000 A 
ATOM      6  C6  BNZ d   1       1.103   4.156  -1.459  0.00  0.00     0.000 A 
ENDROOT
TORSDOF 0
ENDMDL
