MODEL 1
REMARK minimizedAffinity -0.930169702
REMARK minimizedRMSD -1
REMARK  1 active torsions:
REMARK  status: ('A' for Active; 'I' for Inactive)
REMARK    1  A    between atoms: C3_4  and  O_7 
ROOT
ATOM      1  C   UNL d   1       5.086   1.549  -1.204  0.00  0.00    -0.033 A 
ATOM      2  C1  UNL d   1       4.019   0.682  -0.961  0.00  0.00     0.039 A 
ATOM      3  C2  UNL d   1       3.482  -0.076  -2.003  0.00  0.00    -0.080 A 
ATOM      4  C3  UNL d   1       4.022   0.040  -3.281  0.00  0.00     0.150 A 
ATOM      5  C4  UNL d   1       5.088   0.898  -3.530  0.00  0.00    -0.007 A 
ATOM      6  C5  UNL d   1       5.622   1.656  -2.488  0.00  0.00     0.039 A 
ENDROOT
BRANCH   4   7
ATOM      7  O   UNL d   1       3.528  -0.677  -4.331  0.00  0.00    -0.526 OA
ATOM      8  H5  UNL d   1       2.775  -1.205  -4.016  0.00  0.00     0.418 HD
ENDBRANCH   4   7
TORSDOF 1
ENDMDL
