MODEL 1
REMARK minimizedAffinity 3.24988174
REMARK minimizedRMSD -1
REMARK  1 active torsions:
REMARK  status: ('A' for Active; 'I' for Inactive)
REMARK    1  A    between atoms: C3_4  and  O_7 
ROOT
ATOM      1  C   UNL d   1       2.793   0.005  -0.111  0.00  0.00    -0.033 A 
ATOM      2  C1  UNL d   1       3.743   0.832   0.491  0.00  0.00     0.039 A 
ATOM      3  C2  UNL d   1       4.593   1.611  -0.296  0.00  0.00    -0.080 A 
ATOM      4  C3  UNL d   1       4.482   1.554  -1.683  0.00  0.00     0.150 A 
ATOM      5  C4  UNL d   1       3.535   0.736  -2.289  0.00  0.00    -0.007 A 
ATOM      6  C5  UNL d   1       2.688  -0.042  -1.501  0.00  0.00     0.039 A 
ENDROOT
BRANCH   4   7
ATOM      7  O   UNL d   1       5.292   2.293  -2.493  0.00  0.00    -0.526 OA
ATOM      8  H5  UNL d   1       5.915   2.788  -1.936  0.00  0.00     0.418 HD
ENDBRANCH   4   7
TORSDOF 1
ENDMDL
