MODEL 1
REMARK minimizedAffinity 3.09152269
REMARK minimizedRMSD -1
REMARK  1 active torsions:
REMARK  status: ('A' for Active; 'I' for Inactive)
REMARK    1  A    between atoms: C3_4  and  O_7 
ROOT
ATOM      1  C   UNL d   1       5.887   2.224  -0.485  0.00  0.00    -0.033 A 
ATOM      2  C1  UNL d   1       5.827   2.350  -1.874  0.00  0.00     0.039 A 
ATOM      3  C2  UNL d   1       4.850   1.664  -2.597  0.00  0.00    -0.080 A 
ATOM      4  C3  UNL d   1       3.940   0.856  -1.920  0.00  0.00     0.150 A 
ATOM      5  C4  UNL d   1       3.992   0.729  -0.536  0.00  0.00    -0.007 A 
ATOM      6  C5  UNL d   1       4.969   1.414   0.184  0.00  0.00     0.039 A 
ENDROOT
BRANCH   4   7
ATOM      7  O   UNL d   1       2.971   0.163  -2.583  0.00  0.00    -0.526 OA
ATOM      8  H5  UNL d   1       3.075   0.324  -3.536  0.00  0.00     0.418 HD
ENDBRANCH   4   7
TORSDOF 1
ENDMDL
