MODEL 1
REMARK minimizedAffinity 4.24696732
REMARK minimizedRMSD -1
REMARK  1 active torsions:
REMARK  status: ('A' for Active; 'I' for Inactive)
REMARK    1  A    between atoms: C3_4  and  O_7 
ROOT
ATOM      1  C   UNL d   1       2.130   0.309  -0.409  0.00  0.00    -0.033 A 
ATOM      2  C1  UNL d   1       0.965   0.503  -1.154  0.00  0.00     0.039 A 
ATOM      3  C2  UNL d   1       0.181   1.639  -0.944  0.00  0.00    -0.080 A 
ATOM      4  C3  UNL d   1       0.574   2.573   0.011  0.00  0.00     0.150 A 
ATOM      5  C4  UNL d   1       1.736   2.388   0.753  0.00  0.00    -0.007 A 
ATOM      6  C5  UNL d   1       2.516   1.252   0.543  0.00  0.00     0.039 A 
ENDROOT
BRANCH   4   7
ATOM      7  O   UNL d   1      -0.161   3.695   0.254  0.00  0.00    -0.526 OA
ATOM      8  H5  UNL d   1      -0.950   3.675  -0.312  0.00  0.00     0.418 HD
ENDBRANCH   4   7
TORSDOF 1
ENDMDL
