MODEL 1
REMARK minimizedAffinity 3.69319081
REMARK minimizedRMSD -1
REMARK  1 active torsions:
REMARK  status: ('A' for Active; 'I' for Inactive)
REMARK    1  A    between atoms: C3_4  and  O_7 
ROOT
ATOM      1  C   UNL d   1       3.362   1.143  -0.067  0.00  0.00    -0.033 A 
ATOM      2  C1  UNL d   1       4.188   1.719  -1.034  0.00  0.00     0.039 A 
ATOM      3  C2  UNL d   1       4.089   1.317  -2.368  0.00  0.00    -0.080 A 
ATOM      4  C3  UNL d   1       3.160   0.342  -2.720  0.00  0.00     0.150 A 
ATOM      5  C4  UNL d   1       2.331  -0.232  -1.762  0.00  0.00    -0.007 A 
ATOM      6  C5  UNL d   1       2.433   0.169  -0.431  0.00  0.00     0.039 A 
ENDROOT
BRANCH   4   7
ATOM      7  O   UNL d   1       3.030  -0.085  -4.008  0.00  0.00    -0.526 OA
ATOM      8  H5  UNL d   1       3.687   0.378  -4.554  0.00  0.00     0.418 HD
ENDBRANCH   4   7
TORSDOF 1
ENDMDL
