MODEL 1
REMARK minimizedAffinity -4.54996777
REMARK minimizedRMSD -1
REMARK  1 active torsions:
REMARK  status: ('A' for Active; 'I' for Inactive)
REMARK    1  A    between atoms: C3_4  and  O_7 
ROOT
ATOM      1  C   UNL d   1      -5.300   1.165  -5.801  0.00  0.00    -0.033 A 
ATOM      2  C1  UNL d   1      -5.692   0.330  -4.753  0.00  0.00     0.039 A 
ATOM      3  C2  UNL d   1      -4.753  -0.102  -3.814  0.00  0.00    -0.080 A 
ATOM      4  C3  UNL d   1      -3.428   0.307  -3.934  0.00  0.00     0.150 A 
ATOM      5  C4  UNL d   1      -3.032   1.142  -4.974  0.00  0.00    -0.007 A 
ATOM      6  C5  UNL d   1      -3.970   1.572  -5.911  0.00  0.00     0.039 A 
ENDROOT
BRANCH   4   7
ATOM      7  O   UNL d   1      -2.475  -0.093  -3.046  0.00  0.00    -0.526 OA
ATOM      8  H5  UNL d   1      -2.888  -0.689  -2.399  0.00  0.00     0.418 HD
ENDBRANCH   4   7
TORSDOF 1
ENDMDL
