MODEL 1
REMARK minimizedAffinity 6.19687366
REMARK minimizedRMSD -1
REMARK  1 active torsions:
REMARK  status: ('A' for Active; 'I' for Inactive)
REMARK    1  A    between atoms: C3_4  and  O_7 
ROOT
ATOM      1  C   UNL d   1       2.842   0.306   0.941  0.00  0.00    -0.033 A 
ATOM      2  C1  UNL d   1       2.042  -0.214  -0.078  0.00  0.00     0.039 A 
ATOM      3  C2  UNL d   1       2.340   0.063  -1.413  0.00  0.00    -0.080 A 
ATOM      4  C3  UNL d   1       3.441   0.860  -1.716  0.00  0.00     0.150 A 
ATOM      5  C4  UNL d   1       4.245   1.378  -0.706  0.00  0.00    -0.007 A 
ATOM      6  C5  UNL d   1       3.945   1.101   0.627  0.00  0.00     0.039 A 
ENDROOT
BRANCH   4   7
ATOM      7  O   UNL d   1       3.769   1.162  -3.004  0.00  0.00    -0.526 OA
ATOM      8  H5  UNL d   1       3.109   0.759  -3.593  0.00  0.00     0.418 HD
ENDBRANCH   4   7
TORSDOF 1
ENDMDL
