MODEL 1
REMARK minimizedAffinity 10.979804
REMARK minimizedRMSD -1
REMARK  1 active torsions:
REMARK  status: ('A' for Active; 'I' for Inactive)
REMARK    1  A    between atoms: C3_4  and  O_7 
ROOT
ATOM      1  C   UNL d   1      -5.665   0.615  -6.000  0.00  0.00    -0.033 A 
ATOM      2  C1  UNL d   1      -5.317  -0.699  -5.680  0.00  0.00     0.039 A 
ATOM      3  C2  UNL d   1      -5.298  -1.113  -4.347  0.00  0.00    -0.080 A 
ATOM      4  C3  UNL d   1      -5.631  -0.206  -3.345  0.00  0.00     0.150 A 
ATOM      5  C4  UNL d   1      -5.983   1.103  -3.656  0.00  0.00    -0.007 A 
ATOM      6  C5  UNL d   1      -6.000   1.515  -4.988  0.00  0.00     0.039 A 
ENDROOT
BRANCH   4   7
ATOM      7  O   UNL d   1      -5.623  -0.564  -2.029  0.00  0.00    -0.526 OA
ATOM      8  H5  UNL d   1      -5.333  -1.489  -1.963  0.00  0.00     0.418 HD
ENDBRANCH   4   7
TORSDOF 1
ENDMDL
