MODEL 1
REMARK minimizedAffinity 3.00901437
REMARK minimizedRMSD -1
REMARK  1 active torsions:
REMARK  status: ('A' for Active; 'I' for Inactive)
REMARK    1  A    between atoms: C3_4  and  O_7 
ROOT
ATOM      1  C   UNL d   1      -1.987   3.199   0.207  0.00  0.00    -0.033 A 
ATOM      2  C1  UNL d   1      -2.038   2.110  -0.665  0.00  0.00     0.039 A 
ATOM      3  C2  UNL d   1      -0.868   1.428  -1.003  0.00  0.00    -0.080 A 
ATOM      4  C3  UNL d   1       0.346   1.844  -0.462  0.00  0.00     0.150 A 
ATOM      5  C4  UNL d   1       0.404   2.926   0.410  0.00  0.00    -0.007 A 
ATOM      6  C5  UNL d   1      -0.766   3.606   0.746  0.00  0.00     0.039 A 
ENDROOT
BRANCH   4   7
ATOM      7  O   UNL d   1       1.515   1.214  -0.767  0.00  0.00    -0.526 OA
ATOM      8  H5  UNL d   1       1.326   0.504  -1.403  0.00  0.00     0.418 HD
ENDBRANCH   4   7
TORSDOF 1
ENDMDL
