MODEL 1
REMARK minimizedAffinity -3.26253533
REMARK minimizedRMSD -1
REMARK  0 active torsions:
REMARK  status: ('A' for Active; 'I' for Inactive)
ROOT
ATOM      1  C2' OXE d   1       0.713  -2.307   0.037  0.00  0.00     0.078 C 
ATOM      2  C1' OXE d   1       2.764  -0.801  -1.148  0.00  0.00     0.078 C 
ATOM      3  C1  OXE d   1       1.394  -0.176  -1.058  0.00  0.00    -0.078 A 
ATOM      4  C2  OXE d   1       0.386  -0.938  -0.519  0.00  0.00    -0.078 A 
ATOM      5  C3  OXE d   1      -0.884  -0.390  -0.363  0.00  0.00     0.003 A 
ATOM      6  C4  OXE d   1      -1.181   0.873  -0.889  0.00  0.00    -0.002 A 
ATOM      7  C5  OXE d   1      -0.178   1.650  -1.478  0.00  0.00    -0.002 A 
ATOM      8  C6  OXE d   1       1.122   1.158  -1.532  0.00  0.00     0.003 A 
ENDROOT
TORSDOF 0
ENDMDL
