MODEL 1
REMARK minimizedAffinity 0.0900810212
REMARK minimizedRMSD -1
REMARK  0 active torsions:
REMARK  status: ('A' for Active; 'I' for Inactive)
ROOT
ATOM      1  C2' OXE d   1      -1.318   0.017   1.040  0.00  0.00     0.078 C 
ATOM      2  C1' OXE d   1      -0.264  -2.576   0.828  0.00  0.00     0.078 C 
ATOM      3  C1  OXE d   1       0.343  -1.497  -0.033  0.00  0.00    -0.078 A 
ATOM      4  C2  OXE d   1      -0.210  -0.241   0.043  0.00  0.00    -0.078 A 
ATOM      5  C3  OXE d   1       0.348   0.803  -0.689  0.00  0.00     0.003 A 
ATOM      6  C4  OXE d   1       1.366   0.553  -1.617  0.00  0.00    -0.002 A 
ATOM      7  C5  OXE d   1       1.917  -0.727  -1.739  0.00  0.00    -0.002 A 
ATOM      8  C6  OXE d   1       1.447  -1.752  -0.926  0.00  0.00     0.003 A 
ENDROOT
TORSDOF 0
ENDMDL
