MODEL 1
REMARK minimizedAffinity -5.76559067
REMARK minimizedRMSD -1
REMARK  0 active torsions:
REMARK  status: ('A' for Active; 'I' for Inactive)
ROOT
ATOM      1  C2' OXE d   1      -0.625  -2.374  -0.112  0.00  0.00     0.078 C 
ATOM      2  C1' OXE d   1      -1.319   0.332   0.161  0.00  0.00     0.078 C 
ATOM      3  C1  OXE d   1       0.072   0.008  -0.324  0.00  0.00    -0.078 A 
ATOM      4  C2  OXE d   1       0.418  -1.319  -0.410  0.00  0.00    -0.078 A 
ATOM      5  C3  OXE d   1       1.670  -1.674  -0.904  0.00  0.00     0.003 A 
ATOM      6  C4  OXE d   1       2.632  -0.692  -1.168  0.00  0.00    -0.002 A 
ATOM      7  C5  OXE d   1       2.313   0.665  -1.049  0.00  0.00    -0.002 A 
ATOM      8  C6  OXE d   1       1.027   1.032  -0.670  0.00  0.00     0.003 A 
ENDROOT
TORSDOF 0
ENDMDL
