MODEL 1
REMARK minimizedAffinity -5.56980371
REMARK minimizedRMSD -1
REMARK  0 active torsions:
REMARK  status: ('A' for Active; 'I' for Inactive)
ROOT
ATOM      1  C2' OXE d   1      -0.509   1.728  -1.801  0.00  0.00     0.078 C 
ATOM      2  C1' OXE d   1      -1.342   0.285   0.458  0.00  0.00     0.078 C 
ATOM      3  C1  OXE d   1      -0.087  -0.170  -0.243  0.00  0.00    -0.078 A 
ATOM      4  C2  OXE d   1       0.288   0.514  -1.374  0.00  0.00    -0.078 A 
ATOM      5  C3  OXE d   1       1.469   0.170  -2.028  0.00  0.00     0.003 A 
ATOM      6  C4  OXE d   1       2.194  -0.960  -1.633  0.00  0.00    -0.002 A 
ATOM      7  C5  OXE d   1       1.808  -1.694  -0.506  0.00  0.00    -0.002 A 
ATOM      8  C6  OXE d   1       0.696  -1.287   0.224  0.00  0.00     0.003 A 
ENDROOT
TORSDOF 0
ENDMDL
