MODEL 1
REMARK minimizedAffinity -6.326087
REMARK minimizedRMSD -1
REMARK  0 active torsions:
REMARK  status: ('A' for Active; 'I' for Inactive)
ROOT
ATOM      1  C2' OXE d   1      -0.002  -2.312   0.480  0.00  0.00     0.078 C 
ATOM      2  C1' OXE d   1      -1.218   0.197   0.149  0.00  0.00     0.078 C 
ATOM      3  C1  OXE d   1       0.204   0.036  -0.326  0.00  0.00    -0.078 A 
ATOM      4  C2  OXE d   1       0.807  -1.181  -0.118  0.00  0.00    -0.078 A 
ATOM      5  C3  OXE d   1       2.100  -1.399  -0.587  0.00  0.00     0.003 A 
ATOM      6  C4  OXE d   1       2.844  -0.345  -1.129  0.00  0.00    -0.002 A 
ATOM      7  C5  OXE d   1       2.262   0.914  -1.314  0.00  0.00    -0.002 A 
ATOM      8  C6  OXE d   1       0.933   1.109  -0.958  0.00  0.00     0.003 A 
ENDROOT
TORSDOF 0
ENDMDL
