MODEL 1
REMARK minimizedAffinity -4.55227709
REMARK minimizedRMSD -1
REMARK  0 active torsions:
REMARK  status: ('A' for Active; 'I' for Inactive)
ROOT
ATOM      1  C2' OXE d   1       1.784   1.780  -1.544  0.00  0.00     0.078 C 
ATOM      2  C1' OXE d   1       2.657  -0.885  -1.415  0.00  0.00     0.078 C 
ATOM      3  C1  OXE d   1       1.297  -0.562  -0.848  0.00  0.00    -0.078 A 
ATOM      4  C2  OXE d   1       0.898   0.753  -0.874  0.00  0.00    -0.078 A 
ATOM      5  C3  OXE d   1      -0.370   1.097  -0.414  0.00  0.00     0.003 A 
ATOM      6  C4  OXE d   1      -1.180   0.143   0.214  0.00  0.00    -0.002 A 
ATOM      7  C5  OXE d   1      -0.776  -1.194   0.286  0.00  0.00    -0.002 A 
ATOM      8  C6  OXE d   1       0.439  -1.570  -0.277  0.00  0.00     0.003 A 
ENDROOT
TORSDOF 0
ENDMDL
