MODEL 1
REMARK minimizedAffinity -4.66268396
REMARK minimizedRMSD -1
REMARK  0 active torsions:
REMARK  status: ('A' for Active; 'I' for Inactive)
ROOT
ATOM      1  C2' OXE d   1      -2.034  -0.603  -0.066  0.00  0.00     0.078 C 
ATOM      2  C1' OXE d   1      -1.115   1.980  -0.670  0.00  0.00     0.078 C 
ATOM      3  C1  OXE d   1      -0.116   0.850  -0.713  0.00  0.00    -0.078 A 
ATOM      4  C2  OXE d   1      -0.565  -0.403  -0.370  0.00  0.00    -0.078 A 
ATOM      5  C3  OXE d   1       0.302  -1.489  -0.446  0.00  0.00     0.003 A 
ATOM      6  C4  OXE d   1       1.662  -1.294  -0.718  0.00  0.00    -0.002 A 
ATOM      7  C5  OXE d   1       2.147  -0.020  -1.031  0.00  0.00    -0.002 A 
ATOM      8  C6  OXE d   1       1.265   1.054  -1.074  0.00  0.00     0.003 A 
ENDROOT
TORSDOF 0
ENDMDL
