MODEL 1
REMARK minimizedAffinity -4.303123
REMARK minimizedRMSD -1
REMARK  0 active torsions:
REMARK  status: ('A' for Active; 'I' for Inactive)
ROOT
ATOM      1  C2' OXE d   1       1.226   1.953  -1.791  0.00  0.00     0.078 C 
ATOM      2  C1' OXE d   1       2.621  -0.483  -1.756  0.00  0.00     0.078 C 
ATOM      3  C1  OXE d   1       1.291  -0.424  -1.047  0.00  0.00    -0.078 A 
ATOM      4  C2  OXE d   1       0.637   0.785  -1.029  0.00  0.00    -0.078 A 
ATOM      5  C3  OXE d   1      -0.618   0.881  -0.436  0.00  0.00     0.003 A 
ATOM      6  C4  OXE d   1      -1.150  -0.202   0.275  0.00  0.00    -0.002 A 
ATOM      7  C5  OXE d   1      -0.482  -1.430   0.303  0.00  0.00    -0.002 A 
ATOM      8  C6  OXE d   1       0.717  -1.570  -0.387  0.00  0.00     0.003 A 
ENDROOT
TORSDOF 0
ENDMDL
