MODEL 1
REMARK minimizedAffinity -5.99325323
REMARK minimizedRMSD -1
REMARK  0 active torsions:
REMARK  status: ('A' for Active; 'I' for Inactive)
ROOT
ATOM      1  C2' OXE d   1      -0.646  -2.389  -0.333  0.00  0.00     0.078 C 
ATOM      2  C1' OXE d   1      -1.053   0.262   0.499  0.00  0.00     0.078 C 
ATOM      3  C1  OXE d   1       0.246  -0.067  -0.193  0.00  0.00    -0.078 A 
ATOM      4  C2  OXE d   1       0.457  -1.376  -0.554  0.00  0.00    -0.078 A 
ATOM      5  C3  OXE d   1       1.615  -1.723  -1.244  0.00  0.00     0.003 A 
ATOM      6  C4  OXE d   1       2.634  -0.783  -1.437  0.00  0.00    -0.002 A 
ATOM      7  C5  OXE d   1       2.457   0.547  -1.041  0.00  0.00    -0.002 A 
ATOM      8  C6  OXE d   1       1.254   0.930  -0.457  0.00  0.00     0.003 A 
ENDROOT
TORSDOF 0
ENDMDL
