MODEL 1
REMARK minimizedAffinity -3.52665925
REMARK minimizedRMSD -1
REMARK  0 active torsions:
REMARK  status: ('A' for Active; 'I' for Inactive)
ROOT
ATOM      1  C2' OXE d   1      -0.472  -2.204  -0.301  0.00  0.00     0.078 C 
ATOM      2  C1' OXE d   1      -0.694   0.379   0.776  0.00  0.00     0.078 C 
ATOM      3  C1  OXE d   1       0.536   0.059  -0.037  0.00  0.00    -0.078 A 
ATOM      4  C2  OXE d   1       0.658  -1.222  -0.520  0.00  0.00    -0.078 A 
ATOM      5  C3  OXE d   1       1.746  -1.554  -1.322  0.00  0.00     0.003 A 
ATOM      6  C4  OXE d   1       2.792  -0.643  -1.511  0.00  0.00    -0.002 A 
ATOM      7  C5  OXE d   1       2.706   0.654  -0.994  0.00  0.00    -0.002 A 
ATOM      8  C6  OXE d   1       1.567   1.033  -0.292  0.00  0.00     0.003 A 
ENDROOT
TORSDOF 0
ENDMDL
