MODEL 1
REMARK minimizedAffinity -6.10308409
REMARK minimizedRMSD -1
REMARK  0 active torsions:
REMARK  status: ('A' for Active; 'I' for Inactive)
ROOT
ATOM      1  C2' OXE d   1      -0.437  -2.209  -0.209  0.00  0.00     0.078 C 
ATOM      2  C1' OXE d   1      -1.068   0.516   0.029  0.00  0.00     0.078 C 
ATOM      3  C1  OXE d   1       0.323   0.153  -0.426  0.00  0.00    -0.078 A 
ATOM      4  C2  OXE d   1       0.638  -1.183  -0.495  0.00  0.00    -0.078 A 
ATOM      5  C3  OXE d   1       1.890  -1.573  -0.962  0.00  0.00     0.003 A 
ATOM      6  C4  OXE d   1       2.882  -0.617  -1.214  0.00  0.00    -0.002 A 
ATOM      7  C5  OXE d   1       2.594   0.748  -1.112  0.00  0.00    -0.002 A 
ATOM      8  C6  OXE d   1       1.310   1.150  -0.761  0.00  0.00     0.003 A 
ENDROOT
TORSDOF 0
ENDMDL
