MODEL 1
REMARK minimizedAffinity -2.14250898
REMARK minimizedRMSD -1
REMARK  0 active torsions:
REMARK  status: ('A' for Active; 'I' for Inactive)
ROOT
ATOM      1  C2' OXE d   1      -0.598  -2.463  -0.731  0.00  0.00     0.078 C 
ATOM      2  C1' OXE d   1       1.854  -1.712  -1.874  0.00  0.00     0.078 C 
ATOM      3  C1  OXE d   1       1.063  -0.653  -1.146  0.00  0.00    -0.078 A 
ATOM      4  C2  OXE d   1      -0.158  -1.018  -0.631  0.00  0.00    -0.078 A 
ATOM      5  C3  OXE d   1      -0.903  -0.095   0.096  0.00  0.00     0.003 A 
ATOM      6  C4  OXE d   1      -0.493   1.241   0.176  0.00  0.00    -0.002 A 
ATOM      7  C5  OXE d   1       0.728   1.644  -0.376  0.00  0.00    -0.002 A 
ATOM      8  C6  OXE d   1       1.536   0.701  -1.002  0.00  0.00     0.003 A 
ENDROOT
TORSDOF 0
ENDMDL
