MODEL 1
REMARK minimizedAffinity -4.99415684
REMARK minimizedRMSD -1
REMARK  0 active torsions:
REMARK  status: ('A' for Active; 'I' for Inactive)
ROOT
ATOM      1  C2' OXE d   1      -0.235  -2.363   0.220  0.00  0.00     0.078 C 
ATOM      2  C1' OXE d   1      -1.017   0.321   0.481  0.00  0.00     0.078 C 
ATOM      3  C1  OXE d   1       0.338   0.038  -0.117  0.00  0.00    -0.078 A 
ATOM      4  C2  OXE d   1       0.732  -1.276  -0.197  0.00  0.00    -0.078 A 
ATOM      5  C3  OXE d   1       1.950  -1.596  -0.790  0.00  0.00     0.003 A 
ATOM      6  C4  OXE d   1       2.843  -0.585  -1.165  0.00  0.00    -0.002 A 
ATOM      7  C5  OXE d   1       2.478   0.761  -1.055  0.00  0.00    -0.002 A 
ATOM      8  C6  OXE d   1       1.215   1.088  -0.573  0.00  0.00     0.003 A 
ENDROOT
TORSDOF 0
ENDMDL
