MODEL 1
REMARK minimizedAffinity -4.40125227
REMARK minimizedRMSD -1
REMARK  0 active torsions:
REMARK  status: ('A' for Active; 'I' for Inactive)
ROOT
ATOM      1  C2' OXE d   1       3.131  -0.400  -1.595  0.00  0.00     0.078 C 
ATOM      2  C1' OXE d   1       1.218   1.653  -1.670  0.00  0.00     0.078 C 
ATOM      3  C1  OXE d   1       0.839   0.363  -0.987  0.00  0.00    -0.078 A 
ATOM      4  C2  OXE d   1       1.764  -0.653  -0.996  0.00  0.00    -0.078 A 
ATOM      5  C3  OXE d   1       1.486  -1.844  -0.333  0.00  0.00     0.003 A 
ATOM      6  C4  OXE d   1       0.215  -2.074   0.210  0.00  0.00    -0.002 A 
ATOM      7  C5  OXE d   1      -0.755  -1.067   0.195  0.00  0.00    -0.002 A 
ATOM      8  C6  OXE d   1      -0.446   0.170  -0.361  0.00  0.00     0.003 A 
ENDROOT
TORSDOF 0
ENDMDL
