MODEL 1
REMARK minimizedAffinity -4.24944258
REMARK minimizedRMSD -1
REMARK  0 active torsions:
REMARK  status: ('A' for Active; 'I' for Inactive)
ROOT
ATOM      1  C2' OXE d   1       3.062  -0.727  -1.509  0.00  0.00     0.078 C 
ATOM      2  C1' OXE d   1       1.456   1.562  -1.757  0.00  0.00     0.078 C 
ATOM      3  C1  OXE d   1       0.893   0.386  -0.998  0.00  0.00    -0.078 A 
ATOM      4  C2  OXE d   1       1.667  -0.747  -0.922  0.00  0.00    -0.078 A 
ATOM      5  C3  OXE d   1       1.218  -1.840  -0.187  0.00  0.00     0.003 A 
ATOM      6  C4  OXE d   1      -0.077  -1.854   0.344  0.00  0.00    -0.002 A 
ATOM      7  C5  OXE d   1      -0.897  -0.725   0.244  0.00  0.00    -0.002 A 
ATOM      8  C6  OXE d   1      -0.412   0.416  -0.386  0.00  0.00     0.003 A 
ENDROOT
TORSDOF 0
ENDMDL
