MODEL 1
REMARK minimizedAffinity -5.35720444
REMARK minimizedRMSD -1
REMARK  0 active torsions:
REMARK  status: ('A' for Active; 'I' for Inactive)
ROOT
ATOM      1  C2' OXE d   1       1.623   1.911  -1.249  0.00  0.00     0.078 C 
ATOM      2  C1' OXE d   1       3.452  -0.215  -1.120  0.00  0.00     0.078 C 
ATOM      3  C1  OXE d   1       1.992  -0.529  -0.909  0.00  0.00    -0.078 A 
ATOM      4  C2  OXE d   1       1.110   0.524  -0.928  0.00  0.00    -0.078 A 
ATOM      5  C3  OXE d   1      -0.254   0.282  -0.793  0.00  0.00     0.003 A 
ATOM      6  C4  OXE d   1      -0.720  -1.002  -0.486  0.00  0.00    -0.002 A 
ATOM      7  C5  OXE d   1       0.167  -2.082  -0.423  0.00  0.00    -0.002 A 
ATOM      8  C6  OXE d   1       1.518  -1.871  -0.674  0.00  0.00     0.003 A 
ENDROOT
TORSDOF 0
ENDMDL
