MODEL 1
REMARK minimizedAffinity -4.03943491
REMARK minimizedRMSD -1
REMARK  0 active torsions:
REMARK  status: ('A' for Active; 'I' for Inactive)
ROOT
ATOM      1  C2' OXE d   1       1.027   0.333  -0.017  0.00  0.00     0.078 C 
ATOM      2  C1' OXE d   1      -1.346  -1.067  -0.555  0.00  0.00     0.078 C 
ATOM      3  C1  OXE d   1      -1.317  -0.172   0.659  0.00  0.00    -0.078 A 
ATOM      4  C2  OXE d   1      -0.137   0.472   0.941  0.00  0.00    -0.078 A 
ATOM      5  C3  OXE d   1      -0.071   1.352   2.018  0.00  0.00     0.003 A 
ATOM      6  C4  OXE d   1      -1.149   1.468   2.905  0.00  0.00    -0.002 A 
ATOM      7  C5  OXE d   1      -2.347   0.789   2.659  0.00  0.00    -0.002 A 
ATOM      8  C6  OXE d   1      -2.462  -0.000   1.519  0.00  0.00     0.003 A 
ENDROOT
TORSDOF 0
ENDMDL
