MODEL 1
REMARK minimizedAffinity -4.72293949
REMARK minimizedRMSD -1
REMARK  0 active torsions:
REMARK  status: ('A' for Active; 'I' for Inactive)
ROOT
ATOM      1  C2' OXE d   1      -1.209   0.647   0.325  0.00  0.00     0.078 C 
ATOM      2  C1' OXE d   1       0.542   2.090  -1.328  0.00  0.00     0.078 C 
ATOM      3  C1  OXE d   1       0.888   0.654  -1.020  0.00  0.00    -0.078 A 
ATOM      4  C2  OXE d   1       0.050  -0.030  -0.173  0.00  0.00    -0.078 A 
ATOM      5  C3  OXE d   1       0.293  -1.373   0.101  0.00  0.00     0.003 A 
ATOM      6  C4  OXE d   1       1.465  -1.989  -0.356  0.00  0.00    -0.002 A 
ATOM      7  C5  OXE d   1       2.352  -1.298  -1.188  0.00  0.00    -0.002 A 
ATOM      8  C6  OXE d   1       2.057   0.008  -1.564  0.00  0.00     0.003 A 
ENDROOT
TORSDOF 0
ENDMDL
