MODEL 1
REMARK minimizedAffinity -0.265073121
REMARK minimizedRMSD -1
REMARK  0 active torsions:
REMARK  status: ('A' for Active; 'I' for Inactive)
ROOT
ATOM      1  C   UNL d   1      -0.397  -0.526  -0.427  0.00  0.00     0.124 A 
ATOM      2  C1  UNL d   1      -0.434   0.753  -0.964  0.00  0.00     0.062 A 
ATOM      3  C2  UNL d   1       0.211   1.803  -0.317  0.00  0.00     0.162 A 
ATOM      4  C3  UNL d   1       0.899   1.579   0.875  0.00  0.00    -0.034 A 
ATOM      5  C4  UNL d   1       0.931   0.290   1.410  0.00  0.00     0.162 A 
ATOM      6  C5  UNL d   1       0.285  -0.757   0.760  0.00  0.00     0.062 A 
ATOM      7  F   UNL d   1       0.322  -1.992   1.281  0.00  0.00    -0.097 F 
ATOM      8  F1  UNL d   1       1.584   0.039   2.555  0.00  0.00    -0.096 F 
ATOM      9  I   UNL d   1       1.864   3.146   1.846  0.00  0.00    -0.060 I 
ATOM     10  F2  UNL d   1       0.158   3.029  -0.860  0.00  0.00    -0.096 F 
ATOM     11  F3  UNL d   1      -1.093   0.978  -2.110  0.00  0.00    -0.097 F 
ATOM     12  F4  UNL d   1      -1.019  -1.535  -1.051  0.00  0.00    -0.092 F 
ENDROOT
TORSDOF 0
ENDMDL
