MODEL 1
REMARK minimizedAffinity -3.99168968
REMARK minimizedRMSD -1
REMARK  0 active torsions:
REMARK  status: ('A' for Active; 'I' for Inactive)
ROOT
ATOM      1  C   UNL d   1      -1.011  -2.209  -0.594  0.00  0.00     0.124 A 
ATOM      2  C1  UNL d   1      -0.402  -1.421  -1.562  0.00  0.00     0.062 A 
ATOM      3  C2  UNL d   1       0.019  -0.132  -1.250  0.00  0.00     0.162 A 
ATOM      4  C3  UNL d   1      -0.165   0.378   0.035  0.00  0.00    -0.034 A 
ATOM      5  C4  UNL d   1      -0.779  -0.420   1.002  0.00  0.00     0.162 A 
ATOM      6  C5  UNL d   1      -1.199  -1.708   0.686  0.00  0.00     0.062 A 
ATOM      7  F   UNL d   1      -1.786  -2.468   1.622  0.00  0.00    -0.097 F 
ATOM      8  F1  UNL d   1      -0.972   0.039   2.248  0.00  0.00    -0.096 F 
ATOM      9  I   UNL d   1       0.464   2.305   0.504  0.00  0.00    -0.060 I 
ATOM     10  F2  UNL d   1       0.604   0.607  -2.205  0.00  0.00    -0.096 F 
ATOM     11  F3  UNL d   1      -0.221  -1.903  -2.800  0.00  0.00    -0.097 F 
ATOM     12  F4  UNL d   1      -1.417  -3.449  -0.897  0.00  0.00    -0.092 F 
ENDROOT
TORSDOF 0
ENDMDL
