MODEL 1
REMARK minimizedAffinity -0.60569793
REMARK minimizedRMSD -1
REMARK  0 active torsions:
REMARK  status: ('A' for Active; 'I' for Inactive)
ROOT
ATOM      1  C   UNL d   1      -0.402  -3.409   0.153  0.00  0.00     0.124 A 
ATOM      2  C1  UNL d   1      -1.241  -2.536   0.831  0.00  0.00     0.062 A 
ATOM      3  C2  UNL d   1      -0.970  -1.171   0.841  0.00  0.00     0.162 A 
ATOM      4  C3  UNL d   1       0.144  -0.669   0.168  0.00  0.00    -0.034 A 
ATOM      5  C4  UNL d   1       0.984  -1.554  -0.512  0.00  0.00     0.162 A 
ATOM      6  C5  UNL d   1       0.709  -2.917  -0.518  0.00  0.00     0.062 A 
ATOM      7  F   UNL d   1       1.520  -3.760  -1.175  0.00  0.00    -0.097 F 
ATOM      8  F1  UNL d   1       2.063  -1.106  -1.169  0.00  0.00    -0.096 F 
ATOM      9  I   UNL d   1       0.552   1.372   0.179  0.00  0.00    -0.060 I 
ATOM     10  F2  UNL d   1      -1.798  -0.350   1.505  0.00  0.00    -0.096 F 
ATOM     11  F3  UNL d   1      -2.314  -3.008   1.481  0.00  0.00    -0.097 F 
ATOM     12  F4  UNL d   1      -0.664  -4.722   0.146  0.00  0.00    -0.092 F 
ENDROOT
TORSDOF 0
ENDMDL
