MODEL 1
REMARK minimizedAffinity 0.591238439
REMARK minimizedRMSD -1
REMARK  0 active torsions:
REMARK  status: ('A' for Active; 'I' for Inactive)
ROOT
ATOM      1  C   UNL d   1      -0.510  -2.059  -0.313  0.00  0.00     0.124 A 
ATOM      2  C1  UNL d   1      -0.030  -1.161  -1.256  0.00  0.00     0.062 A 
ATOM      3  C2  UNL d   1       0.110   0.185  -0.932  0.00  0.00     0.162 A 
ATOM      4  C3  UNL d   1      -0.229   0.642   0.341  0.00  0.00    -0.034 A 
ATOM      5  C4  UNL d   1      -0.712  -0.267   1.284  0.00  0.00     0.162 A 
ATOM      6  C5  UNL d   1      -0.850  -1.612   0.956  0.00  0.00     0.062 A 
ATOM      7  F   UNL d   1      -1.314  -2.478   1.868  0.00  0.00    -0.097 F 
ATOM      8  F1  UNL d   1      -1.047   0.138   2.518  0.00  0.00    -0.096 F 
ATOM      9  I   UNL d   1      -0.020   2.654   0.830  0.00  0.00    -0.060 I 
ATOM     10  F2  UNL d   1       0.576   1.031  -1.863  0.00  0.00    -0.096 F 
ATOM     11  F3  UNL d   1       0.298  -1.590  -2.483  0.00  0.00    -0.097 F 
ATOM     12  F4  UNL d   1      -0.645  -3.354  -0.628  0.00  0.00    -0.092 F 
ENDROOT
TORSDOF 0
ENDMDL
