MODEL 1
REMARK minimizedAffinity 0.452489972
REMARK minimizedRMSD -1
REMARK  0 active torsions:
REMARK  status: ('A' for Active; 'I' for Inactive)
ROOT
ATOM      1  C   UNL d   1      -0.187  -1.945  -0.568  0.00  0.00     0.124 A 
ATOM      2  C1  UNL d   1       0.145  -1.026  -1.555  0.00  0.00     0.062 A 
ATOM      3  C2  UNL d   1       0.299   0.319  -1.235  0.00  0.00     0.162 A 
ATOM      4  C3  UNL d   1       0.122   0.756   0.078  0.00  0.00    -0.034 A 
ATOM      5  C4  UNL d   1      -0.213  -0.173   1.065  0.00  0.00     0.162 A 
ATOM      6  C5  UNL d   1      -0.366  -1.518   0.740  0.00  0.00     0.062 A 
ATOM      7  F   UNL d   1      -0.687  -2.403   1.694  0.00  0.00    -0.097 F 
ATOM      8  F1  UNL d   1      -0.391   0.212   2.337  0.00  0.00    -0.096 F 
ATOM      9  I   UNL d   1       0.351   2.767   0.560  0.00  0.00    -0.060 I 
ATOM     10  F2  UNL d   1       0.620   1.185  -2.208  0.00  0.00    -0.096 F 
ATOM     11  F3  UNL d   1       0.317  -1.436  -2.820  0.00  0.00    -0.097 F 
ATOM     12  F4  UNL d   1      -0.335  -3.239  -0.879  0.00  0.00    -0.092 F 
ENDROOT
TORSDOF 0
ENDMDL
