MODEL 1
REMARK minimizedAffinity 6.40226889
REMARK minimizedRMSD -1
REMARK  0 active torsions:
REMARK  status: ('A' for Active; 'I' for Inactive)
ROOT
ATOM      1  C   UNL d   1      -1.100  -2.299   0.857  0.00  0.00     0.124 A 
ATOM      2  C1  UNL d   1      -1.051  -2.852  -0.415  0.00  0.00     0.062 A 
ATOM      3  C2  UNL d   1      -0.465  -2.148  -1.462  0.00  0.00     0.162 A 
ATOM      4  C3  UNL d   1       0.077  -0.881  -1.242  0.00  0.00    -0.034 A 
ATOM      5  C4  UNL d   1       0.023  -0.331   0.039  0.00  0.00     0.162 A 
ATOM      6  C5  UNL d   1      -0.563  -1.039   1.083  0.00  0.00     0.062 A 
ATOM      7  F   UNL d   1      -0.610  -0.503   2.312  0.00  0.00    -0.097 F 
ATOM      8  F1  UNL d   1       0.535   0.884   0.286  0.00  0.00    -0.096 F 
ATOM      9  I   UNL d   1       0.954   0.176  -2.806  0.00  0.00    -0.060 I 
ATOM     10  F2  UNL d   1      -0.432  -2.707  -2.681  0.00  0.00    -0.096 F 
ATOM     11  F3  UNL d   1      -1.569  -4.069  -0.635  0.00  0.00    -0.097 F 
ATOM     12  F4  UNL d   1      -1.665  -2.979   1.864  0.00  0.00    -0.092 F 
ENDROOT
TORSDOF 0
ENDMDL
