MODEL 1
REMARK minimizedAffinity 2.43336225
REMARK minimizedRMSD -1
REMARK  0 active torsions:
REMARK  status: ('A' for Active; 'I' for Inactive)
ROOT
ATOM      1  C   UNL d   1      -0.755  -2.135  -0.730  0.00  0.00     0.124 A 
ATOM      2  C1  UNL d   1      -0.963  -1.558   0.516  0.00  0.00     0.062 A 
ATOM      3  C2  UNL d   1      -0.592  -0.236   0.746  0.00  0.00     0.162 A 
ATOM      4  C3  UNL d   1      -0.009   0.519  -0.273  0.00  0.00    -0.034 A 
ATOM      5  C4  UNL d   1       0.197  -0.069  -1.522  0.00  0.00     0.162 A 
ATOM      6  C5  UNL d   1      -0.175  -1.390  -1.747  0.00  0.00     0.062 A 
ATOM      7  F   UNL d   1       0.026  -1.946  -2.951  0.00  0.00    -0.097 F 
ATOM      8  F1  UNL d   1       0.755   0.628  -2.523  0.00  0.00    -0.096 F 
ATOM      9  I   UNL d   1       0.547   2.495   0.067  0.00  0.00    -0.060 I 
ATOM     10  F2  UNL d   1      -0.804   0.296   1.959  0.00  0.00    -0.096 F 
ATOM     11  F3  UNL d   1      -1.522  -2.275   1.501  0.00  0.00    -0.097 F 
ATOM     12  F4  UNL d   1      -1.113  -3.407  -0.948  0.00  0.00    -0.092 F 
ENDROOT
TORSDOF 0
ENDMDL
