MODEL 1
REMARK minimizedAffinity -0.730515599
REMARK minimizedRMSD -1
REMARK  0 active torsions:
REMARK  status: ('A' for Active; 'I' for Inactive)
ROOT
ATOM      1  C   UNL d   1      -0.687  -2.623  -0.598  0.00  0.00     0.124 A 
ATOM      2  C1  UNL d   1      -0.151  -1.997  -1.714  0.00  0.00     0.062 A 
ATOM      3  C2  UNL d   1       0.229  -0.659  -1.652  0.00  0.00     0.162 A 
ATOM      4  C3  UNL d   1       0.075   0.062  -0.468  0.00  0.00    -0.034 A 
ATOM      5  C4  UNL d   1      -0.466  -0.575   0.651  0.00  0.00     0.162 A 
ATOM      6  C5  UNL d   1      -0.844  -1.912   0.583  0.00  0.00     0.062 A 
ATOM      7  F   UNL d   1      -1.362  -2.515   1.663  0.00  0.00    -0.097 F 
ATOM      8  F1  UNL d   1      -0.628   0.089   1.805  0.00  0.00    -0.096 F 
ATOM      9  I   UNL d   1       0.641   2.062  -0.371  0.00  0.00    -0.060 I 
ATOM     10  F2  UNL d   1       0.744  -0.079  -2.747  0.00  0.00    -0.096 F 
ATOM     11  F3  UNL d   1       0.001  -2.681  -2.857  0.00  0.00    -0.097 F 
ATOM     12  F4  UNL d   1      -1.052  -3.910  -0.661  0.00  0.00    -0.092 F 
ENDROOT
TORSDOF 0
ENDMDL
