MODEL 1
REMARK minimizedAffinity 0.0684736967
REMARK minimizedRMSD -1
REMARK  0 active torsions:
REMARK  status: ('A' for Active; 'I' for Inactive)
ROOT
ATOM      1  C   UNL d   1      -0.516  -2.004  -0.260  0.00  0.00     0.124 A 
ATOM      2  C1  UNL d   1      -1.226  -1.447   0.795  0.00  0.00     0.062 A 
ATOM      3  C2  UNL d   1      -1.283  -0.065   0.947  0.00  0.00     0.162 A 
ATOM      4  C3  UNL d   1      -0.630   0.771   0.041  0.00  0.00    -0.034 A 
ATOM      5  C4  UNL d   1       0.083   0.203  -1.016  0.00  0.00     0.162 A 
ATOM      6  C5  UNL d   1       0.137  -1.179  -1.164  0.00  0.00     0.062 A 
ATOM      7  F   UNL d   1       0.824  -1.716  -2.183  0.00  0.00    -0.097 F 
ATOM      8  F1  UNL d   1       0.723   0.977  -1.905  0.00  0.00    -0.096 F 
ATOM      9  I   UNL d   1      -0.713   2.838   0.265  0.00  0.00    -0.060 I 
ATOM     10  F2  UNL d   1      -1.977   0.446   1.975  0.00  0.00    -0.096 F 
ATOM     11  F3  UNL d   1      -1.857  -2.242   1.671  0.00  0.00    -0.097 F 
ATOM     12  F4  UNL d   1      -0.462  -3.335  -0.403  0.00  0.00    -0.092 F 
ENDROOT
TORSDOF 0
ENDMDL
