MODEL 1
REMARK minimizedAffinity 1.08686125
REMARK minimizedRMSD -1
REMARK  0 active torsions:
REMARK  status: ('A' for Active; 'I' for Inactive)
ROOT
ATOM      1  C   UNL d   1      -0.276  -0.616  -0.759  0.00  0.00     0.124 A 
ATOM      2  C1  UNL d   1       0.046   0.567  -1.409  0.00  0.00     0.062 A 
ATOM      3  C2  UNL d   1       0.614   1.623  -0.701  0.00  0.00     0.162 A 
ATOM      4  C3  UNL d   1       0.865   1.500   0.665  0.00  0.00    -0.034 A 
ATOM      5  C4  UNL d   1       0.538   0.307   1.313  0.00  0.00     0.162 A 
ATOM      6  C5  UNL d   1      -0.030  -0.745   0.601  0.00  0.00     0.062 A 
ATOM      7  F   UNL d   1      -0.340  -1.888   1.231  0.00  0.00    -0.097 F 
ATOM      8  F1  UNL d   1       0.765   0.155   2.626  0.00  0.00    -0.096 F 
ATOM      9  I   UNL d   1       1.714   3.076   1.727  0.00  0.00    -0.060 I 
ATOM     10  F2  UNL d   1       0.914   2.754  -1.355  0.00  0.00    -0.096 F 
ATOM     11  F3  UNL d   1      -0.192   0.695  -2.722  0.00  0.00    -0.097 F 
ATOM     12  F4  UNL d   1      -0.823  -1.630  -1.442  0.00  0.00    -0.092 F 
ENDROOT
TORSDOF 0
ENDMDL
