MODEL 1
REMARK minimizedAffinity -2.7374661
REMARK minimizedRMSD -1
REMARK  0 active torsions:
REMARK  status: ('A' for Active; 'I' for Inactive)
ROOT
ATOM      1  C   UNL d   1      -0.518  -2.560  -0.676  0.00  0.00     0.124 A 
ATOM      2  C1  UNL d   1      -0.631  -2.059   0.613  0.00  0.00     0.062 A 
ATOM      3  C2  UNL d   1      -0.387  -0.712   0.865  0.00  0.00     0.162 A 
ATOM      4  C3  UNL d   1      -0.028   0.145  -0.175  0.00  0.00    -0.034 A 
ATOM      5  C4  UNL d   1       0.085  -0.366  -1.469  0.00  0.00     0.162 A 
ATOM      6  C5  UNL d   1      -0.160  -1.713  -1.716  0.00  0.00     0.062 A 
ATOM      7  F   UNL d   1      -0.050  -2.195  -2.963  0.00  0.00    -0.097 F 
ATOM      8  F1  UNL d   1       0.428   0.429  -2.493  0.00  0.00    -0.096 F 
ATOM      9  I   UNL d   1       0.337   2.159   0.197  0.00  0.00    -0.060 I 
ATOM     10  F2  UNL d   1      -0.505  -0.256   2.121  0.00  0.00    -0.096 F 
ATOM     11  F3  UNL d   1      -0.976  -2.875   1.620  0.00  0.00    -0.097 F 
ATOM     12  F4  UNL d   1      -0.752  -3.857  -0.916  0.00  0.00    -0.092 F 
ENDROOT
TORSDOF 0
ENDMDL
