MODEL 1
REMARK minimizedAffinity -0.829532385
REMARK minimizedRMSD -1
REMARK  0 active torsions:
REMARK  status: ('A' for Active; 'I' for Inactive)
ROOT
ATOM      1  C   UNL d   1      -0.406  -2.065  -0.479  0.00  0.00     0.124 A 
ATOM      2  C1  UNL d   1       0.101  -1.211  -1.449  0.00  0.00     0.062 A 
ATOM      3  C2  UNL d   1       0.231   0.149  -1.185  0.00  0.00     0.162 A 
ATOM      4  C3  UNL d   1      -0.144   0.664   0.056  0.00  0.00    -0.034 A 
ATOM      5  C4  UNL d   1      -0.653  -0.201   1.026  0.00  0.00     0.162 A 
ATOM      6  C5  UNL d   1      -0.782  -1.560   0.757  0.00  0.00     0.062 A 
ATOM      7  F   UNL d   1      -1.271  -2.384   1.695  0.00  0.00    -0.097 F 
ATOM      8  F1  UNL d   1      -1.023   0.260   2.230  0.00  0.00    -0.096 F 
ATOM      9  I   UNL d   1       0.050   2.697   0.456  0.00  0.00    -0.060 I 
ATOM     10  F2  UNL d   1       0.724   0.951  -2.140  0.00  0.00    -0.096 F 
ATOM     11  F3  UNL d   1       0.464  -1.697  -2.645  0.00  0.00    -0.097 F 
ATOM     12  F4  UNL d   1      -0.531  -3.374  -0.737  0.00  0.00    -0.092 F 
ENDROOT
TORSDOF 0
ENDMDL
