MODEL 1
REMARK minimizedAffinity 0.0532659367
REMARK minimizedRMSD -1
REMARK  0 active torsions:
REMARK  status: ('A' for Active; 'I' for Inactive)
ROOT
ATOM      1  C   UNL d   1      -0.490  -1.899  -0.152  0.00  0.00     0.124 A 
ATOM      2  C1  UNL d   1      -0.750  -1.442   1.133  0.00  0.00     0.062 A 
ATOM      3  C2  UNL d   1      -0.396  -0.146   1.500  0.00  0.00     0.162 A 
ATOM      4  C3  UNL d   1       0.220   0.702   0.580  0.00  0.00    -0.034 A 
ATOM      5  C4  UNL d   1       0.479   0.235  -0.710  0.00  0.00     0.162 A 
ATOM      6  C5  UNL d   1       0.123  -1.060  -1.071  0.00  0.00     0.062 A 
ATOM      7  F   UNL d   1       0.375  -1.500  -2.313  0.00  0.00    -0.097 F 
ATOM      8  F1  UNL d   1       1.070   1.025  -1.619  0.00  0.00    -0.096 F 
ATOM      9  I   UNL d   1       0.750   2.640   1.125  0.00  0.00    -0.060 I 
ATOM     10  F2  UNL d   1      -0.659   0.269   2.748  0.00  0.00    -0.096 F 
ATOM     11  F3  UNL d   1      -1.342  -2.250   2.024  0.00  0.00    -0.097 F 
ATOM     12  F4  UNL d   1      -0.831  -3.146  -0.502  0.00  0.00    -0.092 F 
ENDROOT
TORSDOF 0
ENDMDL
