MODEL 1
REMARK minimizedAffinity 3.30372214
REMARK minimizedRMSD -1
REMARK  0 active torsions:
REMARK  status: ('A' for Active; 'I' for Inactive)
ROOT
ATOM      1  C   UNL d   1      -0.405  -1.892  -0.490  0.00  0.00     0.124 A 
ATOM      2  C1  UNL d   1      -0.757  -1.447   0.776  0.00  0.00     0.062 A 
ATOM      3  C2  UNL d   1      -0.598  -0.107   1.117  0.00  0.00     0.162 A 
ATOM      4  C3  UNL d   1      -0.085   0.799   0.188  0.00  0.00    -0.034 A 
ATOM      5  C4  UNL d   1       0.268   0.344  -1.083  0.00  0.00     0.162 A 
ATOM      6  C5  UNL d   1       0.107  -0.997  -1.418  0.00  0.00     0.062 A 
ATOM      7  F   UNL d   1       0.448  -1.425  -2.643  0.00  0.00    -0.097 F 
ATOM      8  F1  UNL d   1       0.764   1.187  -2.000  0.00  0.00    -0.096 F 
ATOM      9  I   UNL d   1       0.154   2.804   0.693  0.00  0.00    -0.060 I 
ATOM     10  F2  UNL d   1      -0.947   0.295   2.348  0.00  0.00    -0.096 F 
ATOM     11  F3  UNL d   1      -1.252  -2.310   1.676  0.00  0.00    -0.097 F 
ATOM     12  F4  UNL d   1      -0.558  -3.182  -0.815  0.00  0.00    -0.092 F 
ENDROOT
TORSDOF 0
ENDMDL
