MODEL 1
REMARK minimizedAffinity 1.13353992
REMARK minimizedRMSD -1
REMARK  0 active torsions:
REMARK  status: ('A' for Active; 'I' for Inactive)
ROOT
ATOM      1  C   UNL d   1      -0.683  -2.354  -0.610  0.00  0.00     0.124 A 
ATOM      2  C1  UNL d   1      -0.169  -1.535  -1.606  0.00  0.00     0.062 A 
ATOM      3  C2  UNL d   1       0.141  -0.206  -1.328  0.00  0.00     0.162 A 
ATOM      4  C3  UNL d   1      -0.060   0.311  -0.049  0.00  0.00    -0.034 A 
ATOM      5  C4  UNL d   1      -0.577  -0.519   0.947  0.00  0.00     0.162 A 
ATOM      6  C5  UNL d   1      -0.886  -1.846   0.665  0.00  0.00     0.062 A 
ATOM      7  F   UNL d   1      -1.382  -2.636   1.629  0.00  0.00    -0.097 F 
ATOM      8  F1  UNL d   1      -0.783  -0.054   2.189  0.00  0.00    -0.096 F 
ATOM      9  I   UNL d   1       0.404   2.296   0.370  0.00  0.00    -0.060 I 
ATOM     10  F2  UNL d   1       0.636   0.562  -2.310  0.00  0.00    -0.096 F 
ATOM     11  F3  UNL d   1       0.027  -2.023  -2.839  0.00  0.00    -0.097 F 
ATOM     12  F4  UNL d   1      -0.982  -3.631  -0.880  0.00  0.00    -0.092 F 
ENDROOT
TORSDOF 0
ENDMDL
