MODEL 1
REMARK minimizedAffinity 2.64103246
REMARK minimizedRMSD -1
REMARK  0 active torsions:
REMARK  status: ('A' for Active; 'I' for Inactive)
ROOT
ATOM      1  C   UNL d   1      -1.077  -2.609  -0.532  0.00  0.00     0.124 A 
ATOM      2  C1  UNL d   1      -0.331  -1.939  -1.491  0.00  0.00     0.062 A 
ATOM      3  C2  UNL d   1       0.110  -0.640  -1.254  0.00  0.00     0.162 A 
ATOM      4  C3  UNL d   1      -0.194  -0.003  -0.051  0.00  0.00    -0.034 A 
ATOM      5  C4  UNL d   1      -0.946  -0.682   0.909  0.00  0.00     0.162 A 
ATOM      6  C5  UNL d   1      -1.384  -1.980   0.667  0.00  0.00     0.062 A 
ATOM      7  F   UNL d   1      -2.106  -2.626   1.595  0.00  0.00    -0.097 F 
ATOM      8  F1  UNL d   1      -1.256  -0.099   2.076  0.00  0.00    -0.096 F 
ATOM      9  I   UNL d   1       0.463   1.939   0.307  0.00  0.00    -0.060 I 
ATOM     10  F2  UNL d   1       0.830  -0.017  -2.199  0.00  0.00    -0.096 F 
ATOM     11  F3  UNL d   1      -0.033  -2.544  -2.650  0.00  0.00    -0.097 F 
ATOM     12  F4  UNL d   1      -1.501  -3.858  -0.763  0.00  0.00    -0.092 F 
ENDROOT
TORSDOF 0
ENDMDL
