MODEL 1
REMARK minimizedAffinity -4.00377321
REMARK minimizedRMSD -1
REMARK  0 active torsions:
REMARK  status: ('A' for Active; 'I' for Inactive)
ROOT
ATOM      1  C   UNL d   1      -0.388  -2.845  -0.944  0.00  0.00     0.124 A 
ATOM      2  C1  UNL d   1      -0.284  -2.492   0.394  0.00  0.00     0.062 A 
ATOM      3  C2  UNL d   1      -0.003  -1.176   0.752  0.00  0.00     0.162 A 
ATOM      4  C3  UNL d   1       0.173  -0.202  -0.231  0.00  0.00    -0.034 A 
ATOM      5  C4  UNL d   1       0.067  -0.565  -1.575  0.00  0.00     0.162 A 
ATOM      6  C5  UNL d   1      -0.213  -1.882  -1.927  0.00  0.00     0.062 A 
ATOM      7  F   UNL d   1      -0.314  -2.221  -3.221  0.00  0.00    -0.097 F 
ATOM      8  F1  UNL d   1       0.231   0.346  -2.546  0.00  0.00    -0.096 F 
ATOM      9  I   UNL d   1       0.592   1.766   0.298  0.00  0.00    -0.060 I 
ATOM     10  F2  UNL d   1       0.092  -0.864   2.053  0.00  0.00    -0.096 F 
ATOM     11  F3  UNL d   1      -0.452  -3.421   1.346  0.00  0.00    -0.097 F 
ATOM     12  F4  UNL d   1      -0.657  -4.112  -1.285  0.00  0.00    -0.092 F 
ENDROOT
TORSDOF 0
ENDMDL
