MODEL 1
REMARK minimizedAffinity -3.41735172
REMARK minimizedRMSD -1
REMARK  0 active torsions:
REMARK  status: ('A' for Active; 'I' for Inactive)
ROOT
ATOM      1  C   UNL d   1       2.554  -0.064   0.791  0.00  0.00     0.172 C 
ATOM      2  N   UNL d   1       1.118  -0.120   0.657  0.00  0.00    -0.070 N 
ATOM      3  C1  UNL d   1       0.312   0.916   0.264  0.00  0.00    -0.004 A 
ATOM      4  C2  UNL d   1      -0.989   0.461   0.263  0.00  0.00    -0.047 A 
ATOM      5  C3  UNL d   1      -0.964  -0.895   0.670  0.00  0.00    -0.047 A 
ATOM      6  C4  UNL d   1       0.353  -1.228   0.907  0.00  0.00    -0.004 A 
ENDROOT
TORSDOF 0
ENDMDL
