MODEL 1
REMARK minimizedAffinity -1.60552466
REMARK minimizedRMSD -1
REMARK  0 active torsions:
REMARK  status: ('A' for Active; 'I' for Inactive)
ROOT
ATOM      1  C   UNL d   1      -3.815   2.868  -3.061  0.00  0.00     0.172 C 
ATOM      2  N   UNL d   1      -3.374   1.532  -2.735  0.00  0.00    -0.070 N 
ATOM      3  C1  UNL d   1      -3.304   0.479  -3.607  0.00  0.00    -0.004 A 
ATOM      4  C2  UNL d   1      -2.837  -0.615  -2.912  0.00  0.00    -0.047 A 
ATOM      5  C3  UNL d   1      -2.620  -0.206  -1.575  0.00  0.00    -0.047 A 
ATOM      6  C4  UNL d   1      -2.961   1.127  -1.493  0.00  0.00    -0.004 A 
ENDROOT
TORSDOF 0
ENDMDL
