MODEL 1
REMARK minimizedAffinity -3.56911731
REMARK minimizedRMSD -1
REMARK  0 active torsions:
REMARK  status: ('A' for Active; 'I' for Inactive)
ROOT
ATOM      1  C   UNL d   1       0.019  -1.199   1.416  0.00  0.00     0.172 C 
ATOM      2  N   UNL d   1       0.768  -0.057   0.947  0.00  0.00    -0.070 N 
ATOM      3  C1  UNL d   1       2.039   0.277   1.334  0.00  0.00    -0.004 A 
ATOM      4  C2  UNL d   1       2.396   1.426   0.663  0.00  0.00    -0.047 A 
ATOM      5  C3  UNL d   1       1.302   1.797  -0.155  0.00  0.00    -0.047 A 
ATOM      6  C4  UNL d   1       0.308   0.861   0.041  0.00  0.00    -0.004 A 
ENDROOT
TORSDOF 0
ENDMDL
