MODEL 1
REMARK minimizedAffinity -2.32170844
REMARK minimizedRMSD -1
REMARK  0 active torsions:
REMARK  status: ('A' for Active; 'I' for Inactive)
ROOT
ATOM      1  C   UNL d   1       2.647   0.484   0.806  0.00  0.00     0.172 C 
ATOM      2  N   UNL d   1       1.264   0.441   0.394  0.00  0.00    -0.070 N 
ATOM      3  C1  UNL d   1       0.503   1.522   0.039  0.00  0.00    -0.004 A 
ATOM      4  C2  UNL d   1      -0.755   1.064  -0.288  0.00  0.00    -0.047 A 
ATOM      5  C3  UNL d   1      -0.750  -0.342  -0.123  0.00  0.00    -0.047 A 
ATOM      6  C4  UNL d   1       0.513  -0.701   0.300  0.00  0.00    -0.004 A 
ENDROOT
TORSDOF 0
ENDMDL
