MODEL 1
REMARK minimizedAffinity -2.8679831
REMARK minimizedRMSD -1
REMARK  0 active torsions:
REMARK  status: ('A' for Active; 'I' for Inactive)
ROOT
ATOM      1  C   UNL d   1       2.800   0.168   0.776  0.00  0.00     0.172 C 
ATOM      2  N   UNL d   1       1.393   0.091   0.459  0.00  0.00    -0.070 N 
ATOM      3  C1  UNL d   1       0.622   1.122  -0.007  0.00  0.00    -0.004 A 
ATOM      4  C2  UNL d   1      -0.658   0.644  -0.186  0.00  0.00    -0.047 A 
ATOM      5  C3  UNL d   1      -0.657  -0.721   0.187  0.00  0.00    -0.047 A 
ATOM      6  C4  UNL d   1       0.626  -1.037   0.582  0.00  0.00    -0.004 A 
ENDROOT
TORSDOF 0
ENDMDL
