MODEL 1
REMARK minimizedAffinity -3.60751462
REMARK minimizedRMSD -1
REMARK  0 active torsions:
REMARK  status: ('A' for Active; 'I' for Inactive)
ROOT
ATOM      1  C   UNL d   1      -0.744  -0.218  -0.017  0.00  0.00     0.172 C 
ATOM      2  N   UNL d   1       0.514  -0.275   0.690  0.00  0.00    -0.070 N 
ATOM      3  C1  UNL d   1       0.855  -1.199   1.641  0.00  0.00    -0.004 A 
ATOM      4  C2  UNL d   1       2.133  -0.912   2.069  0.00  0.00    -0.047 A 
ATOM      5  C3  UNL d   1       2.575   0.224   1.352  0.00  0.00    -0.047 A 
ATOM      6  C4  UNL d   1       1.553   0.598   0.504  0.00  0.00    -0.004 A 
ENDROOT
TORSDOF 0
ENDMDL
