MODEL 1
REMARK minimizedAffinity -2.33336663
REMARK minimizedRMSD -1
REMARK  2 active torsions:
REMARK  status: ('A' for Active; 'I' for Inactive)
REMARK    1  A    between atoms: C1_2  and  C2_3 
REMARK    2  A    between atoms: C2_3  and  C3_4 
ROOT
ATOM      1  C3  UNL d   1       0.864  -0.205  -1.725  0.00  0.00    -0.075 A 
ATOM      2  C4  UNL d   1       2.083   0.472  -1.880  0.00  0.00     0.002 A 
ATOM      3  C5  UNL d   1       2.499   0.903  -3.140  0.00  0.00     0.002 A 
ATOM      4  C6  UNL d   1       1.709   0.654  -4.260  0.00  0.00    -0.004 A 
ATOM      5  C7  UNL d   1       0.504  -0.033  -4.120  0.00  0.00     0.002 A 
ATOM      6  C8  UNL d   1       0.084  -0.461  -2.860  0.00  0.00     0.002 A 
ENDROOT
BRANCH   1   7
ATOM      7  C2  UNL d   1       0.395  -0.648  -0.360  0.00  0.00     0.056 C 
BRANCH   7   8
ATOM      8  C1  UNL d   1      -0.984  -0.106   0.031  0.00  0.00     0.007 C 
ATOM      9  C   UNL d   1      -1.045   0.401   1.466  0.00  0.00     0.009 C 
ENDBRANCH   7   8
ENDBRANCH   1   7
TORSDOF 2
ENDMDL
