MODEL 1
REMARK minimizedAffinity -2.38156748
REMARK minimizedRMSD -1
REMARK  2 active torsions:
REMARK  status: ('A' for Active; 'I' for Inactive)
REMARK    1  A    between atoms: C1_2  and  C2_3 
REMARK    2  A    between atoms: C2_3  and  C3_4 
ROOT
ATOM      1  C3  UNL d   1       0.742  -0.127  -1.797  0.00  0.00    -0.075 A 
ATOM      2  C4  UNL d   1       1.902   0.627  -2.024  0.00  0.00     0.002 A 
ATOM      3  C5  UNL d   1       2.274   0.981  -3.321  0.00  0.00     0.002 A 
ATOM      4  C6  UNL d   1       1.499   0.577  -4.406  0.00  0.00    -0.004 A 
ATOM      5  C7  UNL d   1       0.354  -0.186  -4.193  0.00  0.00     0.002 A 
ATOM      6  C8  UNL d   1      -0.024  -0.538  -2.896  0.00  0.00     0.002 A 
ENDROOT
BRANCH   1   7
ATOM      7  C2  UNL d   1       0.318  -0.488  -0.393  0.00  0.00     0.056 C 
BRANCH   7   8
ATOM      8  C1  UNL d   1      -1.191  -0.704  -0.234  0.00  0.00     0.007 C 
ATOM      9  C   UNL d   1      -1.901   0.476   0.415  0.00  0.00     0.009 C 
ENDBRANCH   7   8
ENDBRANCH   1   7
TORSDOF 2
ENDMDL
