MODEL 1
REMARK minimizedAffinity -3.93664169
REMARK minimizedRMSD -1
REMARK  2 active torsions:
REMARK  status: ('A' for Active; 'I' for Inactive)
REMARK    1  A    between atoms: C1_2  and  C2_3 
REMARK    2  A    between atoms: C2_3  and  C3_4 
ROOT
ATOM      1  C3  UNL d   1      -0.107   0.670   0.072  0.00  0.00    -0.075 A 
ATOM      2  C4  UNL d   1      -1.447   0.575   0.473  0.00  0.00     0.002 A 
ATOM      3  C5  UNL d   1      -1.802   0.763   1.810  0.00  0.00     0.002 A 
ATOM      4  C6  UNL d   1      -0.822   1.039   2.761  0.00  0.00    -0.004 A 
ATOM      5  C7  UNL d   1       0.515   1.120   2.376  0.00  0.00     0.002 A 
ATOM      6  C8  UNL d   1       0.871   0.936   1.039  0.00  0.00     0.002 A 
ENDROOT
BRANCH   1   7
ATOM      7  C2  UNL d   1       0.279   0.497  -1.378  0.00  0.00     0.056 C 
BRANCH   7   8
ATOM      8  C1  UNL d   1       0.944   1.730  -1.998  0.00  0.00     0.007 C 
ATOM      9  C   UNL d   1       1.536   1.464  -3.376  0.00  0.00     0.009 C 
ENDBRANCH   7   8
ENDBRANCH   1   7
TORSDOF 2
ENDMDL
