MODEL 1
REMARK minimizedAffinity -1.9945544
REMARK minimizedRMSD -1
REMARK  2 active torsions:
REMARK  status: ('A' for Active; 'I' for Inactive)
REMARK    1  A    between atoms: C2'_3  and  C1'_4 
REMARK    2  A    between atoms: C1'_4  and  C1_5 
ROOT
ATOM      1  C1  I4B d   1      -1.061   0.025   0.691  0.00  0.00    -0.075 A 
ATOM      2  C2  I4B d   1       0.303  -0.100   0.769  0.00  0.00     0.003 A 
ATOM      3  C3  I4B d   1       0.972  -1.095   0.017  0.00  0.00     0.002 A 
ATOM      4  C4  I4B d   1       0.238  -1.971  -0.756  0.00  0.00    -0.004 A 
ATOM      5  C5  I4B d   1      -1.143  -1.828  -0.852  0.00  0.00     0.002 A 
ATOM      6  C6  I4B d   1      -1.796  -0.816  -0.134  0.00  0.00     0.003 A 
ENDROOT
BRANCH   1   7
ATOM      7  C1' I4B d   1      -1.739   1.067   1.524  0.00  0.00     0.060 C 
BRANCH   7   8
ATOM      8  C2' I4B d   1      -1.436   0.770   2.979  0.00  0.00    -0.013 C 
ATOM      9  C4' I4B d   1      -1.360   2.037   3.789  0.00  0.00     0.013 C 
ATOM     10  C3' I4B d   1      -2.508  -0.141   3.498  0.00  0.00     0.013 C 
ENDBRANCH   7   8
ENDBRANCH   1   7
TORSDOF 2
ENDMDL
