MODEL 1
REMARK minimizedAffinity -3.10896039
REMARK minimizedRMSD -1
REMARK  2 active torsions:
REMARK  status: ('A' for Active; 'I' for Inactive)
REMARK    1  A    between atoms: C2'_3  and  C1'_4 
REMARK    2  A    between atoms: C1'_4  and  C1_5 
ROOT
ATOM      1  C1  I4B d   1      -0.172   0.437   0.367  0.00  0.00    -0.075 A 
ATOM      2  C2  I4B d   1       0.398   1.488  -0.307  0.00  0.00     0.003 A 
ATOM      3  C3  I4B d   1       1.575   1.291  -1.070  0.00  0.00     0.002 A 
ATOM      4  C4  I4B d   1       2.173   0.047  -1.089  0.00  0.00    -0.004 A 
ATOM      5  C5  I4B d   1       1.581  -1.022  -0.424  0.00  0.00     0.002 A 
ATOM      6  C6  I4B d   1       0.394  -0.830   0.299  0.00  0.00     0.003 A 
ENDROOT
BRANCH   1   7
ATOM      7  C1' I4B d   1      -1.396   0.687   1.189  0.00  0.00     0.060 C 
BRANCH   7   8
ATOM      8  C2' I4B d   1      -0.953   0.989   2.606  0.00  0.00    -0.013 C 
ATOM      9  C4' I4B d   1      -1.112   2.451   2.927  0.00  0.00     0.013 C 
ATOM     10  C3' I4B d   1      -1.766   0.138   3.536  0.00  0.00     0.013 C 
ENDBRANCH   7   8
ENDBRANCH   1   7
TORSDOF 2
ENDMDL
