MODEL 1
REMARK minimizedAffinity -1.28503549
REMARK minimizedRMSD -1
REMARK  2 active torsions:
REMARK  status: ('A' for Active; 'I' for Inactive)
REMARK    1  A    between atoms: C2'_3  and  C1'_4 
REMARK    2  A    between atoms: C1'_4  and  C1_5 
ROOT
ATOM      1  C1  I4B d   1       0.411  -1.629  -0.432  0.00  0.00    -0.075 A 
ATOM      2  C2  I4B d   1       0.151  -0.331  -0.067  0.00  0.00     0.003 A 
ATOM      3  C3  I4B d   1       1.092   0.690  -0.344  0.00  0.00     0.002 A 
ATOM      4  C4  I4B d   1       2.294   0.363  -0.938  0.00  0.00    -0.004 A 
ATOM      5  C5  I4B d   1       2.546  -0.949  -1.329  0.00  0.00     0.002 A 
ATOM      6  C6  I4B d   1       1.594  -1.949  -1.086  0.00  0.00     0.003 A 
ENDROOT
BRANCH   1   7
ATOM      7  C1' I4B d   1      -0.591  -2.687  -0.095  0.00  0.00     0.060 C 
BRANCH   7   8
ATOM      8  C2' I4B d   1      -1.776  -2.521  -1.024  0.00  0.00    -0.013 C 
ATOM      9  C4' I4B d   1      -2.433  -3.845  -1.311  0.00  0.00     0.013 C 
ATOM     10  C3' I4B d   1      -2.738  -1.568  -0.381  0.00  0.00     0.013 C 
ENDBRANCH   7   8
ENDBRANCH   1   7
TORSDOF 2
ENDMDL
