MODEL 1
REMARK minimizedAffinity -4.01320839
REMARK minimizedRMSD -1
REMARK  2 active torsions:
REMARK  status: ('A' for Active; 'I' for Inactive)
REMARK    1  A    between atoms: C2'_3  and  C1'_4 
REMARK    2  A    between atoms: C1'_4  and  C1_5 
ROOT
ATOM      1  C1  I4B d   1      -1.537  -2.130  -0.558  0.00  0.00    -0.075 A 
ATOM      2  C2  I4B d   1      -2.720  -1.681  -1.091  0.00  0.00     0.003 A 
ATOM      3  C3  I4B d   1      -3.768  -2.592  -1.367  0.00  0.00     0.002 A 
ATOM      4  C4  I4B d   1      -3.574  -3.940  -1.144  0.00  0.00    -0.004 A 
ATOM      5  C5  I4B d   1      -2.383  -4.390  -0.582  0.00  0.00     0.002 A 
ATOM      6  C6  I4B d   1      -1.362  -3.478  -0.275  0.00  0.00     0.003 A 
ENDROOT
BRANCH   1   7
ATOM      7  C1' I4B d   1      -0.439  -1.145  -0.309  0.00  0.00     0.060 C 
BRANCH   7   8
ATOM      8  C2' I4B d   1       0.864  -1.913  -0.216  0.00  0.00    -0.013 C 
ATOM      9  C4' I4B d   1       1.797  -1.541  -1.338  0.00  0.00     0.013 C 
ATOM     10  C3' I4B d   1       1.479  -1.620   1.120  0.00  0.00     0.013 C 
ENDBRANCH   7   8
ENDBRANCH   1   7
TORSDOF 2
ENDMDL
