MODEL 1
REMARK minimizedAffinity -5.01025915
REMARK minimizedRMSD -1
REMARK  2 active torsions:
REMARK  status: ('A' for Active; 'I' for Inactive)
REMARK    1  A    between atoms: C2'_3  and  C1'_4 
REMARK    2  A    between atoms: C1'_4  and  C1_5 
ROOT
ATOM      1  C1  I4B d   1      -0.131  -0.013   0.145  0.00  0.00    -0.075 A 
ATOM      2  C2  I4B d   1       0.418   1.143  -0.351  0.00  0.00     0.003 A 
ATOM      3  C3  I4B d   1       1.596   1.094  -1.134  0.00  0.00     0.002 A 
ATOM      4  C4  I4B d   1       2.217  -0.119  -1.352  0.00  0.00    -0.004 A 
ATOM      5  C5  I4B d   1       1.647  -1.293  -0.867  0.00  0.00     0.002 A 
ATOM      6  C6  I4B d   1       0.458  -1.241  -0.124  0.00  0.00     0.003 A 
ENDROOT
BRANCH   1   7
ATOM      7  C1' I4B d   1      -1.358   0.079   0.996  0.00  0.00     0.060 C 
BRANCH   7   8
ATOM      8  C2' I4B d   1      -0.996   0.835   2.258  0.00  0.00    -0.013 C 
ATOM      9  C4' I4B d   1      -1.928   1.996   2.485  0.00  0.00     0.013 C 
ATOM     10  C3' I4B d   1      -1.043  -0.130   3.405  0.00  0.00     0.013 C 
ENDBRANCH   7   8
ENDBRANCH   1   7
TORSDOF 2
ENDMDL
