MODEL 1
REMARK minimizedAffinity -3.22463775
REMARK minimizedRMSD -1
REMARK  2 active torsions:
REMARK  status: ('A' for Active; 'I' for Inactive)
REMARK    1  A    between atoms: C2'_3  and  C1'_4 
REMARK    2  A    between atoms: C1'_4  and  C1_5 
ROOT
ATOM      1  C1  I4B d   1      -0.048   0.092   1.214  0.00  0.00    -0.075 A 
ATOM      2  C2  I4B d   1       0.900  -0.737   1.758  0.00  0.00     0.003 A 
ATOM      3  C3  I4B d   1       1.472  -1.773   0.981  0.00  0.00     0.002 A 
ATOM      4  C4  I4B d   1       1.033  -1.974  -0.312  0.00  0.00    -0.004 A 
ATOM      5  C5  I4B d   1       0.088  -1.118  -0.870  0.00  0.00     0.002 A 
ATOM      6  C6  I4B d   1      -0.447  -0.070  -0.107  0.00  0.00     0.003 A 
ENDROOT
BRANCH   1   7
ATOM      7  C1' I4B d   1      -0.655   1.155   2.073  0.00  0.00     0.060 C 
BRANCH   7   8
ATOM      8  C2' I4B d   1      -1.116   0.506   3.362  0.00  0.00    -0.013 C 
ATOM      9  C4' I4B d   1      -0.720   1.330   4.560  0.00  0.00     0.013 C 
ATOM     10  C3' I4B d   1      -2.605   0.338   3.289  0.00  0.00     0.013 C 
ENDBRANCH   7   8
ENDBRANCH   1   7
TORSDOF 2
ENDMDL
