MODEL 1
REMARK minimizedAffinity -5.65303946
REMARK minimizedRMSD -1
REMARK  2 active torsions:
REMARK  status: ('A' for Active; 'I' for Inactive)
REMARK    1  A    between atoms: C2'_3  and  C1'_4 
REMARK    2  A    between atoms: C1'_4  and  C1_5 
ROOT
ATOM      1  C1  I4B d   1       0.305  -2.156  -0.289  0.00  0.00    -0.075 A 
ATOM      2  C2  I4B d   1       0.244  -0.848   0.123  0.00  0.00     0.003 A 
ATOM      3  C3  I4B d   1       1.187   0.094  -0.355  0.00  0.00     0.002 A 
ATOM      4  C4  I4B d   1       2.197  -0.323  -1.198  0.00  0.00    -0.004 A 
ATOM      5  C5  I4B d   1       2.244  -1.644  -1.632  0.00  0.00     0.002 A 
ATOM      6  C6  I4B d   1       1.284  -2.564  -1.185  0.00  0.00     0.003 A 
ENDROOT
BRANCH   1   7
ATOM      7  C1' I4B d   1      -0.687  -3.131   0.261  0.00  0.00     0.060 C 
BRANCH   7   8
ATOM      8  C2' I4B d   1      -1.940  -3.050  -0.587  0.00  0.00    -0.013 C 
ATOM      9  C4' I4B d   1      -2.735  -4.327  -0.508  0.00  0.00     0.013 C 
ATOM     10  C3' I4B d   1      -2.747  -1.880  -0.110  0.00  0.00     0.013 C 
ENDBRANCH   7   8
ENDBRANCH   1   7
TORSDOF 2
ENDMDL
