MODEL 1
REMARK minimizedAffinity 2.65365577
REMARK minimizedRMSD -1
REMARK  2 active torsions:
REMARK  status: ('A' for Active; 'I' for Inactive)
REMARK    1  A    between atoms: C2'_3  and  C1'_4 
REMARK    2  A    between atoms: C1'_4  and  C1_5 
ROOT
ATOM      1  C1  I4B d   1       4.516   3.711   4.159  0.00  0.00    -0.075 A 
ATOM      2  C2  I4B d   1       4.037   4.076   2.925  0.00  0.00     0.003 A 
ATOM      3  C3  I4B d   1       4.550   5.223   2.273  0.00  0.00     0.002 A 
ATOM      4  C4  I4B d   1       5.498   5.999   2.908  0.00  0.00    -0.004 A 
ATOM      5  C5  I4B d   1       5.999   5.614   4.148  0.00  0.00     0.002 A 
ATOM      6  C6  I4B d   1       5.514   4.456   4.773  0.00  0.00     0.003 A 
ENDROOT
BRANCH   1   7
ATOM      7  C1' I4B d   1       3.928   2.512   4.834  0.00  0.00     0.060 C 
BRANCH   7   8
ATOM      8  C2' I4B d   1       4.898   1.360   4.667  0.00  0.00    -0.013 C 
ATOM      9  C4' I4B d   1       5.267   0.760   5.999  0.00  0.00     0.013 C 
ATOM     10  C3' I4B d   1       4.258   0.341   3.773  0.00  0.00     0.013 C 
ENDBRANCH   7   8
ENDBRANCH   1   7
TORSDOF 2
ENDMDL
