MODEL 1
REMARK minimizedAffinity 10.5518265
REMARK minimizedRMSD -1
REMARK  2 active torsions:
REMARK  status: ('A' for Active; 'I' for Inactive)
REMARK    1  A    between atoms: C2'_3  and  C1'_4 
REMARK    2  A    between atoms: C1'_4  and  C1_5 
ROOT
ATOM      1  C1  I4B d   1       5.298   3.112   4.767  0.00  0.00    -0.075 A 
ATOM      2  C2  I4B d   1       5.999   4.280   4.939  0.00  0.00     0.003 A 
ATOM      3  C3  I4B d   1       5.808   5.364   4.048  0.00  0.00     0.002 A 
ATOM      4  C4  I4B d   1       4.950   5.219   2.977  0.00  0.00    -0.004 A 
ATOM      5  C5  I4B d   1       4.223   4.043   2.818  0.00  0.00     0.002 A 
ATOM      6  C6  I4B d   1       4.388   2.987   3.725  0.00  0.00     0.003 A 
ENDROOT
BRANCH   1   7
ATOM      7  C1' I4B d   1       5.549   1.976   5.708  0.00  0.00     0.060 C 
BRANCH   7   8
ATOM      8  C2' I4B d   1       4.575   0.866   5.369  0.00  0.00    -0.013 C 
ATOM      9  C4' I4B d   1       4.399   0.731   3.880  0.00  0.00     0.013 C 
ATOM     10  C3' I4B d   1       5.094  -0.405   5.971  0.00  0.00     0.013 C 
ENDBRANCH   7   8
ENDBRANCH   1   7
TORSDOF 2
ENDMDL
