MODEL 1
REMARK minimizedAffinity -4.64317894
REMARK minimizedRMSD -1
REMARK  2 active torsions:
REMARK  status: ('A' for Active; 'I' for Inactive)
REMARK    1  A    between atoms: C2'_3  and  C1'_4 
REMARK    2  A    between atoms: C1'_4  and  C1_5 
ROOT
ATOM      1  C1  I4B d   1       5.419   2.462   3.541  0.00  0.00    -0.075 A 
ATOM      2  C2  I4B d   1       5.200   2.989   2.292  0.00  0.00     0.003 A 
ATOM      3  C3  I4B d   1       5.324   4.382   2.074  0.00  0.00     0.002 A 
ATOM      4  C4  I4B d   1       5.616   5.213   3.137  0.00  0.00    -0.004 A 
ATOM      5  C5  I4B d   1       5.860   4.675   4.397  0.00  0.00     0.002 A 
ATOM      6  C6  I4B d   1       5.772   3.290   4.598  0.00  0.00     0.003 A 
ENDROOT
BRANCH   1   7
ATOM      7  C1' I4B d   1       5.247   0.990   3.742  0.00  0.00     0.060 C 
BRANCH   7   8
ATOM      8  C2' I4B d   1       5.470   0.691   5.211  0.00  0.00    -0.013 C 
ATOM      9  C4' I4B d   1       4.198   0.856   6.000  0.00  0.00     0.013 C 
ATOM     10  C3' I4B d   1       6.000  -0.707   5.324  0.00  0.00     0.013 C 
ENDBRANCH   7   8
ENDBRANCH   1   7
TORSDOF 2
ENDMDL
