MODEL 1
REMARK minimizedAffinity -2.73685932
REMARK minimizedRMSD -1
REMARK  2 active torsions:
REMARK  status: ('A' for Active; 'I' for Inactive)
REMARK    1  A    between atoms: C2'_3  and  C1'_4 
REMARK    2  A    between atoms: C1'_4  and  C1_5 
ROOT
ATOM      1  C1  I4B d   1       4.989   1.489   4.903  0.00  0.00    -0.075 A 
ATOM      2  C2  I4B d   1       4.847   0.675   5.999  0.00  0.00     0.003 A 
ATOM      3  C3  I4B d   1       5.299  -0.666   5.954  0.00  0.00     0.002 A 
ATOM      4  C4  I4B d   1       5.836  -1.163   4.784  0.00  0.00    -0.004 A 
ATOM      5  C5  I4B d   1       5.999  -0.330   3.681  0.00  0.00     0.002 A 
ATOM      6  C6  I4B d   1       5.585   1.008   3.744  0.00  0.00     0.003 A 
ENDROOT
BRANCH   1   7
ATOM      7  C1' I4B d   1       4.471   2.891   4.974  0.00  0.00     0.060 C 
BRANCH   7   8
ATOM      8  C2' I4B d   1       5.163   3.700   3.896  0.00  0.00    -0.013 C 
ATOM      9  C4' I4B d   1       4.247   3.942   2.725  0.00  0.00     0.013 C 
ATOM     10  C3' I4B d   1       5.616   4.993   4.506  0.00  0.00     0.013 C 
ENDBRANCH   7   8
ENDBRANCH   1   7
TORSDOF 2
ENDMDL
