MODEL 1
REMARK minimizedAffinity -0.965391815
REMARK minimizedRMSD -1
REMARK  2 active torsions:
REMARK  status: ('A' for Active; 'I' for Inactive)
REMARK    1  A    between atoms: C2'_3  and  C1'_4 
REMARK    2  A    between atoms: C1'_4  and  C1_5 
ROOT
ATOM      1  C1  I4B d   1       5.475   1.962   3.518  0.00  0.00    -0.075 A 
ATOM      2  C2  I4B d   1       4.918   0.740   3.234  0.00  0.00     0.003 A 
ATOM      3  C3  I4B d   1       4.882  -0.273   4.223  0.00  0.00     0.002 A 
ATOM      4  C4  I4B d   1       5.456  -0.041   5.456  0.00  0.00    -0.004 A 
ATOM      5  C5  I4B d   1       6.000   1.207   5.749  0.00  0.00     0.002 A 
ATOM      6  C6  I4B d   1       5.999   2.219   4.778  0.00  0.00     0.003 A 
ENDROOT
BRANCH   1   7
ATOM      7  C1' I4B d   1       5.526   2.998   2.440  0.00  0.00     0.060 C 
BRANCH   7   8
ATOM      8  C2' I4B d   1       4.942   4.280   2.997  0.00  0.00    -0.013 C 
ATOM      9  C4' I4B d   1       5.983   5.365   3.073  0.00  0.00     0.013 C 
ATOM     10  C3' I4B d   1       3.798   4.688   2.117  0.00  0.00     0.013 C 
ENDBRANCH   7   8
ENDBRANCH   1   7
TORSDOF 2
ENDMDL
