MODEL 1
REMARK minimizedAffinity -4.32841492
REMARK minimizedRMSD -1
REMARK  2 active torsions:
REMARK  status: ('A' for Active; 'I' for Inactive)
REMARK    1  A    between atoms: C2'_3  and  C1'_4 
REMARK    2  A    between atoms: C1'_4  and  C1_5 
ROOT
ATOM      1  C1  I4B d   1       5.767   2.046   2.499  0.00  0.00    -0.075 A 
ATOM      2  C2  I4B d   1       5.999   2.274   3.833  0.00  0.00     0.003 A 
ATOM      3  C3  I4B d   1       5.759   1.252   4.783  0.00  0.00     0.002 A 
ATOM      4  C4  I4B d   1       5.243   0.043   4.364  0.00  0.00    -0.004 A 
ATOM      5  C5  I4B d   1       5.029  -0.194   3.009  0.00  0.00     0.002 A 
ATOM      6  C6  I4B d   1       5.305   0.809   2.069  0.00  0.00     0.003 A 
ENDROOT
BRANCH   1   7
ATOM      7  C1' I4B d   1       6.000   3.159   1.527  0.00  0.00     0.060 C 
BRANCH   7   8
ATOM      8  C2' I4B d   1       5.119   4.324   1.930  0.00  0.00    -0.013 C 
ATOM      9  C4' I4B d   1       5.912   5.383   2.650  0.00  0.00     0.013 C 
ATOM     10  C3' I4B d   1       4.482   4.874   0.689  0.00  0.00     0.013 C 
ENDBRANCH   7   8
ENDBRANCH   1   7
TORSDOF 2
ENDMDL
