MODEL 1
REMARK minimizedAffinity -4.39282751
REMARK minimizedRMSD -1
REMARK  0 active torsions:
REMARK  status: ('A' for Active; 'I' for Inactive)
ROOT
ATOM      1  C   UNL d   1       2.117   3.903   0.433  0.00  0.00     0.078 C 
ATOM      2  C1  UNL d   1       1.304   2.670   0.174  0.00  0.00    -0.077 A 
ATOM      3  C2  UNL d   1      -0.095   2.723   0.138  0.00  0.00    -0.001 A 
ATOM      4  C3  UNL d   1      -0.839   1.565  -0.094  0.00  0.00     0.003 A 
ATOM      5  C4  UNL d   1      -0.194   0.346  -0.291  0.00  0.00    -0.005 A 
ATOM      6  C5  UNL d   1       1.198   0.283  -0.256  0.00  0.00     0.003 A 
ATOM      7  C6  UNL d   1       1.944   1.440  -0.023  0.00  0.00    -0.001 A 
ENDROOT
TORSDOF 0
ENDMDL
