MODEL 1
REMARK minimizedAffinity -2.74769998
REMARK minimizedRMSD -1
REMARK  0 active torsions:
REMARK  status: ('A' for Active; 'I' for Inactive)
ROOT
ATOM      1  C   UNL d   1       1.494   4.090   0.449  0.00  0.00     0.078 C 
ATOM      2  C1  UNL d   1       1.015   2.697   0.170  0.00  0.00    -0.077 A 
ATOM      3  C2  UNL d   1      -0.351   2.390   0.173  0.00  0.00    -0.001 A 
ATOM      4  C3  UNL d   1      -0.782   1.086  -0.079  0.00  0.00     0.003 A 
ATOM      5  C4  UNL d   1       0.147   0.080  -0.336  0.00  0.00    -0.005 A 
ATOM      6  C5  UNL d   1       1.508   0.376  -0.340  0.00  0.00     0.003 A 
ATOM      7  C6  UNL d   1       1.941   1.678  -0.088  0.00  0.00    -0.001 A 
ENDROOT
TORSDOF 0
ENDMDL
