MODEL 1
REMARK minimizedAffinity -4.06280851
REMARK minimizedRMSD -1
REMARK  0 active torsions:
REMARK  status: ('A' for Active; 'I' for Inactive)
ROOT
ATOM      1  C   UNL d   1      -0.352   3.425  -3.871  0.00  0.00     0.078 C 
ATOM      2  C1  UNL d   1      -1.343   2.323  -3.640  0.00  0.00    -0.077 A 
ATOM      3  C2  UNL d   1      -2.717   2.547  -3.785  0.00  0.00    -0.001 A 
ATOM      4  C3  UNL d   1      -3.629   1.515  -3.558  0.00  0.00     0.003 A 
ATOM      5  C4  UNL d   1      -3.176   0.252  -3.183  0.00  0.00    -0.005 A 
ATOM      6  C5  UNL d   1      -1.810   0.020  -3.034  0.00  0.00     0.003 A 
ATOM      7  C6  UNL d   1      -0.897   1.051  -3.261  0.00  0.00    -0.001 A 
ENDROOT
TORSDOF 0
ENDMDL
