MODEL 1
REMARK minimizedAffinity -3.26592731
REMARK minimizedRMSD -1
REMARK  0 active torsions:
REMARK  status: ('A' for Active; 'I' for Inactive)
ROOT
ATOM      1  C   UNL d   1      -0.140  -1.850   1.430  0.00  0.00     0.078 C 
ATOM      2  C1  UNL d   1      -0.585  -0.925   0.337  0.00  0.00    -0.077 A 
ATOM      3  C2  UNL d   1      -0.639  -1.354  -0.995  0.00  0.00    -0.001 A 
ATOM      4  C3  UNL d   1      -1.046  -0.479  -2.003  0.00  0.00     0.003 A 
ATOM      5  C4  UNL d   1      -1.402   0.832  -1.690  0.00  0.00    -0.005 A 
ATOM      6  C5  UNL d   1      -1.350   1.269  -0.368  0.00  0.00     0.003 A 
ATOM      7  C6  UNL d   1      -0.943   0.395   0.642  0.00  0.00    -0.001 A 
ENDROOT
TORSDOF 0
ENDMDL
