MODEL 1
REMARK minimizedAffinity 0.257690579
REMARK minimizedRMSD -1
REMARK  0 active torsions:
REMARK  status: ('A' for Active; 'I' for Inactive)
ROOT
ATOM      1  C   UNL d   1      -1.026   0.745  -0.223  0.00  0.00     0.078 C 
ATOM      2  C1  UNL d   1      -1.634   0.937  -1.580  0.00  0.00    -0.077 A 
ATOM      3  C2  UNL d   1      -0.853   1.339  -2.670  0.00  0.00    -0.001 A 
ATOM      4  C3  UNL d   1      -1.434   1.523  -3.926  0.00  0.00     0.003 A 
ATOM      5  C4  UNL d   1      -2.799   1.309  -4.103  0.00  0.00    -0.005 A 
ATOM      6  C5  UNL d   1      -3.585   0.910  -3.023  0.00  0.00     0.003 A 
ATOM      7  C6  UNL d   1      -3.006   0.725  -1.767  0.00  0.00    -0.001 A 
ENDROOT
TORSDOF 0
ENDMDL
