MODEL 1
REMARK minimizedAffinity -1.98121321
REMARK minimizedRMSD -1
REMARK  0 active torsions:
REMARK  status: ('A' for Active; 'I' for Inactive)
ROOT
ATOM      1  C   UNL d   1       2.796  -1.612   1.696  0.00  0.00     0.078 C 
ATOM      2  C1  UNL d   1       1.453  -1.220   1.156  0.00  0.00    -0.077 A 
ATOM      3  C2  UNL d   1       1.324  -0.176   0.231  0.00  0.00    -0.001 A 
ATOM      4  C3  UNL d   1       0.067   0.184  -0.256  0.00  0.00     0.003 A 
ATOM      5  C4  UNL d   1      -1.071  -0.493   0.176  0.00  0.00    -0.005 A 
ATOM      6  C5  UNL d   1      -0.953  -1.532   1.097  0.00  0.00     0.003 A 
ATOM      7  C6  UNL d   1       0.303  -1.894   1.586  0.00  0.00    -0.001 A 
ENDROOT
TORSDOF 0
ENDMDL
