MODEL 1
REMARK minimizedAffinity -4.29866886
REMARK minimizedRMSD -1
REMARK  0 active torsions:
REMARK  status: ('A' for Active; 'I' for Inactive)
ROOT
ATOM      1  C   UNL d   1       0.390   3.345  -0.377  0.00  0.00     0.078 C 
ATOM      2  C1  UNL d   1      -0.339   2.894  -1.607  0.00  0.00    -0.077 A 
ATOM      3  C2  UNL d   1      -1.176   1.771  -1.579  0.00  0.00    -0.001 A 
ATOM      4  C3  UNL d   1      -1.841   1.357  -2.734  0.00  0.00     0.003 A 
ATOM      5  C4  UNL d   1      -1.675   2.058  -3.927  0.00  0.00    -0.005 A 
ATOM      6  C5  UNL d   1      -0.842   3.175  -3.965  0.00  0.00     0.003 A 
ATOM      7  C6  UNL d   1      -0.177   3.591  -2.811  0.00  0.00    -0.001 A 
ENDROOT
TORSDOF 0
ENDMDL
