MODEL 1
REMARK minimizedAffinity -3.7013402
REMARK minimizedRMSD -1
REMARK  0 active torsions:
REMARK  status: ('A' for Active; 'I' for Inactive)
ROOT
ATOM      1  C   UNL d   1      -1.472   1.530  -0.405  0.00  0.00     0.078 C 
ATOM      2  C1  UNL d   1      -1.892   1.433  -1.842  0.00  0.00    -0.077 A 
ATOM      3  C2  UNL d   1      -2.606   0.324  -2.311  0.00  0.00    -0.001 A 
ATOM      4  C3  UNL d   1      -2.982   0.243  -3.653  0.00  0.00     0.003 A 
ATOM      5  C4  UNL d   1      -2.648   1.267  -4.536  0.00  0.00    -0.005 A 
ATOM      6  C5  UNL d   1      -1.937   2.374  -4.079  0.00  0.00     0.003 A 
ATOM      7  C6  UNL d   1      -1.559   2.457  -2.737  0.00  0.00    -0.001 A 
ENDROOT
TORSDOF 0
ENDMDL
