MODEL 1
REMARK minimizedAffinity -4.3757515
REMARK minimizedRMSD -1
REMARK  0 active torsions:
REMARK  status: ('A' for Active; 'I' for Inactive)
ROOT
ATOM      1  C   UNL d   1      -1.750  -0.364   1.961  0.00  0.00     0.078 C 
ATOM      2  C1  UNL d   1      -0.783  -0.037   0.862  0.00  0.00    -0.077 A 
ATOM      3  C2  UNL d   1      -0.998   1.056   0.014  0.00  0.00    -0.001 A 
ATOM      4  C3  UNL d   1      -0.094   1.343  -1.010  0.00  0.00     0.003 A 
ATOM      5  C4  UNL d   1       1.030   0.540  -1.197  0.00  0.00    -0.005 A 
ATOM      6  C5  UNL d   1       1.251  -0.551  -0.359  0.00  0.00     0.003 A 
ATOM      7  C6  UNL d   1       0.348  -0.839   0.666  0.00  0.00    -0.001 A 
ENDROOT
TORSDOF 0
ENDMDL
