MODEL 1
REMARK minimizedAffinity -1.8945055
REMARK minimizedRMSD -1
REMARK  0 active torsions:
REMARK  status: ('A' for Active; 'I' for Inactive)
ROOT
ATOM      1  C   UNL d   1      -1.705  -0.356   1.519  0.00  0.00     0.078 C 
ATOM      2  C1  UNL d   1      -0.963  -0.339   0.216  0.00  0.00    -0.077 A 
ATOM      3  C2  UNL d   1      -1.633  -0.116  -0.993  0.00  0.00    -0.001 A 
ATOM      4  C3  UNL d   1      -0.932  -0.113  -2.200  0.00  0.00     0.003 A 
ATOM      5  C4  UNL d   1       0.444  -0.333  -2.209  0.00  0.00    -0.005 A 
ATOM      6  C5  UNL d   1       1.120  -0.558  -1.011  0.00  0.00     0.003 A 
ATOM      7  C6  UNL d   1       0.420  -0.561   0.196  0.00  0.00    -0.001 A 
ENDROOT
TORSDOF 0
ENDMDL
