MODEL 1
REMARK minimizedAffinity -4.45935488
REMARK minimizedRMSD -1
REMARK  0 active torsions:
REMARK  status: ('A' for Active; 'I' for Inactive)
ROOT
ATOM      1  C   UNL d   1       4.904   4.302  -0.605  0.00  0.00     0.078 C 
ATOM      2  C1  UNL d   1       3.561   3.722  -0.274  0.00  0.00    -0.077 A 
ATOM      3  C2  UNL d   1       3.319   2.349  -0.398  0.00  0.00    -0.001 A 
ATOM      4  C3  UNL d   1       2.061   1.824  -0.096  0.00  0.00     0.003 A 
ATOM      5  C4  UNL d   1       1.036   2.666   0.331  0.00  0.00    -0.005 A 
ATOM      6  C5  UNL d   1       1.268   4.034   0.455  0.00  0.00     0.003 A 
ATOM      7  C6  UNL d   1       2.524   4.561   0.153  0.00  0.00    -0.001 A 
ENDROOT
TORSDOF 0
ENDMDL
