MODEL 1
REMARK minimizedAffinity -3.48286772
REMARK minimizedRMSD -1
REMARK  0 active torsions:
REMARK  status: ('A' for Active; 'I' for Inactive)
ROOT
ATOM      1  C   UNL d   1       2.882   3.342  -0.285  0.00  0.00     0.078 C 
ATOM      2  C1  UNL d   1       1.886   2.220  -0.283  0.00  0.00    -0.077 A 
ATOM      3  C2  UNL d   1       2.273   0.912  -0.599  0.00  0.00    -0.001 A 
ATOM      4  C3  UNL d   1       1.334  -0.120  -0.602  0.00  0.00     0.003 A 
ATOM      5  C4  UNL d   1       0.001   0.145  -0.291  0.00  0.00    -0.005 A 
ATOM      6  C5  UNL d   1      -0.393   1.444   0.022  0.00  0.00     0.003 A 
ATOM      7  C6  UNL d   1       0.545   2.478   0.026  0.00  0.00    -0.001 A 
ENDROOT
TORSDOF 0
ENDMDL
