MODEL 1
REMARK minimizedAffinity -4.50712252
REMARK minimizedRMSD -1
REMARK  0 active torsions:
REMARK  status: ('A' for Active; 'I' for Inactive)
ROOT
ATOM      1  C   UNL d   1      -0.280   0.612  -0.227  0.00  0.00     0.078 C 
ATOM      2  C1  UNL d   1       0.528  -0.626   0.023  0.00  0.00    -0.077 A 
ATOM      3  C2  UNL d   1       0.127  -1.568   0.979  0.00  0.00    -0.001 A 
ATOM      4  C3  UNL d   1       0.894  -2.711   1.208  0.00  0.00     0.003 A 
ATOM      5  C4  UNL d   1       2.068  -2.923   0.487  0.00  0.00    -0.005 A 
ATOM      6  C5  UNL d   1       2.476  -1.990  -0.464  0.00  0.00     0.003 A 
ATOM      7  C6  UNL d   1       1.710  -0.846  -0.695  0.00  0.00    -0.001 A 
ENDROOT
TORSDOF 0
ENDMDL
