MODEL 1
REMARK minimizedAffinity -4.60125256
REMARK minimizedRMSD -1
REMARK  0 active torsions:
REMARK  status: ('A' for Active; 'I' for Inactive)
ROOT
ATOM      1  C   UNL d   1      -0.541   0.665  -0.596  0.00  0.00     0.078 C 
ATOM      2  C1  UNL d   1       0.232  -0.466   0.015  0.00  0.00    -0.077 A 
ATOM      3  C2  UNL d   1       1.521  -0.782  -0.432  0.00  0.00    -0.001 A 
ATOM      4  C3  UNL d   1       2.225  -1.843   0.139  0.00  0.00     0.003 A 
ATOM      5  C4  UNL d   1       1.649  -2.597   1.159  0.00  0.00    -0.005 A 
ATOM      6  C5  UNL d   1       0.366  -2.291   1.609  0.00  0.00     0.003 A 
ATOM      7  C6  UNL d   1      -0.340  -1.231   1.039  0.00  0.00    -0.001 A 
ENDROOT
TORSDOF 0
ENDMDL
