MODEL 1
REMARK minimizedAffinity -4.06900644
REMARK minimizedRMSD -1
REMARK  0 active torsions:
REMARK  status: ('A' for Active; 'I' for Inactive)
ROOT
ATOM      1  C   UNL d   1       2.288   0.831  -0.725  0.00  0.00     0.078 C 
ATOM      2  C1  UNL d   1       1.613  -0.388  -0.171  0.00  0.00    -0.077 A 
ATOM      3  C2  UNL d   1       2.360  -1.475   0.300  0.00  0.00    -0.001 A 
ATOM      4  C3  UNL d   1       1.718  -2.607   0.803  0.00  0.00     0.003 A 
ATOM      5  C4  UNL d   1       0.326  -2.665   0.839  0.00  0.00    -0.005 A 
ATOM      6  C5  UNL d   1      -0.426  -1.589   0.371  0.00  0.00     0.003 A 
ATOM      7  C6  UNL d   1       0.214  -0.456  -0.133  0.00  0.00    -0.001 A 
ENDROOT
TORSDOF 0
ENDMDL
