MODEL 1
REMARK minimizedAffinity 5.07937002
REMARK minimizedRMSD -1
REMARK  0 active torsions:
REMARK  status: ('A' for Active; 'I' for Inactive)
ROOT
ATOM      1  C   UNL d   1       2.921  -3.611   3.761  0.00  0.00     0.172 C 
ATOM      2  N   UNL d   1       2.351  -2.284   3.788  0.00  0.00    -0.070 N 
ATOM      3  C1  UNL d   1       1.913  -1.626   4.906  0.00  0.00    -0.004 A 
ATOM      4  C2  UNL d   1       1.443  -0.392   4.512  0.00  0.00    -0.047 A 
ATOM      5  C3  UNL d   1       1.604  -0.305   3.109  0.00  0.00    -0.047 A 
ATOM      6  C4  UNL d   1       2.168  -1.490   2.687  0.00  0.00    -0.004 A 
ENDROOT
TORSDOF 0
ENDMDL
