MODEL 1
REMARK minimizedAffinity 6.98856688
REMARK minimizedRMSD -1
REMARK  0 active torsions:
REMARK  status: ('A' for Active; 'I' for Inactive)
ROOT
ATOM      1  C   UNL d   1       0.283  -0.745   2.021  0.00  0.00     0.172 C 
ATOM      2  N   UNL d   1      -0.806  -1.289   1.244  0.00  0.00    -0.070 N 
ATOM      3  C1  UNL d   1      -1.916  -0.600   0.834  0.00  0.00    -0.004 A 
ATOM      4  C2  UNL d   1      -2.712  -1.470   0.120  0.00  0.00    -0.047 A 
ATOM      5  C3  UNL d   1      -2.059  -2.725   0.102  0.00  0.00    -0.047 A 
ATOM      6  C4  UNL d   1      -0.881  -2.585   0.805  0.00  0.00    -0.004 A 
ENDROOT
TORSDOF 0
ENDMDL
