MODEL 1
REMARK minimizedAffinity 6.61904144
REMARK minimizedRMSD -1
REMARK  0 active torsions:
REMARK  status: ('A' for Active; 'I' for Inactive)
ROOT
ATOM      1  C   UNL d   1       0.874  -0.213   2.340  0.00  0.00     0.172 C 
ATOM      2  N   UNL d   1      -0.278  -0.045   1.486  0.00  0.00    -0.070 N 
ATOM      3  C1  UNL d   1      -1.323  -0.922   1.374  0.00  0.00    -0.004 A 
ATOM      4  C2  UNL d   1      -2.215  -0.402   0.460  0.00  0.00    -0.047 A 
ATOM      5  C3  UNL d   1      -1.686   0.830   0.007  0.00  0.00    -0.047 A 
ATOM      6  C4  UNL d   1      -0.486   1.027   0.658  0.00  0.00    -0.004 A 
ENDROOT
TORSDOF 0
ENDMDL
