MODEL 1
REMARK minimizedAffinity 1.89486551
REMARK minimizedRMSD -1
REMARK  0 active torsions:
REMARK  status: ('A' for Active; 'I' for Inactive)
ROOT
ATOM      1  C   UNL d   1       1.646  -1.981   5.988  0.00  0.00     0.172 C 
ATOM      2  N   UNL d   1       1.727  -1.831   4.554  0.00  0.00    -0.070 N 
ATOM      3  C1  UNL d   1       1.252  -0.768   3.834  0.00  0.00    -0.004 A 
ATOM      4  C2  UNL d   1       1.523  -1.003   2.504  0.00  0.00    -0.047 A 
ATOM      5  C3  UNL d   1       2.183  -2.252   2.421  0.00  0.00    -0.047 A 
ATOM      6  C4  UNL d   1       2.297  -2.743   3.704  0.00  0.00    -0.004 A 
ENDROOT
TORSDOF 0
ENDMDL
