MODEL 1
REMARK minimizedAffinity 11.1315775
REMARK minimizedRMSD -1
REMARK  0 active torsions:
REMARK  status: ('A' for Active; 'I' for Inactive)
ROOT
ATOM      1  C   UNL d   1       2.254  -2.702   1.507  0.00  0.00     0.172 C 
ATOM      2  N   UNL d   1       1.655  -1.563   2.163  0.00  0.00    -0.070 N 
ATOM      3  C1  UNL d   1       1.337  -1.483   3.492  0.00  0.00    -0.004 A 
ATOM      4  C2  UNL d   1       0.788  -0.240   3.721  0.00  0.00    -0.047 A 
ATOM      5  C3  UNL d   1       0.775   0.451   2.486  0.00  0.00    -0.047 A 
ATOM      6  C4  UNL d   1       1.317  -0.391   1.539  0.00  0.00    -0.004 A 
ENDROOT
TORSDOF 0
ENDMDL
