MODEL 1
REMARK minimizedAffinity 1.86759949
REMARK minimizedRMSD -1
REMARK  0 active torsions:
REMARK  status: ('A' for Active; 'I' for Inactive)
ROOT
ATOM      1  C   UNL d   1       1.890  -2.490   6.000  0.00  0.00     0.172 C 
ATOM      2  N   UNL d   1       1.777  -1.897   4.688  0.00  0.00    -0.070 N 
ATOM      3  C1  UNL d   1       2.169  -2.480   3.512  0.00  0.00    -0.004 A 
ATOM      4  C2  UNL d   1       1.894  -1.597   2.491  0.00  0.00    -0.047 A 
ATOM      5  C3  UNL d   1       1.317  -0.443   3.073  0.00  0.00    -0.047 A 
ATOM      6  C4  UNL d   1       1.257  -0.656   4.434  0.00  0.00    -0.004 A 
ENDROOT
TORSDOF 0
ENDMDL
