MODEL 1
REMARK minimizedAffinity 5.21131992
REMARK minimizedRMSD -1
REMARK  2 active torsions:
REMARK  status: ('A' for Active; 'I' for Inactive)
REMARK    1  A    between atoms: C2'_3  and  C1'_4 
REMARK    2  A    between atoms: C1'_4  and  C1_5 
ROOT
ATOM      1  C1  I4B d   1       2.888  -0.392   0.995  0.00  0.00    -0.075 A 
ATOM      2  C2  I4B d   1       2.398   0.770   1.538  0.00  0.00     0.003 A 
ATOM      3  C3  I4B d   1       3.280   1.821   1.888  0.00  0.00     0.002 A 
ATOM      4  C4  I4B d   1       4.640   1.649   1.727  0.00  0.00    -0.004 A 
ATOM      5  C5  I4B d   1       5.133   0.479   1.155  0.00  0.00     0.002 A 
ATOM      6  C6  I4B d   1       4.251  -0.543   0.775  0.00  0.00     0.003 A 
ENDROOT
BRANCH   1   7
ATOM      7  C1' I4B d   1       1.931  -1.494   0.667  0.00  0.00     0.060 C 
BRANCH   7   8
ATOM      8  C2' I4B d   1       1.724  -2.320   1.920  0.00  0.00    -0.013 C 
ATOM      9  C4' I4B d   1       0.302  -2.225   2.407  0.00  0.00     0.013 C 
ATOM     10  C3' I4B d   1       2.095  -3.739   1.606  0.00  0.00     0.013 C 
ENDBRANCH   7   8
ENDBRANCH   1   7
TORSDOF 2
ENDMDL
