MODEL 1
REMARK minimizedAffinity 13.9233742
REMARK minimizedRMSD -1
REMARK  2 active torsions:
REMARK  status: ('A' for Active; 'I' for Inactive)
REMARK    1  A    between atoms: C2'_3  and  C1'_4 
REMARK    2  A    between atoms: C1'_4  and  C1_5 
ROOT
ATOM      1  C1  I4B d   1      -3.798   3.347  -4.883  0.00  0.00    -0.075 A 
ATOM      2  C2  I4B d   1      -4.824   2.771  -5.591  0.00  0.00     0.003 A 
ATOM      3  C3  I4B d   1      -5.933   3.550  -6.000  0.00  0.00     0.002 A 
ATOM      4  C4  I4B d   1      -5.999   4.881  -5.638  0.00  0.00    -0.004 A 
ATOM      5  C5  I4B d   1      -4.948   5.468  -4.940  0.00  0.00     0.002 A 
ATOM      6  C6  I4B d   1      -3.835   4.700  -4.570  0.00  0.00     0.003 A 
ENDROOT
BRANCH   1   7
ATOM      7  C1' I4B d   1      -2.658   2.487  -4.438  0.00  0.00     0.060 C 
BRANCH   7   8
ATOM      8  C2' I4B d   1      -2.295   2.888  -3.023  0.00  0.00    -0.013 C 
ATOM      9  C4' I4B d   1      -2.197   1.685  -2.123  0.00  0.00     0.013 C 
ATOM     10  C3' I4B d   1      -0.995   3.634  -3.072  0.00  0.00     0.013 C 
ENDBRANCH   7   8
ENDBRANCH   1   7
TORSDOF 2
ENDMDL
