MODEL 1
REMARK minimizedAffinity 7.07779551
REMARK minimizedRMSD -1
REMARK  2 active torsions:
REMARK  status: ('A' for Active; 'I' for Inactive)
REMARK    1  A    between atoms: C2'_3  and  C1'_4 
REMARK    2  A    between atoms: C1'_4  and  C1_5 
ROOT
ATOM      1  C1  I4B d   1       2.932  -3.749   3.261  0.00  0.00    -0.075 A 
ATOM      2  C2  I4B d   1       2.853  -3.684   1.892  0.00  0.00     0.003 A 
ATOM      3  C3  I4B d   1       1.878  -2.865   1.273  0.00  0.00     0.002 A 
ATOM      4  C4  I4B d   1       0.976  -2.172   2.054  0.00  0.00    -0.004 A 
ATOM      5  C5  I4B d   1       1.072  -2.222   3.442  0.00  0.00     0.002 A 
ATOM      6  C6  I4B d   1       2.064  -3.005   4.050  0.00  0.00     0.003 A 
ENDROOT
BRANCH   1   7
ATOM      7  C1' I4B d   1       3.952  -4.650   3.882  0.00  0.00     0.060 C 
BRANCH   7   8
ATOM      8  C2' I4B d   1       3.696  -4.686   5.375  0.00  0.00    -0.013 C 
ATOM      9  C4' I4B d   1       4.129  -6.000   5.971  0.00  0.00     0.013 C 
ATOM     10  C3' I4B d   1       4.433  -3.539   5.999  0.00  0.00     0.013 C 
ENDBRANCH   7   8
ENDBRANCH   1   7
TORSDOF 2
ENDMDL
