MODEL 1
REMARK minimizedAffinity 7.25211048
REMARK minimizedRMSD -1
REMARK  2 active torsions:
REMARK  status: ('A' for Active; 'I' for Inactive)
REMARK    1  A    between atoms: C2'_3  and  C1'_4 
REMARK    2  A    between atoms: C1'_4  and  C1_5 
ROOT
ATOM      1  C1  I4B d   1       0.745  -2.413   1.957  0.00  0.00    -0.075 A 
ATOM      2  C2  I4B d   1       0.528  -1.258   2.666  0.00  0.00     0.003 A 
ATOM      3  C3  I4B d   1      -0.498  -1.201   3.640  0.00  0.00     0.002 A 
ATOM      4  C4  I4B d   1      -1.311  -2.299   3.835  0.00  0.00    -0.004 A 
ATOM      5  C5  I4B d   1      -1.075  -3.476   3.132  0.00  0.00     0.002 A 
ATOM      6  C6  I4B d   1      -0.033  -3.538   2.195  0.00  0.00     0.003 A 
ENDROOT
BRANCH   1   7
ATOM      7  C1' I4B d   1       1.816  -2.427   0.913  0.00  0.00     0.060 C 
BRANCH   7   8
ATOM      8  C2' I4B d   1       1.784  -1.095   0.193  0.00  0.00    -0.013 C 
ATOM      9  C4' I4B d   1       3.169  -0.518   0.050  0.00  0.00     0.013 C 
ATOM     10  C3' I4B d   1       1.146  -1.308  -1.147  0.00  0.00     0.013 C 
ENDBRANCH   7   8
ENDBRANCH   1   7
TORSDOF 2
ENDMDL
