MODEL 1
REMARK minimizedAffinity 4.87073517
REMARK minimizedRMSD -1
REMARK  2 active torsions:
REMARK  status: ('A' for Active; 'I' for Inactive)
REMARK    1  A    between atoms: C2'_3  and  C1'_4 
REMARK    2  A    between atoms: C1'_4  and  C1_5 
ROOT
ATOM      1  C1  I4B d   1       1.847  -2.831   1.382  0.00  0.00    -0.075 A 
ATOM      2  C2  I4B d   1       1.450  -4.145   1.410  0.00  0.00     0.003 A 
ATOM      3  C3  I4B d   1       2.370  -5.175   1.095  0.00  0.00     0.002 A 
ATOM      4  C4  I4B d   1       3.653  -4.845   0.710  0.00  0.00    -0.004 A 
ATOM      5  C5  I4B d   1       4.060  -3.514   0.704  0.00  0.00     0.002 A 
ATOM      6  C6  I4B d   1       3.156  -2.501   1.054  0.00  0.00     0.003 A 
ENDROOT
BRANCH   1   7
ATOM      7  C1' I4B d   1       0.841  -1.768   1.688  0.00  0.00     0.060 C 
BRANCH   7   8
ATOM      8  C2' I4B d   1       0.535  -1.828   3.171  0.00  0.00    -0.013 C 
ATOM      9  C4' I4B d   1       1.532  -1.028   3.966  0.00  0.00     0.013 C 
ATOM     10  C3' I4B d   1      -0.859  -1.315   3.377  0.00  0.00     0.013 C 
ENDBRANCH   7   8
ENDBRANCH   1   7
TORSDOF 2
ENDMDL
