MODEL 1
REMARK minimizedAffinity 0.342662185
REMARK minimizedRMSD -1
REMARK  2 active torsions:
REMARK  status: ('A' for Active; 'I' for Inactive)
REMARK    1  A    between atoms: C2'_3  and  C1'_4 
REMARK    2  A    between atoms: C1'_4  and  C1_5 
ROOT
ATOM      1  C1  I4B d   1       5.996   1.311  -0.413  0.00  0.00    -0.075 A 
ATOM      2  C2  I4B d   1       5.999   2.485  -1.124  0.00  0.00     0.003 A 
ATOM      3  C3  I4B d   1       5.992   3.729  -0.447  0.00  0.00     0.002 A 
ATOM      4  C4  I4B d   1       5.932   3.752   0.931  0.00  0.00    -0.004 A 
ATOM      5  C5  I4B d   1       5.953   2.561   1.651  0.00  0.00     0.002 A 
ATOM      6  C6  I4B d   1       5.997   1.333   0.975  0.00  0.00     0.003 A 
ENDROOT
BRANCH   1   7
ATOM      7  C1' I4B d   1       5.970   0.016  -1.161  0.00  0.00     0.060 C 
BRANCH   7   8
ATOM      8  C2' I4B d   1       5.483   0.299  -2.567  0.00  0.00    -0.013 C 
ATOM      9  C4' I4B d   1       5.957   1.644  -3.049  0.00  0.00     0.013 C 
ATOM     10  C3' I4B d   1       5.978  -0.801  -3.459  0.00  0.00     0.013 C 
ENDBRANCH   7   8
ENDBRANCH   1   7
TORSDOF 2
ENDMDL
