MODEL 1
REMARK minimizedAffinity 4.84546995
REMARK minimizedRMSD -1
REMARK  2 active torsions:
REMARK  status: ('A' for Active; 'I' for Inactive)
REMARK    1  A    between atoms: C2'_3  and  C1'_4 
REMARK    2  A    between atoms: C1'_4  and  C1_5 
ROOT
ATOM      1  C1  I4B d   1       2.854  -1.964   3.839  0.00  0.00    -0.075 A 
ATOM      2  C2  I4B d   1       3.574  -2.665   2.904  0.00  0.00     0.003 A 
ATOM      3  C3  I4B d   1       3.091  -2.790   1.579  0.00  0.00     0.002 A 
ATOM      4  C4  I4B d   1       1.868  -2.244   1.248  0.00  0.00    -0.004 A 
ATOM      5  C5  I4B d   1       1.150  -1.514   2.191  0.00  0.00     0.002 A 
ATOM      6  C6  I4B d   1       1.652  -1.363   3.492  0.00  0.00     0.003 A 
ENDROOT
BRANCH   1   7
ATOM      7  C1' I4B d   1       3.378  -1.881   5.238  0.00  0.00     0.060 C 
BRANCH   7   8
ATOM      8  C2' I4B d   1       4.697  -2.624   5.287  0.00  0.00    -0.013 C 
ATOM      9  C4' I4B d   1       5.758  -1.805   5.976  0.00  0.00     0.013 C 
ATOM     10  C3' I4B d   1       4.470  -3.924   5.998  0.00  0.00     0.013 C 
ENDBRANCH   7   8
ENDBRANCH   1   7
TORSDOF 2
ENDMDL
