MODEL 1
REMARK minimizedAffinity 10.9385643
REMARK minimizedRMSD -1
REMARK  0 active torsions:
REMARK  status: ('A' for Active; 'I' for Inactive)
ROOT
ATOM      1  C1  DEN d   1       2.487  -0.827  -3.116  0.00  0.00     0.130 A 
ATOM      2  C2  DEN d   1       3.527  -0.899  -4.139  0.00  0.00    -0.031 A 
ATOM      3  C3  DEN d   1       3.021  -1.732  -5.247  0.00  0.00     0.027 A 
ATOM      4  C4  DEN d   1       0.738  -2.910  -5.481  0.00  0.00     0.027 A 
ATOM      5  C5  DEN d   1      -0.470  -3.149  -4.864  0.00  0.00    -0.003 A 
ATOM      6  C6  DEN d   1      -0.761  -2.664  -3.617  0.00  0.00     0.001 A 
ATOM      7  C7  DEN d   1       0.150  -1.875  -2.965  0.00  0.00     0.017 A 
ATOM      8  C8  DEN d   1       1.373  -1.636  -3.578  0.00  0.00    -0.094 A 
ATOM      9  C9  DEN d   1       1.644  -2.125  -4.844  0.00  0.00    -0.072 A 
ENDROOT
TORSDOF 0
ENDMDL
