MODEL 1
REMARK minimizedAffinity 5.25099993
REMARK minimizedRMSD -1
REMARK  0 active torsions:
REMARK  status: ('A' for Active; 'I' for Inactive)
ROOT
ATOM      1  C1  DEN d   1      -1.736  -5.998   2.963  0.00  0.00     0.130 A 
ATOM      2  C2  DEN d   1      -2.087  -5.964   1.546  0.00  0.00    -0.031 A 
ATOM      3  C3  DEN d   1      -0.834  -5.950   0.765  0.00  0.00     0.027 A 
ATOM      4  C4  DEN d   1       1.603  -5.982   1.608  0.00  0.00     0.027 A 
ATOM      5  C5  DEN d   1       2.403  -5.999   2.730  0.00  0.00    -0.003 A 
ATOM      6  C6  DEN d   1       1.884  -5.983   3.997  0.00  0.00     0.001 A 
ATOM      7  C7  DEN d   1       0.526  -5.994   4.175  0.00  0.00     0.017 A 
ATOM      8  C8  DEN d   1      -0.287  -5.969   3.049  0.00  0.00    -0.094 A 
ATOM      9  C9  DEN d   1       0.257  -5.998   1.776  0.00  0.00    -0.072 A 
ENDROOT
TORSDOF 0
ENDMDL
