MODEL 1
REMARK minimizedAffinity 8.66007042
REMARK minimizedRMSD -1
REMARK  0 active torsions:
REMARK  status: ('A' for Active; 'I' for Inactive)
ROOT
ATOM      1  C1  DEN d   1       0.361  -1.168  -3.813  0.00  0.00     0.130 A 
ATOM      2  C2  DEN d   1       0.992  -1.947  -4.874  0.00  0.00    -0.031 A 
ATOM      3  C3  DEN d   1       0.083  -3.055  -5.230  0.00  0.00     0.027 A 
ATOM      4  C4  DEN d   1      -2.232  -3.633  -4.249  0.00  0.00     0.027 A 
ATOM      5  C5  DEN d   1      -3.180  -3.267  -3.320  0.00  0.00    -0.003 A 
ATOM      6  C6  DEN d   1      -3.001  -2.204  -2.474  0.00  0.00     0.001 A 
ATOM      7  C7  DEN d   1      -1.867  -1.443  -2.570  0.00  0.00     0.017 A 
ATOM      8  C8  DEN d   1      -0.903  -1.810  -3.500  0.00  0.00    -0.094 A 
ATOM      9  C9  DEN d   1      -1.107  -2.880  -4.355  0.00  0.00    -0.072 A 
ENDROOT
TORSDOF 0
ENDMDL
