MODEL 1
REMARK minimizedAffinity -0.754984796
REMARK minimizedRMSD -1
REMARK  0 active torsions:
REMARK  status: ('A' for Active; 'I' for Inactive)
ROOT
ATOM      1  C1  DEN d   1      -0.117  -5.947   5.170  0.00  0.00     0.130 A 
ATOM      2  C2  DEN d   1       1.084  -5.975   6.000  0.00  0.00    -0.031 A 
ATOM      3  C3  DEN d   1       2.257  -5.998   5.103  0.00  0.00     0.027 A 
ATOM      4  C4  DEN d   1       2.330  -5.989   2.525  0.00  0.00     0.027 A 
ATOM      5  C5  DEN d   1       1.563  -5.981   1.381  0.00  0.00    -0.003 A 
ATOM      6  C6  DEN d   1       0.194  -5.996   1.419  0.00  0.00     0.001 A 
ATOM      7  C7  DEN d   1      -0.452  -5.973   2.627  0.00  0.00     0.017 A 
ATOM      8  C8  DEN d   1       0.314  -5.989   3.785  0.00  0.00    -0.094 A 
ATOM      9  C9  DEN d   1       1.697  -5.961   3.726  0.00  0.00    -0.072 A 
ENDROOT
TORSDOF 0
ENDMDL
