MODEL 1
REMARK minimizedAffinity 2.19149995
REMARK minimizedRMSD -1
REMARK  0 active torsions:
REMARK  status: ('A' for Active; 'I' for Inactive)
ROOT
ATOM      1  C1  DEN d   1       0.044  -5.964   1.064  0.00  0.00     0.130 A 
ATOM      2  C2  DEN d   1      -1.354  -5.986   1.485  0.00  0.00    -0.031 A 
ATOM      3  C3  DEN d   1      -1.385  -6.000   2.961  0.00  0.00     0.027 A 
ATOM      4  C4  DEN d   1       0.584  -5.983   4.627  0.00  0.00     0.027 A 
ATOM      5  C5  DEN d   1       1.956  -5.977   4.742  0.00  0.00    -0.003 A 
ATOM      6  C6  DEN d   1       2.781  -6.000   3.649  0.00  0.00     0.001 A 
ATOM      7  C7  DEN d   1       2.240  -5.985   2.390  0.00  0.00     0.017 A 
ATOM      8  C8  DEN d   1       0.857  -5.999   2.266  0.00  0.00    -0.094 A 
ATOM      9  C9  DEN d   1       0.041  -5.963   3.383  0.00  0.00    -0.072 A 
ENDROOT
TORSDOF 0
ENDMDL
