MODEL 1
REMARK minimizedAffinity 3.6348033
REMARK minimizedRMSD -1
REMARK  0 active torsions:
REMARK  status: ('A' for Active; 'I' for Inactive)
ROOT
ATOM      1  C1  DEN d   1      -0.571  -5.977   1.164  0.00  0.00     0.130 A 
ATOM      2  C2  DEN d   1      -1.826  -5.999   1.912  0.00  0.00    -0.031 A 
ATOM      3  C3  DEN d   1      -1.499  -6.000   3.352  0.00  0.00     0.027 A 
ATOM      4  C4  DEN d   1       0.815  -5.964   4.491  0.00  0.00     0.027 A 
ATOM      5  C5  DEN d   1       2.174  -5.953   4.270  0.00  0.00    -0.003 A 
ATOM      6  C6  DEN d   1       2.710  -5.983   3.010  0.00  0.00     0.001 A 
ATOM      7  C7  DEN d   1       1.881  -5.981   1.920  0.00  0.00     0.017 A 
ATOM      8  C8  DEN d   1       0.509  -5.999   2.134  0.00  0.00    -0.094 A 
ATOM      9  C9  DEN d   1      -0.013  -5.956   3.416  0.00  0.00    -0.072 A 
ENDROOT
TORSDOF 0
ENDMDL
