MODEL 1
REMARK minimizedAffinity 7.89722013
REMARK minimizedRMSD -1
REMARK  0 active torsions:
REMARK  status: ('A' for Active; 'I' for Inactive)
ROOT
ATOM      1  C1  DEN d   1      -0.737  -2.194   1.721  0.00  0.00     0.130 A 
ATOM      2  C2  DEN d   1      -1.300  -2.023   3.058  0.00  0.00    -0.031 A 
ATOM      3  C3  DEN d   1      -0.977  -0.658   3.518  0.00  0.00     0.027 A 
ATOM      4  C4  DEN d   1       0.327   1.201   2.295  0.00  0.00     0.027 A 
ATOM      5  C5  DEN d   1       1.009   1.521   1.142  0.00  0.00    -0.003 A 
ATOM      6  C6  DEN d   1       1.185   0.622   0.124  0.00  0.00     0.001 A 
ATOM      7  C7  DEN d   1       0.633  -0.628   0.220  0.00  0.00     0.017 A 
ATOM      8  C8  DEN d   1      -0.050  -0.961   1.382  0.00  0.00    -0.094 A 
ATOM      9  C9  DEN d   1      -0.227  -0.034   2.395  0.00  0.00    -0.072 A 
ENDROOT
TORSDOF 0
ENDMDL
