MODEL 1
REMARK minimizedAffinity -0.673285544
REMARK minimizedRMSD -1
REMARK  0 active torsions:
REMARK  status: ('A' for Active; 'I' for Inactive)
ROOT
ATOM      1  C1  DEN d   1      -0.180  -0.465   0.556  0.00  0.00     0.130 A 
ATOM      2  C2  DEN d   1       0.055   0.798   1.249  0.00  0.00    -0.031 A 
ATOM      3  C3  DEN d   1      -0.664   0.753   2.538  0.00  0.00     0.027 A 
ATOM      4  C4  DEN d   1      -2.108  -1.144   3.524  0.00  0.00     0.027 A 
ATOM      5  C5  DEN d   1      -2.609  -2.406   3.298  0.00  0.00    -0.003 A 
ATOM      6  C6  DEN d   1      -2.366  -3.091   2.137  0.00  0.00     0.001 A 
ATOM      7  C7  DEN d   1      -1.563  -2.535   1.176  0.00  0.00     0.017 A 
ATOM      8  C8  DEN d   1      -1.060  -1.259   1.394  0.00  0.00    -0.094 A 
ATOM      9  C9  DEN d   1      -1.308  -0.588   2.579  0.00  0.00    -0.072 A 
ENDROOT
TORSDOF 0
ENDMDL
