MODEL 1
REMARK minimizedAffinity 6.62497473
REMARK minimizedRMSD -1
REMARK  0 active torsions:
REMARK  status: ('A' for Active; 'I' for Inactive)
ROOT
ATOM      1  C1  DEN d   1      -5.549   2.640   3.692  0.00  0.00     0.130 A 
ATOM      2  C2  DEN d   1      -5.280   3.440   4.883  0.00  0.00    -0.031 A 
ATOM      3  C3  DEN d   1      -4.998   2.516   6.000  0.00  0.00     0.027 A 
ATOM      4  C4  DEN d   1      -4.949  -0.063   5.998  0.00  0.00     0.027 A 
ATOM      5  C5  DEN d   1      -5.124  -1.189   5.224  0.00  0.00    -0.003 A 
ATOM      6  C6  DEN d   1      -5.484  -1.118   3.904  0.00  0.00     0.001 A 
ATOM      7  C7  DEN d   1      -5.636   0.105   3.306  0.00  0.00     0.017 A 
ATOM      8  C8  DEN d   1      -5.468   1.244   4.082  0.00  0.00    -0.094 A 
ATOM      9  C9  DEN d   1      -5.092   1.152   5.412  0.00  0.00    -0.072 A 
ENDROOT
TORSDOF 0
ENDMDL
