MODEL 1
REMARK minimizedAffinity 2.1831634
REMARK minimizedRMSD -1
REMARK  0 active torsions:
REMARK  status: ('A' for Active; 'I' for Inactive)
ROOT
ATOM      1  C1  DEN d   1      -1.798  -5.978   1.715  0.00  0.00     0.130 A 
ATOM      2  C2  DEN d   1      -1.527  -5.971   3.150  0.00  0.00    -0.031 A 
ATOM      3  C3  DEN d   1      -2.822  -5.970   3.860  0.00  0.00     0.027 A 
ATOM      4  C4  DEN d   1      -5.209  -5.984   2.881  0.00  0.00     0.027 A 
ATOM      5  C5  DEN d   1      -5.944  -5.980   1.716  0.00  0.00    -0.003 A 
ATOM      6  C6  DEN d   1      -5.355  -5.941   0.480  0.00  0.00     0.001 A 
ATOM      7  C7  DEN d   1      -3.989  -5.950   0.379  0.00  0.00     0.017 A 
ATOM      8  C8  DEN d   1      -3.240  -5.947   1.549  0.00  0.00    -0.094 A 
ATOM      9  C9  DEN d   1      -3.855  -5.999   2.789  0.00  0.00    -0.072 A 
ENDROOT
TORSDOF 0
ENDMDL
