MODEL 1
REMARK minimizedAffinity -0.580263853
REMARK minimizedRMSD -1
REMARK  0 active torsions:
REMARK  status: ('A' for Active; 'I' for Inactive)
ROOT
ATOM      1  C1  DEN d   1      -3.215   1.906   3.170  0.00  0.00     0.130 A 
ATOM      2  C2  DEN d   1      -4.344   1.093   3.614  0.00  0.00    -0.031 A 
ATOM      3  C3  DEN d   1      -3.942  -0.326   3.540  0.00  0.00     0.027 A 
ATOM      4  C4  DEN d   1      -1.691  -1.338   2.791  0.00  0.00     0.027 A 
ATOM      5  C5  DEN d   1      -0.432  -1.046   2.314  0.00  0.00    -0.003 A 
ATOM      6  C6  DEN d   1      -0.028   0.238   2.060  0.00  0.00     0.001 A 
ATOM      7  C7  DEN d   1      -0.875   1.282   2.323  0.00  0.00     0.017 A 
ATOM      8  C8  DEN d   1      -2.149   0.994   2.796  0.00  0.00    -0.094 A 
ATOM      9  C9  DEN d   1      -2.535  -0.309   3.059  0.00  0.00    -0.072 A 
ENDROOT
TORSDOF 0
ENDMDL
