MODEL 1
REMARK minimizedAffinity 1.27558494
REMARK minimizedRMSD -1
REMARK  0 active torsions:
REMARK  status: ('A' for Active; 'I' for Inactive)
ROOT
ATOM      1  C1  DEN d   1      -2.741  -0.742   3.731  0.00  0.00     0.130 A 
ATOM      2  C2  DEN d   1      -1.860   0.164   3.000  0.00  0.00    -0.031 A 
ATOM      3  C3  DEN d   1      -2.489   1.500   2.985  0.00  0.00     0.027 A 
ATOM      4  C4  DEN d   1      -4.729   2.250   4.021  0.00  0.00     0.027 A 
ATOM      5  C5  DEN d   1      -5.834   1.832   4.730  0.00  0.00    -0.003 A 
ATOM      6  C6  DEN d   1      -6.000   0.531   5.122  0.00  0.00     0.001 A 
ATOM      7  C7  DEN d   1      -5.024  -0.391   4.848  0.00  0.00     0.017 A 
ATOM      8  C8  DEN d   1      -3.911   0.021   4.127  0.00  0.00    -0.094 A 
ATOM      9  C9  DEN d   1      -3.755   1.344   3.750  0.00  0.00    -0.072 A 
ENDROOT
TORSDOF 0
ENDMDL
