MODEL 1
REMARK minimizedAffinity 1.55603135
REMARK minimizedRMSD -1
REMARK  0 active torsions:
REMARK  status: ('A' for Active; 'I' for Inactive)
ROOT
ATOM      1  C1  DEN d   1       0.375  -3.692   3.749  0.00  0.00     0.130 A 
ATOM      2  C2  DEN d   1       0.860  -4.884   4.439  0.00  0.00    -0.031 A 
ATOM      3  C3  DEN d   1      -0.053  -6.000   4.121  0.00  0.00     0.027 A 
ATOM      4  C4  DEN d   1      -2.157  -6.000   2.630  0.00  0.00     0.027 A 
ATOM      5  C5  DEN d   1      -2.973  -5.221   1.841  0.00  0.00    -0.003 A 
ATOM      6  C6  DEN d   1      -2.752  -3.881   1.661  0.00  0.00     0.001 A 
ATOM      7  C7  DEN d   1      -1.663  -3.289   2.242  0.00  0.00     0.017 A 
ATOM      8  C8  DEN d   1      -0.839  -4.066   3.046  0.00  0.00    -0.094 A 
ATOM      9  C9  DEN d   1      -1.073  -5.422   3.206  0.00  0.00    -0.072 A 
ENDROOT
TORSDOF 0
ENDMDL
