MODEL 1
REMARK minimizedAffinity 8.56400204
REMARK minimizedRMSD -1
REMARK  0 active torsions:
REMARK  status: ('A' for Active; 'I' for Inactive)
ROOT
ATOM      1  C   UNL d   1      -5.971  -1.632   5.586  0.00  0.00    -0.002 A 
ATOM      2  C1  UNL d   1      -5.975  -2.897   5.017  0.00  0.00     0.010 A 
ATOM      3  C2  UNL d   1      -5.985  -3.052   3.629  0.00  0.00     0.041 A 
ATOM      4  C3  UNL d   1      -5.989  -1.902   2.815  0.00  0.00    -0.075 A 
ATOM      5  S   UNL d   1      -5.999  -1.847   1.092  0.00  0.00     0.015 SA
ATOM      6  C4  UNL d   1      -5.998  -0.143   1.071  0.00  0.00     0.022 A 
ATOM      7  C5  UNL d   1      -5.990   0.388   2.339  0.00  0.00     0.026 A 
ATOM      8  C6  UNL d   1      -5.984  -0.617   3.366  0.00  0.00    -0.082 A 
ATOM      9  C7  UNL d   1      -5.975  -0.493   4.776  0.00  0.00     0.045 A 
ENDROOT
TORSDOF 0
ENDMDL
