MODEL 1
REMARK minimizedAffinity 4.78076553
REMARK minimizedRMSD -1
REMARK  0 active torsions:
REMARK  status: ('A' for Active; 'I' for Inactive)
ROOT
ATOM      1  C   UNL d   1       1.368  -0.050   2.162  0.00  0.00    -0.002 A 
ATOM      2  C1  UNL d   1       1.903  -0.857   1.167  0.00  0.00     0.010 A 
ATOM      3  C2  UNL d   1       1.468  -0.738  -0.154  0.00  0.00     0.041 A 
ATOM      4  C3  UNL d   1       0.478   0.216  -0.462  0.00  0.00    -0.075 A 
ATOM      5  S   UNL d   1      -0.207   0.539  -2.011  0.00  0.00     0.015 SA
ATOM      6  C4  UNL d   1      -1.225   1.756  -1.389  0.00  0.00     0.022 A 
ATOM      7  C5  UNL d   1      -1.060   1.924  -0.035  0.00  0.00     0.026 A 
ATOM      8  C6  UNL d   1      -0.075   1.040   0.522  0.00  0.00    -0.082 A 
ATOM      9  C7  UNL d   1       0.386   0.895   1.852  0.00  0.00     0.045 A 
ENDROOT
TORSDOF 0
ENDMDL
