MODEL 1
REMARK minimizedAffinity 8.06437588
REMARK minimizedRMSD -1
REMARK  0 active torsions:
REMARK  status: ('A' for Active; 'I' for Inactive)
ROOT
ATOM      1  C   UNL d   1       1.505  -0.392   3.091  0.00  0.00    -0.002 A 
ATOM      2  C1  UNL d   1       2.278  -1.092   2.175  0.00  0.00     0.010 A 
ATOM      3  C2  UNL d   1       2.087  -0.916   0.803  0.00  0.00     0.041 A 
ATOM      4  C3  UNL d   1       1.098  -0.015   0.363  0.00  0.00    -0.075 A 
ATOM      5  S   UNL d   1       0.687   0.363  -1.268  0.00  0.00     0.015 SA
ATOM      6  C4  UNL d   1      -0.523   1.463  -0.788  0.00  0.00     0.022 A 
ATOM      7  C5  UNL d   1      -0.625   1.552   0.580  0.00  0.00     0.026 A 
ATOM      8  C6  UNL d   1       0.308   0.702   1.266  0.00  0.00    -0.082 A 
ATOM      9  C7  UNL d   1       0.525   0.501   2.651  0.00  0.00     0.045 A 
ENDROOT
TORSDOF 0
ENDMDL
