MODEL 1
REMARK minimizedAffinity -1.41352773
REMARK minimizedRMSD -1
REMARK  0 active torsions:
REMARK  status: ('A' for Active; 'I' for Inactive)
ROOT
ATOM      1  C   UNL d   1       1.058   0.702   2.626  0.00  0.00    -0.002 A 
ATOM      2  C1  UNL d   1       1.265  -0.557   2.081  0.00  0.00     0.010 A 
ATOM      3  C2  UNL d   1       0.976  -0.805   0.738  0.00  0.00     0.041 A 
ATOM      4  C3  UNL d   1       0.472   0.244  -0.056  0.00  0.00    -0.075 A 
ATOM      5  S   UNL d   1       0.047   0.172  -1.726  0.00  0.00     0.015 SA
ATOM      6  C4  UNL d   1      -0.418   1.811  -1.754  0.00  0.00     0.022 A 
ATOM      7  C5  UNL d   1      -0.260   2.414  -0.529  0.00  0.00     0.026 A 
ATOM      8  C6  UNL d   1       0.256   1.520   0.470  0.00  0.00    -0.082 A 
ATOM      9  C7  UNL d   1       0.558   1.740   1.836  0.00  0.00     0.045 A 
ENDROOT
TORSDOF 0
ENDMDL
