MODEL 1
REMARK minimizedAffinity 9.25561142
REMARK minimizedRMSD -1
REMARK  0 active torsions:
REMARK  status: ('A' for Active; 'I' for Inactive)
ROOT
ATOM      1  C   UNL d   1      -2.456   0.999  -2.646  0.00  0.00    -0.002 A 
ATOM      2  C1  UNL d   1      -3.064  -0.163  -2.192  0.00  0.00     0.010 A 
ATOM      3  C2  UNL d   1      -2.536  -0.863  -1.106  0.00  0.00     0.041 A 
ATOM      4  C3  UNL d   1      -1.376  -0.371  -0.476  0.00  0.00    -0.075 A 
ATOM      5  S   UNL d   1      -0.553  -1.061   0.872  0.00  0.00     0.015 SA
ATOM      6  C4  UNL d   1       0.625   0.170   0.878  0.00  0.00     0.022 A 
ATOM      7  C5  UNL d   1       0.411   1.094  -0.117  0.00  0.00     0.026 A 
ATOM      8  C6  UNL d   1      -0.747   0.798  -0.914  0.00  0.00    -0.082 A 
ATOM      9  C7  UNL d   1      -1.306   1.485  -2.018  0.00  0.00     0.045 A 
ENDROOT
TORSDOF 0
ENDMDL
