MODEL 1
REMARK minimizedAffinity 5.35168362
REMARK minimizedRMSD -1
REMARK  0 active torsions:
REMARK  status: ('A' for Active; 'I' for Inactive)
ROOT
ATOM      1  C   UNL d   1       1.292  -0.584   2.211  0.00  0.00    -0.002 A 
ATOM      2  C1  UNL d   1       0.255  -1.505   2.152  0.00  0.00     0.010 A 
ATOM      3  C2  UNL d   1      -0.631  -1.508   1.073  0.00  0.00     0.041 A 
ATOM      4  C3  UNL d   1      -0.456  -0.562   0.044  0.00  0.00    -0.075 A 
ATOM      5  S   UNL d   1      -1.418  -0.379  -1.375  0.00  0.00     0.015 SA
ATOM      6  C4  UNL d   1      -0.475   0.925  -1.936  0.00  0.00     0.022 A 
ATOM      7  C5  UNL d   1       0.553   1.227  -1.075  0.00  0.00     0.026 A 
ATOM      8  C6  UNL d   1       0.582   0.374   0.081  0.00  0.00    -0.082 A 
ATOM      9  C7  UNL d   1       1.463   0.352   1.188  0.00  0.00     0.045 A 
ENDROOT
TORSDOF 0
ENDMDL
