MODEL 1
REMARK minimizedAffinity 6.35239792
REMARK minimizedRMSD -1
REMARK  0 active torsions:
REMARK  status: ('A' for Active; 'I' for Inactive)
ROOT
ATOM      1  C   UNL d   1      -0.660   1.928   1.426  0.00  0.00    -0.002 A 
ATOM      2  C1  UNL d   1      -0.521   1.765   0.055  0.00  0.00     0.010 A 
ATOM      3  C2  UNL d   1       0.492   0.957  -0.465  0.00  0.00     0.041 A 
ATOM      4  C3  UNL d   1       1.370   0.307   0.425  0.00  0.00    -0.075 A 
ATOM      5  S   UNL d   1       2.683  -0.732   0.017  0.00  0.00     0.015 SA
ATOM      6  C4  UNL d   1       3.090  -0.984   1.652  0.00  0.00     0.022 A 
ATOM      7  C5  UNL d   1       2.255  -0.300   2.503  0.00  0.00     0.026 A 
ATOM      8  C6  UNL d   1       1.249   0.456   1.810  0.00  0.00    -0.082 A 
ATOM      9  C7  UNL d   1       0.213   1.283   2.306  0.00  0.00     0.045 A 
ENDROOT
TORSDOF 0
ENDMDL
