MODEL 1
REMARK minimizedAffinity 4.59871912
REMARK minimizedRMSD -1
REMARK  0 active torsions:
REMARK  status: ('A' for Active; 'I' for Inactive)
ROOT
ATOM      1  C   UNL d   1      -0.466   1.279  -1.412  0.00  0.00    -0.002 A 
ATOM      2  C1  UNL d   1       0.001  -0.019  -1.261  0.00  0.00     0.010 A 
ATOM      3  C2  UNL d   1       0.605  -0.422  -0.068  0.00  0.00     0.041 A 
ATOM      4  C3  UNL d   1       0.731   0.510   0.981  0.00  0.00    -0.075 A 
ATOM      5  S   UNL d   1       1.435   0.241   2.531  0.00  0.00     0.015 SA
ATOM      6  C4  UNL d   1       1.131   1.842   3.030  0.00  0.00     0.022 A 
ATOM      7  C5  UNL d   1       0.509   2.578   2.050  0.00  0.00     0.026 A 
ATOM      8  C6  UNL d   1       0.267   1.822   0.853  0.00  0.00    -0.082 A 
ATOM      9  C7  UNL d   1      -0.339   2.200  -0.369  0.00  0.00     0.045 A 
ENDROOT
TORSDOF 0
ENDMDL
