MODEL 1
REMARK minimizedAffinity 6.13119459
REMARK minimizedRMSD -1
REMARK  1 active torsions:
REMARK  status: ('A' for Active; 'I' for Inactive)
REMARK    1  A    between atoms: C1_2  and  C2_3 
ROOT
ATOM      1  C2  UNL d   1       4.656   1.480   0.842  0.00  0.00    -0.081 A 
ATOM      2  C3  UNL d   1       3.506   2.109   0.349  0.00  0.00     0.006 A 
ATOM      3  C4  UNL d   1       2.254   1.507   0.489  0.00  0.00     0.002 A 
ATOM      4  C5  UNL d   1       2.128   0.271   1.131  0.00  0.00    -0.080 A 
ATOM      5  C6  UNL d   1       0.786  -0.372   1.315  0.00  0.00     0.076 C 
ATOM      6  C7  UNL d   1       3.278  -0.366   1.609  0.00  0.00     0.002 A 
ATOM      7  C8  UNL d   1       4.531   0.235   1.469  0.00  0.00     0.006 A 
ENDROOT
BRANCH   1   8
ATOM      8  C1  UNL d   1       5.999   2.157   0.750  0.00  0.00     0.054 C 
ATOM      9  C   UNL d   1       5.999   3.489   1.485  0.00  0.00     0.018 C 
ENDBRANCH   1   8
TORSDOF 1
ENDMDL
