MODEL 1
REMARK minimizedAffinity 17.8799324
REMARK minimizedRMSD -1
REMARK  1 active torsions:
REMARK  status: ('A' for Active; 'I' for Inactive)
REMARK    1  A    between atoms: C1_2  and  C2_3 
ROOT
ATOM      1  C2  UNL d   1       4.420  -1.479   3.761  0.00  0.00    -0.081 A 
ATOM      2  C3  UNL d   1       4.889  -1.176   2.477  0.00  0.00     0.006 A 
ATOM      3  C4  UNL d   1       4.078  -0.488   1.571  0.00  0.00     0.002 A 
ATOM      4  C5  UNL d   1       2.789  -0.086   1.935  0.00  0.00    -0.080 A 
ATOM      5  C6  UNL d   1       1.919   0.679   0.982  0.00  0.00     0.076 C 
ATOM      6  C7  UNL d   1       2.313  -0.405   3.212  0.00  0.00     0.002 A 
ATOM      7  C8  UNL d   1       3.123  -1.092   4.118  0.00  0.00     0.006 A 
ENDROOT
BRANCH   1   8
ATOM      8  C1  UNL d   1       5.315  -2.163   4.763  0.00  0.00     0.054 C 
ATOM      9  C   UNL d   1       5.998  -1.153   5.674  0.00  0.00     0.018 C 
ENDBRANCH   1   8
TORSDOF 1
ENDMDL
