MODEL 1
REMARK minimizedAffinity 7.87651587
REMARK minimizedRMSD -1
REMARK  1 active torsions:
REMARK  status: ('A' for Active; 'I' for Inactive)
REMARK    1  A    between atoms: C1_2  and  C2_3 
ROOT
ATOM      1  C2  UNL d   1       2.076   1.156   1.440  0.00  0.00    -0.081 A 
ATOM      2  C3  UNL d   1       2.540   0.456   2.561  0.00  0.00     0.006 A 
ATOM      3  C4  UNL d   1       3.805  -0.138   2.551  0.00  0.00     0.002 A 
ATOM      4  C5  UNL d   1       4.628  -0.036   1.425  0.00  0.00    -0.080 A 
ATOM      5  C6  UNL d   1       6.000  -0.643   1.412  0.00  0.00     0.076 C 
ATOM      6  C7  UNL d   1       4.158   0.649   0.299  0.00  0.00     0.002 A 
ATOM      7  C8  UNL d   1       2.894   1.242   0.308  0.00  0.00     0.006 A 
ENDROOT
BRANCH   1   8
ATOM      8  C1  UNL d   1       0.740   1.853   1.471  0.00  0.00     0.054 C 
ATOM      9  C   UNL d   1       0.111   1.782   2.856  0.00  0.00     0.018 C 
ENDBRANCH   1   8
TORSDOF 1
ENDMDL
