MODEL 1
REMARK minimizedAffinity 14.8244171
REMARK minimizedRMSD -1
REMARK  1 active torsions:
REMARK  status: ('A' for Active; 'I' for Inactive)
REMARK    1  A    between atoms: C1_2  and  C2_3 
ROOT
ATOM      1  C2  UNL d   1       2.650   4.942  -5.057  0.00  0.00    -0.081 A 
ATOM      2  C3  UNL d   1       2.467   3.583  -5.341  0.00  0.00     0.006 A 
ATOM      3  C4  UNL d   1       2.973   2.605  -4.481  0.00  0.00     0.002 A 
ATOM      4  C5  UNL d   1       3.663   2.970  -3.320  0.00  0.00    -0.080 A 
ATOM      5  C6  UNL d   1       4.185   1.930  -2.373  0.00  0.00     0.076 C 
ATOM      6  C7  UNL d   1       3.861   4.327  -3.045  0.00  0.00     0.002 A 
ATOM      7  C8  UNL d   1       3.356   5.305  -3.904  0.00  0.00     0.006 A 
ENDROOT
BRANCH   1   8
ATOM      8  C1  UNL d   1       2.050   5.999  -5.948  0.00  0.00     0.054 C 
ATOM      9  C   UNL d   1       0.533   5.884  -5.999  0.00  0.00     0.018 C 
ENDBRANCH   1   8
TORSDOF 1
ENDMDL
