MODEL 1
REMARK minimizedAffinity 18.7735195
REMARK minimizedRMSD -1
REMARK  1 active torsions:
REMARK  status: ('A' for Active; 'I' for Inactive)
REMARK    1  A    between atoms: C1_2  and  C2_3 
ROOT
ATOM      1  C2  UNL d   1       4.517  -0.441   1.095  0.00  0.00    -0.081 A 
ATOM      2  C3  UNL d   1       4.484  -0.769   2.456  0.00  0.00     0.006 A 
ATOM      3  C4  UNL d   1       3.339  -0.522   3.216  0.00  0.00     0.002 A 
ATOM      4  C5  UNL d   1       2.206   0.049   2.628  0.00  0.00    -0.080 A 
ATOM      5  C6  UNL d   1       0.959   0.291   3.425  0.00  0.00     0.076 C 
ATOM      6  C7  UNL d   1       2.245   0.393   1.272  0.00  0.00     0.002 A 
ATOM      7  C8  UNL d   1       3.390   0.147   0.511  0.00  0.00     0.006 A 
ENDROOT
BRANCH   1   8
ATOM      8  C1  UNL d   1       5.728  -0.765   0.258  0.00  0.00     0.054 C 
ATOM      9  C   UNL d   1       6.000   0.326  -0.768  0.00  0.00     0.018 C 
ENDBRANCH   1   8
TORSDOF 1
ENDMDL
