MODEL 1
REMARK minimizedAffinity 6.57062769
REMARK minimizedRMSD -1
REMARK  1 active torsions:
REMARK  status: ('A' for Active; 'I' for Inactive)
REMARK    1  A    between atoms: C1_2  and  C2_3 
ROOT
ATOM      1  C2  UNL d   1       3.674   3.100  -4.113  0.00  0.00    -0.081 A 
ATOM      2  C3  UNL d   1       4.032   3.682  -5.335  0.00  0.00     0.006 A 
ATOM      3  C4  UNL d   1       3.185   4.604  -5.955  0.00  0.00     0.002 A 
ATOM      4  C5  UNL d   1       1.972   4.965  -5.360  0.00  0.00    -0.080 A 
ATOM      5  C6  UNL d   1       1.068   5.977  -6.000  0.00  0.00     0.076 C 
ATOM      6  C7  UNL d   1       1.606   4.371  -4.147  0.00  0.00     0.002 A 
ATOM      7  C8  UNL d   1       2.452   3.448  -3.528  0.00  0.00     0.006 A 
ENDROOT
BRANCH   1   8
ATOM      8  C1  UNL d   1       4.614   2.154  -3.410  0.00  0.00     0.054 C 
ATOM      9  C   UNL d   1       5.953   2.817  -3.121  0.00  0.00     0.018 C 
ENDBRANCH   1   8
TORSDOF 1
ENDMDL
