MODEL 1
REMARK minimizedAffinity 11.9244184
REMARK minimizedRMSD -1
REMARK  1 active torsions:
REMARK  status: ('A' for Active; 'I' for Inactive)
REMARK    1  A    between atoms: C1_2  and  C2_3 
ROOT
ATOM      1  C2  UNL d   1      -1.775  -4.625   1.882  0.00  0.00    -0.081 A 
ATOM      2  C3  UNL d   1      -1.112  -4.339   3.081  0.00  0.00     0.006 A 
ATOM      3  C4  UNL d   1      -0.646  -3.048   3.343  0.00  0.00     0.002 A 
ATOM      4  C5  UNL d   1      -0.842  -2.021   2.414  0.00  0.00    -0.080 A 
ATOM      5  C6  UNL d   1      -0.373  -0.624   2.696  0.00  0.00     0.076 C 
ATOM      6  C7  UNL d   1      -1.489  -2.310   1.208  0.00  0.00     0.002 A 
ATOM      7  C8  UNL d   1      -1.955  -3.600   0.945  0.00  0.00     0.006 A 
ENDROOT
BRANCH   1   8
ATOM      8  C1  UNL d   1      -2.336  -6.000   1.625  0.00  0.00     0.054 C 
ATOM      9  C   UNL d   1      -3.857  -5.999   1.691  0.00  0.00     0.018 C 
ENDBRANCH   1   8
TORSDOF 1
ENDMDL
