MODEL 1
REMARK minimizedAffinity 8.13613129
REMARK minimizedRMSD -1
REMARK  1 active torsions:
REMARK  status: ('A' for Active; 'I' for Inactive)
REMARK    1  A    between atoms: C1_2  and  C2_3 
ROOT
ATOM      1  C2  UNL d   1       1.744   1.925  -1.537  0.00  0.00    -0.081 A 
ATOM      2  C3  UNL d   1       1.285   1.889  -0.214  0.00  0.00     0.006 A 
ATOM      3  C4  UNL d   1       2.015   1.220   0.771  0.00  0.00     0.002 A 
ATOM      4  C5  UNL d   1       3.218   0.582   0.453  0.00  0.00    -0.080 A 
ATOM      5  C6  UNL d   1       4.027  -0.114   1.507  0.00  0.00     0.076 C 
ATOM      6  C7  UNL d   1       3.668   0.602  -0.872  0.00  0.00     0.002 A 
ATOM      7  C8  UNL d   1       2.938   1.271  -1.858  0.00  0.00     0.006 A 
ENDROOT
BRANCH   1   8
ATOM      8  C1  UNL d   1       0.992   2.700  -2.588  0.00  0.00     0.054 C 
ATOM      9  C   UNL d   1       1.927   3.201  -3.680  0.00  0.00     0.018 C 
ENDBRANCH   1   8
TORSDOF 1
ENDMDL
