MODEL 1
REMARK minimizedAffinity 11.8472633
REMARK minimizedRMSD -1
REMARK  1 active torsions:
REMARK  status: ('A' for Active; 'I' for Inactive)
REMARK    1  A    between atoms: C1_2  and  C2_3 
ROOT
ATOM      1  C2  UNL d   1      -4.883   4.591   4.145  0.00  0.00    -0.081 A 
ATOM      2  C3  UNL d   1      -3.939   3.919   4.931  0.00  0.00     0.006 A 
ATOM      3  C4  UNL d   1      -3.474   2.656   4.555  0.00  0.00     0.002 A 
ATOM      4  C5  UNL d   1      -3.938   2.049   3.383  0.00  0.00    -0.080 A 
ATOM      5  C6  UNL d   1      -3.424   0.707   2.952  0.00  0.00     0.076 C 
ATOM      6  C7  UNL d   1      -4.894   2.712   2.607  0.00  0.00     0.002 A 
ATOM      7  C8  UNL d   1      -5.360   3.974   2.983  0.00  0.00     0.006 A 
ENDROOT
BRANCH   1   8
ATOM      8  C1  UNL d   1      -5.338   5.979   4.513  0.00  0.00     0.054 C 
ATOM      9  C   UNL d   1      -5.999   5.999   5.884  0.00  0.00     0.018 C 
ENDBRANCH   1   8
TORSDOF 1
ENDMDL
