MODEL 1
REMARK minimizedAffinity 2.59146214
REMARK minimizedRMSD -1
REMARK  1 active torsions:
REMARK  status: ('A' for Active; 'I' for Inactive)
REMARK    1  A    between atoms: C1_2  and  C2_3 
ROOT
ATOM      1  C2  UNL d   1       4.555   2.589  -4.956  0.00  0.00    -0.081 A 
ATOM      2  C3  UNL d   1       4.708   3.825  -5.597  0.00  0.00     0.006 A 
ATOM      3  C4  UNL d   1       3.589   4.584  -5.948  0.00  0.00     0.002 A 
ATOM      4  C5  UNL d   1       2.300   4.124  -5.656  0.00  0.00    -0.080 A 
ATOM      5  C6  UNL d   1       1.091   4.943  -6.000  0.00  0.00     0.076 C 
ATOM      6  C7  UNL d   1       2.147   2.882  -5.031  0.00  0.00     0.002 A 
ATOM      7  C8  UNL d   1       3.265   2.122  -4.681  0.00  0.00     0.006 A 
ENDROOT
BRANCH   1   8
ATOM      8  C1  UNL d   1       5.762   1.798  -4.519  0.00  0.00     0.054 C 
ATOM      9  C   UNL d   1       5.992   1.923  -3.020  0.00  0.00     0.018 C 
ENDBRANCH   1   8
TORSDOF 1
ENDMDL
