MODEL 1
REMARK minimizedAffinity 1.78136814
REMARK minimizedRMSD -1
REMARK  1 active torsions:
REMARK  status: ('A' for Active; 'I' for Inactive)
REMARK    1  A    between atoms: C1_2  and  C2_3 
ROOT
ATOM      1  C2  UNL d   1       5.963   4.275  -4.537  0.00  0.00    -0.081 A 
ATOM      2  C3  UNL d   1       5.978   2.922  -4.897  0.00  0.00     0.006 A 
ATOM      3  C4  UNL d   1       6.000   1.928  -3.916  0.00  0.00     0.002 A 
ATOM      4  C5  UNL d   1       5.998   2.270  -2.560  0.00  0.00    -0.080 A 
ATOM      5  C6  UNL d   1       5.990   1.212  -1.496  0.00  0.00     0.076 C 
ATOM      6  C7  UNL d   1       6.000   3.621  -2.199  0.00  0.00     0.002 A 
ATOM      7  C8  UNL d   1       5.979   4.616  -3.180  0.00  0.00     0.006 A 
ENDROOT
BRANCH   1   8
ATOM      8  C1  UNL d   1       5.874   5.349  -5.591  0.00  0.00     0.054 C 
ATOM      9  C   UNL d   1       4.427   5.670  -5.933  0.00  0.00     0.018 C 
ENDBRANCH   1   8
TORSDOF 1
ENDMDL
