MODEL 1
REMARK minimizedAffinity 10.2990017
REMARK minimizedRMSD -1
REMARK  1 active torsions:
REMARK  status: ('A' for Active; 'I' for Inactive)
REMARK    1  A    between atoms: C1_2  and  C2_3 
ROOT
ATOM      1  C2  UNL d   1       2.710   3.673  -5.252  0.00  0.00    -0.081 A 
ATOM      2  C3  UNL d   1       3.988   3.659  -5.824  0.00  0.00     0.006 A 
ATOM      3  C4  UNL d   1       5.055   3.051  -5.159  0.00  0.00     0.002 A 
ATOM      4  C5  UNL d   1       4.861   2.441  -3.915  0.00  0.00    -0.080 A 
ATOM      5  C6  UNL d   1       5.992   1.758  -3.205  0.00  0.00     0.076 C 
ATOM      6  C7  UNL d   1       3.589   2.470  -3.335  0.00  0.00     0.002 A 
ATOM      7  C8  UNL d   1       2.521   3.078  -4.000  0.00  0.00     0.006 A 
ENDROOT
BRANCH   1   8
ATOM      8  C1  UNL d   1       1.544   4.271  -5.996  0.00  0.00     0.054 C 
ATOM      9  C   UNL d   1       1.608   5.792  -5.997  0.00  0.00     0.018 C 
ENDBRANCH   1   8
TORSDOF 1
ENDMDL
