MODEL 1
REMARK minimizedAffinity -1.29595935
REMARK minimizedRMSD -1
REMARK  1 active torsions:
REMARK  status: ('A' for Active; 'I' for Inactive)
REMARK    1  A    between atoms: C1_2  and  C2_3 
ROOT
ATOM      1  C2  UNL d   1       4.487   3.351  -3.744  0.00  0.00    -0.081 A 
ATOM      2  C3  UNL d   1       3.241   2.908  -4.204  0.00  0.00     0.006 A 
ATOM      3  C4  UNL d   1       2.406   3.766  -4.923  0.00  0.00     0.002 A 
ATOM      4  C5  UNL d   1       2.805   5.078  -5.201  0.00  0.00    -0.080 A 
ATOM      5  C6  UNL d   1       1.931   6.000  -5.998  0.00  0.00     0.076 C 
ATOM      6  C7  UNL d   1       4.043   5.526  -4.726  0.00  0.00     0.002 A 
ATOM      7  C8  UNL d   1       4.878   4.669  -4.006  0.00  0.00     0.006 A 
ENDROOT
BRANCH   1   8
ATOM      8  C1  UNL d   1       5.418   2.409  -3.024  0.00  0.00     0.054 C 
ATOM      9  C   UNL d   1       5.239   2.500  -1.515  0.00  0.00     0.018 C 
ENDBRANCH   1   8
TORSDOF 1
ENDMDL
