MODEL 1
REMARK minimizedAffinity 9.82618713
REMARK minimizedRMSD -1
REMARK  0 active torsions:
REMARK  status: ('A' for Active; 'I' for Inactive)
ROOT
ATOM      1  C   UNL d   1       2.225   0.864   1.312  0.00  0.00     0.124 A 
ATOM      2  C1  UNL d   1       2.392   1.869   0.369  0.00  0.00     0.062 A 
ATOM      3  C2  UNL d   1       2.059   1.641  -0.963  0.00  0.00     0.162 A 
ATOM      4  C3  UNL d   1       1.554   0.403  -1.361  0.00  0.00    -0.034 A 
ATOM      5  C4  UNL d   1       1.389  -0.602  -0.407  0.00  0.00     0.162 A 
ATOM      6  C5  UNL d   1       1.723  -0.370   0.923  0.00  0.00     0.062 A 
ATOM      7  F   UNL d   1       1.561  -1.342   1.833  0.00  0.00    -0.097 F 
ATOM      8  F1  UNL d   1       0.906  -1.804  -0.754  0.00  0.00    -0.096 F 
ATOM      9  I   UNL d   1       1.055   0.059  -3.351  0.00  0.00    -0.060 I 
ATOM     10  F2  UNL d   1       2.232   2.630  -1.853  0.00  0.00    -0.096 F 
ATOM     11  F3  UNL d   1       2.877   3.062   0.742  0.00  0.00    -0.097 F 
ATOM     12  F4  UNL d   1       2.547   1.086   2.593  0.00  0.00    -0.092 F 
ENDROOT
TORSDOF 0
ENDMDL
