MODEL 1
REMARK minimizedAffinity 7.67141342
REMARK minimizedRMSD -1
REMARK  0 active torsions:
REMARK  status: ('A' for Active; 'I' for Inactive)
ROOT
ATOM      1  C   UNL d   1       1.659   1.103  -2.858  0.00  0.00     0.124 A 
ATOM      2  C1  UNL d   1       3.031   1.242  -2.692  0.00  0.00     0.062 A 
ATOM      3  C2  UNL d   1       3.902   0.323  -3.269  0.00  0.00     0.162 A 
ATOM      4  C3  UNL d   1       3.405  -0.743  -4.018  0.00  0.00    -0.034 A 
ATOM      5  C4  UNL d   1       2.025  -0.877  -4.179  0.00  0.00     0.162 A 
ATOM      6  C5  UNL d   1       1.158   0.044  -3.601  0.00  0.00     0.062 A 
ATOM      7  F   UNL d   1      -0.166  -0.092  -3.761  0.00  0.00    -0.097 F 
ATOM      8  F1  UNL d   1       1.513  -1.891  -4.893  0.00  0.00    -0.096 F 
ATOM      9  I   UNL d   1       4.705  -2.120  -4.883  0.00  0.00    -0.060 I 
ATOM     10  F2  UNL d   1       5.222   0.482  -3.093  0.00  0.00    -0.096 F 
ATOM     11  F3  UNL d   1       3.518   2.265  -1.974  0.00  0.00    -0.097 F 
ATOM     12  F4  UNL d   1       0.823   1.989  -2.300  0.00  0.00    -0.092 F 
ENDROOT
TORSDOF 0
ENDMDL
