MODEL 1
REMARK minimizedAffinity 10.4264441
REMARK minimizedRMSD -1
REMARK  0 active torsions:
REMARK  status: ('A' for Active; 'I' for Inactive)
ROOT
ATOM      1  C   UNL d   1      -1.655   0.561   2.201  0.00  0.00     0.124 A 
ATOM      2  C1  UNL d   1      -1.603  -0.369   1.172  0.00  0.00     0.062 A 
ATOM      3  C2  UNL d   1      -0.375  -0.814   0.692  0.00  0.00     0.162 A 
ATOM      4  C3  UNL d   1       0.812  -0.331   1.242  0.00  0.00    -0.034 A 
ATOM      5  C4  UNL d   1       0.753   0.605   2.276  0.00  0.00     0.162 A 
ATOM      6  C5  UNL d   1      -0.477   1.047   2.752  0.00  0.00     0.062 A 
ATOM      7  F   UNL d   1      -0.525   1.945   3.747  0.00  0.00    -0.097 F 
ATOM      8  F1  UNL d   1       1.875   1.090   2.828  0.00  0.00    -0.096 F 
ATOM      9  I   UNL d   1       2.651  -0.995   0.527  0.00  0.00    -0.060 I 
ATOM     10  F2  UNL d   1      -0.355  -1.713  -0.303  0.00  0.00    -0.096 F 
ATOM     11  F3  UNL d   1      -2.740  -0.839   0.638  0.00  0.00    -0.097 F 
ATOM     12  F4  UNL d   1      -2.838   0.989   2.661  0.00  0.00    -0.092 F 
ENDROOT
TORSDOF 0
ENDMDL
