MODEL 1
REMARK minimizedAffinity 12.6458197
REMARK minimizedRMSD -1
REMARK  0 active torsions:
REMARK  status: ('A' for Active; 'I' for Inactive)
ROOT
ATOM      1  C   UNL d   1       0.396  -0.002  -4.731  0.00  0.00     0.124 A 
ATOM      2  C1  UNL d   1      -0.152  -1.047  -4.000  0.00  0.00     0.062 A 
ATOM      3  C2  UNL d   1       0.239  -1.259  -2.681  0.00  0.00     0.162 A 
ATOM      4  C3  UNL d   1       1.181  -0.423  -2.083  0.00  0.00    -0.034 A 
ATOM      5  C4  UNL d   1       1.728   0.626  -2.824  0.00  0.00     0.162 A 
ATOM      6  C5  UNL d   1       1.335   0.834  -4.142  0.00  0.00     0.062 A 
ATOM      7  F   UNL d   1       1.865   1.844  -4.847  0.00  0.00    -0.097 F 
ATOM      8  F1  UNL d   1       2.637   1.449  -2.280  0.00  0.00    -0.096 F 
ATOM      9  I   UNL d   1       1.767  -0.736  -0.111  0.00  0.00    -0.060 I 
ATOM     10  F2  UNL d   1      -0.307  -2.277  -1.999  0.00  0.00    -0.096 F 
ATOM     11  F3  UNL d   1      -1.058  -1.857  -4.566  0.00  0.00    -0.097 F 
ATOM     12  F4  UNL d   1       0.019   0.199  -6.000  0.00  0.00    -0.092 F 
ENDROOT
TORSDOF 0
ENDMDL
