MODEL 1
REMARK minimizedAffinity 14.7757006
REMARK minimizedRMSD -1
REMARK  0 active torsions:
REMARK  status: ('A' for Active; 'I' for Inactive)
ROOT
ATOM      1  C   UNL d   1       1.894   1.704  -3.416  0.00  0.00     0.124 A 
ATOM      2  C1  UNL d   1       1.493   0.476  -3.923  0.00  0.00     0.062 A 
ATOM      3  C2  UNL d   1       2.430  -0.529  -4.146  0.00  0.00     0.162 A 
ATOM      4  C3  UNL d   1       3.777  -0.310  -3.861  0.00  0.00    -0.034 A 
ATOM      5  C4  UNL d   1       4.173   0.928  -3.352  0.00  0.00     0.162 A 
ATOM      6  C5  UNL d   1       3.233   1.929  -3.131  0.00  0.00     0.062 A 
ATOM      7  F   UNL d   1       3.622   3.115  -2.640  0.00  0.00    -0.097 F 
ATOM      8  F1  UNL d   1       5.461   1.171  -3.066  0.00  0.00    -0.096 F 
ATOM      9  I   UNL d   1       5.181  -1.810  -4.193  0.00  0.00    -0.060 I 
ATOM     10  F2  UNL d   1       2.014  -1.706  -4.637  0.00  0.00    -0.096 F 
ATOM     11  F3  UNL d   1       0.199   0.257  -4.201  0.00  0.00    -0.097 F 
ATOM     12  F4  UNL d   1       0.990   2.670  -3.203  0.00  0.00    -0.092 F 
ENDROOT
TORSDOF 0
ENDMDL
