MODEL 1
REMARK minimizedAffinity 4.00353289
REMARK minimizedRMSD -1
REMARK  0 active torsions:
REMARK  status: ('A' for Active; 'I' for Inactive)
ROOT
ATOM      1  C   UNL d   1       4.281   4.883   4.334  0.00  0.00     0.020 A 
ATOM      2  C1  UNL d   1       4.168   5.641   5.500  0.00  0.00     0.020 A 
ATOM      3  C2  UNL d   1       2.907   5.974   5.997  0.00  0.00     0.034 A 
ATOM      4  C3  UNL d   1       1.752   5.550   5.328  0.00  0.00     0.017 A 
ATOM      5  C4  UNL d   1       1.866   4.790   4.158  0.00  0.00     0.017 A 
ATOM      6  C5  UNL d   1       3.132   4.459   3.665  0.00  0.00     0.034 A 
ATOM      7 Cl   UNL d   1       0.488   4.231   3.279  0.00  0.00    -0.070 Cl
ATOM      8 Cl1  UNL d   1       0.225   5.999   5.999  0.00  0.00    -0.070 Cl
ENDROOT
TORSDOF 0
ENDMDL
