MODEL 1
REMARK minimizedAffinity 7.5852623
REMARK minimizedRMSD -1
REMARK  0 active torsions:
REMARK  status: ('A' for Active; 'I' for Inactive)
ROOT
ATOM      1  C   UNL d   1       0.934  -0.487   3.717  0.00  0.00     0.020 A 
ATOM      2  C1  UNL d   1       1.221  -1.528   2.835  0.00  0.00     0.020 A 
ATOM      3  C2  UNL d   1       0.266  -1.935   1.901  0.00  0.00     0.034 A 
ATOM      4  C3  UNL d   1      -0.980  -1.300   1.846  0.00  0.00     0.017 A 
ATOM      5  C4  UNL d   1      -1.267  -0.255   2.732  0.00  0.00     0.017 A 
ATOM      6  C5  UNL d   1      -0.307   0.148   3.666  0.00  0.00     0.034 A 
ATOM      7 Cl   UNL d   1      -2.783   0.576   2.726  0.00  0.00    -0.070 Cl
ATOM      8 Cl1  UNL d   1      -2.114  -1.854   0.666  0.00  0.00    -0.070 Cl
ENDROOT
TORSDOF 0
ENDMDL
