MODEL 1
REMARK minimizedAffinity 5.91253805
REMARK minimizedRMSD -1
REMARK  0 active torsions:
REMARK  status: ('A' for Active; 'I' for Inactive)
ROOT
ATOM      1  C   UNL d   1       4.129  -5.997   4.820  0.00  0.00     0.020 A 
ATOM      2  C1  UNL d   1       5.246  -5.950   5.654  0.00  0.00     0.020 A 
ATOM      3  C2  UNL d   1       5.808  -4.719   5.999  0.00  0.00     0.034 A 
ATOM      4  C3  UNL d   1       5.253  -3.530   5.511  0.00  0.00     0.017 A 
ATOM      5  C4  UNL d   1       4.132  -3.578   4.675  0.00  0.00     0.017 A 
ATOM      6  C5  UNL d   1       3.573  -4.814   4.332  0.00  0.00     0.034 A 
ATOM      7 Cl   UNL d   1       3.392  -2.154   4.033  0.00  0.00    -0.070 Cl
ATOM      8 Cl1  UNL d   1       5.999  -2.044   5.979  0.00  0.00    -0.070 Cl
ENDROOT
TORSDOF 0
ENDMDL
