MODEL 1
REMARK minimizedAffinity 4.34263039
REMARK minimizedRMSD -1
REMARK  0 active torsions:
REMARK  status: ('A' for Active; 'I' for Inactive)
ROOT
ATOM      1  C   UNL d   1       0.524   0.246  -1.689  0.00  0.00     0.020 A 
ATOM      2  C1  UNL d   1       1.738   0.486  -2.330  0.00  0.00     0.020 A 
ATOM      3  C2  UNL d   1       2.920  -0.047  -1.811  0.00  0.00     0.034 A 
ATOM      4  C3  UNL d   1       2.890  -0.822  -0.646  0.00  0.00     0.017 A 
ATOM      5  C4  UNL d   1       1.671  -1.062  -0.002  0.00  0.00     0.017 A 
ATOM      6  C5  UNL d   1       0.490  -0.527  -0.527  0.00  0.00     0.034 A 
ATOM      7 Cl   UNL d   1       1.554  -2.009   1.439  0.00  0.00    -0.070 Cl
ATOM      8 Cl1  UNL d   1       4.390  -1.449  -0.059  0.00  0.00    -0.070 Cl
ENDROOT
TORSDOF 0
ENDMDL
