MODEL 1
REMARK minimizedAffinity 10.6615152
REMARK minimizedRMSD -1
REMARK  0 active torsions:
REMARK  status: ('A' for Active; 'I' for Inactive)
ROOT
ATOM      1  C   UNL d   1       0.830  -3.200   2.176  0.00  0.00     0.020 A 
ATOM      2  C1  UNL d   1      -0.541  -3.450   2.223  0.00  0.00     0.020 A 
ATOM      3  C2  UNL d   1      -1.430  -2.412   2.512  0.00  0.00     0.034 A 
ATOM      4  C3  UNL d   1      -0.949  -1.120   2.756  0.00  0.00     0.017 A 
ATOM      5  C4  UNL d   1       0.428  -0.871   2.709  0.00  0.00     0.017 A 
ATOM      6  C5  UNL d   1       1.313  -1.914   2.419  0.00  0.00     0.034 A 
ATOM      7 Cl   UNL d   1       1.096   0.696   2.999  0.00  0.00    -0.070 Cl
ATOM      8 Cl1  UNL d   1      -2.105   0.115   3.107  0.00  0.00    -0.070 Cl
ENDROOT
TORSDOF 0
ENDMDL
