MODEL 1
REMARK minimizedAffinity 4.89898014
REMARK minimizedRMSD -1
REMARK  0 active torsions:
REMARK  status: ('A' for Active; 'I' for Inactive)
ROOT
ATOM      1  C   UNL d   1       0.387  -0.842  -1.875  0.00  0.00     0.020 A 
ATOM      2  C1  UNL d   1       1.706  -0.460  -1.634  0.00  0.00     0.020 A 
ATOM      3  C2  UNL d   1       2.244  -0.581  -0.351  0.00  0.00     0.034 A 
ATOM      4  C3  UNL d   1       1.462  -1.083   0.696  0.00  0.00     0.017 A 
ATOM      5  C4  UNL d   1       0.138  -1.466   0.453  0.00  0.00     0.017 A 
ATOM      6  C5  UNL d   1      -0.396  -1.343  -0.834  0.00  0.00     0.034 A 
ATOM      7 Cl   UNL d   1      -0.888  -2.094   1.693  0.00  0.00    -0.070 Cl
ATOM      8 Cl1  UNL d   1       2.192  -1.205   2.257  0.00  0.00    -0.070 Cl
ENDROOT
TORSDOF 0
ENDMDL
