MODEL 1
REMARK minimizedAffinity 3.90708089
REMARK minimizedRMSD -1
REMARK  0 active torsions:
REMARK  status: ('A' for Active; 'I' for Inactive)
ROOT
ATOM      1  C   UNL d   1      -0.781  -3.132   3.119  0.00  0.00     0.020 A 
ATOM      2  C1  UNL d   1       0.342  -2.518   3.671  0.00  0.00     0.020 A 
ATOM      3  C2  UNL d   1       0.935  -1.433   3.021  0.00  0.00     0.034 A 
ATOM      4  C3  UNL d   1       0.405  -0.959   1.816  0.00  0.00     0.017 A 
ATOM      5  C4  UNL d   1      -0.722  -1.576   1.262  0.00  0.00     0.017 A 
ATOM      6  C5  UNL d   1      -1.312  -2.662   1.917  0.00  0.00     0.034 A 
ATOM      7 Cl   UNL d   1      -1.433  -1.048  -0.222  0.00  0.00    -0.070 Cl
ATOM      8 Cl1  UNL d   1       1.189   0.386   1.067  0.00  0.00    -0.070 Cl
ENDROOT
TORSDOF 0
ENDMDL
