MODEL 1
REMARK minimizedAffinity 5.69293261
REMARK minimizedRMSD -1
REMARK  0 active torsions:
REMARK  status: ('A' for Active; 'I' for Inactive)
ROOT
ATOM      1  C   UNL d   1      -1.087  -0.021   2.643  0.00  0.00     0.020 A 
ATOM      2  C1  UNL d   1      -0.320  -0.812   3.497  0.00  0.00     0.020 A 
ATOM      3  C2  UNL d   1       0.709  -1.602   2.980  0.00  0.00     0.034 A 
ATOM      4  C3  UNL d   1       0.974  -1.603   1.606  0.00  0.00     0.017 A 
ATOM      5  C4  UNL d   1       0.203  -0.808   0.750  0.00  0.00     0.017 A 
ATOM      6  C5  UNL d   1      -0.826  -0.019   1.273  0.00  0.00     0.034 A 
ATOM      7 Cl   UNL d   1       0.470  -0.756  -0.957  0.00  0.00    -0.070 Cl
ATOM      8 Cl1  UNL d   1       2.262  -2.603   1.036  0.00  0.00    -0.070 Cl
ENDROOT
TORSDOF 0
ENDMDL
