MODEL 1
REMARK minimizedAffinity 4.24234581
REMARK minimizedRMSD -1
REMARK  0 active torsions:
REMARK  status: ('A' for Active; 'I' for Inactive)
ROOT
ATOM      1  C   UNL d   1       2.484  -1.188   0.724  0.00  0.00     0.020 A 
ATOM      2  C1  UNL d   1       2.175  -1.911  -0.428  0.00  0.00     0.020 A 
ATOM      3  C2  UNL d   1       1.919  -1.240  -1.626  0.00  0.00     0.034 A 
ATOM      4  C3  UNL d   1       1.972   0.158  -1.675  0.00  0.00     0.017 A 
ATOM      5  C4  UNL d   1       2.282   0.882  -0.518  0.00  0.00     0.017 A 
ATOM      6  C5  UNL d   1       2.537   0.205   0.679  0.00  0.00     0.034 A 
ATOM      7 Cl   UNL d   1       2.365   2.609  -0.500  0.00  0.00    -0.070 Cl
ATOM      8 Cl1  UNL d   1       1.645   0.922  -3.189  0.00  0.00    -0.070 Cl
ENDROOT
TORSDOF 0
ENDMDL
