MODEL 1
REMARK minimizedAffinity -4.10708714
REMARK minimizedRMSD -1
REMARK  1 active torsions:
REMARK  status: ('A' for Active; 'I' for Inactive)
REMARK    1  A    between atoms: N_2  and  C1_3 
ROOT
ATOM      1  C1  UNL d   1      -1.732   1.002  -1.352  0.00  0.00     0.143 A 
ATOM      2  C2  UNL d   1      -2.607   0.091  -0.749  0.00  0.00    -0.057 A 
ATOM      3  C3  UNL d   1      -2.165  -0.790   0.246  0.00  0.00     0.033 A 
ATOM      4  C4  UNL d   1      -0.830  -0.795   0.636  0.00  0.00    -0.042 A 
ATOM      5  C5  UNL d   1       0.062   0.084   0.033  0.00  0.00     0.033 A 
ATOM      6  C6  UNL d   1      -0.386   0.966  -0.955  0.00  0.00    -0.057 A 
ENDROOT
BRANCH   1   7
ATOM      7  N   UNL d   1      -2.088   1.834  -2.415  0.00  0.00    -0.732 N 
ATOM      8  C   UNL d   1      -1.431   1.713  -3.699  0.00  0.00     0.284 C 
ATOM      9  H3  UNL d   1      -3.094   1.979  -2.476  0.00  0.00     0.395 HD
ENDBRANCH   1   7
TORSDOF 1
ENDMDL
