MODEL 1
REMARK minimizedAffinity -3.05937719
REMARK minimizedRMSD -1
REMARK  1 active torsions:
REMARK  status: ('A' for Active; 'I' for Inactive)
REMARK    1  A    between atoms: N_2  and  C1_3 
ROOT
ATOM      1  C1  UNL d   1      -1.018   0.516  -0.521  0.00  0.00     0.143 A 
ATOM      2  C2  UNL d   1      -0.410   1.462  -1.352  0.00  0.00    -0.057 A 
ATOM      3  C3  UNL d   1      -1.101   2.037  -2.425  0.00  0.00     0.033 A 
ATOM      4  C4  UNL d   1      -2.409   1.652  -2.704  0.00  0.00    -0.042 A 
ATOM      5  C5  UNL d   1      -3.025   0.695  -1.906  0.00  0.00     0.033 A 
ATOM      6  C6  UNL d   1      -2.331   0.129  -0.832  0.00  0.00    -0.057 A 
ENDROOT
BRANCH   1   7
ATOM      7  N   UNL d   1      -0.351  -0.165   0.501  0.00  0.00    -0.732 N 
ATOM      8  C   UNL d   1       1.017  -0.602   0.325  0.00  0.00     0.284 C 
ATOM      9  H3  UNL d   1      -0.548   0.225   1.420  0.00  0.00     0.395 HD
ENDBRANCH   1   7
TORSDOF 1
ENDMDL
