MODEL 1
REMARK minimizedAffinity -3.70827127
REMARK minimizedRMSD -1
REMARK  1 active torsions:
REMARK  status: ('A' for Active; 'I' for Inactive)
REMARK    1  A    between atoms: N_2  and  C1_3 
ROOT
ATOM      1  C1  UNL d   1      -0.096   0.563   0.298  0.00  0.00     0.143 A 
ATOM      2  C2  UNL d   1      -0.231  -0.401   1.303  0.00  0.00    -0.057 A 
ATOM      3  C3  UNL d   1       0.796  -1.311   1.579  0.00  0.00     0.033 A 
ATOM      4  C4  UNL d   1       1.970  -1.292   0.833  0.00  0.00    -0.042 A 
ATOM      5  C5  UNL d   1       2.116  -0.359  -0.188  0.00  0.00     0.033 A 
ATOM      6  C6  UNL d   1       1.089   0.552  -0.454  0.00  0.00    -0.057 A 
ENDROOT
BRANCH   1   7
ATOM      7  N   UNL d   1      -1.119   1.431  -0.091  0.00  0.00    -0.732 N 
ATOM      8  C   UNL d   1      -1.282   1.805  -1.479  0.00  0.00     0.284 C 
ATOM      9  H3  UNL d   1      -1.994   1.242   0.394  0.00  0.00     0.395 HD
ENDBRANCH   1   7
TORSDOF 1
ENDMDL
