MODEL 1
REMARK minimizedAffinity -1.61980569
REMARK minimizedRMSD -1
REMARK  1 active torsions:
REMARK  status: ('A' for Active; 'I' for Inactive)
REMARK    1  A    between atoms: N_2  and  C1_3 
ROOT
ATOM      1  C1  UNL d   1      -0.364   1.282  -0.784  0.00  0.00     0.143 A 
ATOM      2  C2  UNL d   1      -1.179   0.534   0.072  0.00  0.00    -0.057 A 
ATOM      3  C3  UNL d   1      -0.646  -0.479   0.879  0.00  0.00     0.033 A 
ATOM      4  C4  UNL d   1       0.710  -0.782   0.822  0.00  0.00    -0.042 A 
ATOM      5  C5  UNL d   1       1.534  -0.068  -0.041  0.00  0.00     0.033 A 
ATOM      6  C6  UNL d   1       0.998   0.947  -0.839  0.00  0.00    -0.057 A 
ENDROOT
BRANCH   1   7
ATOM      7  N   UNL d   1      -0.849   2.236  -1.683  0.00  0.00    -0.732 N 
ATOM      8  C   UNL d   1      -1.682   1.840  -2.798  0.00  0.00     0.284 C 
ATOM      9  H3  UNL d   1      -1.154   3.088  -1.218  0.00  0.00     0.395 HD
ENDBRANCH   1   7
TORSDOF 1
ENDMDL
