MODEL 1
REMARK minimizedAffinity -2.3760035
REMARK minimizedRMSD -1
REMARK  1 active torsions:
REMARK  status: ('A' for Active; 'I' for Inactive)
REMARK    1  A    between atoms: N_2  and  C1_3 
ROOT
ATOM      1  C1  UNL d   1      -0.628   1.333  -0.897  0.00  0.00     0.143 A 
ATOM      2  C2  UNL d   1      -1.497   0.594  -0.088  0.00  0.00    -0.057 A 
ATOM      3  C3  UNL d   1      -1.013  -0.353   0.823  0.00  0.00     0.033 A 
ATOM      4  C4  UNL d   1       0.353  -0.599   0.920  0.00  0.00    -0.042 A 
ATOM      5  C5  UNL d   1       1.234   0.106   0.107  0.00  0.00     0.033 A 
ATOM      6  C6  UNL d   1       0.744   1.055  -0.795  0.00  0.00    -0.057 A 
ENDROOT
BRANCH   1   7
ATOM      7  N   UNL d   1      -1.053   2.218  -1.891  0.00  0.00    -0.732 N 
ATOM      8  C   UNL d   1      -2.002   1.794  -2.898  0.00  0.00     0.284 C 
ATOM      9  H3  UNL d   1      -1.220   3.155  -1.531  0.00  0.00     0.395 HD
ENDBRANCH   1   7
TORSDOF 1
ENDMDL
