MODEL 1
REMARK minimizedAffinity 0.0131719382
REMARK minimizedRMSD -1
REMARK  1 active torsions:
REMARK  status: ('A' for Active; 'I' for Inactive)
REMARK    1  A    between atoms: N_2  and  C1_3 
ROOT
ATOM      1  C1  UNL d   1       0.135   0.284  -0.157  0.00  0.00     0.143 A 
ATOM      2  C2  UNL d   1      -1.007  -0.101  -0.868  0.00  0.00    -0.057 A 
ATOM      3  C3  UNL d   1      -2.166  -0.524  -0.207  0.00  0.00     0.033 A 
ATOM      4  C4  UNL d   1      -2.194  -0.597   1.182  0.00  0.00    -0.042 A 
ATOM      5  C5  UNL d   1      -1.063  -0.244   1.909  0.00  0.00     0.033 A 
ATOM      6  C6  UNL d   1       0.090   0.184   1.243  0.00  0.00    -0.057 A 
ENDROOT
BRANCH   1   7
ATOM      7  N   UNL d   1       1.350   0.619  -0.759  0.00  0.00    -0.732 N 
ATOM      8  C   UNL d   1       2.154  -0.393  -1.411  0.00  0.00     0.284 C 
ATOM      9  H3  UNL d   1       1.303   1.502  -1.263  0.00  0.00     0.395 HD
ENDBRANCH   1   7
TORSDOF 1
ENDMDL
