MODEL 1
REMARK minimizedAffinity 1.58180213
REMARK minimizedRMSD -1
REMARK  1 active torsions:
REMARK  status: ('A' for Active; 'I' for Inactive)
REMARK    1  A    between atoms: N_2  and  C1_3 
ROOT
ATOM      1  C1  UNL d   1      -0.152   1.259  -1.618  0.00  0.00     0.143 A 
ATOM      2  C2  UNL d   1      -0.429  -0.094  -1.396  0.00  0.00    -0.057 A 
ATOM      3  C3  UNL d   1       0.378  -0.873  -0.558  0.00  0.00     0.033 A 
ATOM      4  C4  UNL d   1       1.497  -0.317   0.053  0.00  0.00    -0.042 A 
ATOM      5  C5  UNL d   1       1.806   1.020  -0.172  0.00  0.00     0.033 A 
ATOM      6  C6  UNL d   1       0.992   1.794  -1.005  0.00  0.00    -0.057 A 
ENDROOT
BRANCH   1   7
ATOM      7  N   UNL d   1      -0.859   2.061  -2.517  0.00  0.00    -0.732 N 
ATOM      8  C   UNL d   1      -2.019   1.544  -3.211  0.00  0.00     0.284 C 
ATOM      9  H3  UNL d   1      -0.964   3.017  -2.186  0.00  0.00     0.395 HD
ENDBRANCH   1   7
TORSDOF 1
ENDMDL
