MODEL 1
REMARK minimizedAffinity -2.81576657
REMARK minimizedRMSD -1
REMARK  1 active torsions:
REMARK  status: ('A' for Active; 'I' for Inactive)
REMARK    1  A    between atoms: N_2  and  C1_3 
ROOT
ATOM      1  C1  UNL d   1       0.389   0.714  -0.468  0.00  0.00     0.143 A 
ATOM      2  C2  UNL d   1       1.749   0.643  -0.790  0.00  0.00    -0.057 A 
ATOM      3  C3  UNL d   1       2.551  -0.406  -0.325  0.00  0.00     0.033 A 
ATOM      4  C4  UNL d   1       2.013  -1.389   0.498  0.00  0.00    -0.042 A 
ATOM      5  C5  UNL d   1       0.670  -1.325   0.852  0.00  0.00     0.033 A 
ATOM      6  C6  UNL d   1      -0.128  -0.279   0.379  0.00  0.00    -0.057 A 
ENDROOT
BRANCH   1   7
ATOM      7  N   UNL d   1      -0.438   1.784  -0.818  0.00  0.00    -0.732 N 
ATOM      8  C   UNL d   1      -1.199   1.755  -2.049  0.00  0.00     0.284 C 
ATOM      9  H3  UNL d   1      -0.950   2.156  -0.021  0.00  0.00     0.395 HD
ENDBRANCH   1   7
TORSDOF 1
ENDMDL
