MODEL 1
REMARK minimizedAffinity -5.32822418
REMARK minimizedRMSD -1
REMARK  1 active torsions:
REMARK  status: ('A' for Active; 'I' for Inactive)
REMARK    1  A    between atoms: N_2  and  C1_3 
ROOT
ATOM      1  C1  UNL d   1      -0.759  -0.879   0.705  0.00  0.00     0.143 A 
ATOM      2  C2  UNL d   1       0.504  -1.123   0.155  0.00  0.00    -0.057 A 
ATOM      3  C3  UNL d   1       1.322  -2.150   0.642  0.00  0.00     0.033 A 
ATOM      4  C4  UNL d   1       0.902  -2.934   1.711  0.00  0.00    -0.042 A 
ATOM      5  C5  UNL d   1      -0.338  -2.693   2.290  0.00  0.00     0.033 A 
ATOM      6  C6  UNL d   1      -1.154  -1.671   1.795  0.00  0.00    -0.057 A 
ENDROOT
BRANCH   1   7
ATOM      7  N   UNL d   1      -1.578   0.189   0.331  0.00  0.00    -0.732 N 
ATOM      8  C   UNL d   1      -2.135   0.257  -1.003  0.00  0.00     0.284 C 
ATOM      9  H3  UNL d   1      -2.227   0.458   1.067  0.00  0.00     0.395 HD
ENDBRANCH   1   7
TORSDOF 1
ENDMDL
