MODEL 1
REMARK minimizedAffinity -3.14232898
REMARK minimizedRMSD -1
REMARK  1 active torsions:
REMARK  status: ('A' for Active; 'I' for Inactive)
REMARK    1  A    between atoms: N_2  and  C1_3 
ROOT
ATOM      1  C1  UNL d   1      -1.691   0.416  -0.043  0.00  0.00     0.143 A 
ATOM      2  C2  UNL d   1      -2.867  -0.153  -0.542  0.00  0.00    -0.057 A 
ATOM      3  C3  UNL d   1      -3.393   0.234  -1.781  0.00  0.00     0.033 A 
ATOM      4  C4  UNL d   1      -2.764   1.222  -2.531  0.00  0.00    -0.042 A 
ATOM      5  C5  UNL d   1      -1.607   1.819  -2.044  0.00  0.00     0.033 A 
ATOM      6  C6  UNL d   1      -1.084   1.423  -0.809  0.00  0.00    -0.057 A 
ENDROOT
BRANCH   1   7
ATOM      7  N   UNL d   1      -1.172   0.144   1.225  0.00  0.00    -0.732 N 
ATOM      8  C   UNL d   1      -2.055  -0.121   2.341  0.00  0.00     0.284 C 
ATOM      9  H3  UNL d   1      -0.355  -0.460   1.189  0.00  0.00     0.395 HD
ENDBRANCH   1   7
TORSDOF 1
ENDMDL
