MODEL 1
REMARK minimizedAffinity 0.269756228
REMARK minimizedRMSD -1
REMARK  1 active torsions:
REMARK  status: ('A' for Active; 'I' for Inactive)
REMARK    1  A    between atoms: N_2  and  C1_3 
ROOT
ATOM      1  C1  UNL d   1      -0.987  -0.314   1.160  0.00  0.00     0.143 A 
ATOM      2  C2  UNL d   1      -1.215   0.551   0.085  0.00  0.00    -0.057 A 
ATOM      3  C3  UNL d   1      -0.194   0.872  -0.818  0.00  0.00     0.033 A 
ATOM      4  C4  UNL d   1       1.085   0.354  -0.644  0.00  0.00    -0.042 A 
ATOM      5  C5  UNL d   1       1.341  -0.488   0.432  0.00  0.00     0.033 A 
ATOM      6  C6  UNL d   1       0.316  -0.810   1.327  0.00  0.00    -0.057 A 
ENDROOT
BRANCH   1   7
ATOM      7  N   UNL d   1      -1.934  -0.594   2.148  0.00  0.00    -0.732 N 
ATOM      8  C   UNL d   1      -1.553  -1.287   3.359  0.00  0.00     0.284 C 
ATOM      9  H3  UNL d   1      -2.580   0.179   2.297  0.00  0.00     0.395 HD
ENDBRANCH   1   7
TORSDOF 1
ENDMDL
