MODEL 1
REMARK minimizedAffinity -4.98544502
REMARK minimizedRMSD -1
REMARK  1 active torsions:
REMARK  status: ('A' for Active; 'I' for Inactive)
REMARK    1  A    between atoms: N_2  and  C1_3 
ROOT
ATOM      1  C1  UNL d   1      -0.005  -1.390   1.496  0.00  0.00     0.143 A 
ATOM      2  C2  UNL d   1      -1.194  -0.706   1.769  0.00  0.00    -0.057 A 
ATOM      3  C3  UNL d   1      -1.551   0.443   1.054  0.00  0.00     0.033 A 
ATOM      4  C4  UNL d   1      -0.708   0.947   0.070  0.00  0.00    -0.042 A 
ATOM      5  C5  UNL d   1       0.491   0.298  -0.202  0.00  0.00     0.033 A 
ATOM      6  C6  UNL d   1       0.839  -0.853   0.511  0.00  0.00    -0.057 A 
ENDROOT
BRANCH   1   7
ATOM      7  N   UNL d   1       0.453  -2.482   2.238  0.00  0.00    -0.732 N 
ATOM      8  C   UNL d   1       1.517  -3.323   1.733  0.00  0.00     0.284 C 
ATOM      9  H3  UNL d   1       0.524  -2.273   3.232  0.00  0.00     0.395 HD
ENDBRANCH   1   7
TORSDOF 1
ENDMDL
