MODEL 1
REMARK minimizedAffinity 0.950549543
REMARK minimizedRMSD -1
REMARK  2 active torsions:
REMARK  status: ('A' for Active; 'I' for Inactive)
REMARK    1  A    between atoms: C1_2  and  C2_3 
REMARK    2  A    between atoms: C2_3  and  C3_4 
ROOT
ATOM      1  C3  UNL d   1       0.833  -2.006  -0.938  0.00  0.00    -0.075 A 
ATOM      2  C4  UNL d   1      -0.035  -2.924  -1.545  0.00  0.00     0.002 A 
ATOM      3  C5  UNL d   1      -1.303  -2.526  -1.971  0.00  0.00     0.002 A 
ATOM      4  C6  UNL d   1      -1.722  -1.211  -1.785  0.00  0.00    -0.004 A 
ATOM      5  C7  UNL d   1      -0.874  -0.294  -1.168  0.00  0.00     0.002 A 
ATOM      6  C8  UNL d   1       0.396  -0.688  -0.746  0.00  0.00     0.002 A 
ENDROOT
BRANCH   1   7
ATOM      7  C2  UNL d   1       2.217  -2.423  -0.502  0.00  0.00     0.056 C 
BRANCH   7   8
ATOM      8  C1  UNL d   1       3.322  -2.052  -1.497  0.00  0.00     0.007 C 
ATOM      9  C   UNL d   1       3.847  -0.635  -1.312  0.00  0.00     0.009 C 
ENDBRANCH   7   8
ENDBRANCH   1   7
TORSDOF 2
ENDMDL
