MODEL 1
REMARK minimizedAffinity 1.24206936
REMARK minimizedRMSD -1
REMARK  2 active torsions:
REMARK  status: ('A' for Active; 'I' for Inactive)
REMARK    1  A    between atoms: C1_2  and  C2_3 
REMARK    2  A    between atoms: C2_3  and  C3_4 
ROOT
ATOM      1  C3  UNL d   1       1.370  -0.756  -0.521  0.00  0.00    -0.075 A 
ATOM      2  C4  UNL d   1      -0.028  -0.815  -0.606  0.00  0.00     0.002 A 
ATOM      3  C5  UNL d   1      -0.685  -2.045  -0.638  0.00  0.00     0.002 A 
ATOM      4  C6  UNL d   1       0.047  -3.230  -0.596  0.00  0.00    -0.004 A 
ATOM      5  C7  UNL d   1       1.438  -3.183  -0.527  0.00  0.00     0.002 A 
ATOM      6  C8  UNL d   1       2.097  -1.953  -0.491  0.00  0.00     0.002 A 
ENDROOT
BRANCH   1   7
ATOM      7  C2  UNL d   1       2.085   0.573  -0.456  0.00  0.00     0.056 C 
BRANCH   7   8
ATOM      8  C1  UNL d   1       3.409   0.607  -1.226  0.00  0.00     0.007 C 
ATOM      9  C   UNL d   1       4.291   1.791  -0.851  0.00  0.00     0.009 C 
ENDBRANCH   7   8
ENDBRANCH   1   7
TORSDOF 2
ENDMDL
