MODEL 1
REMARK minimizedAffinity -2.43334508
REMARK minimizedRMSD -1
REMARK  2 active torsions:
REMARK  status: ('A' for Active; 'I' for Inactive)
REMARK    1  A    between atoms: C1_2  and  C2_3 
REMARK    2  A    between atoms: C2_3  and  C3_4 
ROOT
ATOM      1  C3  UNL d   1       0.589  -0.886  -1.109  0.00  0.00    -0.075 A 
ATOM      2  C4  UNL d   1      -0.516  -1.149  -1.930  0.00  0.00     0.002 A 
ATOM      3  C5  UNL d   1      -1.407  -0.130  -2.269  0.00  0.00     0.002 A 
ATOM      4  C6  UNL d   1      -1.210   1.161  -1.782  0.00  0.00    -0.004 A 
ATOM      5  C7  UNL d   1      -0.124   1.430  -0.952  0.00  0.00     0.002 A 
ATOM      6  C8  UNL d   1       0.771   0.413  -0.615  0.00  0.00     0.002 A 
ENDROOT
BRANCH   1   7
ATOM      7  C2  UNL d   1       1.573  -1.978  -0.763  0.00  0.00     0.056 C 
BRANCH   7   8
ATOM      8  C1  UNL d   1       0.995  -3.076   0.135  0.00  0.00     0.007 C 
ATOM      9  C   UNL d   1      -0.169  -3.823  -0.502  0.00  0.00     0.009 C 
ENDBRANCH   7   8
ENDBRANCH   1   7
TORSDOF 2
ENDMDL
