MODEL 1
REMARK minimizedAffinity 11.8229418
REMARK minimizedRMSD -1
REMARK  2 active torsions:
REMARK  status: ('A' for Active; 'I' for Inactive)
REMARK    1  A    between atoms: C1_2  and  C2_3 
REMARK    2  A    between atoms: C2_3  and  C3_4 
ROOT
ATOM      1  C3  UNL d   1       2.217  -3.121  -0.845  0.00  0.00    -0.075 A 
ATOM      2  C4  UNL d   1       2.804  -2.706   0.359  0.00  0.00     0.002 A 
ATOM      3  C5  UNL d   1       3.491  -1.494   0.431  0.00  0.00     0.002 A 
ATOM      4  C6  UNL d   1       3.608  -0.687  -0.699  0.00  0.00    -0.004 A 
ATOM      5  C7  UNL d   1       3.043  -1.097  -1.904  0.00  0.00     0.002 A 
ATOM      6  C8  UNL d   1       2.352  -2.307  -1.979  0.00  0.00     0.002 A 
ENDROOT
BRANCH   1   7
ATOM      7  C2  UNL d   1       1.447  -4.417  -0.923  0.00  0.00     0.056 C 
BRANCH   7   8
ATOM      8  C1  UNL d   1      -0.002  -4.255  -1.394  0.00  0.00     0.007 C 
ATOM      9  C   UNL d   1      -0.930  -5.341  -0.865  0.00  0.00     0.009 C 
ENDBRANCH   7   8
ENDBRANCH   1   7
TORSDOF 2
ENDMDL
