MODEL 1
REMARK minimizedAffinity 11.027173
REMARK minimizedRMSD -1
REMARK  2 active torsions:
REMARK  status: ('A' for Active; 'I' for Inactive)
REMARK    1  A    between atoms: C1_2  and  C2_3 
REMARK    2  A    between atoms: C2_3  and  C3_4 
ROOT
ATOM      1  C3  UNL d   1       3.501   1.637   1.146  0.00  0.00    -0.075 A 
ATOM      2  C4  UNL d   1       3.000   0.340   0.967  0.00  0.00     0.002 A 
ATOM      3  C5  UNL d   1       2.741  -0.149  -0.314  0.00  0.00     0.002 A 
ATOM      4  C6  UNL d   1       2.969   0.655  -1.429  0.00  0.00    -0.004 A 
ATOM      5  C7  UNL d   1       3.451   1.952  -1.261  0.00  0.00     0.002 A 
ATOM      6  C8  UNL d   1       3.715   2.441   0.019  0.00  0.00     0.002 A 
ENDROOT
BRANCH   1   7
ATOM      7  C2  UNL d   1       3.811   2.161   2.528  0.00  0.00     0.056 C 
BRANCH   7   8
ATOM      8  C1  UNL d   1       2.634   2.872   3.204  0.00  0.00     0.007 C 
ATOM      9  C   UNL d   1       2.142   2.160   4.457  0.00  0.00     0.009 C 
ENDBRANCH   7   8
ENDBRANCH   1   7
TORSDOF 2
ENDMDL
