MODEL 1
REMARK minimizedAffinity 10.9222145
REMARK minimizedRMSD -1
REMARK  2 active torsions:
REMARK  status: ('A' for Active; 'I' for Inactive)
REMARK    1  A    between atoms: C1_2  and  C2_3 
REMARK    2  A    between atoms: C2_3  and  C3_4 
ROOT
ATOM      1  C3  UNL d   1      -2.704  -1.774  -1.801  0.00  0.00    -0.075 A 
ATOM      2  C4  UNL d   1      -1.855  -1.180  -2.746  0.00  0.00     0.002 A 
ATOM      3  C5  UNL d   1      -1.648   0.200  -2.743  0.00  0.00     0.002 A 
ATOM      4  C6  UNL d   1      -2.292   1.002  -1.805  0.00  0.00    -0.004 A 
ATOM      5  C7  UNL d   1      -3.151   0.424  -0.871  0.00  0.00     0.002 A 
ATOM      6  C8  UNL d   1      -3.357  -0.956  -0.869  0.00  0.00     0.002 A 
ENDROOT
BRANCH   1   7
ATOM      7  C2  UNL d   1      -2.909  -3.270  -1.779  0.00  0.00     0.056 C 
BRANCH   7   8
ATOM      8  C1  UNL d   1      -1.627  -4.073  -1.537  0.00  0.00     0.007 C 
ATOM      9  C   UNL d   1      -1.761  -5.545  -1.902  0.00  0.00     0.009 C 
ENDBRANCH   7   8
ENDBRANCH   1   7
TORSDOF 2
ENDMDL
