MODEL 1
REMARK minimizedAffinity -2.88486004
REMARK minimizedRMSD -1
REMARK  0 active torsions:
REMARK  status: ('A' for Active; 'I' for Inactive)
ROOT
ATOM      1  C   UNL d   1       0.676  -0.257  -1.852  0.00  0.00    -0.002 A 
ATOM      2  C1  UNL d   1       1.671  -1.163  -1.510  0.00  0.00     0.010 A 
ATOM      3  C2  UNL d   1       1.797  -1.617  -0.196  0.00  0.00     0.041 A 
ATOM      4  C3  UNL d   1       0.897  -1.142   0.778  0.00  0.00    -0.075 A 
ATOM      5  S   UNL d   1       0.860  -1.560   2.451  0.00  0.00     0.015 SA
ATOM      6  C4  UNL d   1      -0.477  -0.547   2.751  0.00  0.00     0.022 A 
ATOM      7  C5  UNL d   1      -0.898   0.102   1.614  0.00  0.00     0.026 A 
ATOM      8  C6  UNL d   1      -0.113  -0.231   0.459  0.00  0.00    -0.082 A 
ATOM      9  C7  UNL d   1      -0.215   0.211  -0.882  0.00  0.00     0.045 A 
ENDROOT
TORSDOF 0
ENDMDL
