MODEL 1
REMARK minimizedAffinity -2.45857954
REMARK minimizedRMSD -1
REMARK  0 active torsions:
REMARK  status: ('A' for Active; 'I' for Inactive)
ROOT
ATOM      1  C   UNL d   1       0.595  -1.201   2.738  0.00  0.00    -0.002 A 
ATOM      2  C1  UNL d   1       1.567  -1.820   1.965  0.00  0.00     0.010 A 
ATOM      3  C2  UNL d   1       1.606  -1.625   0.583  0.00  0.00     0.041 A 
ATOM      4  C3  UNL d   1       0.645  -0.786  -0.014  0.00  0.00    -0.075 A 
ATOM      5  S   UNL d   1       0.500  -0.399  -1.688  0.00  0.00     0.015 SA
ATOM      6  C4  UNL d   1      -0.855   0.599  -1.416  0.00  0.00     0.022 A 
ATOM      7  C5  UNL d   1      -1.201   0.647  -0.087  0.00  0.00     0.026 A 
ATOM      8  C6  UNL d   1      -0.343  -0.150   0.743  0.00  0.00    -0.082 A 
ATOM      9  C7  UNL d   1      -0.357  -0.369   2.142  0.00  0.00     0.045 A 
ENDROOT
TORSDOF 0
ENDMDL
