MODEL 1
REMARK minimizedAffinity -3.52870321
REMARK minimizedRMSD -1
REMARK  0 active torsions:
REMARK  status: ('A' for Active; 'I' for Inactive)
ROOT
ATOM      1  C   UNL d   1       1.157  -2.339   2.615  0.00  0.00    -0.002 A 
ATOM      2  C1  UNL d   1       2.143  -2.798   1.753  0.00  0.00     0.010 A 
ATOM      3  C2  UNL d   1       2.114  -2.463   0.398  0.00  0.00     0.041 A 
ATOM      4  C3  UNL d   1       1.068  -1.650  -0.081  0.00  0.00    -0.075 A 
ATOM      5  S   UNL d   1       0.828  -1.111  -1.702  0.00  0.00     0.015 SA
ATOM      6  C4  UNL d   1      -0.588  -0.259  -1.288  0.00  0.00     0.022 A 
ATOM      7  C5  UNL d   1      -0.886  -0.372   0.049  0.00  0.00     0.026 A 
ATOM      8  C6  UNL d   1       0.064  -1.175   0.767  0.00  0.00    -0.082 A 
ATOM      9  C7  UNL d   1       0.121  -1.532   2.136  0.00  0.00     0.045 A 
ENDROOT
TORSDOF 0
ENDMDL
