MODEL 1
REMARK minimizedAffinity 0.0835162848
REMARK minimizedRMSD -1
REMARK  0 active torsions:
REMARK  status: ('A' for Active; 'I' for Inactive)
ROOT
ATOM      1  C   UNL d   1       2.625  -2.844   1.082  0.00  0.00    -0.002 A 
ATOM      2  C1  UNL d   1       2.672  -2.328  -0.205  0.00  0.00     0.010 A 
ATOM      3  C2  UNL d   1       1.741  -1.375  -0.623  0.00  0.00     0.041 A 
ATOM      4  C3  UNL d   1       0.753  -0.944   0.284  0.00  0.00    -0.075 A 
ATOM      5  S   UNL d   1      -0.490   0.215  -0.006  0.00  0.00     0.015 SA
ATOM      6  C4  UNL d   1      -1.113   0.052   1.573  0.00  0.00     0.022 A 
ATOM      7  C5  UNL d   1      -0.402  -0.860   2.316  0.00  0.00     0.026 A 
ATOM      8  C6  UNL d   1       0.686  -1.449   1.586  0.00  0.00    -0.082 A 
ATOM      9  C7  UNL d   1       1.643  -2.415   1.979  0.00  0.00     0.045 A 
ENDROOT
TORSDOF 0
ENDMDL
