MODEL 1
REMARK minimizedAffinity 0.0757765174
REMARK minimizedRMSD -1
REMARK  0 active torsions:
REMARK  status: ('A' for Active; 'I' for Inactive)
ROOT
ATOM      1  C   UNL d   1      -0.086  -1.046   1.265  0.00  0.00    -0.002 A 
ATOM      2  C1  UNL d   1      -1.084  -0.317   1.895  0.00  0.00     0.010 A 
ATOM      3  C2  UNL d   1      -1.753   0.704   1.218  0.00  0.00     0.041 A 
ATOM      4  C3  UNL d   1      -1.401   0.981  -0.118  0.00  0.00    -0.075 A 
ATOM      5  S   UNL d   1      -2.085   2.184  -1.146  0.00  0.00     0.015 SA
ATOM      6  C4  UNL d   1      -1.069   1.757  -2.446  0.00  0.00     0.022 A 
ATOM      7  C5  UNL d   1      -0.222   0.724  -2.121  0.00  0.00     0.026 A 
ATOM      8  C6  UNL d   1      -0.400   0.259  -0.774  0.00  0.00    -0.082 A 
ATOM      9  C7  UNL d   1       0.261  -0.769  -0.060  0.00  0.00     0.045 A 
ENDROOT
TORSDOF 0
ENDMDL
