MODEL 1
REMARK minimizedAffinity -3.87202215
REMARK minimizedRMSD -1
REMARK  2 active torsions:
REMARK  status: ('A' for Active; 'I' for Inactive)
REMARK    1  A    between atoms: C1_2  and  C2_3 
REMARK    2  A    between atoms: C2_3  and  C3_4 
ROOT
ATOM      1  C3  UNL d   1       0.238  -0.494  -0.309  0.00  0.00    -0.075 A 
ATOM      2  C4  UNL d   1       0.452  -0.809   1.041  0.00  0.00     0.002 A 
ATOM      3  C5  UNL d   1       0.276   0.159   2.030  0.00  0.00     0.002 A 
ATOM      4  C6  UNL d   1      -0.106   1.453   1.683  0.00  0.00    -0.004 A 
ATOM      5  C7  UNL d   1      -0.305   1.781   0.344  0.00  0.00     0.002 A 
ATOM      6  C8  UNL d   1      -0.134   0.813  -0.648  0.00  0.00     0.002 A 
ENDROOT
BRANCH   1   7
ATOM      7  C2  UNL d   1       0.399  -1.545  -1.382  0.00  0.00     0.056 C 
BRANCH   7   8
ATOM      8  C1  UNL d   1       0.524  -2.974  -0.842  0.00  0.00     0.007 C 
ATOM      9  C   UNL d   1      -0.043  -4.024  -1.788  0.00  0.00     0.009 C 
ENDBRANCH   7   8
ENDBRANCH   1   7
TORSDOF 2
ENDMDL
