MODEL 1
REMARK minimizedAffinity -0.563741565
REMARK minimizedRMSD -1
REMARK  2 active torsions:
REMARK  status: ('A' for Active; 'I' for Inactive)
REMARK    1  A    between atoms: C1_2  and  C2_3 
REMARK    2  A    between atoms: C2_3  and  C3_4 
ROOT
ATOM      1  C3  UNL d   1       0.107   0.388  -0.133  0.00  0.00    -0.075 A 
ATOM      2  C4  UNL d   1       0.871  -0.503   0.635  0.00  0.00     0.002 A 
ATOM      3  C5  UNL d   1       1.125  -0.240   1.981  0.00  0.00     0.002 A 
ATOM      4  C6  UNL d   1       0.629   0.920   2.573  0.00  0.00    -0.004 A 
ATOM      5  C7  UNL d   1      -0.117   1.820   1.816  0.00  0.00     0.002 A 
ATOM      6  C8  UNL d   1      -0.377   1.557   0.469  0.00  0.00     0.002 A 
ENDROOT
BRANCH   1   7
ATOM      7  C2  UNL d   1      -0.196   0.095  -1.583  0.00  0.00     0.056 C 
BRANCH   7   8
ATOM      8  C1  UNL d   1      -1.542  -0.602  -1.810  0.00  0.00     0.007 C 
ATOM      9  C   UNL d   1      -1.401  -2.064  -2.213  0.00  0.00     0.009 C 
ENDBRANCH   7   8
ENDBRANCH   1   7
TORSDOF 2
ENDMDL
