MODEL 1
REMARK minimizedAffinity 1.41029572
REMARK minimizedRMSD -1
REMARK  2 active torsions:
REMARK  status: ('A' for Active; 'I' for Inactive)
REMARK    1  A    between atoms: C1_2  and  C2_3 
REMARK    2  A    between atoms: C2_3  and  C3_4 
ROOT
ATOM      1  C3  UNL d   1       0.797   1.380   0.633  0.00  0.00    -0.075 A 
ATOM      2  C4  UNL d   1       0.506   1.567  -0.726  0.00  0.00     0.002 A 
ATOM      3  C5  UNL d   1       0.575   0.497  -1.619  0.00  0.00     0.002 A 
ATOM      4  C6  UNL d   1       0.943  -0.768  -1.168  0.00  0.00    -0.004 A 
ATOM      5  C7  UNL d   1       1.250  -0.962   0.177  0.00  0.00     0.002 A 
ATOM      6  C8  UNL d   1       1.178   0.105   1.073  0.00  0.00     0.002 A 
ENDROOT
BRANCH   1   7
ATOM      7  C2  UNL d   1       0.696   2.527   1.610  0.00  0.00     0.056 C 
BRANCH   7   8
ATOM      8  C1  UNL d   1       0.692   3.910   0.949  0.00  0.00     0.007 C 
ATOM      9  C   UNL d   1       2.029   4.630   1.056  0.00  0.00     0.009 C 
ENDBRANCH   7   8
ENDBRANCH   1   7
TORSDOF 2
ENDMDL
