MODEL 1
REMARK minimizedAffinity -4.45015478
REMARK minimizedRMSD -1
REMARK  2 active torsions:
REMARK  status: ('A' for Active; 'I' for Inactive)
REMARK    1  A    between atoms: C1_2  and  C2_3 
REMARK    2  A    between atoms: C2_3  and  C3_4 
ROOT
ATOM      1  C3  UNL d   1       0.204  -0.285  -0.102  0.00  0.00    -0.075 A 
ATOM      2  C4  UNL d   1       0.525   0.136   1.197  0.00  0.00     0.002 A 
ATOM      3  C5  UNL d   1      -0.082   1.267   1.744  0.00  0.00     0.002 A 
ATOM      4  C6  UNL d   1      -1.007   1.995   0.999  0.00  0.00    -0.004 A 
ATOM      5  C7  UNL d   1      -1.320   1.595  -0.298  0.00  0.00     0.002 A 
ATOM      6  C8  UNL d   1      -0.718   0.461  -0.847  0.00  0.00     0.002 A 
ENDROOT
BRANCH   1   7
ATOM      7  C2  UNL d   1       0.836  -1.525  -0.689  0.00  0.00     0.056 C 
BRANCH   7   8
ATOM      8  C1  UNL d   1      -0.167  -2.496  -1.321  0.00  0.00     0.007 C 
ATOM      9  C   UNL d   1       0.299  -3.945  -1.290  0.00  0.00     0.009 C 
ENDBRANCH   7   8
ENDBRANCH   1   7
TORSDOF 2
ENDMDL
