MODEL 1
REMARK minimizedAffinity -3.46480751
REMARK minimizedRMSD -1
REMARK  2 active torsions:
REMARK  status: ('A' for Active; 'I' for Inactive)
REMARK    1  A    between atoms: C1_2  and  C2_3 
REMARK    2  A    between atoms: C2_3  and  C3_4 
ROOT
ATOM      1  C3  UNL d   1      -0.974   1.106   0.192  0.00  0.00    -0.075 A 
ATOM      2  C4  UNL d   1      -0.258  -0.041   0.568  0.00  0.00     0.002 A 
ATOM      3  C5  UNL d   1       0.736  -0.559  -0.262  0.00  0.00     0.002 A 
ATOM      4  C6  UNL d   1       1.020   0.055  -1.480  0.00  0.00    -0.004 A 
ATOM      5  C7  UNL d   1       0.305   1.185  -1.871  0.00  0.00     0.002 A 
ATOM      6  C8  UNL d   1      -0.688   1.708  -1.040  0.00  0.00     0.002 A 
ENDROOT
BRANCH   1   7
ATOM      7  C2  UNL d   1      -2.031   1.689   1.099  0.00  0.00     0.056 C 
BRANCH   7   8
ATOM      8  C1  UNL d   1      -1.595   2.966   1.825  0.00  0.00     0.007 C 
ATOM      9  C   UNL d   1      -0.085   3.164   1.837  0.00  0.00     0.009 C 
ENDBRANCH   7   8
ENDBRANCH   1   7
TORSDOF 2
ENDMDL
