MODEL 1
REMARK minimizedAffinity -4.50922585
REMARK minimizedRMSD -1
REMARK  2 active torsions:
REMARK  status: ('A' for Active; 'I' for Inactive)
REMARK    1  A    between atoms: C1_2  and  C2_3 
REMARK    2  A    between atoms: C2_3  and  C3_4 
ROOT
ATOM      1  C3  UNL d   1      -0.093   0.448   0.030  0.00  0.00    -0.075 A 
ATOM      2  C4  UNL d   1      -0.726   1.493  -0.658  0.00  0.00     0.002 A 
ATOM      3  C5  UNL d   1      -1.256   2.581   0.036  0.00  0.00     0.002 A 
ATOM      4  C6  UNL d   1      -1.169   2.633   1.426  0.00  0.00    -0.004 A 
ATOM      5  C7  UNL d   1      -0.557   1.593   2.121  0.00  0.00     0.002 A 
ATOM      6  C8  UNL d   1      -0.022   0.505   1.429  0.00  0.00     0.002 A 
ENDROOT
BRANCH   1   7
ATOM      7  C2  UNL d   1       0.508  -0.718  -0.717  0.00  0.00     0.056 C 
BRANCH   7   8
ATOM      8  C1  UNL d   1      -0.510  -1.787  -1.130  0.00  0.00     0.007 C 
ATOM      9  C   UNL d   1       0.064  -3.197  -1.125  0.00  0.00     0.009 C 
ENDBRANCH   7   8
ENDBRANCH   1   7
TORSDOF 2
ENDMDL
