MODEL 1
REMARK minimizedAffinity -2.76247764
REMARK minimizedRMSD -1
REMARK  0 active torsions:
REMARK  status: ('A' for Active; 'I' for Inactive)
ROOT
ATOM      1  N1  IND d   1      -2.206   0.306   0.367  0.00  0.00    -0.196 N 
ATOM      2  C2  IND d   1      -3.202   0.417   1.296  0.00  0.00     0.054 A 
ATOM      3  C3  IND d   1      -2.685   0.381   2.545  0.00  0.00    -0.031 A 
ATOM      4  C4  IND d   1      -0.226   0.249   3.295  0.00  0.00     0.051 A 
ATOM      5  C5  IND d   1       1.042   0.095   2.808  0.00  0.00    -0.031 A 
ATOM      6  C6  IND d   1       1.297   0.004   1.455  0.00  0.00     0.015 A 
ATOM      7  C7  IND d   1       0.291   0.076   0.534  0.00  0.00    -0.016 A 
ATOM      8  C8  IND d   1      -0.998   0.225   1.025  0.00  0.00    -0.047 A 
ATOM      9  C9  IND d   1      -1.268   0.275   2.399  0.00  0.00    -0.096 A 
ATOM     10  HN1 IND d   1      -2.315   0.289  -0.486  0.00  0.00     0.298 HD
ENDROOT
TORSDOF 0
ENDMDL
