MODEL 1
REMARK minimizedAffinity -4.02367926
REMARK minimizedRMSD -1
REMARK  0 active torsions:
REMARK  status: ('A' for Active; 'I' for Inactive)
ROOT
ATOM      1  N1  IND d   1      -2.376   1.041  -0.071  0.00  0.00    -0.196 N 
ATOM      2  C2  IND d   1      -3.056   1.208   1.103  0.00  0.00     0.054 A 
ATOM      3  C3  IND d   1      -2.212   1.100   2.154  0.00  0.00    -0.031 A 
ATOM      4  C4  IND d   1       0.339   0.754   2.175  0.00  0.00     0.051 A 
ATOM      5  C5  IND d   1       1.400   0.512   1.349  0.00  0.00    -0.031 A 
ATOM      6  C6  IND d   1       1.254   0.435  -0.021  0.00  0.00     0.015 A 
ATOM      7  C7  IND d   1       0.038   0.609  -0.619  0.00  0.00    -0.016 A 
ATOM      8  C8  IND d   1      -1.043   0.849   0.218  0.00  0.00    -0.047 A 
ATOM      9  C9  IND d   1      -0.909   0.886   1.611  0.00  0.00    -0.096 A 
ATOM     10  HN1 IND d   1      -2.723   1.055  -0.858  0.00  0.00     0.298 HD
ENDROOT
TORSDOF 0
ENDMDL
