MODEL 1
REMARK minimizedAffinity -4.72082949
REMARK minimizedRMSD -1
REMARK  0 active torsions:
REMARK  status: ('A' for Active; 'I' for Inactive)
ROOT
ATOM      1  N1  IND d   1      -2.500   0.579   0.803  0.00  0.00    -0.196 N 
ATOM      2  C2  IND d   1      -3.231   0.840   1.929  0.00  0.00     0.054 A 
ATOM      3  C3  IND d   1      -2.580   0.393   3.026  0.00  0.00    -0.031 A 
ATOM      4  C4  IND d   1      -0.260  -0.705   3.218  0.00  0.00     0.051 A 
ATOM      5  C5  IND d   1       0.772  -1.183   2.460  0.00  0.00    -0.031 A 
ATOM      6  C6  IND d   1       0.766  -1.094   1.083  0.00  0.00     0.015 A 
ATOM      7  C7  IND d   1      -0.270  -0.510   0.410  0.00  0.00    -0.016 A 
ATOM      8  C8  IND d   1      -1.322  -0.030   1.177  0.00  0.00    -0.047 A 
ATOM      9  C9  IND d   1      -1.342  -0.156   2.572  0.00  0.00    -0.096 A 
ATOM     10  HN1 IND d   1      -2.736   0.765  -0.002  0.00  0.00     0.298 HD
ENDROOT
TORSDOF 0
ENDMDL
