MODEL 1
REMARK minimizedAffinity -6.06144238
REMARK minimizedRMSD -1
REMARK  0 active torsions:
REMARK  status: ('A' for Active; 'I' for Inactive)
ROOT
ATOM      1  N1  IND d   1       0.671  -0.473   0.617  0.00  0.00    -0.196 N 
ATOM      2  C2  IND d   1       1.175  -0.601   1.881  0.00  0.00     0.054 A 
ATOM      3  C3  IND d   1       0.220  -0.325   2.798  0.00  0.00    -0.031 A 
ATOM      4  C4  IND d   1      -2.262   0.260   2.450  0.00  0.00     0.051 A 
ATOM      5  C5  IND d   1      -3.179   0.529   1.472  0.00  0.00    -0.031 A 
ATOM      6  C6  IND d   1      -2.853   0.474   0.132  0.00  0.00     0.015 A 
ATOM      7  C7  IND d   1      -1.596   0.135  -0.282  0.00  0.00    -0.016 A 
ATOM      8  C8  IND d   1      -0.661  -0.132   0.708  0.00  0.00    -0.047 A 
ATOM      9  C9  IND d   1      -0.975  -0.036   2.070  0.00  0.00    -0.096 A 
ATOM     10  HN1 IND d   1       1.111  -0.587  -0.113  0.00  0.00     0.298 HD
ENDROOT
TORSDOF 0
ENDMDL
