MODEL 1
REMARK minimizedAffinity -5.75430679
REMARK minimizedRMSD -1
REMARK  0 active torsions:
REMARK  status: ('A' for Active; 'I' for Inactive)
ROOT
ATOM      1  N1  IND d   1      -0.731   0.024  -0.508  0.00  0.00    -0.196 N 
ATOM      2  C2  IND d   1       0.630   0.146  -0.467  0.00  0.00     0.054 A 
ATOM      3  C3  IND d   1       1.070   0.077   0.809  0.00  0.00    -0.031 A 
ATOM      4  C4  IND d   1      -0.257  -0.334   2.977  0.00  0.00     0.051 A 
ATOM      5  C5  IND d   1      -1.532  -0.469   3.450  0.00  0.00    -0.031 A 
ATOM      6  C6  IND d   1      -2.627  -0.450   2.611  0.00  0.00     0.015 A 
ATOM      7  C7  IND d   1      -2.487  -0.305   1.259  0.00  0.00    -0.016 A 
ATOM      8  C8  IND d   1      -1.194  -0.160   0.776  0.00  0.00    -0.047 A 
ATOM      9  C9  IND d   1      -0.082  -0.136   1.628  0.00  0.00    -0.096 A 
ATOM     10  HN1 IND d   1      -1.217   0.057  -1.217  0.00  0.00     0.298 HD
ENDROOT
TORSDOF 0
ENDMDL
