MODEL 1
REMARK minimizedAffinity -3.01375198
REMARK minimizedRMSD -1
REMARK  0 active torsions:
REMARK  status: ('A' for Active; 'I' for Inactive)
ROOT
ATOM      1  N1  IND d   1      -0.967  -0.063  -3.148  0.00  0.00    -0.196 N 
ATOM      2  C2  IND d   1      -0.910   0.944  -2.225  0.00  0.00     0.054 A 
ATOM      3  C3  IND d   1       0.358   1.108  -1.786  0.00  0.00    -0.031 A 
ATOM      4  C4  IND d   1       2.512  -0.096  -2.520  0.00  0.00     0.051 A 
ATOM      5  C5  IND d   1       2.959  -1.118  -3.310  0.00  0.00    -0.031 A 
ATOM      6  C6  IND d   1       2.103  -1.853  -4.104  0.00  0.00     0.015 A 
ATOM      7  C7  IND d   1       0.764  -1.586  -4.147  0.00  0.00    -0.016 A 
ATOM      8  C8  IND d   1       0.306  -0.553  -3.341  0.00  0.00    -0.047 A 
ATOM      9  C9  IND d   1       1.163   0.169  -2.501  0.00  0.00    -0.096 A 
ATOM     10  HN1 IND d   1      -1.678  -0.343  -3.541  0.00  0.00     0.298 HD
ENDROOT
TORSDOF 0
ENDMDL
