MODEL 1
REMARK minimizedAffinity -4.39272976
REMARK minimizedRMSD -1
REMARK  0 active torsions:
REMARK  status: ('A' for Active; 'I' for Inactive)
ROOT
ATOM      1  N1  IND d   1      -1.042   0.465  -0.451  0.00  0.00    -0.196 N 
ATOM      2  C2  IND d   1      -0.109   0.752  -1.408  0.00  0.00     0.054 A 
ATOM      3  C3  IND d   1       1.132   0.745  -0.872  0.00  0.00    -0.031 A 
ATOM      4  C4  IND d   1       1.874   0.190   1.529  0.00  0.00     0.051 A 
ATOM      5  C5  IND d   1       1.378  -0.096   2.771  0.00  0.00    -0.031 A 
ATOM      6  C6  IND d   1       0.024  -0.215   3.006  0.00  0.00     0.015 A 
ATOM      7  C7  IND d   1      -0.890  -0.063   2.001  0.00  0.00    -0.016 A 
ATOM      8  C8  IND d   1      -0.391   0.235   0.741  0.00  0.00    -0.047 A 
ATOM      9  C9  IND d   1       0.980   0.399   0.505  0.00  0.00    -0.096 A 
ATOM     10  HN1 IND d   1      -1.893   0.434  -0.573  0.00  0.00     0.298 HD
ENDROOT
TORSDOF 0
ENDMDL
