MODEL 1
REMARK minimizedAffinity 6.78207397
REMARK minimizedRMSD -1
REMARK  0 active torsions:
REMARK  status: ('A' for Active; 'I' for Inactive)
ROOT
ATOM      1  N1  IND d   1      -0.151   0.413   0.033  0.00  0.00    -0.196 N 
ATOM      2  C2  IND d   1       0.594   0.290  -1.106  0.00  0.00     0.054 A 
ATOM      3  C3  IND d   1       1.864   0.695  -0.884  0.00  0.00    -0.031 A 
ATOM      4  C4  IND d   1       2.965   1.503   1.299  0.00  0.00     0.051 A 
ATOM      5  C5  IND d   1       2.678   1.819   2.597  0.00  0.00    -0.031 A 
ATOM      6  C6  IND d   1       1.408   1.677   3.118  0.00  0.00     0.015 A 
ATOM      7  C7  IND d   1       0.376   1.201   2.360  0.00  0.00    -0.016 A 
ATOM      8  C8  IND d   1       0.662   0.886   1.040  0.00  0.00    -0.047 A 
ATOM      9  C9  IND d   1       1.939   1.068   0.493  0.00  0.00    -0.096 A 
ATOM     10  HN1 IND d   1      -0.987   0.227   0.109  0.00  0.00     0.298 HD
ENDROOT
TORSDOF 0
ENDMDL
