MODEL 1
REMARK minimizedAffinity 8.92885876
REMARK minimizedRMSD -1
REMARK  0 active torsions:
REMARK  status: ('A' for Active; 'I' for Inactive)
ROOT
ATOM      1  N1  IND d   1      -1.134   0.553   0.022  0.00  0.00    -0.196 N 
ATOM      2  C2  IND d   1      -0.465   0.182  -1.111  0.00  0.00     0.054 A 
ATOM      3  C3  IND d   1       0.867   0.344  -0.945  0.00  0.00    -0.031 A 
ATOM      4  C4  IND d   1       2.175   1.108   1.137  0.00  0.00     0.051 A 
ATOM      5  C5  IND d   1       1.998   1.590   2.403  0.00  0.00    -0.031 A 
ATOM      6  C6  IND d   1       0.742   1.751   2.953  0.00  0.00     0.015 A 
ATOM      7  C7  IND d   1      -0.387   1.425   2.257  0.00  0.00    -0.016 A 
ATOM      8  C8  IND d   1      -0.212   0.942   0.968  0.00  0.00    -0.047 A 
ATOM      9  C9  IND d   1       1.058   0.816   0.390  0.00  0.00    -0.096 A 
ATOM     10  HN1 IND d   1      -1.987   0.545   0.126  0.00  0.00     0.298 HD
ENDROOT
TORSDOF 0
ENDMDL
