MODEL 1
REMARK minimizedAffinity -5.33641529
REMARK minimizedRMSD -1
REMARK  0 active torsions:
REMARK  status: ('A' for Active; 'I' for Inactive)
ROOT
ATOM      1  N1  IND d   1      -0.146   0.469  -0.634  0.00  0.00    -0.196 N 
ATOM      2  C2  IND d   1       1.018   1.167  -0.799  0.00  0.00     0.054 A 
ATOM      3  C3  IND d   1       1.631   1.347   0.392  0.00  0.00    -0.031 A 
ATOM      4  C4  IND d   1       0.955   0.494   2.725  0.00  0.00     0.051 A 
ATOM      5  C5  IND d   1      -0.050  -0.158   3.384  0.00  0.00    -0.031 A 
ATOM      6  C6  IND d   1      -1.159  -0.646   2.724  0.00  0.00     0.015 A 
ATOM      7  C7  IND d   1      -1.300  -0.510   1.372  0.00  0.00    -0.016 A 
ATOM      8  C8  IND d   1      -0.285   0.157   0.700  0.00  0.00    -0.047 A 
ATOM      9  C9  IND d   1       0.822   0.692   1.371  0.00  0.00    -0.096 A 
ATOM     10  HN1 IND d   1      -0.699   0.261  -1.259  0.00  0.00     0.298 HD
ENDROOT
TORSDOF 0
ENDMDL
