MODEL 1
REMARK minimizedAffinity 2.01207066
REMARK minimizedRMSD -1
REMARK  0 active torsions:
REMARK  status: ('A' for Active; 'I' for Inactive)
ROOT
ATOM      1  N1  IND d   1      -1.056   1.320  -1.047  0.00  0.00    -0.196 N 
ATOM      2  C2  IND d   1      -1.702   0.157  -1.362  0.00  0.00     0.054 A 
ATOM      3  C3  IND d   1      -1.094  -0.894  -0.768  0.00  0.00    -0.031 A 
ATOM      4  C4  IND d   1       0.913  -0.925   0.845  0.00  0.00     0.051 A 
ATOM      5  C5  IND d   1       1.859  -0.113   1.403  0.00  0.00    -0.031 A 
ATOM      6  C6  IND d   1       1.881   1.247   1.170  0.00  0.00     0.015 A 
ATOM      7  C7  IND d   1       0.946   1.850   0.377  0.00  0.00    -0.016 A 
ATOM      8  C8  IND d   1      -0.012   1.026  -0.197  0.00  0.00    -0.047 A 
ATOM      9  C9  IND d   1      -0.014  -0.361   0.001  0.00  0.00    -0.096 A 
ATOM     10  HN1 IND d   1      -1.267   2.104  -1.331  0.00  0.00     0.298 HD
ENDROOT
TORSDOF 0
ENDMDL
