MODEL 1
REMARK minimizedAffinity -5.05338907
REMARK minimizedRMSD -1
REMARK  0 active torsions:
REMARK  status: ('A' for Active; 'I' for Inactive)
ROOT
ATOM      1  N1  IND d   1      -0.346  -0.093  -0.568  0.00  0.00    -0.196 N 
ATOM      2  C2  IND d   1       0.862   0.547  -0.571  0.00  0.00     0.054 A 
ATOM      3  C3  IND d   1       1.288   0.752   0.695  0.00  0.00    -0.031 A 
ATOM      4  C4  IND d   1       0.214   0.029   2.920  0.00  0.00     0.051 A 
ATOM      5  C5  IND d   1      -0.911  -0.551   3.435  0.00  0.00    -0.031 A 
ATOM      6  C6  IND d   1      -1.925  -1.020   2.625  0.00  0.00     0.015 A 
ATOM      7  C7  IND d   1      -1.845  -0.937   1.263  0.00  0.00    -0.016 A 
ATOM      8  C8  IND d   1      -0.707  -0.342   0.737  0.00  0.00    -0.047 A 
ATOM      9  C9  IND d   1       0.305   0.175   1.556  0.00  0.00    -0.096 A 
ATOM     10  HN1 IND d   1      -0.803  -0.305  -1.265  0.00  0.00     0.298 HD
ENDROOT
TORSDOF 0
ENDMDL
