MODEL 1
REMARK minimizedAffinity 2.69241977
REMARK minimizedRMSD -1
REMARK  0 active torsions:
REMARK  status: ('A' for Active; 'I' for Inactive)
ROOT
ATOM      1  C   UNL d   1       5.749  -0.864   2.461  0.00  0.00     0.077 C 
ATOM      2  C1  UNL d   1       4.596  -0.567   1.549  0.00  0.00    -0.074 A 
ATOM      3  C2  UNL d   1       4.338   0.738   1.119  0.00  0.00    -0.005 A 
ATOM      4  C3  UNL d   1       3.268   0.998   0.263  0.00  0.00     0.006 A 
ATOM      5  C4  UNL d   1       2.446  -0.044  -0.170  0.00  0.00    -0.005 A 
ATOM      6  C5  UNL d   1       2.689  -1.355   0.250  0.00  0.00    -0.074 A 
ATOM      7  C6  UNL d   1       1.821  -2.488  -0.214  0.00  0.00     0.077 C 
ATOM      8  C7  UNL d   1       3.771  -1.609   1.104  0.00  0.00    -0.001 A 
ENDROOT
TORSDOF 0
ENDMDL
