MODEL 1
REMARK minimizedAffinity 3.06477952
REMARK minimizedRMSD -1
REMARK  0 active torsions:
REMARK  status: ('A' for Active; 'I' for Inactive)
ROOT
ATOM      1  C   UNL d   1       3.413  -2.696  -2.174  0.00  0.00     0.077 C 
ATOM      2  C1  UNL d   1       2.825  -1.567  -1.381  0.00  0.00    -0.074 A 
ATOM      3  C2  UNL d   1       3.532  -0.376  -1.192  0.00  0.00    -0.005 A 
ATOM      4  C3  UNL d   1       2.968   0.669  -0.461  0.00  0.00     0.006 A 
ATOM      5  C4  UNL d   1       1.692   0.534   0.088  0.00  0.00    -0.005 A 
ATOM      6  C5  UNL d   1       0.969  -0.650  -0.091  0.00  0.00    -0.074 A 
ATOM      7  C6  UNL d   1      -0.407  -0.808   0.484  0.00  0.00     0.077 C 
ATOM      8  C7  UNL d   1       1.540  -1.693  -0.833  0.00  0.00    -0.001 A 
ENDROOT
TORSDOF 0
ENDMDL
