MODEL 1
REMARK minimizedAffinity 8.7066679
REMARK minimizedRMSD -1
REMARK  0 active torsions:
REMARK  status: ('A' for Active; 'I' for Inactive)
ROOT
ATOM      1  C   UNL d   1       1.442   2.238   4.104  0.00  0.00     0.077 C 
ATOM      2  C1  UNL d   1       1.403   2.140   2.608  0.00  0.00    -0.074 A 
ATOM      3  C2  UNL d   1       0.190   1.977   1.930  0.00  0.00    -0.005 A 
ATOM      4  C3  UNL d   1       0.168   1.897   0.537  0.00  0.00     0.006 A 
ATOM      5  C4  UNL d   1       1.356   1.978  -0.190  0.00  0.00    -0.005 A 
ATOM      6  C5  UNL d   1       2.578   2.141   0.471  0.00  0.00    -0.074 A 
ATOM      7  C6  UNL d   1       3.863   2.240  -0.296  0.00  0.00     0.077 C 
ATOM      8  C7  UNL d   1       2.591   2.228   1.870  0.00  0.00    -0.001 A 
ENDROOT
TORSDOF 0
ENDMDL
