MODEL 1
REMARK minimizedAffinity 3.45346999
REMARK minimizedRMSD -1
REMARK  0 active torsions:
REMARK  status: ('A' for Active; 'I' for Inactive)
ROOT
ATOM      1  C   UNL d   1       1.136   1.927   0.191  0.00  0.00     0.077 C 
ATOM      2  C1  UNL d   1       0.543   0.667  -0.367  0.00  0.00    -0.074 A 
ATOM      3  C2  UNL d   1      -0.722   0.671  -0.962  0.00  0.00    -0.005 A 
ATOM      4  C3  UNL d   1      -1.257  -0.506  -1.486  0.00  0.00     0.006 A 
ATOM      5  C4  UNL d   1      -0.533  -1.697  -1.419  0.00  0.00    -0.005 A 
ATOM      6  C5  UNL d   1       0.734  -1.720  -0.829  0.00  0.00    -0.074 A 
ATOM      7  C6  UNL d   1       1.530  -2.990  -0.758  0.00  0.00     0.077 C 
ATOM      8  C7  UNL d   1       1.268  -0.532  -0.311  0.00  0.00    -0.001 A 
ENDROOT
TORSDOF 0
ENDMDL
