MODEL 1
REMARK minimizedAffinity 0.712201416
REMARK minimizedRMSD -1
REMARK  0 active torsions:
REMARK  status: ('A' for Active; 'I' for Inactive)
ROOT
ATOM      1  C   UNL d   1       3.723   1.173  -0.538  0.00  0.00     0.077 C 
ATOM      2  C1  UNL d   1       3.099  -0.180  -0.710  0.00  0.00    -0.074 A 
ATOM      3  C2  UNL d   1       1.904  -0.508  -0.063  0.00  0.00    -0.005 A 
ATOM      4  C3  UNL d   1       1.331  -1.768  -0.240  0.00  0.00     0.006 A 
ATOM      5  C4  UNL d   1       1.946  -2.710  -1.065  0.00  0.00    -0.005 A 
ATOM      6  C5  UNL d   1       3.141  -2.399  -1.722  0.00  0.00    -0.074 A 
ATOM      7  C6  UNL d   1       3.810  -3.396  -2.620  0.00  0.00     0.077 C 
ATOM      8  C7  UNL d   1       3.707  -1.129  -1.544  0.00  0.00    -0.001 A 
ENDROOT
TORSDOF 0
ENDMDL
