MODEL 1
REMARK minimizedAffinity -1.61618066
REMARK minimizedRMSD -1
REMARK  0 active torsions:
REMARK  status: ('A' for Active; 'I' for Inactive)
ROOT
ATOM      1  C   UNL d   1       3.362   1.252  -0.585  0.00  0.00     0.077 C 
ATOM      2  C1  UNL d   1       2.461   1.716   0.521  0.00  0.00    -0.074 A 
ATOM      3  C2  UNL d   1       2.962   1.949   1.806  0.00  0.00    -0.005 A 
ATOM      4  C3  UNL d   1       2.114   2.390   2.822  0.00  0.00     0.006 A 
ATOM      5  C4  UNL d   1       0.759   2.601   2.564  0.00  0.00    -0.005 A 
ATOM      6  C5  UNL d   1       0.240   2.373   1.285  0.00  0.00    -0.074 A 
ATOM      7  C6  UNL d   1      -1.212   2.605   0.989  0.00  0.00     0.077 C 
ATOM      8  C7  UNL d   1       1.100   1.938   0.268  0.00  0.00    -0.001 A 
ENDROOT
TORSDOF 0
ENDMDL
