MODEL 1
REMARK minimizedAffinity 1.70986736
REMARK minimizedRMSD -1
REMARK  0 active torsions:
REMARK  status: ('A' for Active; 'I' for Inactive)
ROOT
ATOM      1  C   UNL d   1      -1.218  -2.983  -1.811  0.00  0.00     0.077 C 
ATOM      2  C1  UNL d   1      -0.144  -2.218  -1.097  0.00  0.00    -0.074 A 
ATOM      3  C2  UNL d   1       1.065  -2.830  -0.750  0.00  0.00    -0.005 A 
ATOM      4  C3  UNL d   1       2.059  -2.103  -0.095  0.00  0.00     0.006 A 
ATOM      5  C4  UNL d   1       1.854  -0.758   0.219  0.00  0.00    -0.005 A 
ATOM      6  C5  UNL d   1       0.653  -0.129  -0.122  0.00  0.00    -0.074 A 
ATOM      7  C6  UNL d   1       0.421   1.318   0.199  0.00  0.00     0.077 C 
ATOM      8  C7  UNL d   1      -0.338  -0.865  -0.786  0.00  0.00    -0.001 A 
ENDROOT
TORSDOF 0
ENDMDL
