MODEL 1
REMARK minimizedAffinity 5.1043148
REMARK minimizedRMSD -1
REMARK  0 active torsions:
REMARK  status: ('A' for Active; 'I' for Inactive)
ROOT
ATOM      1  C   UNL d   1      -0.278   1.968  -0.163  0.00  0.00     0.077 C 
ATOM      2  C1  UNL d   1      -0.216   0.514  -0.525  0.00  0.00    -0.074 A 
ATOM      3  C2  UNL d   1      -1.293  -0.116  -1.156  0.00  0.00    -0.005 A 
ATOM      4  C3  UNL d   1      -1.217  -1.467  -1.496  0.00  0.00     0.006 A 
ATOM      5  C4  UNL d   1      -0.064  -2.199  -1.209  0.00  0.00    -0.005 A 
ATOM      6  C5  UNL d   1       1.024  -1.586  -0.580  0.00  0.00    -0.074 A 
ATOM      7  C6  UNL d   1       2.273  -2.356  -0.274  0.00  0.00     0.077 C 
ATOM      8  C7  UNL d   1       0.942  -0.226  -0.248  0.00  0.00    -0.001 A 
ENDROOT
TORSDOF 0
ENDMDL
