MODEL 1
REMARK minimizedAffinity 1.43806005
REMARK minimizedRMSD -1
REMARK  0 active torsions:
REMARK  status: ('A' for Active; 'I' for Inactive)
ROOT
ATOM      1  C   UNL d   1       3.289  -1.601  -0.598  0.00  0.00     0.077 C 
ATOM      2  C1  UNL d   1       1.843  -1.205  -0.641  0.00  0.00    -0.074 A 
ATOM      3  C2  UNL d   1       1.451   0.116  -0.397  0.00  0.00    -0.005 A 
ATOM      4  C3  UNL d   1       0.104   0.471  -0.450  0.00  0.00     0.006 A 
ATOM      5  C4  UNL d   1      -0.865  -0.489  -0.746  0.00  0.00    -0.005 A 
ATOM      6  C5  UNL d   1      -0.493  -1.814  -0.994  0.00  0.00    -0.074 A 
ATOM      7  C6  UNL d   1      -1.520  -2.856  -1.324  0.00  0.00     0.077 C 
ATOM      8  C7  UNL d   1       0.864  -2.161  -0.946  0.00  0.00    -0.001 A 
ENDROOT
TORSDOF 0
ENDMDL
