MODEL 1
REMARK minimizedAffinity -0.705137193
REMARK minimizedRMSD -1
REMARK  0 active torsions:
REMARK  status: ('A' for Active; 'I' for Inactive)
ROOT
ATOM      1  C   UNL d   1       2.430   5.006  -5.627  0.00  0.00     0.172 C 
ATOM      2  N   UNL d   1       3.872   4.987  -5.560  0.00  0.00    -0.070 N 
ATOM      3  C1  UNL d   1       4.635   3.966  -5.059  0.00  0.00    -0.004 A 
ATOM      4  C2  UNL d   1       5.959   4.332  -5.175  0.00  0.00    -0.047 A 
ATOM      5  C3  UNL d   1       5.992   5.618  -5.765  0.00  0.00    -0.047 A 
ATOM      6  C4  UNL d   1       4.687   6.000  -5.993  0.00  0.00    -0.004 A 
ENDROOT
TORSDOF 0
ENDMDL
