MODEL 1
REMARK minimizedAffinity 1.53588533
REMARK minimizedRMSD -1
REMARK  0 active torsions:
REMARK  status: ('A' for Active; 'I' for Inactive)
ROOT
ATOM      1  C   UNL d   1      -3.332  -1.540  -2.213  0.00  0.00     0.172 C 
ATOM      2  N   UNL d   1      -2.176  -1.405  -3.069  0.00  0.00    -0.070 N 
ATOM      3  C1  UNL d   1      -0.894  -1.756  -2.740  0.00  0.00    -0.004 A 
ATOM      4  C2  UNL d   1      -0.088  -1.472  -3.821  0.00  0.00    -0.047 A 
ATOM      5  C3  UNL d   1      -0.915  -0.932  -4.835  0.00  0.00    -0.047 A 
ATOM      6  C4  UNL d   1      -2.203  -0.902  -4.343  0.00  0.00    -0.004 A 
ENDROOT
TORSDOF 0
ENDMDL
