MODEL 1
REMARK minimizedAffinity 1.88175642
REMARK minimizedRMSD -1
REMARK  0 active torsions:
REMARK  status: ('A' for Active; 'I' for Inactive)
ROOT
ATOM      1  C   UNL d   1       3.847   5.037  -5.987  0.00  0.00     0.172 C 
ATOM      2  N   UNL d   1       2.410   4.941  -5.883  0.00  0.00    -0.070 N 
ATOM      3  C1  UNL d   1       1.701   3.792  -5.656  0.00  0.00    -0.004 A 
ATOM      4  C2  UNL d   1       0.363   4.121  -5.626  0.00  0.00    -0.047 A 
ATOM      5  C3  UNL d   1       0.265   5.516  -5.844  0.00  0.00    -0.047 A 
ATOM      6  C4  UNL d   1       1.547   5.999  -6.000  0.00  0.00    -0.004 A 
ENDROOT
TORSDOF 0
ENDMDL
