MODEL 1
REMARK minimizedAffinity -1.15139818
REMARK minimizedRMSD -1
REMARK  0 active torsions:
REMARK  status: ('A' for Active; 'I' for Inactive)
ROOT
ATOM      1  C   UNL d   1       0.527   5.994  -5.292  0.00  0.00     0.172 C 
ATOM      2  N   UNL d   1      -0.510   5.996  -4.287  0.00  0.00    -0.070 N 
ATOM      3  C1  UNL d   1      -1.858   5.996  -4.530  0.00  0.00    -0.004 A 
ATOM      4  C2  UNL d   1      -2.506   5.997  -3.314  0.00  0.00    -0.047 A 
ATOM      5  C3  UNL d   1      -1.514   6.000  -2.305  0.00  0.00    -0.047 A 
ATOM      6  C4  UNL d   1      -0.287   5.999  -2.935  0.00  0.00    -0.004 A 
ENDROOT
TORSDOF 0
ENDMDL
