MODEL 1
REMARK minimizedAffinity -0.170145497
REMARK minimizedRMSD -1
REMARK  0 active torsions:
REMARK  status: ('A' for Active; 'I' for Inactive)
ROOT
ATOM      1  C   UNL d   1      -0.165   5.993  -2.582  0.00  0.00     0.172 C 
ATOM      2  N   UNL d   1      -1.608   5.993  -2.627  0.00  0.00    -0.070 N 
ATOM      3  C1  UNL d   1      -2.371   5.997  -3.764  0.00  0.00    -0.004 A 
ATOM      4  C2  UNL d   1      -3.696   5.995  -3.384  0.00  0.00    -0.047 A 
ATOM      5  C3  UNL d   1      -3.730   5.990  -1.969  0.00  0.00    -0.047 A 
ATOM      6  C4  UNL d   1      -2.424   5.989  -1.527  0.00  0.00    -0.004 A 
ENDROOT
TORSDOF 0
ENDMDL
