MODEL 1
REMARK minimizedAffinity 0.353520066
REMARK minimizedRMSD -1
REMARK  0 active torsions:
REMARK  status: ('A' for Active; 'I' for Inactive)
ROOT
ATOM      1  C   UNL d   1       1.458  -1.000  -1.768  0.00  0.00     0.172 C 
ATOM      2  N   UNL d   1       1.255  -0.040  -0.708  0.00  0.00    -0.070 N 
ATOM      3  C1  UNL d   1       0.701  -0.308   0.516  0.00  0.00    -0.004 A 
ATOM      4  C2  UNL d   1       0.685   0.866   1.237  0.00  0.00    -0.047 A 
ATOM      5  C3  UNL d   1       1.248   1.874   0.419  0.00  0.00    -0.047 A 
ATOM      6  C4  UNL d   1       1.592   1.286  -0.780  0.00  0.00    -0.004 A 
ENDROOT
TORSDOF 0
ENDMDL
