MODEL 1
REMARK minimizedAffinity -1.61300516
REMARK minimizedRMSD -1
REMARK  0 active torsions:
REMARK  status: ('A' for Active; 'I' for Inactive)
ROOT
ATOM      1  C   UNL d   1      -0.357   5.942  -0.750  0.00  0.00     0.172 C 
ATOM      2  N   UNL d   1      -1.729   5.958  -1.200  0.00  0.00    -0.070 N 
ATOM      3  C1  UNL d   1      -2.141   5.939  -2.506  0.00  0.00    -0.004 A 
ATOM      4  C2  UNL d   1      -3.518   5.963  -2.514  0.00  0.00    -0.047 A 
ATOM      5  C3  UNL d   1      -3.950   5.999  -1.167  0.00  0.00    -0.047 A 
ATOM      6  C4  UNL d   1      -2.821   5.995  -0.374  0.00  0.00    -0.004 A 
ENDROOT
TORSDOF 0
ENDMDL
