MODEL 1
REMARK minimizedAffinity -0.158971936
REMARK minimizedRMSD -1
REMARK  0 active torsions:
REMARK  status: ('A' for Active; 'I' for Inactive)
ROOT
ATOM      1  C   UNL d   1       0.008   4.529  -5.510  0.00  0.00     0.172 C 
ATOM      2  N   UNL d   1       1.418   4.844  -5.518  0.00  0.00    -0.070 N 
ATOM      3  C1  UNL d   1       1.974   6.000  -5.998  0.00  0.00    -0.004 A 
ATOM      4  C2  UNL d   1       3.339   5.914  -5.825  0.00  0.00    -0.047 A 
ATOM      5  C3  UNL d   1       3.612   4.664  -5.222  0.00  0.00    -0.047 A 
ATOM      6  C4  UNL d   1       2.405   4.022  -5.043  0.00  0.00    -0.004 A 
ENDROOT
TORSDOF 0
ENDMDL
