MODEL 1
REMARK minimizedAffinity -1.47490144
REMARK minimizedRMSD -1
REMARK  0 active torsions:
REMARK  status: ('A' for Active; 'I' for Inactive)
ROOT
ATOM      1  C   UNL d   1      -1.690   6.000  -0.411  0.00  0.00     0.172 C 
ATOM      2  N   UNL d   1      -1.931   6.000  -1.835  0.00  0.00    -0.070 N 
ATOM      3  C1  UNL d   1      -3.160   5.999  -2.437  0.00  0.00    -0.004 A 
ATOM      4  C2  UNL d   1      -2.963   6.000  -3.801  0.00  0.00    -0.047 A 
ATOM      5  C3  UNL d   1      -1.566   6.000  -4.026  0.00  0.00    -0.047 A 
ATOM      6  C4  UNL d   1      -0.951   6.000  -2.792  0.00  0.00    -0.004 A 
ENDROOT
TORSDOF 0
ENDMDL
