MODEL 1
REMARK minimizedAffinity 1.77223825
REMARK minimizedRMSD -1
REMARK  0 active torsions:
REMARK  status: ('A' for Active; 'I' for Inactive)
ROOT
ATOM      1  C   UNL d   1      -0.695   5.973  -4.520  0.00  0.00     0.172 C 
ATOM      2  N   UNL d   1      -1.529   5.983  -3.341  0.00  0.00    -0.070 N 
ATOM      3  C1  UNL d   1      -2.898   5.986  -3.331  0.00  0.00    -0.004 A 
ATOM      4  C2  UNL d   1      -3.311   5.996  -2.016  0.00  0.00    -0.047 A 
ATOM      5  C3  UNL d   1      -2.150   5.999  -1.208  0.00  0.00    -0.047 A 
ATOM      6  C4  UNL d   1      -1.060   5.991  -2.053  0.00  0.00    -0.004 A 
ENDROOT
TORSDOF 0
ENDMDL
