MODEL 1
REMARK minimizedAffinity -1.24042606
REMARK minimizedRMSD -1
REMARK  0 active torsions:
REMARK  status: ('A' for Active; 'I' for Inactive)
ROOT
ATOM      1  C   UNL d   1       1.899   5.924  -5.643  0.00  0.00     0.172 C 
ATOM      2  N   UNL d   1       0.573   5.951  -5.071  0.00  0.00    -0.070 N 
ATOM      3  C1  UNL d   1       0.280   5.962  -3.734  0.00  0.00    -0.004 A 
ATOM      4  C2  UNL d   1      -1.091   5.989  -3.602  0.00  0.00    -0.047 A 
ATOM      5  C3  UNL d   1      -1.642   5.992  -4.906  0.00  0.00    -0.047 A 
ATOM      6  C4  UNL d   1      -0.589   5.969  -5.796  0.00  0.00    -0.004 A 
ENDROOT
TORSDOF 0
ENDMDL
