MODEL 1
REMARK minimizedAffinity 1.22832608
REMARK minimizedRMSD -1
REMARK  0 active torsions:
REMARK  status: ('A' for Active; 'I' for Inactive)
ROOT
ATOM      1  C   UNL d   1       0.435   4.160  -5.025  0.00  0.00     0.172 C 
ATOM      2  N   UNL d   1       1.758   4.680  -5.278  0.00  0.00    -0.070 N 
ATOM      3  C1  UNL d   1       2.933   4.102  -4.878  0.00  0.00    -0.004 A 
ATOM      4  C2  UNL d   1       3.967   4.903  -5.314  0.00  0.00    -0.047 A 
ATOM      5  C3  UNL d   1       3.393   6.000  -5.999  0.00  0.00    -0.047 A 
ATOM      6  C4  UNL d   1       2.025   5.836  -5.962  0.00  0.00    -0.004 A 
ENDROOT
TORSDOF 0
ENDMDL
