MODEL 1
REMARK minimizedAffinity -2.45101213
REMARK minimizedRMSD -1
REMARK  0 active torsions:
REMARK  status: ('A' for Active; 'I' for Inactive)
ROOT
ATOM      1  C   UNL d   1       4.575   5.234  -4.874  0.00  0.00     0.172 C 
ATOM      2  N   UNL d   1       3.141   5.277  -5.037  0.00  0.00    -0.070 N 
ATOM      3  C1  UNL d   1       2.271   5.999  -4.264  0.00  0.00    -0.004 A 
ATOM      4  C2  UNL d   1       0.997   5.775  -4.741  0.00  0.00    -0.047 A 
ATOM      5  C3  UNL d   1       1.106   4.887  -5.838  0.00  0.00    -0.047 A 
ATOM      6  C4  UNL d   1       2.444   4.595  -5.999  0.00  0.00    -0.004 A 
ENDROOT
TORSDOF 0
ENDMDL
