MODEL 1
REMARK minimizedAffinity 0.401343375
REMARK minimizedRMSD -1
REMARK  0 active torsions:
REMARK  status: ('A' for Active; 'I' for Inactive)
ROOT
ATOM      1  C   UNL d   1       4.922   4.416  -5.200  0.00  0.00     0.172 C 
ATOM      2  N   UNL d   1       3.548   4.792  -5.434  0.00  0.00    -0.070 N 
ATOM      3  C1  UNL d   1       3.122   6.000  -5.920  0.00  0.00    -0.004 A 
ATOM      4  C2  UNL d   1       1.746   5.962  -5.998  0.00  0.00    -0.047 A 
ATOM      5  C3  UNL d   1       1.331   4.688  -5.542  0.00  0.00    -0.047 A 
ATOM      6  C4  UNL d   1       2.466   3.984  -5.200  0.00  0.00    -0.004 A 
ENDROOT
TORSDOF 0
ENDMDL
