MODEL 1
REMARK minimizedAffinity -0.0847878903
REMARK minimizedRMSD -1
REMARK  0 active torsions:
REMARK  status: ('A' for Active; 'I' for Inactive)
ROOT
ATOM      1  C   UNL d   1       1.196   2.945   0.508  0.00  0.00     0.172 C 
ATOM      2  N   UNL d   1       0.757   1.740   1.171  0.00  0.00    -0.070 N 
ATOM      3  C1  UNL d   1       0.147   1.680   2.395  0.00  0.00    -0.004 A 
ATOM      4  C2  UNL d   1      -0.113   0.355   2.672  0.00  0.00    -0.047 A 
ATOM      5  C3  UNL d   1       0.358  -0.407   1.576  0.00  0.00    -0.047 A 
ATOM      6  C4  UNL d   1       0.892   0.476   0.662  0.00  0.00    -0.004 A 
ENDROOT
TORSDOF 0
ENDMDL
