MODEL 1
REMARK minimizedAffinity -1.09802222
REMARK minimizedRMSD -1
REMARK  0 active torsions:
REMARK  status: ('A' for Active; 'I' for Inactive)
ROOT
ATOM      1  C   UNL d   1       2.272   5.640  -5.740  0.00  0.00     0.172 C 
ATOM      2  N   UNL d   1       3.657   5.378  -5.425  0.00  0.00    -0.070 N 
ATOM      3  C1  UNL d   1       4.737   5.999  -5.993  0.00  0.00    -0.004 A 
ATOM      4  C2  UNL d   1       5.875   5.471  -5.425  0.00  0.00    -0.047 A 
ATOM      5  C3  UNL d   1       5.466   4.498  -4.482  0.00  0.00    -0.047 A 
ATOM      6  C4  UNL d   1       4.088   4.461  -4.503  0.00  0.00    -0.004 A 
ENDROOT
TORSDOF 0
ENDMDL
