MODEL 1
REMARK minimizedAffinity 0.674670875
REMARK minimizedRMSD -1
REMARK  0 active torsions:
REMARK  status: ('A' for Active; 'I' for Inactive)
ROOT
ATOM      1  C   UNL d   1       3.676   5.971  -5.329  0.00  0.00     0.172 C 
ATOM      2  N   UNL d   1       2.265   5.979  -5.021  0.00  0.00    -0.070 N 
ATOM      3  C1  UNL d   1       1.722   5.998  -3.764  0.00  0.00    -0.004 A 
ATOM      4  C2  UNL d   1       0.351   6.000  -3.897  0.00  0.00    -0.047 A 
ATOM      5  C3  UNL d   1       0.059   5.979  -5.281  0.00  0.00    -0.047 A 
ATOM      6  C4  UNL d   1       1.262   5.966  -5.954  0.00  0.00    -0.004 A 
ENDROOT
TORSDOF 0
ENDMDL
