MODEL 1
REMARK minimizedAffinity -0.460579425
REMARK minimizedRMSD -1
REMARK  0 active torsions:
REMARK  status: ('A' for Active; 'I' for Inactive)
ROOT
ATOM      1  C   UNL d   1       1.507  -0.362  -1.838  0.00  0.00     0.172 C 
ATOM      2  N   UNL d   1       1.528   0.584  -0.747  0.00  0.00    -0.070 N 
ATOM      3  C1  UNL d   1       1.119   0.333   0.535  0.00  0.00    -0.004 A 
ATOM      4  C2  UNL d   1       1.299   1.486   1.269  0.00  0.00    -0.047 A 
ATOM      5  C3  UNL d   1       1.834   2.464   0.396  0.00  0.00    -0.047 A 
ATOM      6  C4  UNL d   1       1.966   1.879  -0.845  0.00  0.00    -0.004 A 
ENDROOT
TORSDOF 0
ENDMDL
