MODEL 1
REMARK minimizedAffinity 7.71189499
REMARK minimizedRMSD -1
REMARK  0 active torsions:
REMARK  status: ('A' for Active; 'I' for Inactive)
ROOT
ATOM      1  C   UNL d   1       5.400  -1.907   3.008  0.00  0.00     0.172 C 
ATOM      2  N   UNL d   1       3.968  -1.736   3.067  0.00  0.00    -0.070 N 
ATOM      3  C1  UNL d   1       3.243  -0.821   2.351  0.00  0.00    -0.004 A 
ATOM      4  C2  UNL d   1       1.916  -0.976   2.689  0.00  0.00    -0.047 A 
ATOM      5  C3  UNL d   1       1.841  -2.020   3.642  0.00  0.00    -0.047 A 
ATOM      6  C4  UNL d   1       3.125  -2.472   3.858  0.00  0.00    -0.004 A 
ENDROOT
TORSDOF 0
ENDMDL
