MODEL 1
REMARK minimizedAffinity 1.77441609
REMARK minimizedRMSD -1
REMARK  0 active torsions:
REMARK  status: ('A' for Active; 'I' for Inactive)
ROOT
ATOM      1  C   UNL d   1       2.303  -1.439   5.054  0.00  0.00     0.172 C 
ATOM      2  N   UNL d   1       2.136  -1.108   3.658  0.00  0.00    -0.070 N 
ATOM      3  C1  UNL d   1       2.323   0.130   3.103  0.00  0.00    -0.004 A 
ATOM      4  C2  UNL d   1       2.067   0.030   1.752  0.00  0.00    -0.047 A 
ATOM      5  C3  UNL d   1       1.713  -1.314   1.487  0.00  0.00    -0.047 A 
ATOM      6  C4  UNL d   1       1.764  -1.997   2.684  0.00  0.00    -0.004 A 
ENDROOT
TORSDOF 0
ENDMDL
