MODEL 1
REMARK minimizedAffinity 1.95840085
REMARK minimizedRMSD -1
REMARK  0 active torsions:
REMARK  status: ('A' for Active; 'I' for Inactive)
ROOT
ATOM      1  C   UNL d   1       2.459  -2.031   4.037  0.00  0.00     0.172 C 
ATOM      2  N   UNL d   1       3.818  -2.279   4.458  0.00  0.00    -0.070 N 
ATOM      3  C1  UNL d   1       4.254  -2.336   5.755  0.00  0.00    -0.004 A 
ATOM      4  C2  UNL d   1       5.608  -2.592   5.735  0.00  0.00    -0.047 A 
ATOM      5  C3  UNL d   1       6.000  -2.691   4.379  0.00  0.00    -0.047 A 
ATOM      6  C4  UNL d   1       4.872  -2.494   3.610  0.00  0.00    -0.004 A 
ENDROOT
TORSDOF 0
ENDMDL
