MODEL 1
REMARK minimizedAffinity 11.8494282
REMARK minimizedRMSD -1
REMARK  0 active torsions:
REMARK  status: ('A' for Active; 'I' for Inactive)
ROOT
ATOM      1  C   UNL d   1      -2.940   3.766  -0.690  0.00  0.00     0.172 C 
ATOM      2  N   UNL d   1      -3.729   3.511   0.492  0.00  0.00    -0.070 N 
ATOM      3  C1  UNL d   1      -3.287   2.884   1.627  0.00  0.00    -0.004 A 
ATOM      4  C2  UNL d   1      -4.337   2.836   2.519  0.00  0.00    -0.047 A 
ATOM      5  C3  UNL d   1      -5.448   3.455   1.898  0.00  0.00    -0.047 A 
ATOM      6  C4  UNL d   1      -5.043   3.864   0.645  0.00  0.00    -0.004 A 
ENDROOT
TORSDOF 0
ENDMDL
