MODEL 1
REMARK minimizedAffinity 0.298264235
REMARK minimizedRMSD -1
REMARK  0 active torsions:
REMARK  status: ('A' for Active; 'I' for Inactive)
ROOT
ATOM      1  C   UNL d   1       5.919  -2.615   4.383  0.00  0.00     0.172 C 
ATOM      2  N   UNL d   1       4.514  -2.594   4.720  0.00  0.00    -0.070 N 
ATOM      3  C1  UNL d   1       3.481  -2.510   3.825  0.00  0.00    -0.004 A 
ATOM      4  C2  UNL d   1       2.303  -2.519   4.540  0.00  0.00    -0.047 A 
ATOM      5  C3  UNL d   1       2.640  -2.610   5.911  0.00  0.00    -0.047 A 
ATOM      6  C4  UNL d   1       4.016  -2.655   5.994  0.00  0.00    -0.004 A 
ENDROOT
TORSDOF 0
ENDMDL
