MODEL 1
REMARK minimizedAffinity 4.36451626
REMARK minimizedRMSD -1
REMARK  0 active torsions:
REMARK  status: ('A' for Active; 'I' for Inactive)
ROOT
ATOM      1  C   UNL d   1       1.787  -5.663  -5.915  0.00  0.00     0.172 C 
ATOM      2  N   UNL d   1       3.101  -5.711  -5.316  0.00  0.00    -0.070 N 
ATOM      3  C1  UNL d   1       3.385  -5.483  -3.996  0.00  0.00    -0.004 A 
ATOM      4  C2  UNL d   1       4.745  -5.623  -3.827  0.00  0.00    -0.047 A 
ATOM      5  C3  UNL d   1       5.298  -5.946  -5.090  0.00  0.00    -0.047 A 
ATOM      6  C4  UNL d   1       4.258  -5.993  -5.993  0.00  0.00    -0.004 A 
ENDROOT
TORSDOF 0
ENDMDL
