MODEL 1
REMARK minimizedAffinity 4.18601513
REMARK minimizedRMSD -1
REMARK  0 active torsions:
REMARK  status: ('A' for Active; 'I' for Inactive)
ROOT
ATOM      1  C   UNL d   1      -5.627   5.445   0.081  0.00  0.00     0.172 C 
ATOM      2  N   UNL d   1      -5.693   4.228   0.856  0.00  0.00    -0.070 N 
ATOM      3  C1  UNL d   1      -5.462   4.124   2.201  0.00  0.00    -0.004 A 
ATOM      4  C2  UNL d   1      -5.624   2.802   2.557  0.00  0.00    -0.047 A 
ATOM      5  C3  UNL d   1      -5.964   2.087   1.384  0.00  0.00    -0.047 A 
ATOM      6  C4  UNL d   1      -5.999   2.994   0.346  0.00  0.00    -0.004 A 
ENDROOT
TORSDOF 0
ENDMDL
