MODEL 1
REMARK minimizedAffinity 7.89136457
REMARK minimizedRMSD -1
REMARK  0 active torsions:
REMARK  status: ('A' for Active; 'I' for Inactive)
ROOT
ATOM      1  C   UNL d   1       4.891  -2.586   4.956  0.00  0.00     0.172 C 
ATOM      2  N   UNL d   1       3.588  -2.267   4.421  0.00  0.00    -0.070 N 
ATOM      3  C1  UNL d   1       2.394  -2.442   5.068  0.00  0.00    -0.004 A 
ATOM      4  C2  UNL d   1       1.391  -2.019   4.224  0.00  0.00    -0.047 A 
ATOM      5  C3  UNL d   1       2.003  -1.574   3.028  0.00  0.00    -0.047 A 
ATOM      6  C4  UNL d   1       3.363  -1.739   3.177  0.00  0.00    -0.004 A 
ENDROOT
TORSDOF 0
ENDMDL
