MODEL 1
REMARK minimizedAffinity 0.433831006
REMARK minimizedRMSD -1
REMARK  0 active torsions:
REMARK  status: ('A' for Active; 'I' for Inactive)
ROOT
ATOM      1  C   UNL d   1       3.160  -4.361   2.532  0.00  0.00     0.172 C 
ATOM      2  N   UNL d   1       2.703  -3.018   2.803  0.00  0.00    -0.070 N 
ATOM      3  C1  UNL d   1       2.580  -2.015   1.879  0.00  0.00    -0.004 A 
ATOM      4  C2  UNL d   1       2.116  -0.894   2.532  0.00  0.00    -0.047 A 
ATOM      5  C3  UNL d   1       1.955  -1.234   3.896  0.00  0.00    -0.047 A 
ATOM      6  C4  UNL d   1       2.326  -2.555   4.036  0.00  0.00    -0.004 A 
ENDROOT
TORSDOF 0
ENDMDL
