MODEL 1
REMARK minimizedAffinity 3.49358606
REMARK minimizedRMSD -1
REMARK  0 active torsions:
REMARK  status: ('A' for Active; 'I' for Inactive)
ROOT
ATOM      1  C   UNL d   1       3.623  -5.999  -5.857  0.00  0.00     0.172 C 
ATOM      2  N   UNL d   1       3.452  -5.993  -4.424  0.00  0.00    -0.070 N 
ATOM      3  C1  UNL d   1       2.252  -5.999  -3.763  0.00  0.00    -0.004 A 
ATOM      4  C2  UNL d   1       2.515  -5.991  -2.410  0.00  0.00    -0.047 A 
ATOM      5  C3  UNL d   1       3.922  -5.978  -2.252  0.00  0.00    -0.047 A 
ATOM      6  C4  UNL d   1       4.477  -5.980  -3.515  0.00  0.00    -0.004 A 
ENDROOT
TORSDOF 0
ENDMDL
