MODEL 1
REMARK minimizedAffinity 7.62622976
REMARK minimizedRMSD -1
REMARK  2 active torsions:
REMARK  status: ('A' for Active; 'I' for Inactive)
REMARK    1  A    between atoms: C2'_3  and  C1'_4 
REMARK    2  A    between atoms: C1'_4  and  C1_5 
ROOT
ATOM      1  C1  I4B d   1       1.927  -0.193   0.788  0.00  0.00    -0.075 A 
ATOM      2  C2  I4B d   1       1.369  -0.451  -0.439  0.00  0.00     0.003 A 
ATOM      3  C3  I4B d   1       1.117   0.608  -1.344  0.00  0.00     0.002 A 
ATOM      4  C4  I4B d   1       1.390   1.907  -0.964  0.00  0.00    -0.004 A 
ATOM      5  C5  I4B d   1       1.977   2.164   0.271  0.00  0.00     0.002 A 
ATOM      6  C6  I4B d   1       2.259   1.107   1.149  0.00  0.00     0.003 A 
ENDROOT
BRANCH   1   7
ATOM      7  C1' I4B d   1       2.149  -1.331   1.733  0.00  0.00     0.060 C 
BRANCH   7   8
ATOM      8  C2' I4B d   1       1.165  -2.428   1.381  0.00  0.00    -0.013 C 
ATOM      9  C4' I4B d   1       1.766  -3.791   1.603  0.00  0.00     0.013 C 
ATOM     10  C3' I4B d   1      -0.064  -2.235   2.219  0.00  0.00     0.013 C 
ENDBRANCH   7   8
ENDBRANCH   1   7
TORSDOF 2
ENDMDL
