MODEL 1
REMARK minimizedAffinity 4.95940065
REMARK minimizedRMSD -1
REMARK  2 active torsions:
REMARK  status: ('A' for Active; 'I' for Inactive)
REMARK    1  A    between atoms: C2'_3  and  C1'_4 
REMARK    2  A    between atoms: C1'_4  and  C1_5 
ROOT
ATOM      1  C1  I4B d   1       3.703  -5.261   0.420  0.00  0.00    -0.075 A 
ATOM      2  C2  I4B d   1       3.693  -5.216  -0.952  0.00  0.00     0.003 A 
ATOM      3  C3  I4B d   1       4.848  -5.580  -1.685  0.00  0.00     0.002 A 
ATOM      4  C4  I4B d   1       5.999  -5.933  -1.010  0.00  0.00    -0.004 A 
ATOM      5  C5  I4B d   1       6.000  -6.000   0.380  0.00  0.00     0.002 A 
ATOM      6  C6  I4B d   1       4.841  -5.674   1.100  0.00  0.00     0.003 A 
ENDROOT
BRANCH   1   7
ATOM      7  C1' I4B d   1       2.476  -4.838   1.164  0.00  0.00     0.060 C 
BRANCH   7   8
ATOM      8  C2' I4B d   1       2.500  -3.328   1.283  0.00  0.00    -0.013 C 
ATOM      9  C4' I4B d   1       1.286  -2.819   2.016  0.00  0.00     0.013 C 
ATOM     10  C3' I4B d   1       3.763  -2.940   1.993  0.00  0.00     0.013 C 
ENDBRANCH   7   8
ENDBRANCH   1   7
TORSDOF 2
ENDMDL
