MODEL 1
REMARK minimizedAffinity 10.2577534
REMARK minimizedRMSD -1
REMARK  2 active torsions:
REMARK  status: ('A' for Active; 'I' for Inactive)
REMARK    1  A    between atoms: C2'_3  and  C1'_4 
REMARK    2  A    between atoms: C1'_4  and  C1_5 
ROOT
ATOM      1  C1  I4B d   1       1.096  -1.017   1.132  0.00  0.00    -0.075 A 
ATOM      2  C2  I4B d   1       0.345  -1.297   0.017  0.00  0.00     0.003 A 
ATOM      3  C3  I4B d   1       0.338  -0.402  -1.080  0.00  0.00     0.002 A 
ATOM      4  C4  I4B d   1       1.050   0.778  -1.000  0.00  0.00    -0.004 A 
ATOM      5  C5  I4B d   1       1.828   1.049   0.121  0.00  0.00     0.002 A 
ATOM      6  C6  I4B d   1       1.861   0.141   1.189  0.00  0.00     0.003 A 
ENDROOT
BRANCH   1   7
ATOM      7  C1' I4B d   1       1.054  -1.968   2.286  0.00  0.00     0.060 C 
BRANCH   7   8
ATOM      8  C2' I4B d   1       2.167  -2.978   2.097  0.00  0.00    -0.013 C 
ATOM      9  C4' I4B d   1       1.816  -3.984   1.033  0.00  0.00     0.013 C 
ATOM     10  C3' I4B d   1       3.418  -2.230   1.743  0.00  0.00     0.013 C 
ENDBRANCH   7   8
ENDBRANCH   1   7
TORSDOF 2
ENDMDL
