MODEL 1
REMARK minimizedAffinity 5.10311842
REMARK minimizedRMSD -1
REMARK  2 active torsions:
REMARK  status: ('A' for Active; 'I' for Inactive)
REMARK    1  A    between atoms: C2'_3  and  C1'_4 
REMARK    2  A    between atoms: C1'_4  and  C1_5 
ROOT
ATOM      1  C1  I4B d   1       3.418  -3.665   3.903  0.00  0.00    -0.075 A 
ATOM      2  C2  I4B d   1       3.389  -4.982   3.517  0.00  0.00     0.003 A 
ATOM      3  C3  I4B d   1       3.880  -5.989   4.382  0.00  0.00     0.002 A 
ATOM      4  C4  I4B d   1       4.434  -5.633   5.595  0.00  0.00    -0.004 A 
ATOM      5  C5  I4B d   1       4.441  -4.299   5.994  0.00  0.00     0.002 A 
ATOM      6  C6  I4B d   1       3.919  -3.310   5.148  0.00  0.00     0.003 A 
ENDROOT
BRANCH   1   7
ATOM      7  C1' I4B d   1       2.921  -2.624   2.950  0.00  0.00     0.060 C 
BRANCH   7   8
ATOM      8  C2' I4B d   1       1.791  -3.230   2.144  0.00  0.00    -0.013 C 
ATOM      9  C4' I4B d   1       1.785  -4.732   2.257  0.00  0.00     0.013 C 
ATOM     10  C3' I4B d   1       0.503  -2.645   2.640  0.00  0.00     0.013 C 
ENDBRANCH   7   8
ENDBRANCH   1   7
TORSDOF 2
ENDMDL
