MODEL 1
REMARK minimizedAffinity 15.3156509
REMARK minimizedRMSD -1
REMARK  2 active torsions:
REMARK  status: ('A' for Active; 'I' for Inactive)
REMARK    1  A    between atoms: C2'_3  and  C1'_4 
REMARK    2  A    between atoms: C1'_4  and  C1_5 
ROOT
ATOM      1  C1  I4B d   1      -4.529  -1.197  -3.784  0.00  0.00    -0.075 A 
ATOM      2  C2  I4B d   1      -5.258  -0.034  -3.792  0.00  0.00     0.003 A 
ATOM      3  C3  I4B d   1      -5.232   0.815  -4.925  0.00  0.00     0.002 A 
ATOM      4  C4  I4B d   1      -4.430   0.490  -6.000  0.00  0.00    -0.004 A 
ATOM      5  C5  I4B d   1      -3.710  -0.701  -5.999  0.00  0.00     0.002 A 
ATOM      6  C6  I4B d   1      -3.769  -1.557  -4.889  0.00  0.00     0.003 A 
ENDROOT
BRANCH   1   7
ATOM      7  C1' I4B d   1      -4.553  -2.054  -2.558  0.00  0.00     0.060 C 
BRANCH   7   8
ATOM      8  C2' I4B d   1      -3.715  -1.373  -1.495  0.00  0.00    -0.013 C 
ATOM      9  C4' I4B d   1      -2.248  -1.447  -1.828  0.00  0.00     0.013 C 
ATOM     10  C3' I4B d   1      -4.175   0.050  -1.385  0.00  0.00     0.013 C 
ENDBRANCH   7   8
ENDBRANCH   1   7
TORSDOF 2
ENDMDL
