MODEL 1
REMARK minimizedAffinity 0.243981436
REMARK minimizedRMSD -1
REMARK  2 active torsions:
REMARK  status: ('A' for Active; 'I' for Inactive)
REMARK    1  A    between atoms: C2'_3  and  C1'_4 
REMARK    2  A    between atoms: C1'_4  and  C1_5 
ROOT
ATOM      1  C1  I4B d   1       0.052   1.101   0.019  0.00  0.00    -0.075 A 
ATOM      2  C2  I4B d   1       0.780   1.101  -1.145  0.00  0.00     0.003 A 
ATOM      3  C3  I4B d   1       1.908   0.255  -1.280  0.00  0.00     0.002 A 
ATOM      4  C4  I4B d   1       2.299  -0.532  -0.216  0.00  0.00    -0.004 A 
ATOM      5  C5  I4B d   1       1.546  -0.547   0.955  0.00  0.00     0.002 A 
ATOM      6  C6  I4B d   1       0.409   0.265   1.069  0.00  0.00     0.003 A 
ENDROOT
BRANCH   1   7
ATOM      7  C1' I4B d   1      -1.114   2.030   0.140  0.00  0.00     0.060 C 
BRANCH   7   8
ATOM      8  C2' I4B d   1      -1.809   1.738   1.454  0.00  0.00    -0.013 C 
ATOM      9  C4' I4B d   1      -1.053   2.330   2.614  0.00  0.00     0.013 C 
ATOM     10  C3' I4B d   1      -3.200   2.293   1.374  0.00  0.00     0.013 C 
ENDBRANCH   7   8
ENDBRANCH   1   7
TORSDOF 2
ENDMDL
