MODEL 1
REMARK minimizedAffinity 7.61911535
REMARK minimizedRMSD -1
REMARK  2 active torsions:
REMARK  status: ('A' for Active; 'I' for Inactive)
REMARK    1  A    between atoms: C2'_3  and  C1'_4 
REMARK    2  A    between atoms: C1'_4  and  C1_5 
ROOT
ATOM      1  C1  I4B d   1      -0.974   2.205   0.794  0.00  0.00    -0.075 A 
ATOM      2  C2  I4B d   1      -2.334   2.273   0.963  0.00  0.00     0.003 A 
ATOM      3  C3  I4B d   1      -2.942   1.688   2.100  0.00  0.00     0.002 A 
ATOM      4  C4  I4B d   1      -2.162   1.005   3.011  0.00  0.00    -0.004 A 
ATOM      5  C5  I4B d   1      -0.780   0.957   2.850  0.00  0.00     0.002 A 
ATOM      6  C6  I4B d   1      -0.181   1.571   1.741  0.00  0.00     0.003 A 
ENDROOT
BRANCH   1   7
ATOM      7  C1' I4B d   1      -0.369   2.805  -0.436  0.00  0.00     0.060 C 
BRANCH   7   8
ATOM      8  C2' I4B d   1       0.446   1.732  -1.127  0.00  0.00    -0.013 C 
ATOM      9  C4' I4B d   1      -0.429   0.599  -1.594  0.00  0.00     0.013 C 
ATOM     10  C3' I4B d   1       1.169   2.367  -2.277  0.00  0.00     0.013 C 
ENDBRANCH   7   8
ENDBRANCH   1   7
TORSDOF 2
ENDMDL
