MODEL 1
REMARK minimizedAffinity 0.317578137
REMARK minimizedRMSD -1
REMARK  2 active torsions:
REMARK  status: ('A' for Active; 'I' for Inactive)
REMARK    1  A    between atoms: C2'_3  and  C1'_4 
REMARK    2  A    between atoms: C1'_4  and  C1_5 
ROOT
ATOM      1  C1  I4B d   1      -2.791   0.767   0.918  0.00  0.00    -0.075 A 
ATOM      2  C2  I4B d   1      -1.667   0.316   1.565  0.00  0.00     0.003 A 
ATOM      3  C3  I4B d   1      -0.994   1.152   2.489  0.00  0.00     0.002 A 
ATOM      4  C4  I4B d   1      -1.446   2.439   2.697  0.00  0.00    -0.004 A 
ATOM      5  C5  I4B d   1      -2.599   2.886   2.058  0.00  0.00     0.002 A 
ATOM      6  C6  I4B d   1      -3.283   2.040   1.172  0.00  0.00     0.003 A 
ENDROOT
BRANCH   1   7
ATOM      7  C1' I4B d   1      -3.459  -0.130  -0.076  0.00  0.00     0.060 C 
BRANCH   7   8
ATOM      8  C2' I4B d   1      -4.841  -0.462   0.450  0.00  0.00    -0.013 C 
ATOM      9  C4' I4B d   1      -5.912   0.198  -0.377  0.00  0.00     0.013 C 
ATOM     10  C3' I4B d   1      -4.993  -1.954   0.441  0.00  0.00     0.013 C 
ENDBRANCH   7   8
ENDBRANCH   1   7
TORSDOF 2
ENDMDL
