MODEL 1
REMARK minimizedAffinity 13.9450073
REMARK minimizedRMSD -1
REMARK  2 active torsions:
REMARK  status: ('A' for Active; 'I' for Inactive)
REMARK    1  A    between atoms: C2'_3  and  C1'_4 
REMARK    2  A    between atoms: C1'_4  and  C1_5 
ROOT
ATOM      1  C1  I4B d   1      -0.081   1.916   0.064  0.00  0.00    -0.075 A 
ATOM      2  C2  I4B d   1       0.515   0.680   0.048  0.00  0.00     0.003 A 
ATOM      3  C3  I4B d   1       1.369   0.314  -1.020  0.00  0.00     0.002 A 
ATOM      4  C4  I4B d   1       1.556   1.189  -2.071  0.00  0.00    -0.004 A 
ATOM      5  C5  I4B d   1       0.969   2.450  -2.042  0.00  0.00     0.002 A 
ATOM      6  C6  I4B d   1       0.155   2.822  -0.962  0.00  0.00     0.003 A 
ENDROOT
BRANCH   1   7
ATOM      7  C1' I4B d   1      -1.003   2.257   1.192  0.00  0.00     0.060 C 
BRANCH   7   8
ATOM      8  C2' I4B d   1      -0.529   1.513   2.424  0.00  0.00    -0.013 C 
ATOM      9  C4' I4B d   1       0.175   2.438   3.381  0.00  0.00     0.013 C 
ATOM     10  C3' I4B d   1      -1.723   0.874   3.067  0.00  0.00     0.013 C 
ENDBRANCH   7   8
ENDBRANCH   1   7
TORSDOF 2
ENDMDL
