MODEL 1
REMARK minimizedAffinity 2.79572058
REMARK minimizedRMSD -1
REMARK  2 active torsions:
REMARK  status: ('A' for Active; 'I' for Inactive)
REMARK    1  A    between atoms: C2'_3  and  C1'_4 
REMARK    2  A    between atoms: C1'_4  and  C1_5 
ROOT
ATOM      1  C1  I4B d   1      -1.110   1.718   0.313  0.00  0.00    -0.075 A 
ATOM      2  C2  I4B d   1      -1.502   2.670  -0.595  0.00  0.00     0.003 A 
ATOM      3  C3  I4B d   1      -0.689   2.964  -1.717  0.00  0.00     0.002 A 
ATOM      4  C4  I4B d   1       0.523   2.322  -1.863  0.00  0.00    -0.004 A 
ATOM      5  C5  I4B d   1       0.909   1.341  -0.955  0.00  0.00     0.002 A 
ATOM      6  C6  I4B d   1       0.081   1.028   0.134  0.00  0.00     0.003 A 
ENDROOT
BRANCH   1   7
ATOM      7  C1' I4B d   1      -1.977   1.457   1.503  0.00  0.00     0.060 C 
BRANCH   7   8
ATOM      8  C2' I4B d   1      -1.097   0.919   2.613  0.00  0.00    -0.013 C 
ATOM      9  C4' I4B d   1      -0.763   1.994   3.614  0.00  0.00     0.013 C 
ATOM     10  C3' I4B d   1      -1.819  -0.223   3.264  0.00  0.00     0.013 C 
ENDBRANCH   7   8
ENDBRANCH   1   7
TORSDOF 2
ENDMDL
