MODEL 1
REMARK minimizedAffinity 10.2599249
REMARK minimizedRMSD -1
REMARK  2 active torsions:
REMARK  status: ('A' for Active; 'I' for Inactive)
REMARK    1  A    between atoms: C2'_3  and  C1'_4 
REMARK    2  A    between atoms: C1'_4  and  C1_5 
ROOT
ATOM      1  C1  I4B d   1       3.726  -3.172  -4.463  0.00  0.00    -0.075 A 
ATOM      2  C2  I4B d   1       3.479  -4.181  -3.565  0.00  0.00     0.003 A 
ATOM      3  C3  I4B d   1       4.500  -4.618  -2.686  0.00  0.00     0.002 A 
ATOM      4  C4  I4B d   1       5.758  -4.058  -2.774  0.00  0.00    -0.004 A 
ATOM      5  C5  I4B d   1       6.000  -3.020  -3.669  0.00  0.00     0.002 A 
ATOM      6  C6  I4B d   1       4.974  -2.565  -4.510  0.00  0.00     0.003 A 
ENDROOT
BRANCH   1   7
ATOM      7  C1' I4B d   1       2.634  -2.757  -5.398  0.00  0.00     0.060 C 
BRANCH   7   8
ATOM      8  C2' I4B d   1       2.210  -1.351  -5.025  0.00  0.00    -0.013 C 
ATOM      9  C4' I4B d   1       2.893  -0.327  -5.894  0.00  0.00     0.013 C 
ATOM     10  C3' I4B d   1       0.719  -1.266  -5.159  0.00  0.00     0.013 C 
ENDBRANCH   7   8
ENDBRANCH   1   7
TORSDOF 2
ENDMDL
