MODEL 1
REMARK minimizedAffinity 9.68485069
REMARK minimizedRMSD -1
REMARK  2 active torsions:
REMARK  status: ('A' for Active; 'I' for Inactive)
REMARK    1  A    between atoms: C2'_3  and  C1'_4 
REMARK    2  A    between atoms: C1'_4  and  C1_5 
ROOT
ATOM      1  C1  I4B d   1      -0.861   1.542  -1.133  0.00  0.00    -0.075 A 
ATOM      2  C2  I4B d   1       0.422   1.209  -1.488  0.00  0.00     0.003 A 
ATOM      3  C3  I4B d   1       0.655   0.188  -2.441  0.00  0.00     0.002 A 
ATOM      4  C4  I4B d   1      -0.415  -0.504  -2.972  0.00  0.00    -0.004 A 
ATOM      5  C5  I4B d   1      -1.716  -0.149  -2.627  0.00  0.00     0.002 A 
ATOM      6  C6  I4B d   1      -1.942   0.889  -1.711  0.00  0.00     0.003 A 
ENDROOT
BRANCH   1   7
ATOM      7  C1' I4B d   1      -1.070   2.603  -0.099  0.00  0.00     0.060 C 
BRANCH   7   8
ATOM      8  C2' I4B d   1      -1.564   1.931   1.166  0.00  0.00    -0.013 C 
ATOM      9  C4' I4B d   1      -0.713   2.306   2.351  0.00  0.00     0.013 C 
ATOM     10  C3' I4B d   1      -2.993   2.334   1.377  0.00  0.00     0.013 C 
ENDBRANCH   7   8
ENDBRANCH   1   7
TORSDOF 2
ENDMDL
