MODEL 1
REMARK minimizedAffinity 10.3874073
REMARK minimizedRMSD -1
REMARK  2 active torsions:
REMARK  status: ('A' for Active; 'I' for Inactive)
REMARK    1  A    between atoms: C2'_3  and  C1'_4 
REMARK    2  A    between atoms: C1'_4  and  C1_5 
ROOT
ATOM      1  C1  I4B d   1       5.903  -4.577  -0.698  0.00  0.00    -0.075 A 
ATOM      2  C2  I4B d   1       5.928  -3.305  -1.214  0.00  0.00     0.003 A 
ATOM      3  C3  I4B d   1       6.000  -2.186  -0.349  0.00  0.00     0.002 A 
ATOM      4  C4  I4B d   1       5.993  -2.382   1.017  0.00  0.00    -0.004 A 
ATOM      5  C5  I4B d   1       5.991  -3.672   1.538  0.00  0.00     0.002 A 
ATOM      6  C6  I4B d   1       5.958  -4.778   0.675  0.00  0.00     0.003 A 
ENDROOT
BRANCH   1   7
ATOM      7  C1' I4B d   1       5.794  -5.734  -1.639  0.00  0.00     0.060 C 
BRANCH   7   8
ATOM      8  C2' I4B d   1       4.882  -5.325  -2.779  0.00  0.00    -0.013 C 
ATOM      9  C4' I4B d   1       5.314  -5.958  -4.075  0.00  0.00     0.013 C 
ATOM     10  C3' I4B d   1       3.483  -5.727  -2.419  0.00  0.00     0.013 C 
ENDBRANCH   7   8
ENDBRANCH   1   7
TORSDOF 2
ENDMDL
