MODEL 1
REMARK minimizedAffinity 11.684166
REMARK minimizedRMSD -1
REMARK  2 active torsions:
REMARK  status: ('A' for Active; 'I' for Inactive)
REMARK    1  A    between atoms: C2'_3  and  C1'_4 
REMARK    2  A    between atoms: C1'_4  and  C1_5 
ROOT
ATOM      1  C1  I4B d   1       1.386  -3.802  -2.109  0.00  0.00    -0.075 A 
ATOM      2  C2  I4B d   1       2.758  -3.785  -2.146  0.00  0.00     0.003 A 
ATOM      3  C3  I4B d   1       3.470  -4.881  -2.691  0.00  0.00     0.002 A 
ATOM      4  C4  I4B d   1       2.777  -5.986  -3.139  0.00  0.00    -0.004 A 
ATOM      5  C5  I4B d   1       1.385  -5.992  -3.123  0.00  0.00     0.002 A 
ATOM      6  C6  I4B d   1       0.684  -4.888  -2.616  0.00  0.00     0.003 A 
ENDROOT
BRANCH   1   7
ATOM      7  C1' I4B d   1       0.667  -2.642  -1.497  0.00  0.00     0.060 C 
BRANCH   7   8
ATOM      8  C2' I4B d   1       0.164  -1.758  -2.620  0.00  0.00    -0.013 C 
ATOM      9  C4' I4B d   1      -1.340  -1.775  -2.695  0.00  0.00     0.013 C 
ATOM     10  C3' I4B d   1       0.678  -0.370  -2.383  0.00  0.00     0.013 C 
ENDBRANCH   7   8
ENDBRANCH   1   7
TORSDOF 2
ENDMDL
