MODEL 1
REMARK minimizedAffinity -0.66135639
REMARK minimizedRMSD -1
REMARK  2 active torsions:
REMARK  status: ('A' for Active; 'I' for Inactive)
REMARK    1  A    between atoms: C2'_3  and  C1'_4 
REMARK    2  A    between atoms: C1'_4  and  C1_5 
ROOT
ATOM      1  C1  I4B d   1      -1.151   0.553   2.591  0.00  0.00    -0.075 A 
ATOM      2  C2  I4B d   1       0.047  -0.099   2.750  0.00  0.00     0.003 A 
ATOM      3  C3  I4B d   1       0.079  -1.412   3.279  0.00  0.00     0.002 A 
ATOM      4  C4  I4B d   1      -1.097  -2.012   3.681  0.00  0.00    -0.004 A 
ATOM      5  C5  I4B d   1      -2.312  -1.358   3.498  0.00  0.00     0.002 A 
ATOM      6  C6  I4B d   1      -2.341  -0.073   2.938  0.00  0.00     0.003 A 
ENDROOT
BRANCH   1   7
ATOM      7  C1' I4B d   1      -1.146   1.951   2.060  0.00  0.00     0.060 C 
BRANCH   7   8
ATOM      8  C2' I4B d   1      -2.011   1.981   0.816  0.00  0.00    -0.013 C 
ATOM      9  C4' I4B d   1      -3.391   2.499   1.124  0.00  0.00     0.013 C 
ATOM     10  C3' I4B d   1      -1.325   2.841  -0.204  0.00  0.00     0.013 C 
ENDBRANCH   7   8
ENDBRANCH   1   7
TORSDOF 2
ENDMDL
