MODEL 1
REMARK minimizedAffinity -4.74583197
REMARK minimizedRMSD -1
REMARK  1 active torsions:
REMARK  status: ('A' for Active; 'I' for Inactive)
REMARK    1  A    between atoms: C3_4  and  O_7 
ROOT
ATOM      1  C   UNL d   1       0.919  -1.095  -2.594  0.00  0.00    -0.033 A 
ATOM      2  C1  UNL d   1       1.100   0.027  -3.405  0.00  0.00     0.039 A 
ATOM      3  C2  UNL d   1       0.158   0.341  -4.386  0.00  0.00    -0.080 A 
ATOM      4  C3  UNL d   1      -0.961  -0.473  -4.544  0.00  0.00     0.150 A 
ATOM      5  C4  UNL d   1      -1.149  -1.590  -3.737  0.00  0.00    -0.007 A 
ATOM      6  C5  UNL d   1      -0.206  -1.903  -2.759  0.00  0.00     0.039 A 
ENDROOT
BRANCH   4   7
ATOM      7  O   UNL d   1      -1.905  -0.209  -5.491  0.00  0.00    -0.526 OA
ATOM      8  H5  UNL d   1      -1.628   0.576  -5.992  0.00  0.00     0.418 HD
ENDBRANCH   4   7
TORSDOF 1
ENDMDL
