MODEL 1
REMARK minimizedAffinity -4.27344608
REMARK minimizedRMSD -1
REMARK  1 active torsions:
REMARK  status: ('A' for Active; 'I' for Inactive)
REMARK    1  A    between atoms: C3_4  and  O_7 
ROOT
ATOM      1  C   UNL d   1      -0.203  -0.093   0.411  0.00  0.00    -0.033 A 
ATOM      2  C1  UNL d   1       0.054   1.279   0.392  0.00  0.00     0.039 A 
ATOM      3  C2  UNL d   1       0.710   1.853  -0.699  0.00  0.00    -0.080 A 
ATOM      4  C3  UNL d   1       1.101   1.046  -1.763  0.00  0.00     0.150 A 
ATOM      5  C4  UNL d   1       0.845  -0.321  -1.753  0.00  0.00    -0.007 A 
ATOM      6  C5  UNL d   1       0.191  -0.893  -0.663  0.00  0.00     0.039 A 
ENDROOT
BRANCH   4   7
ATOM      7  O   UNL d   1       1.748   1.560  -2.847  0.00  0.00    -0.526 OA
ATOM      8  H5  UNL d   1       1.883   2.511  -2.703  0.00  0.00     0.418 HD
ENDBRANCH   4   7
TORSDOF 1
ENDMDL
