MODEL 1
REMARK minimizedAffinity -2.06801891
REMARK minimizedRMSD -1
REMARK  1 active torsions:
REMARK  status: ('A' for Active; 'I' for Inactive)
REMARK    1  A    between atoms: C3_4  and  O_7 
ROOT
ATOM      1  C   UNL d   1      -1.684   0.764   0.469  0.00  0.00    -0.033 A 
ATOM      2  C1  UNL d   1      -1.430   0.619   1.834  0.00  0.00     0.039 A 
ATOM      3  C2  UNL d   1      -0.223   0.067   2.267  0.00  0.00    -0.080 A 
ATOM      4  C3  UNL d   1       0.720  -0.336   1.326  0.00  0.00     0.150 A 
ATOM      5  C4  UNL d   1       0.476  -0.191  -0.036  0.00  0.00    -0.007 A 
ATOM      6  C5  UNL d   1      -0.730   0.361  -0.466  0.00  0.00     0.039 A 
ENDROOT
BRANCH   4   7
ATOM      7  O   UNL d   1       1.911  -0.885   1.700  0.00  0.00    -0.526 OA
ATOM      8  H5  UNL d   1       1.928  -0.950   2.669  0.00  0.00     0.418 HD
ENDBRANCH   4   7
TORSDOF 1
ENDMDL
