MODEL 1
REMARK minimizedAffinity -2.87756085
REMARK minimizedRMSD -1
REMARK  1 active torsions:
REMARK  status: ('A' for Active; 'I' for Inactive)
REMARK    1  A    between atoms: C3_4  and  O_7 
ROOT
ATOM      1  C   UNL d   1      -0.763  -0.046   1.876  0.00  0.00    -0.033 A 
ATOM      2  C1  UNL d   1       0.502  -0.485   1.480  0.00  0.00     0.039 A 
ATOM      3  C2  UNL d   1       0.830  -0.539   0.124  0.00  0.00    -0.080 A 
ATOM      4  C3  UNL d   1      -0.112  -0.151  -0.824  0.00  0.00     0.150 A 
ATOM      5  C4  UNL d   1      -1.373   0.291  -0.436  0.00  0.00    -0.007 A 
ATOM      6  C5  UNL d   1      -1.700   0.344   0.918  0.00  0.00     0.039 A 
ENDROOT
BRANCH   4   7
ATOM      7  O   UNL d   1       0.161  -0.191  -2.159  0.00  0.00    -0.526 OA
ATOM      8  H5  UNL d   1       1.058  -0.544  -2.279  0.00  0.00     0.418 HD
ENDBRANCH   4   7
TORSDOF 1
ENDMDL
