MODEL 1
REMARK minimizedAffinity -3.85926771
REMARK minimizedRMSD -1
REMARK  1 active torsions:
REMARK  status: ('A' for Active; 'I' for Inactive)
REMARK    1  A    between atoms: C3_4  and  O_7 
ROOT
ATOM      1  C   UNL d   1       4.496   1.224   2.626  0.00  0.00    -0.033 A 
ATOM      2  C1  UNL d   1       3.749   2.382   2.847  0.00  0.00     0.039 A 
ATOM      3  C2  UNL d   1       4.125   3.276   3.852  0.00  0.00    -0.080 A 
ATOM      4  C3  UNL d   1       5.249   3.000   4.626  0.00  0.00     0.150 A 
ATOM      5  C4  UNL d   1       6.000   1.850   4.409  0.00  0.00    -0.007 A 
ATOM      6  C5  UNL d   1       5.622   0.958   3.406  0.00  0.00     0.039 A 
ENDROOT
BRANCH   4   7
ATOM      7  O   UNL d   1       5.652   3.840   5.622  0.00  0.00    -0.526 OA
ATOM      8  H5  UNL d   1       5.022   4.578   5.676  0.00  0.00     0.418 HD
ENDBRANCH   4   7
TORSDOF 1
ENDMDL
