MODEL 1
REMARK minimizedAffinity -4.92032671
REMARK minimizedRMSD -1
REMARK  1 active torsions:
REMARK  status: ('A' for Active; 'I' for Inactive)
REMARK    1  A    between atoms: C3_4  and  O_7 
ROOT
ATOM      1  C   UNL d   1       0.113  -0.822   0.053  0.00  0.00    -0.033 A 
ATOM      2  C1  UNL d   1       1.025  -0.298   0.972  0.00  0.00     0.039 A 
ATOM      3  C2  UNL d   1       0.629   0.710   1.853  0.00  0.00    -0.080 A 
ATOM      4  C3  UNL d   1      -0.679   1.184   1.805  0.00  0.00     0.150 A 
ATOM      5  C4  UNL d   1      -1.593   0.664   0.895  0.00  0.00    -0.007 A 
ATOM      6  C5  UNL d   1      -1.196  -0.342   0.016  0.00  0.00     0.039 A 
ENDROOT
BRANCH   4   7
ATOM      7  O   UNL d   1      -1.110   2.171   2.642  0.00  0.00    -0.526 OA
ATOM      8  H5  UNL d   1      -0.363   2.453   3.195  0.00  0.00     0.418 HD
ENDBRANCH   4   7
TORSDOF 1
ENDMDL
