MODEL 1
REMARK minimizedAffinity -1.41908514
REMARK minimizedRMSD -1
REMARK  0 active torsions:
REMARK  status: ('A' for Active; 'I' for Inactive)
ROOT
ATOM      1  C   UNL d   1       0.410  -1.597   0.493  0.00  0.00     0.172 C 
ATOM      2  N   UNL d   1      -0.102  -0.257   0.659  0.00  0.00    -0.070 N 
ATOM      3  C1  UNL d   1      -1.271   0.080   1.287  0.00  0.00    -0.004 A 
ATOM      4  C2  UNL d   1      -1.399   1.451   1.235  0.00  0.00    -0.047 A 
ATOM      5  C3  UNL d   1      -0.268   1.956   0.550  0.00  0.00    -0.047 A 
ATOM      6  C4  UNL d   1       0.518   0.878   0.205  0.00  0.00    -0.004 A 
ENDROOT
TORSDOF 0
ENDMDL
