MODEL 1
REMARK minimizedAffinity -3.62227845
REMARK minimizedRMSD -1
REMARK  0 active torsions:
REMARK  status: ('A' for Active; 'I' for Inactive)
ROOT
ATOM      1  C   UNL d   1       0.853   0.232  -0.007  0.00  0.00     0.172 C 
ATOM      2  N   UNL d   1      -0.465  -0.228   0.363  0.00  0.00    -0.070 N 
ATOM      3  C1  UNL d   1      -1.454   0.543   0.913  0.00  0.00    -0.004 A 
ATOM      4  C2  UNL d   1      -2.553  -0.264   1.118  0.00  0.00    -0.047 A 
ATOM      5  C3  UNL d   1      -2.211  -1.564   0.677  0.00  0.00    -0.047 A 
ATOM      6  C4  UNL d   1      -0.913  -1.514   0.215  0.00  0.00    -0.004 A 
ENDROOT
TORSDOF 0
ENDMDL
