MODEL 1
REMARK minimizedAffinity -3.28530979
REMARK minimizedRMSD -1
REMARK  0 active torsions:
REMARK  status: ('A' for Active; 'I' for Inactive)
ROOT
ATOM      1  C   UNL d   1       3.963   1.191  -3.111  0.00  0.00     0.172 C 
ATOM      2  N   UNL d   1       2.588   1.536  -2.835  0.00  0.00    -0.070 N 
ATOM      3  C1  UNL d   1       1.509   1.193  -3.606  0.00  0.00    -0.004 A 
ATOM      4  C2  UNL d   1       0.381   1.708  -3.005  0.00  0.00    -0.047 A 
ATOM      5  C3  UNL d   1       0.796   2.385  -1.834  0.00  0.00    -0.047 A 
ATOM      6  C4  UNL d   1       2.167   2.262  -1.753  0.00  0.00    -0.004 A 
ENDROOT
TORSDOF 0
ENDMDL
