MODEL 1
REMARK minimizedAffinity -3.283777
REMARK minimizedRMSD -1
REMARK  0 active torsions:
REMARK  status: ('A' for Active; 'I' for Inactive)
ROOT
ATOM      1  C   UNL d   1      -1.523   1.141   0.742  0.00  0.00     0.172 C 
ATOM      2  N   UNL d   1      -0.717  -0.056   0.688  0.00  0.00    -0.070 N 
ATOM      3  C1  UNL d   1      -1.148  -1.322   0.981  0.00  0.00    -0.004 A 
ATOM      4  C2  UNL d   1      -0.084  -2.181   0.809  0.00  0.00    -0.047 A 
ATOM      5  C3  UNL d   1       1.025  -1.404   0.398  0.00  0.00    -0.047 A 
ATOM      6  C4  UNL d   1       0.605  -0.092   0.331  0.00  0.00    -0.004 A 
ENDROOT
TORSDOF 0
ENDMDL
