MODEL 1
REMARK minimizedAffinity -2.86968231
REMARK minimizedRMSD -1
REMARK  0 active torsions:
REMARK  status: ('A' for Active; 'I' for Inactive)
ROOT
ATOM      1  C   UNL d   1       0.314   0.968  -0.360  0.00  0.00     0.172 C 
ATOM      2  N   UNL d   1      -0.217  -0.260   0.184  0.00  0.00    -0.070 N 
ATOM      3  C1  UNL d   1      -1.541  -0.606   0.230  0.00  0.00    -0.004 A 
ATOM      4  C2  UNL d   1      -1.632  -1.848   0.820  0.00  0.00    -0.047 A 
ATOM      5  C3  UNL d   1      -0.318  -2.262   1.141  0.00  0.00    -0.047 A 
ATOM      6  C4  UNL d   1       0.539  -1.260   0.736  0.00  0.00    -0.004 A 
ENDROOT
TORSDOF 0
ENDMDL
