MODEL 1
REMARK minimizedAffinity -3.21848416
REMARK minimizedRMSD -1
REMARK  0 active torsions:
REMARK  status: ('A' for Active; 'I' for Inactive)
ROOT
ATOM      1  C   UNL d   1      -0.008   0.225  -0.288  0.00  0.00     0.172 C 
ATOM      2  N   UNL d   1      -0.473  -0.872   0.528  0.00  0.00    -0.070 N 
ATOM      3  C1  UNL d   1      -1.783  -1.198   0.756  0.00  0.00    -0.004 A 
ATOM      4  C2  UNL d   1      -1.806  -2.301   1.582  0.00  0.00    -0.047 A 
ATOM      5  C3  UNL d   1      -0.463  -2.649   1.861  0.00  0.00    -0.047 A 
ATOM      6  C4  UNL d   1       0.342  -1.748   1.196  0.00  0.00    -0.004 A 
ENDROOT
TORSDOF 0
ENDMDL
