MODEL 1
REMARK minimizedAffinity -3.80325866
REMARK minimizedRMSD -1
REMARK  0 active torsions:
REMARK  status: ('A' for Active; 'I' for Inactive)
ROOT
ATOM      1  C   UNL d   1       0.039   0.654   0.042  0.00  0.00     0.172 C 
ATOM      2  N   UNL d   1      -0.465  -0.492   0.762  0.00  0.00    -0.070 N 
ATOM      3  C1  UNL d   1       0.154  -1.709   0.858  0.00  0.00    -0.004 A 
ATOM      4  C2  UNL d   1      -0.644  -2.529   1.627  0.00  0.00    -0.047 A 
ATOM      5  C3  UNL d   1      -1.783  -1.778   2.004  0.00  0.00    -0.047 A 
ATOM      6  C4  UNL d   1      -1.646  -0.521   1.455  0.00  0.00    -0.004 A 
ENDROOT
TORSDOF 0
ENDMDL
