MODEL 1
REMARK minimizedAffinity -4.24529266
REMARK minimizedRMSD -1
REMARK  0 active torsions:
REMARK  status: ('A' for Active; 'I' for Inactive)
ROOT
ATOM      1  C   UNL d   1      -0.349  -0.223  -0.419  0.00  0.00     0.172 C 
ATOM      2  N   UNL d   1      -1.250  -0.669   0.617  0.00  0.00    -0.070 N 
ATOM      3  C1  UNL d   1      -2.120   0.126   1.315  0.00  0.00    -0.004 A 
ATOM      4  C2  UNL d   1      -2.798  -0.675   2.209  0.00  0.00    -0.047 A 
ATOM      5  C3  UNL d   1      -2.319  -1.996   2.042  0.00  0.00    -0.047 A 
ATOM      6  C4  UNL d   1      -1.361  -1.963   1.051  0.00  0.00    -0.004 A 
ENDROOT
TORSDOF 0
ENDMDL
