MODEL 1
REMARK minimizedAffinity -3.16499925
REMARK minimizedRMSD -1
REMARK  0 active torsions:
REMARK  status: ('A' for Active; 'I' for Inactive)
ROOT
ATOM      1  C   UNL d   1       0.203   0.707  -0.423  0.00  0.00     0.172 C 
ATOM      2  N   UNL d   1      -0.389  -0.501   0.102  0.00  0.00    -0.070 N 
ATOM      3  C1  UNL d   1      -1.663  -0.938  -0.143  0.00  0.00    -0.004 A 
ATOM      4  C2  UNL d   1      -1.841  -2.123   0.537  0.00  0.00    -0.047 A 
ATOM      5  C3  UNL d   1      -0.633  -2.408   1.216  0.00  0.00    -0.047 A 
ATOM      6  C4  UNL d   1       0.249  -1.387   0.929  0.00  0.00    -0.004 A 
ENDROOT
TORSDOF 0
ENDMDL
