MODEL 1
REMARK minimizedAffinity -0.475781739
REMARK minimizedRMSD -1
REMARK  0 active torsions:
REMARK  status: ('A' for Active; 'I' for Inactive)
ROOT
ATOM      1  C   UNL d   1      -4.161  -6.000  -5.841  0.00  0.00     0.172 C 
ATOM      2  N   UNL d   1      -2.840  -5.864  -5.274  0.00  0.00    -0.070 N 
ATOM      3  C1  UNL d   1      -2.552  -5.742  -3.941  0.00  0.00    -0.004 A 
ATOM      4  C2  UNL d   1      -1.184  -5.638  -3.813  0.00  0.00    -0.047 A 
ATOM      5  C3  UNL d   1      -0.631  -5.698  -5.114  0.00  0.00    -0.047 A 
ATOM      6  C4  UNL d   1      -1.678  -5.838  -5.999  0.00  0.00    -0.004 A 
ENDROOT
TORSDOF 0
ENDMDL
