MODEL 1
REMARK minimizedAffinity -1.42516553
REMARK minimizedRMSD -1
REMARK  0 active torsions:
REMARK  status: ('A' for Active; 'I' for Inactive)
ROOT
ATOM      1  C   UNL d   1       0.440   1.544  -0.231  0.00  0.00     0.172 C 
ATOM      2  N   UNL d   1      -0.735   0.738   0.004  0.00  0.00    -0.070 N 
ATOM      3  C1  UNL d   1      -1.879   1.158   0.628  0.00  0.00    -0.004 A 
ATOM      4  C2  UNL d   1      -2.759   0.097   0.655  0.00  0.00    -0.047 A 
ATOM      5  C3  UNL d   1      -2.121  -0.998   0.026  0.00  0.00    -0.047 A 
ATOM      6  C4  UNL d   1      -0.869  -0.574  -0.367  0.00  0.00    -0.004 A 
ENDROOT
TORSDOF 0
ENDMDL
