MODEL 1
REMARK minimizedAffinity -3.74744773
REMARK minimizedRMSD -1
REMARK  0 active torsions:
REMARK  status: ('A' for Active; 'I' for Inactive)
ROOT
ATOM      1  C   UNL d   1       0.277   0.048  -0.719  0.00  0.00     0.172 C 
ATOM      2  N   UNL d   1      -0.328  -0.951   0.130  0.00  0.00    -0.070 N 
ATOM      3  C1  UNL d   1      -1.620  -1.397   0.042  0.00  0.00    -0.004 A 
ATOM      4  C2  UNL d   1      -1.807  -2.346   1.024  0.00  0.00    -0.047 A 
ATOM      5  C3  UNL d   1      -0.585  -2.474   1.727  0.00  0.00    -0.047 A 
ATOM      6  C4  UNL d   1       0.312  -1.599   1.153  0.00  0.00    -0.004 A 
ENDROOT
TORSDOF 0
ENDMDL
