MODEL 1
REMARK minimizedAffinity -2.31365252
REMARK minimizedRMSD -1
REMARK  0 active torsions:
REMARK  status: ('A' for Active; 'I' for Inactive)
ROOT
ATOM      1  C   UNL d   1       0.757   1.501  -0.535  0.00  0.00     0.172 C 
ATOM      2  N   UNL d   1       0.339   0.216  -0.025  0.00  0.00    -0.070 N 
ATOM      3  C1  UNL d   1      -0.955  -0.170   0.202  0.00  0.00    -0.004 A 
ATOM      4  C2  UNL d   1      -0.932  -1.460   0.685  0.00  0.00    -0.047 A 
ATOM      5  C3  UNL d   1       0.422  -1.864   0.752  0.00  0.00    -0.047 A 
ATOM      6  C4  UNL d   1       1.188  -0.807   0.306  0.00  0.00    -0.004 A 
ENDROOT
TORSDOF 0
ENDMDL
