MODEL 1
REMARK minimizedAffinity -2.96905041
REMARK minimizedRMSD -1
REMARK  0 active torsions:
REMARK  status: ('A' for Active; 'I' for Inactive)
ROOT
ATOM      1  C   UNL d   1      -0.140   1.406   0.103  0.00  0.00     0.172 C 
ATOM      2  N   UNL d   1      -0.488   0.015   0.274  0.00  0.00    -0.070 N 
ATOM      3  C1  UNL d   1      -1.715  -0.538   0.020  0.00  0.00    -0.004 A 
ATOM      4  C2  UNL d   1      -1.639  -1.884   0.307  0.00  0.00    -0.047 A 
ATOM      5  C3  UNL d   1      -0.321  -2.148   0.750  0.00  0.00    -0.047 A 
ATOM      6  C4  UNL d   1       0.370  -0.955   0.720  0.00  0.00    -0.004 A 
ENDROOT
TORSDOF 0
ENDMDL
