MODEL 1
REMARK minimizedAffinity -2.45562744
REMARK minimizedRMSD -1
REMARK  0 active torsions:
REMARK  status: ('A' for Active; 'I' for Inactive)
ROOT
ATOM      1  C   UNL d   1       1.626  -0.224   0.623  0.00  0.00     0.172 C 
ATOM      2  N   UNL d   1       0.341  -0.870   0.748  0.00  0.00    -0.070 N 
ATOM      3  C1  UNL d   1       0.043  -1.895   1.606  0.00  0.00    -0.004 A 
ATOM      4  C2  UNL d   1      -1.281  -2.229   1.421  0.00  0.00    -0.047 A 
ATOM      5  C3  UNL d   1      -1.796  -1.377   0.415  0.00  0.00    -0.047 A 
ATOM      6  C4  UNL d   1      -0.770  -0.546   0.016  0.00  0.00    -0.004 A 
ENDROOT
TORSDOF 0
ENDMDL
