MODEL 1
REMARK minimizedAffinity -3.52406549
REMARK minimizedRMSD -1
REMARK  0 active torsions:
REMARK  status: ('A' for Active; 'I' for Inactive)
ROOT
ATOM      1  C   UNL d   1      -0.634  -2.518   1.278  0.00  0.00     0.172 C 
ATOM      2  N   UNL d   1      -0.220  -1.201   0.854  0.00  0.00    -0.070 N 
ATOM      3  C1  UNL d   1      -0.933  -0.045   1.030  0.00  0.00    -0.004 A 
ATOM      4  C2  UNL d   1      -0.200   0.989   0.490  0.00  0.00    -0.047 A 
ATOM      5  C3  UNL d   1       0.994   0.436  -0.029  0.00  0.00    -0.047 A 
ATOM      6  C4  UNL d   1       0.956  -0.922   0.210  0.00  0.00    -0.004 A 
ENDROOT
TORSDOF 0
ENDMDL
