MODEL 1
REMARK minimizedAffinity -3.33472133
REMARK minimizedRMSD -1
REMARK  0 active torsions:
REMARK  status: ('A' for Active; 'I' for Inactive)
ROOT
ATOM      1  C   UNL d   1      -1.563  -2.268   0.802  0.00  0.00     0.172 C 
ATOM      2  N   UNL d   1      -0.739  -1.105   0.570  0.00  0.00    -0.070 N 
ATOM      3  C1  UNL d   1       0.526  -1.115   0.045  0.00  0.00    -0.004 A 
ATOM      4  C2  UNL d   1       0.968   0.189  -0.015  0.00  0.00    -0.047 A 
ATOM      5  C3  UNL d   1      -0.066   1.011   0.493  0.00  0.00    -0.047 A 
ATOM      6  C4  UNL d   1      -1.111   0.184   0.848  0.00  0.00    -0.004 A 
ENDROOT
TORSDOF 0
ENDMDL
