MODEL 1
REMARK minimizedAffinity -2.70280671
REMARK minimizedRMSD -1
REMARK  0 active torsions:
REMARK  status: ('A' for Active; 'I' for Inactive)
ROOT
ATOM      1  C   UNL d   1       0.210   0.952  -0.390  0.00  0.00     0.172 C 
ATOM      2  N   UNL d   1      -0.062  -0.350   0.172  0.00  0.00    -0.070 N 
ATOM      3  C1  UNL d   1       0.359  -1.546  -0.343  0.00  0.00    -0.004 A 
ATOM      4  C2  UNL d   1      -0.104  -2.548   0.481  0.00  0.00    -0.047 A 
ATOM      5  C3  UNL d   1      -0.830  -1.933   1.528  0.00  0.00    -0.047 A 
ATOM      6  C4  UNL d   1      -0.789  -0.572   1.313  0.00  0.00    -0.004 A 
ENDROOT
TORSDOF 0
ENDMDL
