MODEL 1
REMARK minimizedAffinity -2.75532651
REMARK minimizedRMSD -1
REMARK  0 active torsions:
REMARK  status: ('A' for Active; 'I' for Inactive)
ROOT
ATOM      1  C   UNL d   1      -1.119  -2.637   0.770  0.00  0.00     0.172 C 
ATOM      2  N   UNL d   1      -0.396  -1.405   0.561  0.00  0.00    -0.070 N 
ATOM      3  C1  UNL d   1       0.958  -1.292   0.392  0.00  0.00    -0.004 A 
ATOM      4  C2  UNL d   1       1.253   0.043   0.222  0.00  0.00    -0.047 A 
ATOM      5  C3  UNL d   1       0.034   0.758   0.291  0.00  0.00    -0.047 A 
ATOM      6  C4  UNL d   1      -0.971  -0.162   0.502  0.00  0.00    -0.004 A 
ENDROOT
TORSDOF 0
ENDMDL
