MODEL 1
REMARK minimizedAffinity 9.17315102
REMARK minimizedRMSD -1
REMARK  0 active torsions:
REMARK  status: ('A' for Active; 'I' for Inactive)
ROOT
ATOM      1  O1  BZF d   1       3.584   1.010  -2.244  0.00  0.00    -0.204 OA
ATOM      2  C2  BZF d   1       3.749   1.935  -1.231  0.00  0.00     0.174 A 
ATOM      3  C3  BZF d   1       3.390   1.411  -0.042  0.00  0.00    -0.012 A 
ATOM      4  C3A BZF d   1       3.062   0.045  -0.316  0.00  0.00    -0.107 A 
ATOM      5  C4  BZF d   1       2.650  -0.996   0.465  0.00  0.00     0.055 A 
ATOM      6  C5  BZF d   1       2.345  -2.183  -0.123  0.00  0.00    -0.016 A 
ATOM      7  C6  BZF d   1       2.436  -2.361  -1.488  0.00  0.00     0.022 A 
ATOM      8  C7  BZF d   1       2.845  -1.359  -2.303  0.00  0.00     0.029 A 
ATOM      9  C7A BZF d   1       3.186  -0.169  -1.708  0.00  0.00     0.058 A 
ENDROOT
TORSDOF 0
ENDMDL
