MODEL 1
REMARK minimizedAffinity 5.75616455
REMARK minimizedRMSD -1
REMARK  0 active torsions:
REMARK  status: ('A' for Active; 'I' for Inactive)
ROOT
ATOM      1  O1  BZF d   1       3.796   2.026  -2.545  0.00  0.00    -0.204 OA
ATOM      2  C2  BZF d   1       4.920   2.671  -2.065  0.00  0.00     0.174 A 
ATOM      3  C3  BZF d   1       5.113   2.388  -0.761  0.00  0.00    -0.012 A 
ATOM      4  C3A BZF d   1       4.097   1.437  -0.427  0.00  0.00    -0.107 A 
ATOM      5  C4  BZF d   1       3.779   0.766   0.719  0.00  0.00     0.055 A 
ATOM      6  C5  BZF d   1       2.681  -0.035   0.731  0.00  0.00    -0.016 A 
ATOM      7  C6  BZF d   1       1.878  -0.184  -0.380  0.00  0.00     0.022 A 
ATOM      8  C7  BZF d   1       2.156   0.457  -1.541  0.00  0.00     0.029 A 
ATOM      9  C7A BZF d   1       3.283   1.242  -1.567  0.00  0.00     0.058 A 
ENDROOT
TORSDOF 0
ENDMDL
