MODEL 1
REMARK minimizedAffinity 12.0346956
REMARK minimizedRMSD -1
REMARK  0 active torsions:
REMARK  status: ('A' for Active; 'I' for Inactive)
ROOT
ATOM      1  O1  BZF d   1       2.576   1.282  -1.550  0.00  0.00    -0.204 OA
ATOM      2  C2  BZF d   1       3.455   1.861  -0.654  0.00  0.00     0.174 A 
ATOM      3  C3  BZF d   1       3.762   1.000   0.338  0.00  0.00    -0.012 A 
ATOM      4  C3A BZF d   1       3.103  -0.222  -0.006  0.00  0.00    -0.107 A 
ATOM      5  C4  BZF d   1       3.041  -1.453   0.581  0.00  0.00     0.055 A 
ATOM      6  C5  BZF d   1       2.249  -2.410   0.028  0.00  0.00    -0.016 A 
ATOM      7  C6  BZF d   1       1.503  -2.169  -1.107  0.00  0.00     0.022 A 
ATOM      8  C7  BZF d   1       1.536  -0.964  -1.728  0.00  0.00     0.029 A 
ATOM      9  C7A BZF d   1       2.360  -0.006  -1.190  0.00  0.00     0.058 A 
ENDROOT
TORSDOF 0
ENDMDL
