MODEL 1
REMARK minimizedAffinity 21.3240681
REMARK minimizedRMSD -1
REMARK  0 active torsions:
REMARK  status: ('A' for Active; 'I' for Inactive)
ROOT
ATOM      1  O1  BZF d   1      -4.379   4.452  -1.470  0.00  0.00    -0.204 OA
ATOM      2  C2  BZF d   1      -3.800   4.927  -0.309  0.00  0.00     0.174 A 
ATOM      3  C3  BZF d   1      -3.715   3.951   0.617  0.00  0.00    -0.012 A 
ATOM      4  C3A BZF d   1      -4.191   2.770  -0.035  0.00  0.00    -0.107 A 
ATOM      5  C4  BZF d   1      -4.335   1.471   0.361  0.00  0.00     0.055 A 
ATOM      6  C5  BZF d   1      -4.899   0.578  -0.494  0.00  0.00    -0.016 A 
ATOM      7  C6  BZF d   1      -5.334   0.950  -1.749  0.00  0.00     0.022 A 
ATOM      8  C7  BZF d   1      -5.208   2.226  -2.189  0.00  0.00     0.029 A 
ATOM      9  C7A BZF d   1      -4.609   3.123  -1.339  0.00  0.00     0.058 A 
ENDROOT
TORSDOF 0
ENDMDL
