MODEL 1
REMARK minimizedAffinity 10.5192575
REMARK minimizedRMSD -1
REMARK  0 active torsions:
REMARK  status: ('A' for Active; 'I' for Inactive)
ROOT
ATOM      1  O1  BZF d   1      -5.999   3.431   3.141  0.00  0.00    -0.204 OA
ATOM      2  C2  BZF d   1      -5.052   3.095   2.193  0.00  0.00     0.174 A 
ATOM      3  C3  BZF d   1      -3.907   3.778   2.397  0.00  0.00    -0.012 A 
ATOM      4  C3A BZF d   1      -4.123   4.524   3.600  0.00  0.00    -0.107 A 
ATOM      5  C4  BZF d   1      -3.346   5.381   4.325  0.00  0.00     0.055 A 
ATOM      6  C5  BZF d   1      -3.880   5.999   5.411  0.00  0.00    -0.016 A 
ATOM      7  C6  BZF d   1      -5.188   5.786   5.797  0.00  0.00     0.022 A 
ATOM      8  C7  BZF d   1      -5.995   4.940   5.112  0.00  0.00     0.029 A 
ATOM      9  C7A BZF d   1      -5.448   4.290   4.033  0.00  0.00     0.058 A 
ENDROOT
TORSDOF 0
ENDMDL
