MODEL 1
REMARK minimizedAffinity 13.198842
REMARK minimizedRMSD -1
REMARK  0 active torsions:
REMARK  status: ('A' for Active; 'I' for Inactive)
ROOT
ATOM      1  O1  BZF d   1      -3.550   3.985   2.288  0.00  0.00    -0.204 OA
ATOM      2  C2  BZF d   1      -4.646   3.357   1.729  0.00  0.00     0.174 A 
ATOM      3  C3  BZF d   1      -5.748   3.560   2.479  0.00  0.00    -0.012 A 
ATOM      4  C3A BZF d   1      -5.333   4.443   3.525  0.00  0.00    -0.107 A 
ATOM      5  C4  BZF d   1      -5.983   5.022   4.578  0.00  0.00     0.055 A 
ATOM      6  C5  BZF d   1      -5.273   5.775   5.459  0.00  0.00    -0.016 A 
ATOM      7  C6  BZF d   1      -3.914   5.964   5.322  0.00  0.00     0.022 A 
ATOM      8  C7  BZF d   1      -3.226   5.414   4.291  0.00  0.00     0.029 A 
ATOM      9  C7A BZF d   1      -3.947   4.680   3.380  0.00  0.00     0.058 A 
ENDROOT
TORSDOF 0
ENDMDL
