MODEL 1
REMARK minimizedAffinity 22.3608704
REMARK minimizedRMSD -1
REMARK  0 active torsions:
REMARK  status: ('A' for Active; 'I' for Inactive)
ROOT
ATOM      1  O1  BZF d   1       3.037   0.511  -1.298  0.00  0.00    -0.204 OA
ATOM      2  C2  BZF d   1       3.453   1.292  -0.237  0.00  0.00     0.174 A 
ATOM      3  C3  BZF d   1       3.386   0.602   0.920  0.00  0.00    -0.012 A 
ATOM      4  C3A BZF d   1       2.985  -0.719   0.547  0.00  0.00    -0.107 A 
ATOM      5  C4  BZF d   1       2.760  -1.867   1.253  0.00  0.00     0.055 A 
ATOM      6  C5  BZF d   1       2.307  -2.968   0.598  0.00  0.00    -0.016 A 
ATOM      7  C6  BZF d   1       2.063  -2.955  -0.759  0.00  0.00     0.022 A 
ATOM      8  C7  BZF d   1       2.276  -1.842  -1.503  0.00  0.00     0.029 A 
ATOM      9  C7A BZF d   1       2.765  -0.738  -0.850  0.00  0.00     0.058 A 
ENDROOT
TORSDOF 0
ENDMDL
