MODEL 1
REMARK minimizedAffinity 11.3841934
REMARK minimizedRMSD -1
REMARK  2 active torsions:
REMARK  status: ('A' for Active; 'I' for Inactive)
REMARK    1  A    between atoms: C1_2  and  C2_3 
REMARK    2  A    between atoms: C2_3  and  C3_4 
ROOT
ATOM      1  C3  UNL d   1       0.413   2.929   0.033  0.00  0.00    -0.075 A 
ATOM      2  C4  UNL d   1      -0.950   3.249  -0.039  0.00  0.00     0.002 A 
ATOM      3  C5  UNL d   1      -1.438   4.041  -1.080  0.00  0.00     0.002 A 
ATOM      4  C6  UNL d   1      -0.569   4.529  -2.053  0.00  0.00    -0.004 A 
ATOM      5  C7  UNL d   1       0.790   4.231  -1.982  0.00  0.00     0.002 A 
ATOM      6  C8  UNL d   1       1.280   3.436  -0.945  0.00  0.00     0.002 A 
ENDROOT
BRANCH   1   7
ATOM      7  C2  UNL d   1       0.942   2.049   1.140  0.00  0.00     0.056 C 
BRANCH   7   8
ATOM      8  C1  UNL d   1       2.444   2.211   1.402  0.00  0.00     0.007 C 
ATOM      9  C   UNL d   1       2.837   1.916   2.843  0.00  0.00     0.009 C 
ENDBRANCH   7   8
ENDBRANCH   1   7
TORSDOF 2
ENDMDL
