MODEL 1
REMARK minimizedAffinity 13.5540953
REMARK minimizedRMSD -1
REMARK  2 active torsions:
REMARK  status: ('A' for Active; 'I' for Inactive)
REMARK    1  A    between atoms: C1_2  and  C2_3 
REMARK    2  A    between atoms: C2_3  and  C3_4 
ROOT
ATOM      1  C3  UNL d   1      -1.685   4.739  -1.542  0.00  0.00    -0.075 A 
ATOM      2  C4  UNL d   1      -0.511   5.434  -1.869  0.00  0.00     0.002 A 
ATOM      3  C5  UNL d   1       0.728   4.796  -1.815  0.00  0.00     0.002 A 
ATOM      4  C6  UNL d   1       0.812   3.461  -1.425  0.00  0.00    -0.004 A 
ATOM      5  C7  UNL d   1      -0.345   2.766  -1.081  0.00  0.00     0.002 A 
ATOM      6  C8  UNL d   1      -1.588   3.400  -1.139  0.00  0.00     0.002 A 
ENDROOT
BRANCH   1   7
ATOM      7  C2  UNL d   1      -3.032   5.415  -1.627  0.00  0.00     0.056 C 
BRANCH   7   8
ATOM      8  C1  UNL d   1      -3.799   5.118  -2.920  0.00  0.00     0.007 C 
ATOM      9  C   UNL d   1      -5.151   4.460  -2.679  0.00  0.00     0.009 C 
ENDBRANCH   7   8
ENDBRANCH   1   7
TORSDOF 2
ENDMDL
