MODEL 1
REMARK minimizedAffinity 6.50664663
REMARK minimizedRMSD -1
REMARK  2 active torsions:
REMARK  status: ('A' for Active; 'I' for Inactive)
REMARK    1  A    between atoms: C1_2  and  C2_3 
REMARK    2  A    between atoms: C2_3  and  C3_4 
ROOT
ATOM      1  C3  UNL d   1      -0.443   2.425   1.914  0.00  0.00    -0.075 A 
ATOM      2  C4  UNL d   1      -1.766   2.841   2.125  0.00  0.00     0.002 A 
ATOM      3  C5  UNL d   1      -2.581   3.183   1.046  0.00  0.00     0.002 A 
ATOM      4  C6  UNL d   1      -2.083   3.125  -0.253  0.00  0.00    -0.004 A 
ATOM      5  C7  UNL d   1      -0.766   2.729  -0.474  0.00  0.00     0.002 A 
ATOM      6  C8  UNL d   1       0.051   2.382   0.604  0.00  0.00     0.002 A 
ENDROOT
BRANCH   1   7
ATOM      7  C2  UNL d   1       0.436   2.025   3.075  0.00  0.00     0.056 C 
BRANCH   7   8
ATOM      8  C1  UNL d   1       1.933   2.013   2.749  0.00  0.00     0.007 C 
ATOM      9  C   UNL d   1       2.678   3.217   3.309  0.00  0.00     0.009 C 
ENDBRANCH   7   8
ENDBRANCH   1   7
TORSDOF 2
ENDMDL
