MODEL 1
REMARK minimizedAffinity 8.32413769
REMARK minimizedRMSD -1
REMARK  2 active torsions:
REMARK  status: ('A' for Active; 'I' for Inactive)
REMARK    1  A    between atoms: C1_2  and  C2_3 
REMARK    2  A    between atoms: C2_3  and  C3_4 
ROOT
ATOM      1  C3  UNL d   1      -3.552   5.549  -0.975  0.00  0.00    -0.075 A 
ATOM      2  C4  UNL d   1      -4.604   5.770  -0.075  0.00  0.00     0.002 A 
ATOM      3  C5  UNL d   1      -4.344   5.999   1.276  0.00  0.00     0.002 A 
ATOM      4  C6  UNL d   1      -3.033   6.000   1.746  0.00  0.00    -0.004 A 
ATOM      5  C7  UNL d   1      -1.981   5.765   0.864  0.00  0.00     0.002 A 
ATOM      6  C8  UNL d   1      -2.237   5.539  -0.489  0.00  0.00     0.002 A 
ENDROOT
BRANCH   1   7
ATOM      7  C2  UNL d   1      -3.824   5.329  -2.444  0.00  0.00     0.056 C 
BRANCH   7   8
ATOM      8  C1  UNL d   1      -5.126   4.574  -2.731  0.00  0.00     0.007 C 
ATOM      9  C   UNL d   1      -5.081   3.114  -2.299  0.00  0.00     0.009 C 
ENDBRANCH   7   8
ENDBRANCH   1   7
TORSDOF 2
ENDMDL
