MODEL 1
REMARK minimizedAffinity 15.9412737
REMARK minimizedRMSD -1
REMARK  2 active torsions:
REMARK  status: ('A' for Active; 'I' for Inactive)
REMARK    1  A    between atoms: C1_2  and  C2_3 
REMARK    2  A    between atoms: C2_3  and  C3_4 
ROOT
ATOM      1  C3  UNL d   1       1.735  -4.395  -1.600  0.00  0.00    -0.075 A 
ATOM      2  C4  UNL d   1       3.072  -4.802  -1.716  0.00  0.00     0.002 A 
ATOM      3  C5  UNL d   1       3.641  -5.014  -2.973  0.00  0.00     0.002 A 
ATOM      4  C6  UNL d   1       2.879  -4.833  -4.125  0.00  0.00    -0.004 A 
ATOM      5  C7  UNL d   1       1.545  -4.445  -4.020  0.00  0.00     0.002 A 
ATOM      6  C8  UNL d   1       0.975  -4.228  -2.765  0.00  0.00     0.002 A 
ENDROOT
BRANCH   1   7
ATOM      7  C2  UNL d   1       1.122  -4.136  -0.244  0.00  0.00     0.056 C 
BRANCH   7   8
ATOM      8  C1  UNL d   1       2.032  -3.360   0.714  0.00  0.00     0.007 C 
ATOM      9  C   UNL d   1       2.478  -2.014   0.159  0.00  0.00     0.009 C 
ENDBRANCH   7   8
ENDBRANCH   1   7
TORSDOF 2
ENDMDL
