MODEL 1
REMARK minimizedAffinity 4.86454535
REMARK minimizedRMSD -1
REMARK  2 active torsions:
REMARK  status: ('A' for Active; 'I' for Inactive)
REMARK    1  A    between atoms: C1_2  and  C2_3 
REMARK    2  A    between atoms: C2_3  and  C3_4 
ROOT
ATOM      1  C3  UNL d   1      -0.155   3.673  -0.650  0.00  0.00    -0.075 A 
ATOM      2  C4  UNL d   1       0.775   4.646  -1.041  0.00  0.00     0.002 A 
ATOM      3  C5  UNL d   1       0.355   5.805  -1.696  0.00  0.00     0.002 A 
ATOM      4  C6  UNL d   1      -0.996   6.000  -1.975  0.00  0.00    -0.004 A 
ATOM      5  C7  UNL d   1      -1.927   5.031  -1.605  0.00  0.00     0.002 A 
ATOM      6  C8  UNL d   1      -1.510   3.873  -0.947  0.00  0.00     0.002 A 
ENDROOT
BRANCH   1   7
ATOM      7  C2  UNL d   1       0.290   2.431   0.085  0.00  0.00     0.056 C 
BRANCH   7   8
ATOM      8  C1  UNL d   1      -0.558   2.097   1.317  0.00  0.00     0.007 C 
ATOM      9  C   UNL d   1       0.275   1.712   2.532  0.00  0.00     0.009 C 
ENDBRANCH   7   8
ENDBRANCH   1   7
TORSDOF 2
ENDMDL
