MODEL 1
REMARK minimizedAffinity -3.9833529
REMARK minimizedRMSD -1
REMARK  1 active torsions:
REMARK  status: ('A' for Active; 'I' for Inactive)
REMARK    1  A    between atoms: C3_4  and  O_7 
ROOT
ATOM      1  C   UNL d   1       0.711   0.813   0.034  0.00  0.00    -0.033 A 
ATOM      2  C1  UNL d   1       1.285  -0.446   0.220  0.00  0.00     0.039 A 
ATOM      3  C2  UNL d   1       0.476  -1.549   0.500  0.00  0.00    -0.080 A 
ATOM      4  C3  UNL d   1      -0.903  -1.380   0.590  0.00  0.00     0.150 A 
ATOM      5  C4  UNL d   1      -1.481  -0.129   0.402  0.00  0.00    -0.007 A 
ATOM      6  C5  UNL d   1      -0.672   0.972   0.124  0.00  0.00     0.039 A 
ENDROOT
BRANCH   4   7
ATOM      7  O   UNL d   1      -1.733  -2.426   0.866  0.00  0.00    -0.526 OA
ATOM      8  H5  UNL d   1      -1.191  -3.221   1.000  0.00  0.00     0.418 HD
ENDBRANCH   4   7
TORSDOF 1
ENDMDL
