MODEL 1
REMARK minimizedAffinity -5.10624409
REMARK minimizedRMSD -1
REMARK  1 active torsions:
REMARK  status: ('A' for Active; 'I' for Inactive)
REMARK    1  A    between atoms: C3_4  and  O_7 
ROOT
ATOM      1  C   UNL d   1       0.400   0.375   0.103  0.00  0.00    -0.033 A 
ATOM      2  C1  UNL d   1      -0.986   0.496   0.223  0.00  0.00     0.039 A 
ATOM      3  C2  UNL d   1      -1.770  -0.637   0.450  0.00  0.00    -0.080 A 
ATOM      4  C3  UNL d   1      -1.157  -1.883   0.554  0.00  0.00     0.150 A 
ATOM      5  C4  UNL d   1       0.224  -2.010   0.439  0.00  0.00    -0.007 A 
ATOM      6  C5  UNL d   1       1.005  -0.878   0.212  0.00  0.00     0.039 A 
ENDROOT
BRANCH   4   7
ATOM      7  O   UNL d   1      -1.881  -3.017   0.770  0.00  0.00    -0.526 OA
ATOM      8  H5  UNL d   1      -2.823  -2.780   0.800  0.00  0.00     0.418 HD
ENDBRANCH   4   7
TORSDOF 1
ENDMDL
