MODEL 1
REMARK minimizedAffinity -5.47071695
REMARK minimizedRMSD -1
REMARK  1 active torsions:
REMARK  status: ('A' for Active; 'I' for Inactive)
REMARK    1  A    between atoms: C3_4  and  O_7 
ROOT
ATOM      1  C   UNL d   1      -1.876  -2.244   1.889  0.00  0.00    -0.033 A 
ATOM      2  C1  UNL d   1      -0.640  -2.576   1.332  0.00  0.00     0.039 A 
ATOM      3  C2  UNL d   1       0.115  -1.604   0.673  0.00  0.00    -0.080 A 
ATOM      4  C3  UNL d   1      -0.376  -0.305   0.580  0.00  0.00     0.150 A 
ATOM      5  C4  UNL d   1      -1.605   0.034   1.137  0.00  0.00    -0.007 A 
ATOM      6  C5  UNL d   1      -2.358  -0.938   1.793  0.00  0.00     0.039 A 
ENDROOT
BRANCH   4   7
ATOM      7  O   UNL d   1       0.323   0.677  -0.057  0.00  0.00    -0.526 OA
ATOM      8  H5  UNL d   1       1.139   0.291  -0.416  0.00  0.00     0.418 HD
ENDBRANCH   4   7
TORSDOF 1
ENDMDL
