MODEL 1
REMARK minimizedAffinity -4.16659737
REMARK minimizedRMSD -1
REMARK  1 active torsions:
REMARK  status: ('A' for Active; 'I' for Inactive)
REMARK    1  A    between atoms: C3_4  and  O_7 
ROOT
ATOM      1  C   UNL d   1       0.704  -0.107  -0.015  0.00  0.00    -0.033 A 
ATOM      2  C1  UNL d   1      -0.607  -0.006  -0.484  0.00  0.00     0.039 A 
ATOM      3  C2  UNL d   1      -1.513  -1.044  -0.258  0.00  0.00    -0.080 A 
ATOM      4  C3  UNL d   1      -1.096  -2.175   0.438  0.00  0.00     0.150 A 
ATOM      5  C4  UNL d   1       0.208  -2.281   0.912  0.00  0.00    -0.007 A 
ATOM      6  C5  UNL d   1       1.111  -1.243   0.684  0.00  0.00     0.039 A 
ENDROOT
BRANCH   4   7
ATOM      7  O   UNL d   1      -1.943  -3.216   0.679  0.00  0.00    -0.526 OA
ATOM      8  H5  UNL d   1      -2.801  -3.016   0.269  0.00  0.00     0.418 HD
ENDBRANCH   4   7
TORSDOF 1
ENDMDL
