MODEL 1
REMARK minimizedAffinity -3.63304877
REMARK minimizedRMSD -1
REMARK  1 active torsions:
REMARK  status: ('A' for Active; 'I' for Inactive)
REMARK    1  A    between atoms: C3_4  and  O_7 
ROOT
ATOM      1  C   UNL d   1       0.070   0.438  -0.031  0.00  0.00    -0.033 A 
ATOM      2  C1  UNL d   1      -1.220   0.365   0.497  0.00  0.00     0.039 A 
ATOM      3  C2  UNL d   1      -1.718  -0.854   0.961  0.00  0.00    -0.080 A 
ATOM      4  C3  UNL d   1      -0.917  -1.990   0.892  0.00  0.00     0.150 A 
ATOM      5  C4  UNL d   1       0.371  -1.924   0.371  0.00  0.00    -0.007 A 
ATOM      6  C5  UNL d   1       0.866  -0.706  -0.093  0.00  0.00     0.039 A 
ENDROOT
BRANCH   4   7
ATOM      7  O   UNL d   1      -1.361  -3.203   1.328  0.00  0.00    -0.526 OA
ATOM      8  H5  UNL d   1      -2.278  -3.103   1.636  0.00  0.00     0.418 HD
ENDBRANCH   4   7
TORSDOF 1
ENDMDL
