MODEL 1
REMARK minimizedAffinity -5.02987576
REMARK minimizedRMSD -1
REMARK  1 active torsions:
REMARK  status: ('A' for Active; 'I' for Inactive)
REMARK    1  A    between atoms: C3_4  and  O_7 
ROOT
ATOM      1  C   UNL d   1       0.153   0.468   0.420  0.00  0.00    -0.033 A 
ATOM      2  C1  UNL d   1      -1.164   0.484  -0.041  0.00  0.00     0.039 A 
ATOM      3  C2  UNL d   1      -1.958  -0.660   0.066  0.00  0.00    -0.080 A 
ATOM      4  C3  UNL d   1      -1.422  -1.812   0.636  0.00  0.00     0.150 A 
ATOM      5  C4  UNL d   1      -0.112  -1.834   1.101  0.00  0.00    -0.007 A 
ATOM      6  C5  UNL d   1       0.679  -0.690   0.992  0.00  0.00     0.039 A 
ENDROOT
BRANCH   4   7
ATOM      7  O   UNL d   1      -2.156  -2.954   0.758  0.00  0.00    -0.526 OA
ATOM      8  H5  UNL d   1      -3.033  -2.799   0.368  0.00  0.00     0.418 HD
ENDBRANCH   4   7
TORSDOF 1
ENDMDL
