MODEL 1
REMARK minimizedAffinity -5.06421852
REMARK minimizedRMSD -1
REMARK  1 active torsions:
REMARK  status: ('A' for Active; 'I' for Inactive)
REMARK    1  A    between atoms: C3_4  and  O_7 
ROOT
ATOM      1  C   UNL d   1      -1.513  -2.229   0.914  0.00  0.00    -0.033 A 
ATOM      2  C1  UNL d   1      -0.121  -2.323   0.843  0.00  0.00     0.039 A 
ATOM      3  C2  UNL d   1       0.637  -1.207   0.485  0.00  0.00    -0.080 A 
ATOM      4  C3  UNL d   1      -0.006  -0.005   0.201  0.00  0.00     0.150 A 
ATOM      5  C4  UNL d   1      -1.392   0.096   0.273  0.00  0.00    -0.007 A 
ATOM      6  C5  UNL d   1      -2.148  -1.020   0.630  0.00  0.00     0.039 A 
ENDROOT
BRANCH   4   7
ATOM      7  O   UNL d   1       0.692   1.110  -0.158  0.00  0.00    -0.526 OA
ATOM      8  H5  UNL d   1       1.636   0.883  -0.194  0.00  0.00     0.418 HD
ENDBRANCH   4   7
TORSDOF 1
ENDMDL
