MODEL 1
REMARK minimizedAffinity -4.33187628
REMARK minimizedRMSD -1
REMARK  1 active torsions:
REMARK  status: ('A' for Active; 'I' for Inactive)
REMARK    1  A    between atoms: C3_4  and  O_7 
ROOT
ATOM      1  C   UNL d   1       0.492   0.538   0.002  0.00  0.00    -0.033 A 
ATOM      2  C1  UNL d   1      -0.900   0.626   0.058  0.00  0.00     0.039 A 
ATOM      3  C2  UNL d   1      -1.658  -0.490   0.420  0.00  0.00    -0.080 A 
ATOM      4  C3  UNL d   1      -1.012  -1.685   0.725  0.00  0.00     0.150 A 
ATOM      5  C4  UNL d   1       0.375  -1.778   0.675  0.00  0.00    -0.007 A 
ATOM      6  C5  UNL d   1       1.130  -0.664   0.312  0.00  0.00     0.039 A 
ENDROOT
BRANCH   4   7
ATOM      7  O   UNL d   1      -1.709  -2.802   1.078  0.00  0.00    -0.526 OA
ATOM      8  H5  UNL d   1      -2.658  -2.596   1.042  0.00  0.00     0.418 HD
ENDBRANCH   4   7
TORSDOF 1
ENDMDL
