MODEL 1
REMARK minimizedAffinity -5.10107803
REMARK minimizedRMSD -1
REMARK  1 active torsions:
REMARK  status: ('A' for Active; 'I' for Inactive)
REMARK    1  A    between atoms: C3_4  and  O_7 
ROOT
ATOM      1  C   UNL d   1      -2.334  -2.167   1.738  0.00  0.00    -0.033 A 
ATOM      2  C1  UNL d   1      -2.644  -0.808   1.815  0.00  0.00     0.039 A 
ATOM      3  C2  UNL d   1      -1.837   0.132   1.171  0.00  0.00    -0.080 A 
ATOM      4  C3  UNL d   1      -0.724  -0.300   0.454  0.00  0.00     0.150 A 
ATOM      5  C4  UNL d   1      -0.411  -1.652   0.371  0.00  0.00    -0.007 A 
ATOM      6  C5  UNL d   1      -1.218  -2.589   1.015  0.00  0.00     0.039 A 
ENDROOT
BRANCH   4   7
ATOM      7  O   UNL d   1       0.096   0.581  -0.186  0.00  0.00    -0.526 OA
ATOM      8  H5  UNL d   1      -0.227   1.482  -0.017  0.00  0.00     0.418 HD
ENDBRANCH   4   7
TORSDOF 1
ENDMDL
