MODEL 1
REMARK minimizedAffinity -2.47283077
REMARK minimizedRMSD -1
REMARK  1 active torsions:
REMARK  status: ('A' for Active; 'I' for Inactive)
REMARK    1  A    between atoms: C3_4  and  O_7 
ROOT
ATOM      1  C   UNL d   1       0.654   0.772   0.143  0.00  0.00    -0.033 A 
ATOM      2  C1  UNL d   1      -0.739   0.818   0.225  0.00  0.00     0.039 A 
ATOM      3  C2  UNL d   1      -1.460  -0.331   0.557  0.00  0.00    -0.080 A 
ATOM      4  C3  UNL d   1      -0.776  -1.518   0.805  0.00  0.00     0.150 A 
ATOM      5  C4  UNL d   1       0.612  -1.570   0.729  0.00  0.00    -0.007 A 
ATOM      6  C5  UNL d   1       1.329  -0.422   0.397  0.00  0.00     0.039 A 
ENDROOT
BRANCH   4   7
ATOM      7  O   UNL d   1      -1.436  -2.666   1.128  0.00  0.00    -0.526 OA
ATOM      8  H5  UNL d   1      -2.391  -2.486   1.115  0.00  0.00     0.418 HD
ENDBRANCH   4   7
TORSDOF 1
ENDMDL
