MODEL 1
REMARK minimizedAffinity 0.281208873
REMARK minimizedRMSD -1
REMARK  1 active torsions:
REMARK  status: ('A' for Active; 'I' for Inactive)
REMARK    1  A    between atoms: C3_4  and  O_7 
ROOT
ATOM      1  C   UNL d   1       0.280   0.587  -0.694  0.00  0.00    -0.033 A 
ATOM      2  C1  UNL d   1      -0.928   0.567   0.006  0.00  0.00     0.039 A 
ATOM      3  C2  UNL d   1      -1.298  -0.568   0.731  0.00  0.00    -0.080 A 
ATOM      4  C3  UNL d   1      -0.453  -1.673   0.747  0.00  0.00     0.150 A 
ATOM      5  C4  UNL d   1       0.754  -1.659   0.055  0.00  0.00    -0.007 A 
ATOM      6  C5  UNL d   1       1.121  -0.525  -0.669  0.00  0.00     0.039 A 
ENDROOT
BRANCH   4   7
ATOM      7  O   UNL d   1      -0.773  -2.805   1.436  0.00  0.00    -0.526 OA
ATOM      8  H5  UNL d   1      -1.648  -2.681   1.842  0.00  0.00     0.418 HD
ENDBRANCH   4   7
TORSDOF 1
ENDMDL
