MODEL 1
REMARK minimizedAffinity -3.12781048
REMARK minimizedRMSD -1
REMARK  1 active torsions:
REMARK  status: ('A' for Active; 'I' for Inactive)
REMARK    1  A    between atoms: C3_4  and  O_7 
ROOT
ATOM      1  C   UNL d   1      -0.910  -2.658   1.310  0.00  0.00    -0.033 A 
ATOM      2  C1  UNL d   1      -1.806  -1.698   0.836  0.00  0.00     0.039 A 
ATOM      3  C2  UNL d   1      -1.332  -0.565   0.172  0.00  0.00    -0.080 A 
ATOM      4  C3  UNL d   1       0.038  -0.405  -0.013  0.00  0.00     0.150 A 
ATOM      5  C4  UNL d   1       0.937  -1.359   0.453  0.00  0.00    -0.007 A 
ATOM      6  C5  UNL d   1       0.461  -2.489   1.117  0.00  0.00     0.039 A 
ENDROOT
BRANCH   4   7
ATOM      7  O   UNL d   1       0.548   0.686  -0.651  0.00  0.00    -0.526 OA
ATOM      8  H5  UNL d   1      -0.188   1.274  -0.892  0.00  0.00     0.418 HD
ENDBRANCH   4   7
TORSDOF 1
ENDMDL
