MODEL 1
REMARK minimizedAffinity -3.97749853
REMARK minimizedRMSD -1
REMARK  1 active torsions:
REMARK  status: ('A' for Active; 'I' for Inactive)
REMARK    1  A    between atoms: C3_4  and  O_7 
ROOT
ATOM      1  C   UNL d   1       0.911   0.429  -0.052  0.00  0.00    -0.033 A 
ATOM      2  C1  UNL d   1       1.390  -0.840   0.281  0.00  0.00     0.039 A 
ATOM      3  C2  UNL d   1       0.495  -1.872   0.570  0.00  0.00    -0.080 A 
ATOM      4  C3  UNL d   1      -0.874  -1.623   0.521  0.00  0.00     0.150 A 
ATOM      5  C4  UNL d   1      -1.358  -0.363   0.186  0.00  0.00    -0.007 A 
ATOM      6  C5  UNL d   1      -0.463   0.666  -0.102  0.00  0.00     0.039 A 
ENDROOT
BRANCH   4   7
ATOM      7  O   UNL d   1      -1.786  -2.598   0.800  0.00  0.00    -0.526 OA
ATOM      8  H5  UNL d   1      -1.306  -3.407   1.043  0.00  0.00     0.418 HD
ENDBRANCH   4   7
TORSDOF 1
ENDMDL
