MODEL 1
REMARK minimizedAffinity -2.24014258
REMARK minimizedRMSD -1
REMARK  1 active torsions:
REMARK  status: ('A' for Active; 'I' for Inactive)
REMARK    1  A    between atoms: C3_4  and  O_7 
ROOT
ATOM      1  C   UNL d   1       4.171   0.913  -0.739  0.00  0.00    -0.033 A 
ATOM      2  C1  UNL d   1       3.567   2.152  -0.964  0.00  0.00     0.039 A 
ATOM      3  C2  UNL d   1       2.305   2.422  -0.432  0.00  0.00    -0.080 A 
ATOM      4  C3  UNL d   1       1.658   1.447   0.322  0.00  0.00     0.150 A 
ATOM      5  C4  UNL d   1       2.255   0.212   0.553  0.00  0.00    -0.007 A 
ATOM      6  C5  UNL d   1       3.516  -0.056   0.021  0.00  0.00     0.039 A 
ENDROOT
BRANCH   4   7
ATOM      7  O   UNL d   1       0.423   1.662   0.857  0.00  0.00    -0.526 OA
ATOM      8  H5  UNL d   1       0.122   2.547   0.591  0.00  0.00     0.418 HD
ENDBRANCH   4   7
TORSDOF 1
ENDMDL
