MODEL 1
REMARK minimizedAffinity -5.28319025
REMARK minimizedRMSD -1
REMARK  1 active torsions:
REMARK  status: ('A' for Active; 'I' for Inactive)
REMARK    1  A    between atoms: C3_4  and  O_7 
ROOT
ATOM      1  C   UNL d   1      -1.239  -2.390   1.924  0.00  0.00    -0.033 A 
ATOM      2  C1  UNL d   1      -2.014  -1.424   1.280  0.00  0.00     0.039 A 
ATOM      3  C2  UNL d   1      -1.407  -0.480   0.449  0.00  0.00    -0.080 A 
ATOM      4  C3  UNL d   1      -0.027  -0.513   0.270  0.00  0.00     0.150 A 
ATOM      5  C4  UNL d   1       0.751  -1.476   0.906  0.00  0.00    -0.007 A 
ATOM      6  C5  UNL d   1       0.144  -2.417   1.736  0.00  0.00     0.039 A 
ENDROOT
BRANCH   4   7
ATOM      7  O   UNL d   1       0.611   0.390  -0.527  0.00  0.00    -0.526 OA
ATOM      8  H5  UNL d   1      -0.049   1.012  -0.877  0.00  0.00     0.418 HD
ENDBRANCH   4   7
TORSDOF 1
ENDMDL
