MODEL 1
REMARK minimizedAffinity -5.28700161
REMARK minimizedRMSD -1
REMARK  1 active torsions:
REMARK  status: ('A' for Active; 'I' for Inactive)
REMARK    1  A    between atoms: C3_4  and  O_7 
ROOT
ATOM      1  C   UNL d   1      -0.164   0.497   0.754  0.00  0.00    -0.033 A 
ATOM      2  C1  UNL d   1      -1.556   0.412   0.689  0.00  0.00     0.039 A 
ATOM      3  C2  UNL d   1      -2.180  -0.836   0.640  0.00  0.00    -0.080 A 
ATOM      4  C3  UNL d   1      -1.401  -1.990   0.656  0.00  0.00     0.150 A 
ATOM      5  C4  UNL d   1      -0.014  -1.913   0.724  0.00  0.00    -0.007 A 
ATOM      6  C5  UNL d   1       0.607  -0.665   0.772  0.00  0.00     0.039 A 
ENDROOT
BRANCH   4   7
ATOM      7  O   UNL d   1      -1.964  -3.230   0.604  0.00  0.00    -0.526 OA
ATOM      8  H5  UNL d   1      -2.928  -3.128   0.531  0.00  0.00     0.418 HD
ENDBRANCH   4   7
TORSDOF 1
ENDMDL
