MODEL 1
REMARK minimizedAffinity -5.05326366
REMARK minimizedRMSD -1
REMARK  1 active torsions:
REMARK  status: ('A' for Active; 'I' for Inactive)
REMARK    1  A    between atoms: C3_4  and  O_7 
ROOT
ATOM      1  C   UNL d   1      -2.348  -1.852   1.748  0.00  0.00    -0.033 A 
ATOM      2  C1  UNL d   1      -2.731  -0.512   1.844  0.00  0.00     0.039 A 
ATOM      3  C2  UNL d   1      -1.884   0.493   1.373  0.00  0.00    -0.080 A 
ATOM      4  C3  UNL d   1      -0.659   0.146   0.809  0.00  0.00     0.150 A 
ATOM      5  C4  UNL d   1      -0.273  -1.186   0.707  0.00  0.00    -0.007 A 
ATOM      6  C5  UNL d   1      -1.120  -2.189   1.178  0.00  0.00     0.039 A 
ENDROOT
BRANCH   4   7
ATOM      7  O   UNL d   1       0.203   1.092   0.340  0.00  0.00    -0.526 OA
ATOM      8  H5  UNL d   1      -0.184   1.969   0.503  0.00  0.00     0.418 HD
ENDBRANCH   4   7
TORSDOF 1
ENDMDL
