MODEL 1
REMARK minimizedAffinity -4.53277493
REMARK minimizedRMSD -1
REMARK  0 active torsions:
REMARK  status: ('A' for Active; 'I' for Inactive)
ROOT
ATOM      1  C   UNL d   1       0.279   1.392  -0.296  0.00  0.00     0.078 C 
ATOM      2  C1  UNL d   1      -0.062   0.063   0.309  0.00  0.00    -0.077 A 
ATOM      3  C2  UNL d   1      -0.974  -0.035   1.367  0.00  0.00    -0.001 A 
ATOM      4  C3  UNL d   1      -1.274  -1.277   1.928  0.00  0.00     0.003 A 
ATOM      5  C4  UNL d   1      -0.666  -2.431   1.437  0.00  0.00    -0.005 A 
ATOM      6  C5  UNL d   1       0.244  -2.344   0.386  0.00  0.00     0.003 A 
ATOM      7  C6  UNL d   1       0.545  -1.102  -0.175  0.00  0.00    -0.001 A 
ENDROOT
TORSDOF 0
ENDMDL
