MODEL 1
REMARK minimizedAffinity -4.62037039
REMARK minimizedRMSD -1
REMARK  0 active torsions:
REMARK  status: ('A' for Active; 'I' for Inactive)
ROOT
ATOM      1  C   UNL d   1      -1.577  -0.368   2.127  0.00  0.00     0.078 C 
ATOM      2  C1  UNL d   1      -0.777  -1.270   1.235  0.00  0.00    -0.077 A 
ATOM      3  C2  UNL d   1       0.345  -0.793   0.547  0.00  0.00    -0.001 A 
ATOM      4  C3  UNL d   1       1.074  -1.641  -0.288  0.00  0.00     0.003 A 
ATOM      5  C4  UNL d   1       0.688  -2.971  -0.443  0.00  0.00    -0.005 A 
ATOM      6  C5  UNL d   1      -0.428  -3.454   0.236  0.00  0.00     0.003 A 
ATOM      7  C6  UNL d   1      -1.159  -2.607   1.071  0.00  0.00    -0.001 A 
ENDROOT
TORSDOF 0
ENDMDL
