MODEL 1
REMARK minimizedAffinity -5.21807766
REMARK minimizedRMSD -1
REMARK  0 active torsions:
REMARK  status: ('A' for Active; 'I' for Inactive)
ROOT
ATOM      1  C   UNL d   1       0.011   0.992  -0.536  0.00  0.00     0.078 C 
ATOM      2  C1  UNL d   1      -0.072  -0.422  -0.043  0.00  0.00    -0.077 A 
ATOM      3  C2  UNL d   1      -0.962  -0.778   0.978  0.00  0.00    -0.001 A 
ATOM      4  C3  UNL d   1      -1.021  -2.096   1.434  0.00  0.00     0.003 A 
ATOM      5  C4  UNL d   1      -0.193  -3.068   0.876  0.00  0.00    -0.005 A 
ATOM      6  C5  UNL d   1       0.697  -2.722  -0.138  0.00  0.00     0.003 A 
ATOM      7  C6  UNL d   1       0.758  -1.405  -0.596  0.00  0.00    -0.001 A 
ENDROOT
TORSDOF 0
ENDMDL
