MODEL 1
REMARK minimizedAffinity -4.37428665
REMARK minimizedRMSD -1
REMARK  0 active torsions:
REMARK  status: ('A' for Active; 'I' for Inactive)
ROOT
ATOM      1  C   UNL d   1       0.099   0.712  -0.172  0.00  0.00     0.078 C 
ATOM      2  C1  UNL d   1      -0.045  -0.774  -0.028  0.00  0.00    -0.077 A 
ATOM      3  C2  UNL d   1       1.036  -1.630  -0.271  0.00  0.00    -0.001 A 
ATOM      4  C3  UNL d   1       0.884  -3.012  -0.143  0.00  0.00     0.003 A 
ATOM      5  C4  UNL d   1      -0.347  -3.549   0.226  0.00  0.00    -0.005 A 
ATOM      6  C5  UNL d   1      -1.429  -2.705   0.467  0.00  0.00     0.003 A 
ATOM      7  C6  UNL d   1      -1.280  -1.323   0.340  0.00  0.00    -0.001 A 
ENDROOT
TORSDOF 0
ENDMDL
