MODEL 1
REMARK minimizedAffinity -0.27602765
REMARK minimizedRMSD -1
REMARK  0 active torsions:
REMARK  status: ('A' for Active; 'I' for Inactive)
ROOT
ATOM      1  C   UNL d   1       0.871  -1.494  -1.986  0.00  0.00     0.078 C 
ATOM      2  C1  UNL d   1       0.011  -1.206  -0.792  0.00  0.00    -0.077 A 
ATOM      3  C2  UNL d   1      -0.591  -2.244  -0.070  0.00  0.00    -0.001 A 
ATOM      4  C3  UNL d   1      -1.397  -1.960   1.034  0.00  0.00     0.003 A 
ATOM      5  C4  UNL d   1      -1.610  -0.640   1.425  0.00  0.00    -0.005 A 
ATOM      6  C5  UNL d   1      -1.017   0.399   0.711  0.00  0.00     0.003 A 
ATOM      7  C6  UNL d   1      -0.210   0.118  -0.393  0.00  0.00    -0.001 A 
ENDROOT
TORSDOF 0
ENDMDL
