MODEL 1
REMARK minimizedAffinity -4.60544157
REMARK minimizedRMSD -1
REMARK  0 active torsions:
REMARK  status: ('A' for Active; 'I' for Inactive)
ROOT
ATOM      1  C   UNL d   1       0.640  -0.124  -1.967  0.00  0.00     0.078 C 
ATOM      2  C1  UNL d   1       0.922   1.084  -1.124  0.00  0.00    -0.077 A 
ATOM      3  C2  UNL d   1       2.225   1.578  -0.984  0.00  0.00    -0.001 A 
ATOM      4  C3  UNL d   1       2.474   2.698  -0.189  0.00  0.00     0.003 A 
ATOM      5  C4  UNL d   1       1.425   3.333   0.473  0.00  0.00    -0.005 A 
ATOM      6  C5  UNL d   1       0.125   2.847   0.342  0.00  0.00     0.003 A 
ATOM      7  C6  UNL d   1      -0.125   1.727  -0.453  0.00  0.00    -0.001 A 
ENDROOT
TORSDOF 0
ENDMDL
