MODEL 1
REMARK minimizedAffinity -4.76115131
REMARK minimizedRMSD -1
REMARK  0 active torsions:
REMARK  status: ('A' for Active; 'I' for Inactive)
ROOT
ATOM      1  C   UNL d   1       0.120  -2.984   0.495  0.00  0.00     0.078 C 
ATOM      2  C1  UNL d   1       0.070  -1.575  -0.014  0.00  0.00    -0.077 A 
ATOM      3  C2  UNL d   1       0.540  -1.253  -1.294  0.00  0.00    -0.001 A 
ATOM      4  C3  UNL d   1       0.497   0.064  -1.751  0.00  0.00     0.003 A 
ATOM      5  C4  UNL d   1      -0.014   1.072  -0.935  0.00  0.00    -0.005 A 
ATOM      6  C5  UNL d   1      -0.481   0.762   0.340  0.00  0.00     0.003 A 
ATOM      7  C6  UNL d   1      -0.439  -0.555   0.799  0.00  0.00    -0.001 A 
ENDROOT
TORSDOF 0
ENDMDL
