MODEL 1
REMARK minimizedAffinity -5.08965349
REMARK minimizedRMSD -1
REMARK  0 active torsions:
REMARK  status: ('A' for Active; 'I' for Inactive)
ROOT
ATOM      1  C   UNL d   1       0.013   0.940  -0.423  0.00  0.00     0.078 C 
ATOM      2  C1  UNL d   1       0.002  -0.559  -0.456  0.00  0.00    -0.077 A 
ATOM      3  C2  UNL d   1      -0.441  -1.301   0.646  0.00  0.00    -0.001 A 
ATOM      4  C3  UNL d   1      -0.437  -2.696   0.605  0.00  0.00     0.003 A 
ATOM      5  C4  UNL d   1       0.010  -3.361  -0.535  0.00  0.00    -0.005 A 
ATOM      6  C5  UNL d   1       0.455  -2.631  -1.635  0.00  0.00     0.003 A 
ATOM      7  C6  UNL d   1       0.452  -1.236  -1.596  0.00  0.00    -0.001 A 
ENDROOT
TORSDOF 0
ENDMDL
