MODEL 1
REMARK minimizedAffinity -4.24464893
REMARK minimizedRMSD -1
REMARK  0 active torsions:
REMARK  status: ('A' for Active; 'I' for Inactive)
ROOT
ATOM      1  C   UNL d   1       0.116   1.615   0.112  0.00  0.00     0.078 C 
ATOM      2  C1  UNL d   1      -0.068   0.130   0.212  0.00  0.00    -0.077 A 
ATOM      3  C2  UNL d   1       0.545  -0.735  -0.703  0.00  0.00    -0.001 A 
ATOM      4  C3  UNL d   1       0.357  -2.114  -0.605  0.00  0.00     0.003 A 
ATOM      5  C4  UNL d   1      -0.443  -2.641   0.407  0.00  0.00    -0.005 A 
ATOM      6  C5  UNL d   1      -1.059  -1.788   1.320  0.00  0.00     0.003 A 
ATOM      7  C6  UNL d   1      -0.872  -0.408   1.223  0.00  0.00    -0.001 A 
ENDROOT
TORSDOF 0
ENDMDL
