MODEL 1
REMARK minimizedAffinity -5.26150417
REMARK minimizedRMSD -1
REMARK  0 active torsions:
REMARK  status: ('A' for Active; 'I' for Inactive)
ROOT
ATOM      1  C   UNL d   1       0.071   1.164  -0.458  0.00  0.00     0.078 C 
ATOM      2  C1  UNL d   1       0.029  -0.334  -0.408  0.00  0.00    -0.077 A 
ATOM      3  C2  UNL d   1       0.389  -1.103  -1.521  0.00  0.00    -0.001 A 
ATOM      4  C3  UNL d   1       0.336  -2.497  -1.463  0.00  0.00     0.003 A 
ATOM      5  C4  UNL d   1      -0.077  -3.133  -0.294  0.00  0.00    -0.005 A 
ATOM      6  C5  UNL d   1      -0.439  -2.376   0.818  0.00  0.00     0.003 A 
ATOM      7  C6  UNL d   1      -0.387  -0.982   0.762  0.00  0.00    -0.001 A 
ENDROOT
TORSDOF 0
ENDMDL
