MODEL 1
REMARK minimizedAffinity -5.41233397
REMARK minimizedRMSD -1
REMARK  0 active torsions:
REMARK  status: ('A' for Active; 'I' for Inactive)
ROOT
ATOM      1  C   UNL d   1       0.154  -3.453   0.610  0.00  0.00     0.078 C 
ATOM      2  C1  UNL d   1      -0.141  -1.989   0.477  0.00  0.00    -0.077 A 
ATOM      3  C2  UNL d   1       0.478  -1.215  -0.513  0.00  0.00    -0.001 A 
ATOM      4  C3  UNL d   1       0.202   0.149  -0.619  0.00  0.00     0.003 A 
ATOM      5  C4  UNL d   1      -0.693   0.752   0.262  0.00  0.00    -0.005 A 
ATOM      6  C5  UNL d   1      -1.313  -0.009   1.251  0.00  0.00     0.003 A 
ATOM      7  C6  UNL d   1      -1.037  -1.373   1.359  0.00  0.00    -0.001 A 
ENDROOT
TORSDOF 0
ENDMDL
