MODEL 1
REMARK minimizedAffinity -3.81035042
REMARK minimizedRMSD -1
REMARK  0 active torsions:
REMARK  status: ('A' for Active; 'I' for Inactive)
ROOT
ATOM      1  C   UNL d   1       0.402  -0.706  -1.741  0.00  0.00     0.078 C 
ATOM      2  C1  UNL d   1      -0.334  -1.210  -0.535  0.00  0.00    -0.077 A 
ATOM      3  C2  UNL d   1      -0.712  -2.554  -0.430  0.00  0.00    -0.001 A 
ATOM      4  C3  UNL d   1      -1.404  -3.007   0.694  0.00  0.00     0.003 A 
ATOM      5  C4  UNL d   1      -1.726  -2.122   1.721  0.00  0.00    -0.005 A 
ATOM      6  C5  UNL d   1      -1.357  -0.782   1.624  0.00  0.00     0.003 A 
ATOM      7  C6  UNL d   1      -0.664  -0.327   0.501  0.00  0.00    -0.001 A 
ENDROOT
TORSDOF 0
ENDMDL
