MODEL 1
REMARK minimizedAffinity -4.53317213
REMARK minimizedRMSD -1
REMARK  0 active torsions:
REMARK  status: ('A' for Active; 'I' for Inactive)
ROOT
ATOM      1  C   UNL d   1       0.331  -0.483   0.196  0.00  0.00     0.078 C 
ATOM      2  C1  UNL d   1       0.890   0.902   0.328  0.00  0.00    -0.077 A 
ATOM      3  C2  UNL d   1       0.348   1.970  -0.398  0.00  0.00    -0.001 A 
ATOM      4  C3  UNL d   1       0.885   3.252  -0.274  0.00  0.00     0.003 A 
ATOM      5  C4  UNL d   1       1.966   3.479   0.575  0.00  0.00    -0.005 A 
ATOM      6  C5  UNL d   1       2.513   2.422   1.300  0.00  0.00     0.003 A 
ATOM      7  C6  UNL d   1       1.978   1.139   1.177  0.00  0.00    -0.001 A 
ENDROOT
TORSDOF 0
ENDMDL
