MODEL 1
REMARK minimizedAffinity -3.61941838
REMARK minimizedRMSD -1
REMARK  0 active torsions:
REMARK  status: ('A' for Active; 'I' for Inactive)
ROOT
ATOM      1  C   UNL d   1       0.206   1.521  -0.063  0.00  0.00     0.078 C 
ATOM      2  C1  UNL d   1      -0.126   0.090   0.237  0.00  0.00    -0.077 A 
ATOM      3  C2  UNL d   1       0.358  -0.947  -0.570  0.00  0.00    -0.001 A 
ATOM      4  C3  UNL d   1       0.032  -2.274  -0.285  0.00  0.00     0.003 A 
ATOM      5  C4  UNL d   1      -0.780  -2.576   0.807  0.00  0.00    -0.005 A 
ATOM      6  C5  UNL d   1      -1.268  -1.550   1.614  0.00  0.00     0.003 A 
ATOM      7  C6  UNL d   1      -0.943  -0.223   1.330  0.00  0.00    -0.001 A 
ENDROOT
TORSDOF 0
ENDMDL
