MODEL 1
REMARK minimizedAffinity -3.56975436
REMARK minimizedRMSD -1
REMARK  0 active torsions:
REMARK  status: ('A' for Active; 'I' for Inactive)
ROOT
ATOM      1  C   UNL d   1      -0.419  -2.320  -2.636  0.00  0.00     0.078 C 
ATOM      2  C1  UNL d   1      -0.482  -1.795  -1.233  0.00  0.00    -0.077 A 
ATOM      3  C2  UNL d   1      -0.101  -0.480  -0.937  0.00  0.00    -0.001 A 
ATOM      4  C3  UNL d   1      -0.155  -0.008   0.375  0.00  0.00     0.003 A 
ATOM      5  C4  UNL d   1      -0.589  -0.844   1.402  0.00  0.00    -0.005 A 
ATOM      6  C5  UNL d   1      -0.968  -2.154   1.118  0.00  0.00     0.003 A 
ATOM      7  C6  UNL d   1      -0.914  -2.628  -0.194  0.00  0.00    -0.001 A 
ENDROOT
TORSDOF 0
ENDMDL
