MODEL 1
REMARK minimizedAffinity 4.30095243
REMARK minimizedRMSD -1
REMARK  0 active torsions:
REMARK  status: ('A' for Active; 'I' for Inactive)
ROOT
ATOM      1  C   UNL d   1       1.646   2.840   1.536  0.00  0.00     0.078 C 
ATOM      2  C1  UNL d   1       0.533   3.797   1.841  0.00  0.00    -0.077 A 
ATOM      3  C2  UNL d   1       0.536   4.556   3.017  0.00  0.00    -0.001 A 
ATOM      4  C3  UNL d   1      -0.512   5.436   3.292  0.00  0.00     0.003 A 
ATOM      5  C4  UNL d   1      -1.572   5.564   2.397  0.00  0.00    -0.005 A 
ATOM      6  C5  UNL d   1      -1.585   4.811   1.224  0.00  0.00     0.003 A 
ATOM      7  C6  UNL d   1      -0.538   3.931   0.947  0.00  0.00    -0.001 A 
ENDROOT
TORSDOF 0
ENDMDL
