MODEL 1
REMARK minimizedAffinity -4.30809927
REMARK minimizedRMSD -1
REMARK  0 active torsions:
REMARK  status: ('A' for Active; 'I' for Inactive)
ROOT
ATOM      1  C   UNL d   1      -0.481  -3.177   1.120  0.00  0.00     0.078 C 
ATOM      2  C1  UNL d   1      -0.319  -1.772   0.621  0.00  0.00    -0.077 A 
ATOM      3  C2  UNL d   1       0.375  -1.505  -0.566  0.00  0.00    -0.001 A 
ATOM      4  C3  UNL d   1       0.527  -0.192  -1.014  0.00  0.00     0.003 A 
ATOM      5  C4  UNL d   1      -0.010   0.864  -0.281  0.00  0.00    -0.005 A 
ATOM      6  C5  UNL d   1      -0.700   0.608   0.902  0.00  0.00     0.003 A 
ATOM      7  C6  UNL d   1      -0.853  -0.704   1.352  0.00  0.00    -0.001 A 
ENDROOT
TORSDOF 0
ENDMDL
