MODEL 1
REMARK minimizedAffinity -2.885427
REMARK minimizedRMSD -1
REMARK  1 active torsions:
REMARK  status: ('A' for Active; 'I' for Inactive)
REMARK    1  A    between atoms: C3_4  and  O_7 
ROOT
ATOM      1  C   UNL d   1      -4.805  -5.994   0.609  0.00  0.00    -0.033 A 
ATOM      2  C1  UNL d   1      -3.718  -5.977  -0.266  0.00  0.00     0.039 A 
ATOM      3  C2  UNL d   1      -3.477  -4.856  -1.062  0.00  0.00    -0.080 A 
ATOM      4  C3  UNL d   1      -4.330  -3.759  -0.973  0.00  0.00     0.150 A 
ATOM      5  C4  UNL d   1      -5.413  -3.768  -0.100  0.00  0.00    -0.007 A 
ATOM      6  C5  UNL d   1      -5.652  -4.889   0.694  0.00  0.00     0.039 A 
ENDROOT
BRANCH   4   7
ATOM      7  O   UNL d   1      -4.139  -2.644  -1.734  0.00  0.00    -0.526 OA
ATOM      8  H5  UNL d   1      -3.371  -2.792  -2.310  0.00  0.00     0.418 HD
ENDBRANCH   4   7
TORSDOF 1
ENDMDL
