MODEL 1
REMARK minimizedAffinity -1.68960762
REMARK minimizedRMSD -1
REMARK  1 active torsions:
REMARK  status: ('A' for Active; 'I' for Inactive)
REMARK    1  A    between atoms: C3_4  and  O_7 
ROOT
ATOM      1  C   UNL d   1       0.428   0.004   0.953  0.00  0.00    -0.033 A 
ATOM      2  C1  UNL d   1       0.597   1.383   1.098  0.00  0.00     0.039 A 
ATOM      3  C2  UNL d   1      -0.448   2.168   1.590  0.00  0.00    -0.080 A 
ATOM      4  C3  UNL d   1      -1.654   1.564   1.933  0.00  0.00     0.150 A 
ATOM      5  C4  UNL d   1      -1.828   0.191   1.795  0.00  0.00    -0.007 A 
ATOM      6  C5  UNL d   1      -0.784  -0.592   1.303  0.00  0.00     0.039 A 
ENDROOT
BRANCH   4   7
ATOM      7  O   UNL d   1      -2.704   2.289   2.412  0.00  0.00    -0.526 OA
ATOM      8  H5  UNL d   1      -2.448   3.227   2.427  0.00  0.00     0.418 HD
ENDBRANCH   4   7
TORSDOF 1
ENDMDL
