MODEL 1
REMARK minimizedAffinity 4.70782661
REMARK minimizedRMSD -1
REMARK  1 active torsions:
REMARK  status: ('A' for Active; 'I' for Inactive)
REMARK    1  A    between atoms: C3_4  and  O_7 
ROOT
ATOM      1  C   UNL d   1       0.229   2.319   0.633  0.00  0.00    -0.033 A 
ATOM      2  C1  UNL d   1       0.039   1.345   1.615  0.00  0.00     0.039 A 
ATOM      3  C2  UNL d   1      -1.110   1.365   2.408  0.00  0.00    -0.080 A 
ATOM      4  C3  UNL d   1      -2.061   2.363   2.208  0.00  0.00     0.150 A 
ATOM      5  C4  UNL d   1      -1.879   3.335   1.230  0.00  0.00    -0.007 A 
ATOM      6  C5  UNL d   1      -0.731   3.313   0.440  0.00  0.00     0.039 A 
ENDROOT
BRANCH   4   7
ATOM      7  O   UNL d   1      -3.196   2.427   2.961  0.00  0.00    -0.526 OA
ATOM      8  H5  UNL d   1      -3.172   1.709   3.616  0.00  0.00     0.418 HD
ENDBRANCH   4   7
TORSDOF 1
ENDMDL
