MODEL 1
REMARK minimizedAffinity -3.79653978
REMARK minimizedRMSD -1
REMARK  1 active torsions:
REMARK  status: ('A' for Active; 'I' for Inactive)
REMARK    1  A    between atoms: C3_4  and  O_7 
ROOT
ATOM      1  C   UNL d   1      -2.629   0.779   1.847  0.00  0.00    -0.033 A 
ATOM      2  C1  UNL d   1      -1.999  -0.368   1.360  0.00  0.00     0.039 A 
ATOM      3  C2  UNL d   1      -0.671  -0.309   0.932  0.00  0.00    -0.080 A 
ATOM      4  C3  UNL d   1       0.015   0.900   0.998  0.00  0.00     0.150 A 
ATOM      5  C4  UNL d   1      -0.605   2.046   1.486  0.00  0.00    -0.007 A 
ATOM      6  C5  UNL d   1      -1.931   1.986   1.912  0.00  0.00     0.039 A 
ENDROOT
BRANCH   4   7
ATOM      7  O   UNL d   1       1.311   1.008   0.588  0.00  0.00    -0.526 OA
ATOM      8  H5  UNL d   1       1.599   0.144   0.249  0.00  0.00     0.418 HD
ENDBRANCH   4   7
TORSDOF 1
ENDMDL
