MODEL 1
REMARK minimizedAffinity -4.72472191
REMARK minimizedRMSD -1
REMARK  1 active torsions:
REMARK  status: ('A' for Active; 'I' for Inactive)
REMARK    1  A    between atoms: C3_4  and  O_7 
ROOT
ATOM      1  C   UNL d   1      -0.641   1.608   0.681  0.00  0.00    -0.033 A 
ATOM      2  C1  UNL d   1      -0.498   0.224   0.799  0.00  0.00     0.039 A 
ATOM      3  C2  UNL d   1       0.364  -0.312   1.758  0.00  0.00    -0.080 A 
ATOM      4  C3  UNL d   1       1.075   0.546   2.593  0.00  0.00     0.150 A 
ATOM      5  C4  UNL d   1       0.934   1.926   2.484  0.00  0.00    -0.007 A 
ATOM      6  C5  UNL d   1       0.074   2.459   1.525  0.00  0.00     0.039 A 
ENDROOT
BRANCH   4   7
ATOM      7  O   UNL d   1       1.932   0.070   3.540  0.00  0.00    -0.526 OA
ATOM      8  H5  UNL d   1       1.949  -0.900   3.481  0.00  0.00     0.418 HD
ENDBRANCH   4   7
TORSDOF 1
ENDMDL
