MODEL 1
REMARK minimizedAffinity -3.30984545
REMARK minimizedRMSD -1
REMARK  1 active torsions:
REMARK  status: ('A' for Active; 'I' for Inactive)
REMARK    1  A    between atoms: C3_4  and  O_7 
ROOT
ATOM      1  C   UNL d   1      -2.233   2.297   2.060  0.00  0.00    -0.033 A 
ATOM      2  C1  UNL d   1      -0.959   2.868   2.036  0.00  0.00     0.039 A 
ATOM      3  C2  UNL d   1       0.144   2.102   1.654  0.00  0.00    -0.080 A 
ATOM      4  C3  UNL d   1      -0.040   0.768   1.299  0.00  0.00     0.150 A 
ATOM      5  C4  UNL d   1      -1.307   0.194   1.318  0.00  0.00    -0.007 A 
ATOM      6  C5  UNL d   1      -2.407   0.961   1.699  0.00  0.00     0.039 A 
ENDROOT
BRANCH   4   7
ATOM      7  O   UNL d   1       1.007  -0.020   0.925  0.00  0.00    -0.526 OA
ATOM      8  H5  UNL d   1       1.824   0.502   0.988  0.00  0.00     0.418 HD
ENDBRANCH   4   7
TORSDOF 1
ENDMDL
