MODEL 1
REMARK minimizedAffinity -2.55622315
REMARK minimizedRMSD -1
REMARK  1 active torsions:
REMARK  status: ('A' for Active; 'I' for Inactive)
REMARK    1  A    between atoms: C3_4  and  O_7 
ROOT
ATOM      1  C   UNL d   1       0.173   0.477   1.269  0.00  0.00    -0.033 A 
ATOM      2  C1  UNL d   1      -0.775  -0.357   1.865  0.00  0.00     0.039 A 
ATOM      3  C2  UNL d   1      -1.923   0.190   2.443  0.00  0.00    -0.080 A 
ATOM      4  C3  UNL d   1      -2.110   1.569   2.418  0.00  0.00     0.150 A 
ATOM      5  C4  UNL d   1      -1.171   2.405   1.823  0.00  0.00    -0.007 A 
ATOM      6  C5  UNL d   1      -0.025   1.858   1.247  0.00  0.00     0.039 A 
ENDROOT
BRANCH   4   7
ATOM      7  O   UNL d   1      -3.212   2.149   2.974  0.00  0.00    -0.526 OA
ATOM      8  H5  UNL d   1      -3.758   1.452   3.373  0.00  0.00     0.418 HD
ENDBRANCH   4   7
TORSDOF 1
ENDMDL
