MODEL 1
REMARK minimizedAffinity 1.36779821
REMARK minimizedRMSD -1
REMARK  1 active torsions:
REMARK  status: ('A' for Active; 'I' for Inactive)
REMARK    1  A    between atoms: C3_4  and  O_7 
ROOT
ATOM      1  C   UNL d   1      -1.338  -0.123   1.753  0.00  0.00    -0.033 A 
ATOM      2  C1  UNL d   1      -0.357  -1.109   1.878  0.00  0.00     0.039 A 
ATOM      3  C2  UNL d   1       0.851  -0.985   1.190  0.00  0.00    -0.080 A 
ATOM      4  C3  UNL d   1       1.066   0.128   0.381  0.00  0.00     0.150 A 
ATOM      5  C4  UNL d   1       0.095   1.115   0.255  0.00  0.00    -0.007 A 
ATOM      6  C5  UNL d   1      -1.111   0.990   0.942  0.00  0.00     0.039 A 
ENDROOT
BRANCH   4   7
ATOM      7  O   UNL d   1       2.228   0.290  -0.314  0.00  0.00    -0.526 OA
ATOM      8  H5  UNL d   1       2.793  -0.484  -0.153  0.00  0.00     0.418 HD
ENDBRANCH   4   7
TORSDOF 1
ENDMDL
