MODEL 1
REMARK minimizedAffinity -1.87191308
REMARK minimizedRMSD -1
REMARK  1 active torsions:
REMARK  status: ('A' for Active; 'I' for Inactive)
REMARK    1  A    between atoms: C3_4  and  O_7 
ROOT
ATOM      1  C   UNL d   1       0.409   1.135   0.660  0.00  0.00    -0.033 A 
ATOM      2  C1  UNL d   1       0.480  -0.147   1.209  0.00  0.00     0.039 A 
ATOM      3  C2  UNL d   1      -0.645  -0.713   1.812  0.00  0.00    -0.080 A 
ATOM      4  C3  UNL d   1      -1.833   0.011   1.860  0.00  0.00     0.150 A 
ATOM      5  C4  UNL d   1      -1.911   1.287   1.312  0.00  0.00    -0.007 A 
ATOM      6  C5  UNL d   1      -0.787   1.852   0.711  0.00  0.00     0.039 A 
ENDROOT
BRANCH   4   7
ATOM      7  O   UNL d   1      -2.955  -0.498   2.442  0.00  0.00    -0.526 OA
ATOM      8  H5  UNL d   1      -2.744  -1.375   2.803  0.00  0.00     0.418 HD
ENDBRANCH   4   7
TORSDOF 1
ENDMDL
