MODEL 1
REMARK minimizedAffinity -1.17292094
REMARK minimizedRMSD -1
REMARK  1 active torsions:
REMARK  status: ('A' for Active; 'I' for Inactive)
REMARK    1  A    between atoms: C3_4  and  O_7 
ROOT
ATOM      1  C   UNL d   1      -1.411   0.550   0.450  0.00  0.00    -0.033 A 
ATOM      2  C1  UNL d   1      -0.232   1.283   0.608  0.00  0.00     0.039 A 
ATOM      3  C2  UNL d   1       0.816   0.766   1.371  0.00  0.00    -0.080 A 
ATOM      4  C3  UNL d   1       0.675  -0.483   1.970  0.00  0.00     0.150 A 
ATOM      5  C4  UNL d   1      -0.495  -1.220   1.814  0.00  0.00    -0.007 A 
ATOM      6  C5  UNL d   1      -1.541  -0.701   1.052  0.00  0.00     0.039 A 
ENDROOT
BRANCH   4   7
ATOM      7  O   UNL d   1       1.669  -1.026   2.728  0.00  0.00    -0.526 OA
ATOM      8  H5  UNL d   1       2.404  -0.393   2.771  0.00  0.00     0.418 HD
ENDBRANCH   4   7
TORSDOF 1
ENDMDL
