MODEL 1
REMARK minimizedAffinity 0.266139895
REMARK minimizedRMSD -1
REMARK  1 active torsions:
REMARK  status: ('A' for Active; 'I' for Inactive)
REMARK    1  A    between atoms: C3_4  and  O_7 
ROOT
ATOM      1  C   UNL d   1      -2.142   1.287   1.581  0.00  0.00    -0.033 A 
ATOM      2  C1  UNL d   1      -1.079   2.172   1.388  0.00  0.00     0.039 A 
ATOM      3  C2  UNL d   1       0.207   1.680   1.151  0.00  0.00    -0.080 A 
ATOM      4  C3  UNL d   1       0.415   0.305   1.107  0.00  0.00     0.150 A 
ATOM      5  C4  UNL d   1      -0.640  -0.582   1.295  0.00  0.00    -0.007 A 
ATOM      6  C5  UNL d   1      -1.923  -0.090   1.532  0.00  0.00     0.039 A 
ENDROOT
BRANCH   4   7
ATOM      7  O   UNL d   1       1.652  -0.222   0.884  0.00  0.00    -0.526 OA
ATOM      8  H5  UNL d   1       2.287   0.509   0.801  0.00  0.00     0.418 HD
ENDBRANCH   4   7
TORSDOF 1
ENDMDL
