MODEL 1
REMARK minimizedAffinity 2.6256001
REMARK minimizedRMSD -1
REMARK  1 active torsions:
REMARK  status: ('A' for Active; 'I' for Inactive)
REMARK    1  A    between atoms: C3_4  and  O_7 
ROOT
ATOM      1  C   UNL d   1      -0.411   2.391   1.750  0.00  0.00    -0.033 A 
ATOM      2  C1  UNL d   1       0.243   2.811   0.590  0.00  0.00     0.039 A 
ATOM      3  C2  UNL d   1       1.280   2.045   0.055  0.00  0.00    -0.080 A 
ATOM      4  C3  UNL d   1       1.654   0.863   0.687  0.00  0.00     0.150 A 
ATOM      5  C4  UNL d   1       1.004   0.436   1.841  0.00  0.00    -0.007 A 
ATOM      6  C5  UNL d   1      -0.031   1.203   2.375  0.00  0.00     0.039 A 
ENDROOT
BRANCH   4   7
ATOM      7  O   UNL d   1       2.664   0.085   0.205  0.00  0.00    -0.526 OA
ATOM      8  H5  UNL d   1       3.038   0.518  -0.580  0.00  0.00     0.418 HD
ENDBRANCH   4   7
TORSDOF 1
ENDMDL
