MODEL 1
REMARK minimizedAffinity 3.32634211
REMARK minimizedRMSD -1
REMARK  1 active torsions:
REMARK  status: ('A' for Active; 'I' for Inactive)
REMARK    1  A    between atoms: C3_4  and  O_7 
ROOT
ATOM      1  C   UNL d   1       0.835   0.362   1.497  0.00  0.00    -0.033 A 
ATOM      2  C1  UNL d   1      -0.157  -0.224   2.288  0.00  0.00     0.039 A 
ATOM      3  C2  UNL d   1      -1.303   0.500   2.623  0.00  0.00    -0.080 A 
ATOM      4  C3  UNL d   1      -1.445   1.806   2.162  0.00  0.00     0.150 A 
ATOM      5  C4  UNL d   1      -0.464   2.394   1.371  0.00  0.00    -0.007 A 
ATOM      6  C5  UNL d   1       0.680   1.670   1.038  0.00  0.00     0.039 A 
ENDROOT
BRANCH   4   7
ATOM      7  O   UNL d   1      -2.544   2.553   2.467  0.00  0.00    -0.526 OA
ATOM      8  H5  UNL d   1      -3.123   2.027   3.043  0.00  0.00     0.418 HD
ENDBRANCH   4   7
TORSDOF 1
ENDMDL
