MODEL 1
REMARK minimizedAffinity -0.0525702089
REMARK minimizedRMSD -1
REMARK  1 active torsions:
REMARK  status: ('A' for Active; 'I' for Inactive)
REMARK    1  A    between atoms: C3_4  and  O_7 
ROOT
ATOM      1  C   UNL d   1      -3.458  -3.857  -2.172  0.00  0.00    -0.033 A 
ATOM      2  C1  UNL d   1      -4.021  -3.322  -1.012  0.00  0.00     0.039 A 
ATOM      3  C2  UNL d   1      -4.414  -1.982  -0.978  0.00  0.00    -0.080 A 
ATOM      4  C3  UNL d   1      -4.239  -1.190  -2.109  0.00  0.00     0.150 A 
ATOM      5  C4  UNL d   1      -3.682  -1.717  -3.270  0.00  0.00    -0.007 A 
ATOM      6  C5  UNL d   1      -3.289  -3.055  -3.302  0.00  0.00     0.039 A 
ENDROOT
BRANCH   4   7
ATOM      7  O   UNL d   1      -4.603   0.124  -2.122  0.00  0.00    -0.526 OA
ATOM      8  H5  UNL d   1      -4.946   0.357  -1.244  0.00  0.00     0.418 HD
ENDBRANCH   4   7
TORSDOF 1
ENDMDL
