MODEL 1
REMARK minimizedAffinity -0.133388653
REMARK minimizedRMSD -1
REMARK  1 active torsions:
REMARK  status: ('A' for Active; 'I' for Inactive)
REMARK    1  A    between atoms: C3_4  and  O_7 
ROOT
ATOM      1  C   UNL d   1      -3.375   0.900   2.915  0.00  0.00    -0.033 A 
ATOM      2  C1  UNL d   1      -3.087   2.226   2.586  0.00  0.00     0.039 A 
ATOM      3  C2  UNL d   1      -1.854   2.554   2.019  0.00  0.00    -0.080 A 
ATOM      4  C3  UNL d   1      -0.921   1.548   1.784  0.00  0.00     0.150 A 
ATOM      5  C4  UNL d   1      -1.203   0.225   2.105  0.00  0.00    -0.007 A 
ATOM      6  C5  UNL d   1      -2.434  -0.101   2.673  0.00  0.00     0.039 A 
ENDROOT
BRANCH   4   7
ATOM      7  O   UNL d   1       0.298   1.821   1.236  0.00  0.00    -0.526 OA
ATOM      8  H5  UNL d   1       0.364   2.780   1.093  0.00  0.00     0.418 HD
ENDBRANCH   4   7
TORSDOF 1
ENDMDL
