MODEL 1
REMARK minimizedAffinity -3.50323224
REMARK minimizedRMSD -1
REMARK  1 active torsions:
REMARK  status: ('A' for Active; 'I' for Inactive)
REMARK    1  A    between atoms: C3_4  and  O_7 
ROOT
ATOM      1  C   UNL d   1       0.492   1.948   1.101  0.00  0.00    -0.033 A 
ATOM      2  C1  UNL d   1      -0.771   2.448   1.423  0.00  0.00     0.039 A 
ATOM      3  C2  UNL d   1      -1.835   1.571   1.645  0.00  0.00    -0.080 A 
ATOM      4  C3  UNL d   1      -1.622   0.199   1.543  0.00  0.00     0.150 A 
ATOM      5  C4  UNL d   1      -0.366  -0.306   1.227  0.00  0.00    -0.007 A 
ATOM      6  C5  UNL d   1       0.695   0.571   1.004  0.00  0.00     0.039 A 
ENDROOT
BRANCH   4   7
ATOM      7  O   UNL d   1      -2.631  -0.695   1.746  0.00  0.00    -0.526 OA
ATOM      8  H5  UNL d   1      -3.448  -0.202   1.929  0.00  0.00     0.418 HD
ENDBRANCH   4   7
TORSDOF 1
ENDMDL
