MODEL 1
REMARK minimizedAffinity -0.552477479
REMARK minimizedRMSD -1
REMARK  1 active torsions:
REMARK  status: ('A' for Active; 'I' for Inactive)
REMARK    1  A    between atoms: C3_4  and  O_7 
ROOT
ATOM      1  C   UNL d   1       1.055   1.245   1.302  0.00  0.00    -0.033 A 
ATOM      2  C1  UNL d   1       0.932  -0.131   1.099  0.00  0.00     0.039 A 
ATOM      3  C2  UNL d   1      -0.327  -0.734   1.130  0.00  0.00    -0.080 A 
ATOM      4  C3  UNL d   1      -1.454   0.049   1.363  0.00  0.00     0.150 A 
ATOM      5  C4  UNL d   1      -1.339   1.421   1.562  0.00  0.00    -0.007 A 
ATOM      6  C5  UNL d   1      -0.081   2.021   1.532  0.00  0.00     0.039 A 
ENDROOT
BRANCH   4   7
ATOM      7  O   UNL d   1      -2.703  -0.494   1.407  0.00  0.00    -0.526 OA
ATOM      8  H5  UNL d   1      -2.625  -1.455   1.281  0.00  0.00     0.418 HD
ENDBRANCH   4   7
TORSDOF 1
ENDMDL
