MODEL 1
REMARK minimizedAffinity -2.74205375
REMARK minimizedRMSD -1
REMARK  1 active torsions:
REMARK  status: ('A' for Active; 'I' for Inactive)
REMARK    1  A    between atoms: C3_4  and  O_7 
ROOT
ATOM      1  C   UNL d   1       2.137   0.330   1.057  0.00  0.00    -0.033 A 
ATOM      2  C1  UNL d   1       1.845   0.431   2.418  0.00  0.00     0.039 A 
ATOM      3  C2  UNL d   1       0.676   1.068   2.838  0.00  0.00    -0.080 A 
ATOM      4  C3  UNL d   1      -0.192   1.599   1.888  0.00  0.00     0.150 A 
ATOM      5  C4  UNL d   1       0.090   1.499   0.530  0.00  0.00    -0.007 A 
ATOM      6  C5  UNL d   1       1.258   0.863   0.112  0.00  0.00     0.039 A 
ENDROOT
BRANCH   4   7
ATOM      7  O   UNL d   1      -1.343   2.234   2.250  0.00  0.00    -0.526 OA
ATOM      8  H5  UNL d   1      -1.392   2.253   3.221  0.00  0.00     0.418 HD
ENDBRANCH   4   7
TORSDOF 1
ENDMDL
