MODEL 1
REMARK minimizedAffinity -5.04475975
REMARK minimizedRMSD -1
REMARK  1 active torsions:
REMARK  status: ('A' for Active; 'I' for Inactive)
REMARK    1  A    between atoms: C3_4  and  O_7 
ROOT
ATOM      1  C   UNL d   1      -2.811  -0.848  -0.124  0.00  0.00    -0.033 A 
ATOM      2  C1  UNL d   1      -2.135  -1.258   1.027  0.00  0.00     0.039 A 
ATOM      3  C2  UNL d   1      -0.755  -1.073   1.133  0.00  0.00    -0.080 A 
ATOM      4  C3  UNL d   1      -0.064  -0.477   0.082  0.00  0.00     0.150 A 
ATOM      5  C4  UNL d   1      -0.731  -0.062  -1.066  0.00  0.00    -0.007 A 
ATOM      6  C5  UNL d   1      -2.109  -0.248  -1.170  0.00  0.00     0.039 A 
ENDROOT
BRANCH   4   7
ATOM      7  O   UNL d   1       1.284  -0.279   0.137  0.00  0.00    -0.526 OA
ATOM      8  H5  UNL d   1       1.614  -0.641   0.976  0.00  0.00     0.418 HD
ENDBRANCH   4   7
TORSDOF 1
ENDMDL
