MODEL 1
REMARK minimizedAffinity -5.07103586
REMARK minimizedRMSD -1
REMARK  1 active torsions:
REMARK  status: ('A' for Active; 'I' for Inactive)
REMARK    1  A    between atoms: C3_4  and  O_7 
ROOT
ATOM      1  C   UNL d   1       0.196   0.154  -0.705  0.00  0.00    -0.033 A 
ATOM      2  C1  UNL d   1      -0.632   0.038  -1.823  0.00  0.00     0.039 A 
ATOM      3  C2  UNL d   1      -1.978  -0.297  -1.667  0.00  0.00    -0.080 A 
ATOM      4  C3  UNL d   1      -2.484  -0.514  -0.388  0.00  0.00     0.150 A 
ATOM      5  C4  UNL d   1      -1.666  -0.396   0.731  0.00  0.00    -0.007 A 
ATOM      6  C5  UNL d   1      -0.322  -0.062   0.573  0.00  0.00     0.039 A 
ENDROOT
BRANCH   4   7
ATOM      7  O   UNL d   1      -3.790  -0.848  -0.185  0.00  0.00    -0.526 OA
ATOM      8  H5  UNL d   1      -4.227  -0.921  -1.050  0.00  0.00     0.418 HD
ENDBRANCH   4   7
TORSDOF 1
ENDMDL
