MODEL 1
REMARK minimizedAffinity -5.2803216
REMARK minimizedRMSD -1
REMARK  1 active torsions:
REMARK  status: ('A' for Active; 'I' for Inactive)
REMARK    1  A    between atoms: C3_4  and  O_7 
ROOT
ATOM      1  C   UNL d   1       0.434  -0.041  -0.761  0.00  0.00    -0.033 A 
ATOM      2  C1  UNL d   1      -0.034  -0.578   0.440  0.00  0.00     0.039 A 
ATOM      3  C2  UNL d   1      -1.404  -0.760   0.639  0.00  0.00    -0.080 A 
ATOM      4  C3  UNL d   1      -2.294  -0.403  -0.370  0.00  0.00     0.150 A 
ATOM      5  C4  UNL d   1      -1.835   0.130  -1.570  0.00  0.00    -0.007 A 
ATOM      6  C5  UNL d   1      -0.466   0.312  -1.766  0.00  0.00     0.039 A 
ENDROOT
BRANCH   4   7
ATOM      7  O   UNL d   1      -3.640  -0.557  -0.220  0.00  0.00    -0.526 OA
ATOM      8  H5  UNL d   1      -3.812  -0.908   0.670  0.00  0.00     0.418 HD
ENDBRANCH   4   7
TORSDOF 1
ENDMDL
