MODEL 1
REMARK minimizedAffinity -3.839854
REMARK minimizedRMSD -1
REMARK  1 active torsions:
REMARK  status: ('A' for Active; 'I' for Inactive)
REMARK    1  A    between atoms: C3_4  and  O_7 
ROOT
ATOM      1  C   UNL d   1       0.213   0.122  -0.516  0.00  0.00    -0.033 A 
ATOM      2  C1  UNL d   1      -0.567  -0.116  -1.649  0.00  0.00     0.039 A 
ATOM      3  C2  UNL d   1      -1.916  -0.448  -1.512  0.00  0.00    -0.080 A 
ATOM      4  C3  UNL d   1      -2.472  -0.537  -0.239  0.00  0.00     0.150 A 
ATOM      5  C4  UNL d   1      -1.702  -0.297   0.894  0.00  0.00    -0.007 A 
ATOM      6  C5  UNL d   1      -0.354   0.033   0.755  0.00  0.00     0.039 A 
ENDROOT
BRANCH   4   7
ATOM      7  O   UNL d   1      -3.783  -0.862  -0.055  0.00  0.00    -0.526 OA
ATOM      8  H5  UNL d   1      -4.184  -1.028  -0.925  0.00  0.00     0.418 HD
ENDBRANCH   4   7
TORSDOF 1
ENDMDL
