MODEL 1
REMARK minimizedAffinity -4.95008326
REMARK minimizedRMSD -1
REMARK  1 active torsions:
REMARK  status: ('A' for Active; 'I' for Inactive)
REMARK    1  A    between atoms: C3_4  and  O_7 
ROOT
ATOM      1  C   UNL d   1       0.363   0.348  -0.919  0.00  0.00    -0.033 A 
ATOM      2  C1  UNL d   1      -0.068  -0.319   0.229  0.00  0.00     0.039 A 
ATOM      3  C2  UNL d   1      -1.428  -0.566   0.426  0.00  0.00    -0.080 A 
ATOM      4  C3  UNL d   1      -2.345  -0.144  -0.533  0.00  0.00     0.150 A 
ATOM      5  C4  UNL d   1      -1.922   0.517  -1.681  0.00  0.00    -0.007 A 
ATOM      6  C5  UNL d   1      -0.563   0.764  -1.875  0.00  0.00     0.039 A 
ENDROOT
BRANCH   4   7
ATOM      7  O   UNL d   1      -3.682  -0.359  -0.383  0.00  0.00    -0.526 OA
ATOM      8  H5  UNL d   1      -3.829  -0.800   0.470  0.00  0.00     0.418 HD
ENDBRANCH   4   7
TORSDOF 1
ENDMDL
