MODEL 1
REMARK minimizedAffinity -3.65159249
REMARK minimizedRMSD -1
REMARK  1 active torsions:
REMARK  status: ('A' for Active; 'I' for Inactive)
REMARK    1  A    between atoms: C3_4  and  O_7 
ROOT
ATOM      1  C   UNL d   1       0.380  -0.315   0.040  0.00  0.00    -0.033 A 
ATOM      2  C1  UNL d   1      -0.264  -1.184   0.923  0.00  0.00     0.039 A 
ATOM      3  C2  UNL d   1      -1.615  -1.487   0.745  0.00  0.00    -0.080 A 
ATOM      4  C3  UNL d   1      -2.310  -0.917  -0.317  0.00  0.00     0.150 A 
ATOM      5  C4  UNL d   1      -1.674  -0.053  -1.203  0.00  0.00    -0.007 A 
ATOM      6  C5  UNL d   1      -0.324   0.250  -1.024  0.00  0.00     0.039 A 
ENDROOT
BRANCH   4   7
ATOM      7  O   UNL d   1      -3.631  -1.179  -0.528  0.00  0.00    -0.526 OA
ATOM      8  H5  UNL d   1      -3.944  -1.768   0.178  0.00  0.00     0.418 HD
ENDBRANCH   4   7
TORSDOF 1
ENDMDL
