MODEL 1
REMARK minimizedAffinity -3.22823453
REMARK minimizedRMSD -1
REMARK  1 active torsions:
REMARK  status: ('A' for Active; 'I' for Inactive)
REMARK    1  A    between atoms: C3_4  and  O_7 
ROOT
ATOM      1  C   UNL d   1       0.549   0.093  -0.386  0.00  0.00    -0.033 A 
ATOM      2  C1  UNL d   1       0.187  -0.467   0.840  0.00  0.00     0.039 A 
ATOM      3  C2  UNL d   1      -1.147  -0.793   1.094  0.00  0.00    -0.080 A 
ATOM      4  C3  UNL d   1      -2.107  -0.555   0.115  0.00  0.00     0.150 A 
ATOM      5  C4  UNL d   1      -1.753  -0.001  -1.111  0.00  0.00    -0.007 A 
ATOM      6  C5  UNL d   1      -0.421   0.325  -1.362  0.00  0.00     0.039 A 
ENDROOT
BRANCH   4   7
ATOM      7  O   UNL d   1      -3.422  -0.852   0.319  0.00  0.00    -0.526 OA
ATOM      8  H5  UNL d   1      -3.522  -1.202   1.220  0.00  0.00     0.418 HD
ENDBRANCH   4   7
TORSDOF 1
ENDMDL
