MODEL 1
REMARK minimizedAffinity -2.62356544
REMARK minimizedRMSD -1
REMARK  1 active torsions:
REMARK  status: ('A' for Active; 'I' for Inactive)
REMARK    1  A    between atoms: C3_4  and  O_7 
ROOT
ATOM      1  C   UNL d   1       0.131   0.518  -1.332  0.00  0.00    -0.033 A 
ATOM      2  C1  UNL d   1       1.162   0.387  -0.400  0.00  0.00     0.039 A 
ATOM      3  C2  UNL d   1       1.026  -0.495   0.674  0.00  0.00    -0.080 A 
ATOM      4  C3  UNL d   1      -0.143  -1.238   0.805  0.00  0.00     0.150 A 
ATOM      5  C4  UNL d   1      -1.173  -1.115  -0.122  0.00  0.00    -0.007 A 
ATOM      6  C5  UNL d   1      -1.036  -0.234  -1.194  0.00  0.00     0.039 A 
ENDROOT
BRANCH   4   7
ATOM      7  O   UNL d   1      -0.323  -2.108   1.839  0.00  0.00    -0.526 OA
ATOM      8  H5  UNL d   1       0.458  -2.067   2.415  0.00  0.00     0.418 HD
ENDBRANCH   4   7
TORSDOF 1
ENDMDL
