MODEL 1
REMARK minimizedAffinity -4.66889668
REMARK minimizedRMSD -1
REMARK  1 active torsions:
REMARK  status: ('A' for Active; 'I' for Inactive)
REMARK    1  A    between atoms: C3_4  and  O_7 
ROOT
ATOM      1  C   UNL d   1       0.317  -0.226   0.805  0.00  0.00    -0.033 A 
ATOM      2  C1  UNL d   1      -0.096   0.469  -0.333  0.00  0.00     0.039 A 
ATOM      3  C2  UNL d   1      -1.410   0.347  -0.789  0.00  0.00    -0.080 A 
ATOM      4  C3  UNL d   1      -2.299  -0.471  -0.099  0.00  0.00     0.150 A 
ATOM      5  C4  UNL d   1      -1.896  -1.164   1.038  0.00  0.00    -0.007 A 
ATOM      6  C5  UNL d   1      -0.583  -1.042   1.492  0.00  0.00     0.039 A 
ENDROOT
BRANCH   4   7
ATOM      7  O   UNL d   1      -3.590  -0.626  -0.509  0.00  0.00    -0.526 OA
ATOM      8  H5  UNL d   1      -3.718  -0.111  -1.323  0.00  0.00     0.418 HD
ENDBRANCH   4   7
TORSDOF 1
ENDMDL
