MODEL 1
REMARK minimizedAffinity -2.20316982
REMARK minimizedRMSD -1
REMARK  1 active torsions:
REMARK  status: ('A' for Active; 'I' for Inactive)
REMARK    1  A    between atoms: C3_4  and  O_7 
ROOT
ATOM      1  C   UNL d   1       3.439   3.321   1.364  0.00  0.00    -0.033 A 
ATOM      2  C1  UNL d   1       3.751   2.827   0.095  0.00  0.00     0.039 A 
ATOM      3  C2  UNL d   1       3.080   1.708  -0.404  0.00  0.00    -0.080 A 
ATOM      4  C3  UNL d   1       2.102   1.094   0.374  0.00  0.00     0.150 A 
ATOM      5  C4  UNL d   1       1.784   1.584   1.636  0.00  0.00    -0.007 A 
ATOM      6  C5  UNL d   1       2.455   2.700   2.134  0.00  0.00     0.039 A 
ENDROOT
BRANCH   4   7
ATOM      7  O   UNL d   1       1.424  -0.003  -0.069  0.00  0.00    -0.526 OA
ATOM      8  H5  UNL d   1       1.769  -0.245  -0.944  0.00  0.00     0.418 HD
ENDBRANCH   4   7
TORSDOF 1
ENDMDL
