MODEL 1
REMARK minimizedAffinity 2.82253385
REMARK minimizedRMSD -1
REMARK  0 active torsions:
REMARK  status: ('A' for Active; 'I' for Inactive)
ROOT
ATOM      1  C   UNL d   1       0.673  -1.811  -0.337  0.00  0.00     0.023 A 
ATOM      2  C1  UNL d   1       0.458  -0.433  -0.354  0.00  0.00     0.003 A 
ATOM      3  C2  UNL d   1       1.535   0.441  -0.523  0.00  0.00     0.048 A 
ATOM      4  C3  UNL d   1       2.823  -0.071  -0.674  0.00  0.00     0.023 A 
ATOM      5  C4  UNL d   1       3.043  -1.449  -0.658  0.00  0.00     0.048 A 
ATOM      6  C5  UNL d   1       1.964  -2.319  -0.488  0.00  0.00     0.003 A 
ATOM      7  I   UNL d   1       4.427   1.227  -0.925  0.00  0.00    -0.146 I 
ENDROOT
TORSDOF 0
ENDMDL
