MODEL 1
REMARK minimizedAffinity 7.46049213
REMARK minimizedRMSD -1
REMARK  0 active torsions:
REMARK  status: ('A' for Active; 'I' for Inactive)
ROOT
ATOM      1  C   UNL d   1      -2.042  -4.587  -2.744  0.00  0.00     0.023 A 
ATOM      2  C1  UNL d   1      -1.733  -4.786  -1.398  0.00  0.00     0.003 A 
ATOM      3  C2  UNL d   1      -1.032  -3.807  -0.690  0.00  0.00     0.048 A 
ATOM      4  C3  UNL d   1      -0.644  -2.633  -1.334  0.00  0.00     0.023 A 
ATOM      5  C4  UNL d   1      -0.952  -2.430  -2.680  0.00  0.00     0.048 A 
ATOM      6  C5  UNL d   1      -1.653  -3.411  -3.384  0.00  0.00     0.003 A 
ATOM      7  I   UNL d   1       0.399  -1.175  -0.282  0.00  0.00    -0.146 I 
ENDROOT
TORSDOF 0
ENDMDL
