MODEL 1
REMARK minimizedAffinity 9.30008698
REMARK minimizedRMSD -1
REMARK  0 active torsions:
REMARK  status: ('A' for Active; 'I' for Inactive)
ROOT
ATOM      1  C   UNL d   1      -1.493  -3.189  -0.860  0.00  0.00     0.023 A 
ATOM      2  C1  UNL d   1      -0.295  -3.563  -0.250  0.00  0.00     0.003 A 
ATOM      3  C2  UNL d   1       0.777  -2.670  -0.210  0.00  0.00     0.048 A 
ATOM      4  C3  UNL d   1       0.645  -1.405  -0.782  0.00  0.00     0.023 A 
ATOM      5  C4  UNL d   1      -0.551  -1.027  -1.393  0.00  0.00     0.048 A 
ATOM      6  C5  UNL d   1      -1.621  -1.923  -1.431  0.00  0.00     0.003 A 
ATOM      7  I   UNL d   1       2.241  -0.074  -0.724  0.00  0.00    -0.146 I 
ENDROOT
TORSDOF 0
ENDMDL
