MODEL 1
REMARK minimizedAffinity -1.25860572
REMARK minimizedRMSD -1
REMARK  0 active torsions:
REMARK  status: ('A' for Active; 'I' for Inactive)
ROOT
ATOM      1  C   UNL d   1       0.918  -2.504   2.628  0.00  0.00     0.023 A 
ATOM      2  C1  UNL d   1       0.160  -2.252   3.772  0.00  0.00     0.003 A 
ATOM      3  C2  UNL d   1       0.001  -3.248   4.738  0.00  0.00     0.048 A 
ATOM      4  C3  UNL d   1       0.603  -4.492   4.555  0.00  0.00     0.023 A 
ATOM      5  C4  UNL d   1       1.364  -4.747   3.412  0.00  0.00     0.048 A 
ATOM      6  C5  UNL d   1       1.519  -3.749   2.449  0.00  0.00     0.003 A 
ATOM      7  I   UNL d   1       0.369  -5.975   5.992  0.00  0.00    -0.146 I 
ENDROOT
TORSDOF 0
ENDMDL
