MODEL 1
REMARK minimizedAffinity 12.5617657
REMARK minimizedRMSD -1
REMARK  0 active torsions:
REMARK  status: ('A' for Active; 'I' for Inactive)
ROOT
ATOM      1  C   UNL d   1       3.541   0.660   0.059  0.00  0.00     0.023 A 
ATOM      2  C1  UNL d   1       3.649   1.357  -1.145  0.00  0.00     0.003 A 
ATOM      3  C2  UNL d   1       4.202   2.640  -1.163  0.00  0.00     0.048 A 
ATOM      4  C3  UNL d   1       4.645   3.219   0.026  0.00  0.00     0.023 A 
ATOM      5  C4  UNL d   1       4.539   2.524   1.232  0.00  0.00     0.048 A 
ATOM      6  C5  UNL d   1       3.985   1.243   1.246  0.00  0.00     0.003 A 
ATOM      7  I   UNL d   1       5.468   5.127   0.001  0.00  0.00    -0.146 I 
ENDROOT
TORSDOF 0
ENDMDL
