MODEL 1
REMARK minimizedAffinity 12.0798216
REMARK minimizedRMSD -1
REMARK  0 active torsions:
REMARK  status: ('A' for Active; 'I' for Inactive)
ROOT
ATOM      1  C   UNL d   1       1.965  -1.519  -1.539  0.00  0.00     0.023 A 
ATOM      2  C1  UNL d   1       2.486  -2.670  -0.947  0.00  0.00     0.003 A 
ATOM      3  C2  UNL d   1       3.562  -2.576  -0.063  0.00  0.00     0.048 A 
ATOM      4  C3  UNL d   1       4.112  -1.327   0.227  0.00  0.00     0.023 A 
ATOM      5  C4  UNL d   1       3.593  -0.173  -0.362  0.00  0.00     0.048 A 
ATOM      6  C5  UNL d   1       2.518  -0.272  -1.247  0.00  0.00     0.003 A 
ATOM      7  I   UNL d   1       5.713  -1.184   1.544  0.00  0.00    -0.146 I 
ENDROOT
TORSDOF 0
ENDMDL
