MODEL 1
REMARK minimizedAffinity 3.88962889
REMARK minimizedRMSD -1
REMARK  0 active torsions:
REMARK  status: ('A' for Active; 'I' for Inactive)
ROOT
ATOM      1  C   UNL d   1       3.643   0.823  -1.849  0.00  0.00     0.023 A 
ATOM      2  C1  UNL d   1       3.126   0.261  -0.682  0.00  0.00     0.003 A 
ATOM      3  C2  UNL d   1       3.425   0.826   0.559  0.00  0.00     0.048 A 
ATOM      4  C3  UNL d   1       4.242   1.954   0.626  0.00  0.00     0.023 A 
ATOM      5  C4  UNL d   1       4.762   2.521  -0.539  0.00  0.00     0.048 A 
ATOM      6  C5  UNL d   1       4.460   1.952  -1.778  0.00  0.00     0.003 A 
ATOM      7  I   UNL d   1       4.689   2.797   2.472  0.00  0.00    -0.146 I 
ENDROOT
TORSDOF 0
ENDMDL
