MODEL 1
REMARK minimizedAffinity 5.36197186
REMARK minimizedRMSD -1
REMARK  2 active torsions:
REMARK  status: ('A' for Active; 'I' for Inactive)
REMARK    1  A    between atoms: C2'_3  and  C1'_4 
REMARK    2  A    between atoms: C1'_4  and  C1_5 
ROOT
ATOM      1  C1  I4B d   1      -4.237  -0.568  -3.786  0.00  0.00    -0.075 A 
ATOM      2  C2  I4B d   1      -5.522  -0.186  -4.077  0.00  0.00     0.003 A 
ATOM      3  C3  I4B d   1      -5.787   0.620  -5.211  0.00  0.00     0.002 A 
ATOM      4  C4  I4B d   1      -4.738   1.060  -5.992  0.00  0.00    -0.004 A 
ATOM      5  C5  I4B d   1      -3.438   0.652  -5.708  0.00  0.00     0.002 A 
ATOM      6  C6  I4B d   1      -3.186  -0.177  -4.606  0.00  0.00     0.003 A 
ENDROOT
BRANCH   1   7
ATOM      7  C1' I4B d   1      -3.989  -1.392  -2.562  0.00  0.00     0.060 C 
BRANCH   7   8
ATOM      8  C2' I4B d   1      -3.124  -0.579  -1.619  0.00  0.00    -0.013 C 
ATOM      9  C4' I4B d   1      -3.500   0.879  -1.656  0.00  0.00     0.013 C 
ATOM     10  C3' I4B d   1      -3.285  -1.146  -0.240  0.00  0.00     0.013 C 
ENDBRANCH   7   8
ENDBRANCH   1   7
TORSDOF 2
ENDMDL
