MODEL 1
REMARK minimizedAffinity 4.87685251
REMARK minimizedRMSD -1
REMARK  2 active torsions:
REMARK  status: ('A' for Active; 'I' for Inactive)
REMARK    1  A    between atoms: C2'_3  and  C1'_4 
REMARK    2  A    between atoms: C1'_4  and  C1_5 
ROOT
ATOM      1  C1  I4B d   1      -3.562   1.610  -3.733  0.00  0.00    -0.075 A 
ATOM      2  C2  I4B d   1      -3.320   0.862  -4.858  0.00  0.00     0.003 A 
ATOM      3  C3  I4B d   1      -3.486  -0.544  -4.828  0.00  0.00     0.002 A 
ATOM      4  C4  I4B d   1      -3.844  -1.161  -3.647  0.00  0.00    -0.004 A 
ATOM      5  C5  I4B d   1      -4.112  -0.398  -2.514  0.00  0.00     0.002 A 
ATOM      6  C6  I4B d   1      -3.982   0.997  -2.560  0.00  0.00     0.003 A 
ENDROOT
BRANCH   1   7
ATOM      7  C1' I4B d   1      -3.345   3.089  -3.791  0.00  0.00     0.060 C 
BRANCH   7   8
ATOM      8  C2' I4B d   1      -3.714   3.561  -5.183  0.00  0.00    -0.013 C 
ATOM      9  C4' I4B d   1      -4.806   4.597  -5.136  0.00  0.00     0.013 C 
ATOM     10  C3' I4B d   1      -2.476   4.108  -5.829  0.00  0.00     0.013 C 
ENDBRANCH   7   8
ENDBRANCH   1   7
TORSDOF 2
ENDMDL
