MODEL 1
REMARK minimizedAffinity -1.28557718
REMARK minimizedRMSD -1
REMARK  2 active torsions:
REMARK  status: ('A' for Active; 'I' for Inactive)
REMARK    1  A    between atoms: C2'_3  and  C1'_4 
REMARK    2  A    between atoms: C1'_4  and  C1_5 
ROOT
ATOM      1  C1  I4B d   1      -3.446   2.244  -4.970  0.00  0.00    -0.075 A 
ATOM      2  C2  I4B d   1      -2.614   2.873  -5.862  0.00  0.00     0.003 A 
ATOM      3  C3  I4B d   1      -2.583   4.286  -5.934  0.00  0.00     0.002 A 
ATOM      4  C4  I4B d   1      -3.432   5.026  -5.136  0.00  0.00    -0.004 A 
ATOM      5  C5  I4B d   1      -4.258   4.388  -4.216  0.00  0.00     0.002 A 
ATOM      6  C6  I4B d   1      -4.257   2.989  -4.123  0.00  0.00     0.003 A 
ENDROOT
BRANCH   1   7
ATOM      7  C1' I4B d   1      -3.477   0.749  -4.944  0.00  0.00     0.060 C 
BRANCH   7   8
ATOM      8  C2' I4B d   1      -4.318   0.320  -3.759  0.00  0.00    -0.013 C 
ATOM      9  C4' I4B d   1      -5.711  -0.061  -4.188  0.00  0.00     0.013 C 
ATOM     10  C3' I4B d   1      -3.624  -0.829  -3.090  0.00  0.00     0.013 C 
ENDBRANCH   7   8
ENDBRANCH   1   7
TORSDOF 2
ENDMDL
