MODEL 1
REMARK minimizedAffinity 4.19894886
REMARK minimizedRMSD -1
REMARK  2 active torsions:
REMARK  status: ('A' for Active; 'I' for Inactive)
REMARK    1  A    between atoms: C2'_3  and  C1'_4 
REMARK    2  A    between atoms: C1'_4  and  C1_5 
ROOT
ATOM      1  C1  I4B d   1       3.749  -1.860   0.377  0.00  0.00    -0.075 A 
ATOM      2  C2  I4B d   1       3.256  -3.069   0.801  0.00  0.00     0.003 A 
ATOM      3  C3  I4B d   1       4.141  -4.090   1.223  0.00  0.00     0.002 A 
ATOM      4  C4  I4B d   1       5.503  -3.879   1.158  0.00  0.00    -0.004 A 
ATOM      5  C5  I4B d   1       6.000  -2.644   0.751  0.00  0.00     0.002 A 
ATOM      6  C6  I4B d   1       5.117  -1.623   0.369  0.00  0.00     0.003 A 
ENDROOT
BRANCH   1   7
ATOM      7  C1' I4B d   1       2.787  -0.815  -0.093  0.00  0.00     0.060 C 
BRANCH   7   8
ATOM      8  C2' I4B d   1       3.418   0.542   0.146  0.00  0.00    -0.013 C 
ATOM      9  C4' I4B d   1       3.829   1.188  -1.151  0.00  0.00     0.013 C 
ATOM     10  C3' I4B d   1       2.426   1.391   0.883  0.00  0.00     0.013 C 
ENDBRANCH   7   8
ENDBRANCH   1   7
TORSDOF 2
ENDMDL
