MODEL 1
REMARK minimizedAffinity 6.464293
REMARK minimizedRMSD -1
REMARK  2 active torsions:
REMARK  status: ('A' for Active; 'I' for Inactive)
REMARK    1  A    between atoms: C2'_3  and  C1'_4 
REMARK    2  A    between atoms: C1'_4  and  C1_5 
ROOT
ATOM      1  C1  I4B d   1      -4.073   0.045  -4.824  0.00  0.00    -0.075 A 
ATOM      2  C2  I4B d   1      -4.002   1.415  -4.858  0.00  0.00     0.003 A 
ATOM      3  C3  I4B d   1      -2.899   2.056  -5.472  0.00  0.00     0.002 A 
ATOM      4  C4  I4B d   1      -1.872   1.294  -5.991  0.00  0.00    -0.004 A 
ATOM      5  C5  I4B d   1      -1.957  -0.095  -5.976  0.00  0.00     0.002 A 
ATOM      6  C6  I4B d   1      -3.070  -0.724  -5.400  0.00  0.00     0.003 A 
ENDROOT
BRANCH   1   7
ATOM      7  C1' I4B d   1      -5.236  -0.600  -4.138  0.00  0.00     0.060 C 
BRANCH   7   8
ATOM      8  C2' I4B d   1      -4.698  -1.682  -3.224  0.00  0.00    -0.013 C 
ATOM      9  C4' I4B d   1      -4.553  -2.991  -3.956  0.00  0.00     0.013 C 
ATOM     10  C3' I4B d   1      -3.379  -1.217  -2.682  0.00  0.00     0.013 C 
ENDBRANCH   7   8
ENDBRANCH   1   7
TORSDOF 2
ENDMDL
