MODEL 1
REMARK minimizedAffinity 2.50658965
REMARK minimizedRMSD -1
REMARK  2 active torsions:
REMARK  status: ('A' for Active; 'I' for Inactive)
REMARK    1  A    between atoms: C2'_3  and  C1'_4 
REMARK    2  A    between atoms: C1'_4  and  C1_5 
ROOT
ATOM      1  C1  I4B d   1      -4.187   0.816  -3.567  0.00  0.00    -0.075 A 
ATOM      2  C2  I4B d   1      -4.031   1.310  -4.838  0.00  0.00     0.003 A 
ATOM      3  C3  I4B d   1      -3.455   2.588  -5.040  0.00  0.00     0.002 A 
ATOM      4  C4  I4B d   1      -3.097   3.352  -3.949  0.00  0.00    -0.004 A 
ATOM      5  C5  I4B d   1      -3.235   2.840  -2.662  0.00  0.00     0.002 A 
ATOM      6  C6  I4B d   1      -3.772   1.559  -2.470  0.00  0.00     0.003 A 
ENDROOT
BRANCH   1   7
ATOM      7  C1' I4B d   1      -4.830  -0.523  -3.388  0.00  0.00     0.060 C 
BRANCH   7   8
ATOM      8  C2' I4B d   1      -3.745  -1.516  -3.023  0.00  0.00    -0.013 C 
ATOM      9  C4' I4B d   1      -2.645  -1.525  -4.051  0.00  0.00     0.013 C 
ATOM     10  C3' I4B d   1      -3.218  -1.148  -1.668  0.00  0.00     0.013 C 
ENDBRANCH   7   8
ENDBRANCH   1   7
TORSDOF 2
ENDMDL
