MODEL 1
REMARK minimizedAffinity 9.13177967
REMARK minimizedRMSD -1
REMARK  2 active torsions:
REMARK  status: ('A' for Active; 'I' for Inactive)
REMARK    1  A    between atoms: C2'_3  and  C1'_4 
REMARK    2  A    between atoms: C1'_4  and  C1_5 
ROOT
ATOM      1  C1  I4B d   1      -3.540   0.826   0.191  0.00  0.00    -0.075 A 
ATOM      2  C2  I4B d   1      -4.266  -0.026  -0.604  0.00  0.00     0.003 A 
ATOM      3  C3  I4B d   1      -3.648  -0.682  -1.697  0.00  0.00     0.002 A 
ATOM      4  C4  I4B d   1      -2.325  -0.420  -1.986  0.00  0.00    -0.004 A 
ATOM      5  C5  I4B d   1      -1.584   0.426  -1.166  0.00  0.00     0.002 A 
ATOM      6  C6  I4B d   1      -2.192   1.043  -0.063  0.00  0.00     0.003 A 
ENDROOT
BRANCH   1   7
ATOM      7  C1' I4B d   1      -4.232   1.527   1.316  0.00  0.00     0.060 C 
BRANCH   7   8
ATOM      8  C2' I4B d   1      -3.677   2.935   1.400  0.00  0.00    -0.013 C 
ATOM      9  C4' I4B d   1      -4.547   3.909   0.649  0.00  0.00     0.013 C 
ATOM     10  C3' I4B d   1      -3.575   3.307   2.849  0.00  0.00     0.013 C 
ENDBRANCH   7   8
ENDBRANCH   1   7
TORSDOF 2
ENDMDL
