MODEL 1
REMARK minimizedAffinity 5.14554834
REMARK minimizedRMSD -1
REMARK  2 active torsions:
REMARK  status: ('A' for Active; 'I' for Inactive)
REMARK    1  A    between atoms: C2'_3  and  C1'_4 
REMARK    2  A    between atoms: C1'_4  and  C1_5 
ROOT
ATOM      1  C1  I4B d   1       3.931   1.175  -0.925  0.00  0.00    -0.075 A 
ATOM      2  C2  I4B d   1       3.127   0.306  -0.231  0.00  0.00     0.003 A 
ATOM      3  C3  I4B d   1       2.891  -0.999  -0.727  0.00  0.00     0.002 A 
ATOM      4  C4  I4B d   1       3.435  -1.373  -1.939  0.00  0.00    -0.004 A 
ATOM      5  C5  I4B d   1       4.269  -0.499  -2.630  0.00  0.00     0.002 A 
ATOM      6  C6  I4B d   1       4.529   0.779  -2.115  0.00  0.00     0.003 A 
ENDROOT
BRANCH   1   7
ATOM      7  C1' I4B d   1       4.132   2.557  -0.389  0.00  0.00     0.060 C 
BRANCH   7   8
ATOM      8  C2' I4B d   1       5.623   2.797  -0.264  0.00  0.00    -0.013 C 
ATOM      9  C4' I4B d   1       5.999   4.165  -0.769  0.00  0.00     0.013 C 
ATOM     10  C3' I4B d   1       5.999   2.630   1.178  0.00  0.00     0.013 C 
ENDBRANCH   7   8
ENDBRANCH   1   7
TORSDOF 2
ENDMDL
