MODEL 1
REMARK minimizedAffinity 3.132195
REMARK minimizedRMSD -1
REMARK  2 active torsions:
REMARK  status: ('A' for Active; 'I' for Inactive)
REMARK    1  A    between atoms: C2'_3  and  C1'_4 
REMARK    2  A    between atoms: C1'_4  and  C1_5 
ROOT
ATOM      1  C1  I4B d   1       1.955   4.703   5.346  0.00  0.00    -0.075 A 
ATOM      2  C2  I4B d   1       2.118   5.271   4.107  0.00  0.00     0.003 A 
ATOM      3  C3  I4B d   1       1.017   5.870   3.447  0.00  0.00     0.002 A 
ATOM      4  C4  I4B d   1      -0.230   5.835   4.037  0.00  0.00    -0.004 A 
ATOM      5  C5  I4B d   1      -0.388   5.279   5.303  0.00  0.00     0.002 A 
ATOM      6  C6  I4B d   1       0.713   4.721   5.967  0.00  0.00     0.003 A 
ENDROOT
BRANCH   1   7
ATOM      7  C1' I4B d   1       3.131   4.050   5.999  0.00  0.00     0.060 C 
BRANCH   7   8
ATOM      8  C2' I4B d   1       3.205   2.619   5.505  0.00  0.00    -0.013 C 
ATOM      9  C4' I4B d   1       4.467   1.945   5.973  0.00  0.00     0.013 C 
ATOM     10  C3' I4B d   1       1.988   1.895   6.000  0.00  0.00     0.013 C 
ENDBRANCH   7   8
ENDBRANCH   1   7
TORSDOF 2
ENDMDL
