MODEL 1
REMARK minimizedAffinity 2.16323471
REMARK minimizedRMSD -1
REMARK  2 active torsions:
REMARK  status: ('A' for Active; 'I' for Inactive)
REMARK    1  A    between atoms: C2'_3  and  C1'_4 
REMARK    2  A    between atoms: C1'_4  and  C1_5 
ROOT
ATOM      1  C1  I4B d   1       3.896   0.060  -0.066  0.00  0.00    -0.075 A 
ATOM      2  C2  I4B d   1       2.917   1.019  -0.134  0.00  0.00     0.003 A 
ATOM      3  C3  I4B d   1       3.116   2.285   0.468  0.00  0.00     0.002 A 
ATOM      4  C4  I4B d   1       4.281   2.530   1.166  0.00  0.00    -0.004 A 
ATOM      5  C5  I4B d   1       5.282   1.565   1.214  0.00  0.00     0.002 A 
ATOM      6  C6  I4B d   1       5.094   0.326   0.584  0.00  0.00     0.003 A 
ENDROOT
BRANCH   1   7
ATOM      7  C1' I4B d   1       3.639  -1.278  -0.684  0.00  0.00     0.060 C 
BRANCH   7   8
ATOM      8  C2' I4B d   1       3.257  -1.056  -2.134  0.00  0.00    -0.013 C 
ATOM      9  C4' I4B d   1       4.229  -0.133  -2.819  0.00  0.00     0.013 C 
ATOM     10  C3' I4B d   1       3.211  -2.394  -2.810  0.00  0.00     0.013 C 
ENDBRANCH   7   8
ENDBRANCH   1   7
TORSDOF 2
ENDMDL
