MODEL 1
REMARK minimizedAffinity 7.99939203
REMARK minimizedRMSD -1
REMARK  2 active torsions:
REMARK  status: ('A' for Active; 'I' for Inactive)
REMARK    1  A    between atoms: C2'_3  and  C1'_4 
REMARK    2  A    between atoms: C1'_4  and  C1_5 
ROOT
ATOM      1  C1  I4B d   1       3.823   0.908  -0.337  0.00  0.00    -0.075 A 
ATOM      2  C2  I4B d   1       3.572   2.257  -0.373  0.00  0.00     0.003 A 
ATOM      3  C3  I4B d   1       4.551   3.176   0.079  0.00  0.00     0.002 A 
ATOM      4  C4  I4B d   1       5.737   2.703   0.601  0.00  0.00    -0.004 A 
ATOM      5  C5  I4B d   1       5.999   1.336   0.615  0.00  0.00     0.002 A 
ATOM      6  C6  I4B d   1       5.041   0.433   0.132  0.00  0.00     0.003 A 
ENDROOT
BRANCH   1   7
ATOM      7  C1' I4B d   1       2.755  -0.036  -0.791  0.00  0.00     0.060 C 
BRANCH   7   8
ATOM      8  C2' I4B d   1       2.922  -1.333  -0.026  0.00  0.00    -0.013 C 
ATOM      9  C4' I4B d   1       2.210  -1.279   1.300  0.00  0.00     0.013 C 
ATOM     10  C3' I4B d   1       2.391  -2.446  -0.880  0.00  0.00     0.013 C 
ENDBRANCH   7   8
ENDBRANCH   1   7
TORSDOF 2
ENDMDL
