MODEL 1
REMARK minimizedAffinity 8.84365082
REMARK minimizedRMSD -1
REMARK  2 active torsions:
REMARK  status: ('A' for Active; 'I' for Inactive)
REMARK    1  A    between atoms: C2'_3  and  C1'_4 
REMARK    2  A    between atoms: C1'_4  and  C1_5 
ROOT
ATOM      1  C1  I4B d   1       2.437   2.951   5.929  0.00  0.00    -0.075 A 
ATOM      2  C2  I4B d   1       2.390   1.579   5.932  0.00  0.00     0.003 A 
ATOM      3  C3  I4B d   1       3.587   0.825   5.884  0.00  0.00     0.002 A 
ATOM      4  C4  I4B d   1       4.798   1.478   5.784  0.00  0.00    -0.004 A 
ATOM      5  C5  I4B d   1       4.846   2.869   5.805  0.00  0.00     0.002 A 
ATOM      6  C6  I4B d   1       3.659   3.610   5.890  0.00  0.00     0.003 A 
ENDROOT
BRANCH   1   7
ATOM      7  C1' I4B d   1       1.152   3.716   5.947  0.00  0.00     0.060 C 
BRANCH   7   8
ATOM      8  C2' I4B d   1       1.489   5.193   5.999  0.00  0.00    -0.013 C 
ATOM      9  C4' I4B d   1       2.698   5.507   5.158  0.00  0.00     0.013 C 
ATOM     10  C3' I4B d   1       0.289   5.959   5.529  0.00  0.00     0.013 C 
ENDBRANCH   7   8
ENDBRANCH   1   7
TORSDOF 2
ENDMDL
