MODEL 1
REMARK minimizedAffinity -1.67027986
REMARK minimizedRMSD -1
REMARK  0 active torsions:
REMARK  status: ('A' for Active; 'I' for Inactive)
ROOT
ATOM      1  C1  DEN d   1      -2.573   0.670   0.290  0.00  0.00     0.130 A 
ATOM      2  C2  DEN d   1      -3.445   0.951   1.428  0.00  0.00    -0.031 A 
ATOM      3  C3  DEN d   1      -2.626   0.893   2.655  0.00  0.00     0.027 A 
ATOM      4  C4  DEN d   1      -0.106   0.404   2.904  0.00  0.00     0.027 A 
ATOM      5  C5  DEN d   1       1.050   0.094   2.221  0.00  0.00    -0.003 A 
ATOM      6  C6  DEN d   1       1.072  -0.077   0.863  0.00  0.00     0.001 A 
ATOM      7  C7  DEN d   1      -0.075   0.104   0.137  0.00  0.00     0.017 A 
ATOM      8  C8  DEN d   1      -1.246   0.409   0.818  0.00  0.00    -0.094 A 
ATOM      9  C9  DEN d   1      -1.245   0.591   2.191  0.00  0.00    -0.072 A 
ENDROOT
TORSDOF 0
ENDMDL
