MODEL 1
REMARK minimizedAffinity 1.46474147
REMARK minimizedRMSD -1
REMARK  0 active torsions:
REMARK  status: ('A' for Active; 'I' for Inactive)
ROOT
ATOM      1  C1  DEN d   1       0.953  -0.072  -0.585  0.00  0.00     0.130 A 
ATOM      2  C2  DEN d   1      -0.090  -0.037  -1.607  0.00  0.00    -0.031 A 
ATOM      3  C3  DEN d   1      -1.369   0.286  -0.942  0.00  0.00     0.027 A 
ATOM      4  C4  DEN d   1      -1.832   0.736   1.555  0.00  0.00     0.027 A 
ATOM      5  C5  DEN d   1      -1.263   0.807   2.807  0.00  0.00    -0.003 A 
ATOM      6  C6  DEN d   1       0.067   0.559   3.019  0.00  0.00     0.001 A 
ATOM      7  C7  DEN d   1       0.882   0.272   1.957  0.00  0.00     0.017 A 
ATOM      8  C8  DEN d   1       0.314   0.191   0.692  0.00  0.00    -0.094 A 
ATOM      9  C9  DEN d   1      -1.030   0.457   0.496  0.00  0.00    -0.072 A 
ENDROOT
TORSDOF 0
ENDMDL
