MODEL 1
REMARK minimizedAffinity -0.314067513
REMARK minimizedRMSD -1
REMARK  0 active torsions:
REMARK  status: ('A' for Active; 'I' for Inactive)
ROOT
ATOM      1  C1  DEN d   1      -0.993   0.433  -1.148  0.00  0.00     0.130 A 
ATOM      2  C2  DEN d   1       0.068   0.301  -2.144  0.00  0.00    -0.031 A 
ATOM      3  C3  DEN d   1       1.338   0.066  -1.429  0.00  0.00     0.027 A 
ATOM      4  C4  DEN d   1       1.764  -0.110   1.109  0.00  0.00     0.027 A 
ATOM      5  C5  DEN d   1       1.174  -0.053   2.352  0.00  0.00    -0.003 A 
ATOM      6  C6  DEN d   1      -0.161   0.201   2.516  0.00  0.00     0.001 A 
ATOM      7  C7  DEN d   1      -0.961   0.363   1.416  0.00  0.00     0.017 A 
ATOM      8  C8  DEN d   1      -0.373   0.315   0.159  0.00  0.00    -0.094 A 
ATOM      9  C9  DEN d   1       0.977   0.045   0.014  0.00  0.00    -0.072 A 
ENDROOT
TORSDOF 0
ENDMDL
