MODEL 1
REMARK minimizedAffinity -2.39915013
REMARK minimizedRMSD -1
REMARK  0 active torsions:
REMARK  status: ('A' for Active; 'I' for Inactive)
ROOT
ATOM      1  C1  DEN d   1       0.986  -1.322  -0.013  0.00  0.00     0.130 A 
ATOM      2  C2  DEN d   1       0.536   0.013   0.373  0.00  0.00    -0.031 A 
ATOM      3  C3  DEN d   1       0.407   0.824  -0.854  0.00  0.00     0.027 A 
ATOM      4  C4  DEN d   1       0.855   0.146  -3.302  0.00  0.00     0.027 A 
ATOM      5  C5  DEN d   1       1.264  -0.879  -4.126  0.00  0.00    -0.003 A 
ATOM      6  C6  DEN d   1       1.639  -2.102  -3.638  0.00  0.00     0.001 A 
ATOM      7  C7  DEN d   1       1.569  -2.347  -2.292  0.00  0.00     0.017 A 
ATOM      8  C8  DEN d   1       1.164  -1.316  -1.454  0.00  0.00    -0.094 A 
ATOM      9  C9  DEN d   1       0.777  -0.090  -1.967  0.00  0.00    -0.072 A 
ENDROOT
TORSDOF 0
ENDMDL
