MODEL 1
REMARK minimizedAffinity -1.91222012
REMARK minimizedRMSD -1
REMARK  0 active torsions:
REMARK  status: ('A' for Active; 'I' for Inactive)
ROOT
ATOM      1  C1  DEN d   1      -0.482   0.386   0.390  0.00  0.00     0.130 A 
ATOM      2  C2  DEN d   1       0.761   0.213   1.137  0.00  0.00    -0.031 A 
ATOM      3  C3  DEN d   1       1.841  -0.065   0.169  0.00  0.00     0.027 A 
ATOM      4  C4  DEN d   1       1.711  -0.239  -2.401  0.00  0.00     0.027 A 
ATOM      5  C5  DEN d   1       0.868  -0.179  -3.489  0.00  0.00    -0.003 A 
ATOM      6  C6  DEN d   1      -0.478   0.038  -3.359  0.00  0.00     0.001 A 
ATOM      7  C7  DEN d   1      -1.015   0.248  -2.116  0.00  0.00     0.017 A 
ATOM      8  C8  DEN d   1      -0.173   0.181  -1.014  0.00  0.00    -0.094 A 
ATOM      9  C9  DEN d   1       1.187  -0.027  -1.167  0.00  0.00    -0.072 A 
ENDROOT
TORSDOF 0
ENDMDL
