MODEL 1
REMARK minimizedAffinity -2.78085113
REMARK minimizedRMSD -1
REMARK  0 active torsions:
REMARK  status: ('A' for Active; 'I' for Inactive)
ROOT
ATOM      1  C1  DEN d   1       0.752  -0.209   0.037  0.00  0.00     0.130 A 
ATOM      2  C2  DEN d   1       1.989  -0.253   0.812  0.00  0.00    -0.031 A 
ATOM      3  C3  DEN d   1       1.661   0.077   2.214  0.00  0.00     0.027 A 
ATOM      4  C4  DEN d   1      -0.630   0.644   3.254  0.00  0.00     0.027 A 
ATOM      5  C5  DEN d   1      -1.970   0.817   2.991  0.00  0.00    -0.003 A 
ATOM      6  C6  DEN d   1      -2.488   0.694   1.729  0.00  0.00     0.001 A 
ATOM      7  C7  DEN d   1      -1.667   0.346   0.689  0.00  0.00     0.017 A 
ATOM      8  C8  DEN d   1      -0.312   0.177   0.946  0.00  0.00    -0.094 A 
ATOM      9  C9  DEN d   1       0.189   0.293   2.231  0.00  0.00    -0.072 A 
ENDROOT
TORSDOF 0
ENDMDL
