MODEL 1
REMARK minimizedAffinity -3.90413642
REMARK minimizedRMSD -1
REMARK  0 active torsions:
REMARK  status: ('A' for Active; 'I' for Inactive)
ROOT
ATOM      1  C1  DEN d   1      -1.694   0.814   2.778  0.00  0.00     0.130 A 
ATOM      2  C2  DEN d   1      -2.868   1.028   1.936  0.00  0.00    -0.031 A 
ATOM      3  C3  DEN d   1      -2.472   0.794   0.533  0.00  0.00     0.027 A 
ATOM      4  C4  DEN d   1      -0.169   0.120  -0.412  0.00  0.00     0.027 A 
ATOM      5  C5  DEN d   1       1.139  -0.167  -0.086  0.00  0.00    -0.003 A 
ATOM      6  C6  DEN d   1       1.598  -0.113   1.204  0.00  0.00     0.001 A 
ATOM      7  C7  DEN d   1       0.732   0.190   2.221  0.00  0.00     0.017 A 
ATOM      8  C8  DEN d   1      -0.586   0.487   1.899  0.00  0.00    -0.094 A 
ATOM      9  C9  DEN d   1      -1.034   0.416   0.590  0.00  0.00    -0.072 A 
ENDROOT
TORSDOF 0
ENDMDL
