MODEL 1
REMARK minimizedAffinity -0.648591399
REMARK minimizedRMSD -1
REMARK  0 active torsions:
REMARK  status: ('A' for Active; 'I' for Inactive)
ROOT
ATOM      1  C1  DEN d   1      -0.215   0.068  -0.920  0.00  0.00     0.130 A 
ATOM      2  C2  DEN d   1       1.150  -0.020  -0.408  0.00  0.00    -0.031 A 
ATOM      3  C3  DEN d   1       1.116   0.279   1.037  0.00  0.00     0.027 A 
ATOM      4  C4  DEN d   1      -0.908   0.860   2.527  0.00  0.00     0.027 A 
ATOM      5  C5  DEN d   1      -2.270   1.066   2.540  0.00  0.00    -0.003 A 
ATOM      6  C6  DEN d   1      -3.031   0.987   1.404  0.00  0.00     0.001 A 
ATOM      7  C7  DEN d   1      -2.442   0.651   0.214  0.00  0.00     0.017 A 
ATOM      8  C8  DEN d   1      -1.068   0.450   0.191  0.00  0.00    -0.094 A 
ATOM      9  C9  DEN d   1      -0.318   0.522   1.353  0.00  0.00    -0.072 A 
ENDROOT
TORSDOF 0
ENDMDL
