MODEL 1
REMARK minimizedAffinity -2.76487112
REMARK minimizedRMSD -1
REMARK  0 active torsions:
REMARK  status: ('A' for Active; 'I' for Inactive)
ROOT
ATOM      1  C1  DEN d   1       1.482  -1.269   0.735  0.00  0.00     0.130 A 
ATOM      2  C2  DEN d   1       0.820  -0.252   1.547  0.00  0.00    -0.031 A 
ATOM      3  C3  DEN d   1       0.018   0.601   0.647  0.00  0.00     0.027 A 
ATOM      4  C4  DEN d   1      -0.265   0.443  -1.912  0.00  0.00     0.027 A 
ATOM      5  C5  DEN d   1       0.110  -0.249  -3.042  0.00  0.00    -0.003 A 
ATOM      6  C6  DEN d   1       0.987  -1.300  -2.997  0.00  0.00     0.001 A 
ATOM      7  C7  DEN d   1       1.485  -1.718  -1.791  0.00  0.00     0.017 A 
ATOM      8  C8  DEN d   1       1.118  -1.020  -0.648  0.00  0.00    -0.094 A 
ATOM      9  C9  DEN d   1       0.220   0.032  -0.713  0.00  0.00    -0.072 A 
ENDROOT
TORSDOF 0
ENDMDL
