MODEL 1
REMARK minimizedAffinity -2.70825887
REMARK minimizedRMSD -1
REMARK  0 active torsions:
REMARK  status: ('A' for Active; 'I' for Inactive)
ROOT
ATOM      1  C1  DEN d   1      -2.644   0.429   0.297  0.00  0.00     0.130 A 
ATOM      2  C2  DEN d   1      -3.333   0.729   1.549  0.00  0.00    -0.031 A 
ATOM      3  C3  DEN d   1      -2.329   0.734   2.632  0.00  0.00     0.027 A 
ATOM      4  C4  DEN d   1       0.212   0.313   2.492  0.00  0.00     0.027 A 
ATOM      5  C5  DEN d   1       1.254   0.007   1.645  0.00  0.00    -0.003 A 
ATOM      6  C6  DEN d   1       1.066  -0.211   0.306  0.00  0.00     0.001 A 
ATOM      7  C7  DEN d   1      -0.186  -0.082  -0.234  0.00  0.00     0.017 A 
ATOM      8  C8  DEN d   1      -1.243   0.218   0.615  0.00  0.00    -0.094 A 
ATOM      9  C9  DEN d   1      -1.031   0.448   1.964  0.00  0.00    -0.072 A 
ENDROOT
TORSDOF 0
ENDMDL
