MODEL 1
REMARK minimizedAffinity -5.63280773
REMARK minimizedRMSD -1
REMARK  0 active torsions:
REMARK  status: ('A' for Active; 'I' for Inactive)
ROOT
ATOM      1  C1  DEN d   1       0.351  -0.188  -2.911  0.00  0.00     0.130 A 
ATOM      2  C2  DEN d   1       1.090  -1.325  -3.453  0.00  0.00    -0.031 A 
ATOM      3  C3  DEN d   1       1.664  -2.079  -2.320  0.00  0.00     0.027 A 
ATOM      4  C4  DEN d   1       1.478  -1.600   0.208  0.00  0.00     0.027 A 
ATOM      5  C5  DEN d   1       0.963  -0.740   1.152  0.00  0.00    -0.003 A 
ATOM      6  C6  DEN d   1       0.243   0.373   0.810  0.00  0.00     0.001 A 
ATOM      7  C7  DEN d   1      -0.021   0.633  -0.509  0.00  0.00     0.017 A 
ATOM      8  C8  DEN d   1       0.501  -0.226  -1.467  0.00  0.00    -0.094 A 
ATOM      9  C9  DEN d   1       1.216  -1.353  -1.101  0.00  0.00    -0.072 A 
ENDROOT
TORSDOF 0
ENDMDL
