MODEL 1
REMARK minimizedAffinity -2.83029175
REMARK minimizedRMSD -1
REMARK  0 active torsions:
REMARK  status: ('A' for Active; 'I' for Inactive)
ROOT
ATOM      1  C1  DEN d   1       1.210  -1.365   0.764  0.00  0.00     0.130 A 
ATOM      2  C2  DEN d   1       0.997  -0.115   1.487  0.00  0.00    -0.031 A 
ATOM      3  C3  DEN d   1       0.734   0.947   0.495  0.00  0.00     0.027 A 
ATOM      4  C4  DEN d   1       0.631   0.776  -2.076  0.00  0.00     0.027 A 
ATOM      5  C5  DEN d   1       0.758  -0.077  -3.151  0.00  0.00    -0.003 A 
ATOM      6  C6  DEN d   1       1.075  -1.401  -2.998  0.00  0.00     0.001 A 
ATOM      7  C7  DEN d   1       1.232  -1.921  -1.741  0.00  0.00     0.017 A 
ATOM      8  C8  DEN d   1       1.113  -1.066  -0.653  0.00  0.00    -0.094 A 
ATOM      9  C9  DEN d   1       0.780   0.267  -0.827  0.00  0.00    -0.072 A 
ENDROOT
TORSDOF 0
ENDMDL
