MODEL 1
REMARK minimizedAffinity 12.2893896
REMARK minimizedRMSD -1
REMARK  2 active torsions:
REMARK  status: ('A' for Active; 'I' for Inactive)
REMARK    1  A    between atoms: C2'_3  and  C1'_4 
REMARK    2  A    between atoms: C1'_4  and  C1_5 
ROOT
ATOM      1  C1  I4B d   1       2.719  -1.174   3.517  0.00  0.00    -0.075 A 
ATOM      2  C2  I4B d   1       2.205  -2.446   3.497  0.00  0.00     0.003 A 
ATOM      3  C3  I4B d   1       2.796  -3.465   4.284  0.00  0.00     0.002 A 
ATOM      4  C4  I4B d   1       3.921  -3.182   5.030  0.00  0.00    -0.004 A 
ATOM      5  C5  I4B d   1       4.427  -1.885   5.066  0.00  0.00     0.002 A 
ATOM      6  C6  I4B d   1       3.815  -0.872   4.314  0.00  0.00     0.003 A 
ENDROOT
BRANCH   1   7
ATOM      7  C1' I4B d   1       2.090  -0.130   2.649  0.00  0.00     0.060 C 
BRANCH   7   8
ATOM      8  C2' I4B d   1       3.157   0.886   2.293  0.00  0.00    -0.013 C 
ATOM      9  C4' I4B d   1       3.675   0.666   0.896  0.00  0.00     0.013 C 
ATOM     10  C3' I4B d   1       2.562   2.254   2.441  0.00  0.00     0.013 C 
ENDBRANCH   7   8
ENDBRANCH   1   7
TORSDOF 2
ENDMDL
