MODEL 1
REMARK minimizedAffinity 6.30925322
REMARK minimizedRMSD -1
REMARK  2 active torsions:
REMARK  status: ('A' for Active; 'I' for Inactive)
REMARK    1  A    between atoms: C2'_3  and  C1'_4 
REMARK    2  A    between atoms: C1'_4  and  C1_5 
ROOT
ATOM      1  C1  I4B d   1       2.710  -1.812   3.929  0.00  0.00    -0.075 A 
ATOM      2  C2  I4B d   1       2.512  -2.277   5.205  0.00  0.00     0.003 A 
ATOM      3  C3  I4B d   1       3.616  -2.672   5.999  0.00  0.00     0.002 A 
ATOM      4  C4  I4B d   1       4.887  -2.634   5.463  0.00  0.00    -0.004 A 
ATOM      5  C5  I4B d   1       5.088  -2.140   4.178  0.00  0.00     0.002 A 
ATOM      6  C6  I4B d   1       3.995  -1.715   3.409  0.00  0.00     0.003 A 
ENDROOT
BRANCH   1   7
ATOM      7  C1' I4B d   1       1.519  -1.434   3.106  0.00  0.00     0.060 C 
BRANCH   7   8
ATOM      8  C2' I4B d   1       2.006  -0.614   1.929  0.00  0.00    -0.013 C 
ATOM      9  C4' I4B d   1       0.984  -0.587   0.823  0.00  0.00     0.013 C 
ATOM     10  C3' I4B d   1       2.307   0.770   2.423  0.00  0.00     0.013 C 
ENDBRANCH   7   8
ENDBRANCH   1   7
TORSDOF 2
ENDMDL
