MODEL 1
REMARK minimizedAffinity 9.48590469
REMARK minimizedRMSD -1
REMARK  2 active torsions:
REMARK  status: ('A' for Active; 'I' for Inactive)
REMARK    1  A    between atoms: C2'_3  and  C1'_4 
REMARK    2  A    between atoms: C1'_4  and  C1_5 
ROOT
ATOM      1  C1  I4B d   1       3.792  -2.457   3.555  0.00  0.00    -0.075 A 
ATOM      2  C2  I4B d   1       4.277  -1.725   4.610  0.00  0.00     0.003 A 
ATOM      3  C3  I4B d   1       4.553  -2.356   5.848  0.00  0.00     0.002 A 
ATOM      4  C4  I4B d   1       4.283  -3.701   6.000  0.00  0.00    -0.004 A 
ATOM      5  C5  I4B d   1       3.814  -4.445   4.922  0.00  0.00     0.002 A 
ATOM      6  C6  I4B d   1       3.578  -3.822   3.688  0.00  0.00     0.003 A 
ENDROOT
BRANCH   1   7
ATOM      7  C1' I4B d   1       3.480  -1.752   2.273  0.00  0.00     0.060 C 
BRANCH   7   8
ATOM      8  C2' I4B d   1       2.839  -0.423   2.614  0.00  0.00    -0.013 C 
ATOM      9  C4' I4B d   1       2.906   0.530   1.450  0.00  0.00     0.013 C 
ATOM     10  C3' I4B d   1       1.419  -0.684   3.019  0.00  0.00     0.013 C 
ENDBRANCH   7   8
ENDBRANCH   1   7
TORSDOF 2
ENDMDL
