MODEL 1
REMARK minimizedAffinity 10.1640844
REMARK minimizedRMSD -1
REMARK  2 active torsions:
REMARK  status: ('A' for Active; 'I' for Inactive)
REMARK    1  A    between atoms: C2'_3  and  C1'_4 
REMARK    2  A    between atoms: C1'_4  and  C1_5 
ROOT
ATOM      1  C1  I4B d   1       2.501  -2.801   3.423  0.00  0.00    -0.075 A 
ATOM      2  C2  I4B d   1       2.646  -3.718   2.412  0.00  0.00     0.003 A 
ATOM      3  C3  I4B d   1       2.149  -3.437   1.117  0.00  0.00     0.002 A 
ATOM      4  C4  I4B d   1       1.473  -2.256   0.890  0.00  0.00    -0.004 A 
ATOM      5  C5  I4B d   1       1.347  -1.317   1.909  0.00  0.00     0.002 A 
ATOM      6  C6  I4B d   1       1.874  -1.585   3.181  0.00  0.00     0.003 A 
ENDROOT
BRANCH   1   7
ATOM      7  C1' I4B d   1       3.009  -3.144   4.787  0.00  0.00     0.060 C 
BRANCH   7   8
ATOM      8  C2' I4B d   1       2.581  -4.563   5.101  0.00  0.00    -0.013 C 
ATOM      9  C4' I4B d   1       3.577  -5.247   5.999  0.00  0.00     0.013 C 
ATOM     10  C3' I4B d   1       1.225  -4.507   5.740  0.00  0.00     0.013 C 
ENDBRANCH   7   8
ENDBRANCH   1   7
TORSDOF 2
ENDMDL
