MODEL 1
REMARK minimizedAffinity 6.4797287
REMARK minimizedRMSD -1
REMARK  2 active torsions:
REMARK  status: ('A' for Active; 'I' for Inactive)
REMARK    1  A    between atoms: C2'_3  and  C1'_4 
REMARK    2  A    between atoms: C1'_4  and  C1_5 
ROOT
ATOM      1  C1  I4B d   1       2.790  -2.384   2.838  0.00  0.00    -0.075 A 
ATOM      2  C2  I4B d   1       3.116  -3.471   2.066  0.00  0.00     0.003 A 
ATOM      3  C3  I4B d   1       2.856  -4.782   2.535  0.00  0.00     0.002 A 
ATOM      4  C4  I4B d   1       2.319  -4.959   3.794  0.00  0.00    -0.004 A 
ATOM      5  C5  I4B d   1       1.968  -3.855   4.565  0.00  0.00     0.002 A 
ATOM      6  C6  I4B d   1       2.193  -2.559   4.080  0.00  0.00     0.003 A 
ENDROOT
BRANCH   1   7
ATOM      7  C1' I4B d   1       3.109  -1.015   2.326  0.00  0.00     0.060 C 
BRANCH   7   8
ATOM      8  C2' I4B d   1       1.866  -0.161   2.471  0.00  0.00    -0.013 C 
ATOM      9  C4' I4B d   1       2.202   1.306   2.413  0.00  0.00     0.013 C 
ATOM     10  C3' I4B d   1       0.912  -0.542   1.379  0.00  0.00     0.013 C 
ENDBRANCH   7   8
ENDBRANCH   1   7
TORSDOF 2
ENDMDL
