MODEL 1
REMARK minimizedAffinity -3.90409732
REMARK minimizedRMSD -1
REMARK  0 active torsions:
REMARK  status: ('A' for Active; 'I' for Inactive)
ROOT
ATOM      1  C2' OXE d   1      -0.326  -1.230   2.063  0.00  0.00     0.078 C 
ATOM      2  C1' OXE d   1      -1.408   1.350   1.833  0.00  0.00     0.078 C 
ATOM      3  C1  OXE d   1      -0.498   0.868   0.731  0.00  0.00    -0.078 A 
ATOM      4  C2  OXE d   1       0.064  -0.377   0.875  0.00  0.00    -0.078 A 
ATOM      5  C3  OXE d   1       0.868  -0.892  -0.139  0.00  0.00     0.003 A 
ATOM      6  C4  OXE d   1       1.232  -0.093  -1.229  0.00  0.00    -0.002 A 
ATOM      7  C5  OXE d   1       0.702   1.194  -1.375  0.00  0.00    -0.002 A 
ATOM      8  C6  OXE d   1      -0.196   1.672  -0.428  0.00  0.00     0.003 A 
ENDROOT
TORSDOF 0
ENDMDL
