MODEL 1
REMARK minimizedAffinity -3.01196456
REMARK minimizedRMSD -1
REMARK  0 active torsions:
REMARK  status: ('A' for Active; 'I' for Inactive)
ROOT
ATOM      1  C2' OXE d   1      -2.058   1.671   1.189  0.00  0.00     0.078 C 
ATOM      2  C1' OXE d   1      -0.747   2.203  -1.235  0.00  0.00     0.078 C 
ATOM      3  C1  OXE d   1      -0.416   0.914  -0.525  0.00  0.00    -0.078 A 
ATOM      4  C2  OXE d   1      -1.028   0.684   0.684  0.00  0.00    -0.078 A 
ATOM      5  C3  OXE d   1      -0.800  -0.514   1.355  0.00  0.00     0.003 A 
ATOM      6  C4  OXE d   1       0.162  -1.417   0.886  0.00  0.00    -0.002 A 
ATOM      7  C5  OXE d   1       0.826  -1.183  -0.323  0.00  0.00    -0.002 A 
ATOM      8  C6  OXE d   1       0.518  -0.045  -1.060  0.00  0.00     0.003 A 
ENDROOT
TORSDOF 0
ENDMDL
