MODEL 1
REMARK minimizedAffinity -1.6711458
REMARK minimizedRMSD -1
REMARK  0 active torsions:
REMARK  status: ('A' for Active; 'I' for Inactive)
ROOT
ATOM      1  C2' OXE d   1       1.383  -0.735  -0.815  0.00  0.00     0.078 C 
ATOM      2  C1' OXE d   1       0.507   1.827  -1.553  0.00  0.00     0.078 C 
ATOM      3  C1  OXE d   1      -0.039   1.238  -0.276  0.00  0.00    -0.078 A 
ATOM      4  C2  OXE d   1       0.360  -0.035   0.053  0.00  0.00    -0.078 A 
ATOM      5  C3  OXE d   1      -0.071  -0.605   1.248  0.00  0.00     0.003 A 
ATOM      6  C4  OXE d   1      -1.025   0.045   2.040  0.00  0.00    -0.002 A 
ATOM      7  C5  OXE d   1      -1.474   1.326   1.702  0.00  0.00    -0.002 A 
ATOM      8  C6  OXE d   1      -0.960   1.953   0.572  0.00  0.00     0.003 A 
ENDROOT
TORSDOF 0
ENDMDL
