MODEL 1
REMARK minimizedAffinity -2.79687452
REMARK minimizedRMSD -1
REMARK  0 active torsions:
REMARK  status: ('A' for Active; 'I' for Inactive)
ROOT
ATOM      1  C2' OXE d   1      -0.769   2.620  -1.601  0.00  0.00     0.078 C 
ATOM      2  C1' OXE d   1      -2.190   1.749   0.657  0.00  0.00     0.078 C 
ATOM      3  C1  OXE d   1      -1.024   0.912   0.194  0.00  0.00    -0.078 A 
ATOM      4  C2  OXE d   1      -0.363   1.321  -0.939  0.00  0.00    -0.078 A 
ATOM      5  C3  OXE d   1       0.753   0.616  -1.379  0.00  0.00     0.003 A 
ATOM      6  C4  OXE d   1       1.116  -0.591  -0.767  0.00  0.00    -0.002 A 
ATOM      7  C5  OXE d   1       0.431  -1.046   0.365  0.00  0.00    -0.002 A 
ATOM      8  C6  OXE d   1      -0.612  -0.286   0.882  0.00  0.00     0.003 A 
ENDROOT
TORSDOF 0
ENDMDL
