MODEL 1
REMARK minimizedAffinity -3.37540865
REMARK minimizedRMSD -1
REMARK  0 active torsions:
REMARK  status: ('A' for Active; 'I' for Inactive)
ROOT
ATOM      1  C2' OXE d   1       1.000  -0.296   2.226  0.00  0.00     0.078 C 
ATOM      2  C1' OXE d   1       0.827  -0.265  -0.576  0.00  0.00     0.078 C 
ATOM      3  C1  OXE d   1      -0.079   0.663   0.195  0.00  0.00    -0.078 A 
ATOM      4  C2  OXE d   1      -0.021   0.607   1.567  0.00  0.00    -0.078 A 
ATOM      5  C3  OXE d   1      -0.796   1.480   2.325  0.00  0.00     0.003 A 
ATOM      6  C4  OXE d   1      -1.744   2.305   1.709  0.00  0.00    -0.002 A 
ATOM      7  C5  OXE d   1      -1.847   2.348   0.314  0.00  0.00    -0.002 A 
ATOM      8  C6  OXE d   1      -0.994   1.566  -0.457  0.00  0.00     0.003 A 
ENDROOT
TORSDOF 0
ENDMDL
