MODEL 1
REMARK minimizedAffinity -4.45605946
REMARK minimizedRMSD -1
REMARK  0 active torsions:
REMARK  status: ('A' for Active; 'I' for Inactive)
ROOT
ATOM      1  C2' OXE d   1      -1.880   2.330   1.500  0.00  0.00     0.078 C 
ATOM      2  C1' OXE d   1      -0.327   2.439  -0.837  0.00  0.00     0.078 C 
ATOM      3  C1  OXE d   1      -0.164   1.238   0.061  0.00  0.00    -0.078 A 
ATOM      4  C2  OXE d   1      -0.894   1.215   1.225  0.00  0.00    -0.078 A 
ATOM      5  C3  OXE d   1      -0.822   0.105   2.062  0.00  0.00     0.003 A 
ATOM      6  C4  OXE d   1       0.100  -0.918   1.806  0.00  0.00    -0.002 A 
ATOM      7  C5  OXE d   1       0.881  -0.895   0.646  0.00  0.00    -0.002 A 
ATOM      8  C6  OXE d   1       0.731   0.152  -0.257  0.00  0.00     0.003 A 
ENDROOT
TORSDOF 0
ENDMDL
