MODEL 1
REMARK minimizedAffinity -4.05631924
REMARK minimizedRMSD -1
REMARK  0 active torsions:
REMARK  status: ('A' for Active; 'I' for Inactive)
ROOT
ATOM      1  C2' OXE d   1      -2.061   2.727   1.302  0.00  0.00     0.078 C 
ATOM      2  C1' OXE d   1      -0.579   2.967  -1.069  0.00  0.00     0.078 C 
ATOM      3  C1  OXE d   1      -0.442   1.689  -0.281  0.00  0.00    -0.078 A 
ATOM      4  C2  OXE d   1      -1.134   1.599   0.903  0.00  0.00    -0.078 A 
ATOM      5  C3  OXE d   1      -1.086   0.420   1.642  0.00  0.00     0.003 A 
ATOM      6  C4  OXE d   1      -0.219  -0.614   1.270  0.00  0.00    -0.002 A 
ATOM      7  C5  OXE d   1       0.526  -0.526   0.089  0.00  0.00    -0.002 A 
ATOM      8  C6  OXE d   1       0.394   0.598  -0.718  0.00  0.00     0.003 A 
ENDROOT
TORSDOF 0
ENDMDL
