MODEL 1
REMARK minimizedAffinity 0.208646417
REMARK minimizedRMSD -1
REMARK  0 active torsions:
REMARK  status: ('A' for Active; 'I' for Inactive)
ROOT
ATOM      1  C2' OXE d   1      -0.089   2.712  -1.645  0.00  0.00     0.078 C 
ATOM      2  C1' OXE d   1      -1.949   2.000   0.334  0.00  0.00     0.078 C 
ATOM      3  C1  OXE d   1      -0.824   1.037   0.047  0.00  0.00    -0.078 A 
ATOM      4  C2  OXE d   1       0.055   1.372  -0.955  0.00  0.00    -0.078 A 
ATOM      5  C3  OXE d   1       1.142   0.546  -1.223  0.00  0.00     0.003 A 
ATOM      6  C4  OXE d   1       1.263  -0.696  -0.588  0.00  0.00    -0.002 A 
ATOM      7  C5  OXE d   1       0.356  -1.075   0.408  0.00  0.00    -0.002 A 
ATOM      8  C6  OXE d   1      -0.666  -0.203   0.766  0.00  0.00     0.003 A 
ENDROOT
TORSDOF 0
ENDMDL
