MODEL 1
REMARK minimizedAffinity -4.18120146
REMARK minimizedRMSD -1
REMARK  0 active torsions:
REMARK  status: ('A' for Active; 'I' for Inactive)
ROOT
ATOM      1  C2' OXE d   1      -0.958  -0.432   2.768  0.00  0.00     0.078 C 
ATOM      2  C1' OXE d   1      -2.431   1.300   1.122  0.00  0.00     0.078 C 
ATOM      3  C1  OXE d   1      -1.091   0.822   0.620  0.00  0.00    -0.078 A 
ATOM      4  C2  OXE d   1      -0.357   0.013   1.452  0.00  0.00    -0.078 A 
ATOM      5  C3  OXE d   1       0.862  -0.500   1.016  0.00  0.00     0.003 A 
ATOM      6  C4  OXE d   1       1.415  -0.076  -0.198  0.00  0.00    -0.002 A 
ATOM      7  C5  OXE d   1       0.701   0.779  -1.044  0.00  0.00    -0.002 A 
ATOM      8  C6  OXE d   1      -0.569   1.203  -0.669  0.00  0.00     0.003 A 
ENDROOT
TORSDOF 0
ENDMDL
