MODEL 1
REMARK minimizedAffinity -4.11052227
REMARK minimizedRMSD -1
REMARK  0 active torsions:
REMARK  status: ('A' for Active; 'I' for Inactive)
ROOT
ATOM      1  C2' OXE d   1       0.683  -0.976   1.943  0.00  0.00     0.078 C 
ATOM      2  C1' OXE d   1       0.581  -0.853  -0.860  0.00  0.00     0.078 C 
ATOM      3  C1  OXE d   1      -0.230   0.153  -0.082  0.00  0.00    -0.078 A 
ATOM      4  C2  OXE d   1      -0.211   0.056   1.289  0.00  0.00    -0.078 A 
ATOM      5  C3  OXE d   1      -0.898   0.993   2.056  0.00  0.00     0.003 A 
ATOM      6  C4  OXE d   1      -1.730   1.937   1.444  0.00  0.00    -0.002 A 
ATOM      7  C5  OXE d   1      -1.795   2.028   0.049  0.00  0.00    -0.002 A 
ATOM      8  C6  OXE d   1      -1.020   1.173  -0.726  0.00  0.00     0.003 A 
ENDROOT
TORSDOF 0
ENDMDL
