MODEL 1
REMARK minimizedAffinity -3.76780486
REMARK minimizedRMSD -1
REMARK  0 active torsions:
REMARK  status: ('A' for Active; 'I' for Inactive)
ROOT
ATOM      1  C2' OXE d   1      -0.150  -0.685   2.220  0.00  0.00     0.078 C 
ATOM      2  C1' OXE d   1      -1.327   1.823   1.772  0.00  0.00     0.078 C 
ATOM      3  C1  OXE d   1      -0.375   1.296   0.728  0.00  0.00    -0.078 A 
ATOM      4  C2  OXE d   1       0.232   0.089   0.977  0.00  0.00    -0.078 A 
ATOM      5  C3  OXE d   1       1.077  -0.468   0.022  0.00  0.00     0.003 A 
ATOM      6  C4  OXE d   1       1.433   0.260  -1.120  0.00  0.00    -0.002 A 
ATOM      7  C5  OXE d   1       0.857   1.509  -1.375  0.00  0.00    -0.002 A 
ATOM      8  C6  OXE d   1      -0.080   2.021  -0.484  0.00  0.00     0.003 A 
ENDROOT
TORSDOF 0
ENDMDL
