MODEL 1
REMARK minimizedAffinity -1.14167798
REMARK minimizedRMSD -1
REMARK  0 active torsions:
REMARK  status: ('A' for Active; 'I' for Inactive)
ROOT
ATOM      1  C2' OXE d   1      -1.822   1.836   0.494  0.00  0.00     0.078 C 
ATOM      2  C1' OXE d   1      -0.097   2.675  -1.556  0.00  0.00     0.078 C 
ATOM      3  C1  OXE d   1       0.104   1.291  -0.990  0.00  0.00    -0.078 A 
ATOM      4  C2  OXE d   1      -0.715   0.906   0.045  0.00  0.00    -0.078 A 
ATOM      5  C3  OXE d   1      -0.608  -0.380   0.567  0.00  0.00     0.003 A 
ATOM      6  C4  OXE d   1       0.425  -1.229   0.152  0.00  0.00    -0.002 A 
ATOM      7  C5  OXE d   1       1.295  -0.842  -0.873  0.00  0.00    -0.002 A 
ATOM      8  C6  OXE d   1       1.121   0.396  -1.482  0.00  0.00     0.003 A 
ENDROOT
TORSDOF 0
ENDMDL
