MODEL 1
REMARK minimizedAffinity -4.37777519
REMARK minimizedRMSD -1
REMARK  0 active torsions:
REMARK  status: ('A' for Active; 'I' for Inactive)
ROOT
ATOM      1  C2' OXE d   1      -2.249   1.371   1.662  0.00  0.00     0.078 C 
ATOM      2  C1' OXE d   1      -0.599  -0.793   2.349  0.00  0.00     0.078 C 
ATOM      3  C1  OXE d   1      -0.423  -0.181   0.982  0.00  0.00    -0.078 A 
ATOM      4  C2  OXE d   1      -1.266   0.848   0.637  0.00  0.00    -0.078 A 
ATOM      5  C3  OXE d   1      -1.110   1.485  -0.591  0.00  0.00     0.003 A 
ATOM      6  C4  OXE d   1      -0.206   0.988  -1.537  0.00  0.00    -0.002 A 
ATOM      7  C5  OXE d   1       0.635  -0.085  -1.221  0.00  0.00    -0.002 A 
ATOM      8  C6  OXE d   1       0.569  -0.651   0.047  0.00  0.00     0.003 A 
ENDROOT
TORSDOF 0
ENDMDL
