MODEL 1
REMARK minimizedAffinity -4.77223635
REMARK minimizedRMSD -1
REMARK  0 active torsions:
REMARK  status: ('A' for Active; 'I' for Inactive)
ROOT
ATOM      1  C2' OXE d   1       0.034  -0.826   2.181  0.00  0.00     0.078 C 
ATOM      2  C1' OXE d   1       0.852  -0.580  -0.493  0.00  0.00     0.078 C 
ATOM      3  C1  OXE d   1      -0.077   0.472   0.058  0.00  0.00    -0.078 A 
ATOM      4  C2  OXE d   1      -0.510   0.319   1.353  0.00  0.00    -0.078 A 
ATOM      5  C3  OXE d   1      -1.324   1.290   1.928  0.00  0.00     0.003 A 
ATOM      6  C4  OXE d   1      -1.831   2.340   1.152  0.00  0.00    -0.002 A 
ATOM      7  C5  OXE d   1      -1.435   2.493  -0.181  0.00  0.00    -0.002 A 
ATOM      8  C6  OXE d   1      -0.527   1.594  -0.729  0.00  0.00     0.003 A 
ENDROOT
TORSDOF 0
ENDMDL
