MODEL 1
REMARK minimizedAffinity -1.9546243
REMARK minimizedRMSD -1
REMARK  0 active torsions:
REMARK  status: ('A' for Active; 'I' for Inactive)
ROOT
ATOM      1  C2' OXE d   1       0.668  -0.864  -0.685  0.00  0.00     0.078 C 
ATOM      2  C1' OXE d   1       0.782  -1.042   2.114  0.00  0.00     0.078 C 
ATOM      3  C1  OXE d   1      -0.142  -0.013   1.512  0.00  0.00    -0.078 A 
ATOM      4  C2  OXE d   1      -0.157   0.099   0.142  0.00  0.00    -0.078 A 
ATOM      5  C3  OXE d   1      -1.031   0.994  -0.467  0.00  0.00     0.003 A 
ATOM      6  C4  OXE d   1      -1.784   1.887   0.305  0.00  0.00    -0.002 A 
ATOM      7  C5  OXE d   1      -1.754   1.817   1.702  0.00  0.00    -0.002 A 
ATOM      8  C6  OXE d   1      -0.972   0.846   2.319  0.00  0.00     0.003 A 
ENDROOT
TORSDOF 0
ENDMDL
