MODEL 1
REMARK minimizedAffinity -1.21044075
REMARK minimizedRMSD -1
REMARK  0 active torsions:
REMARK  status: ('A' for Active; 'I' for Inactive)
ROOT
ATOM      1  C2' OXE d   1       1.038  -0.819  -0.722  0.00  0.00     0.078 C 
ATOM      2  C1' OXE d   1       0.706   1.911  -1.282  0.00  0.00     0.078 C 
ATOM      3  C1  OXE d   1       0.114   1.379  -0.001  0.00  0.00    -0.078 A 
ATOM      4  C2  OXE d   1       0.241   0.032   0.242  0.00  0.00    -0.078 A 
ATOM      5  C3  OXE d   1      -0.239  -0.501   1.435  0.00  0.00     0.003 A 
ATOM      6  C4  OXE d   1      -0.984   0.292   2.317  0.00  0.00    -0.002 A 
ATOM      7  C5  OXE d   1      -1.160   1.657   2.068  0.00  0.00    -0.002 A 
ATOM      8  C6  OXE d   1      -0.582   2.224   0.938  0.00  0.00     0.003 A 
ENDROOT
TORSDOF 0
ENDMDL
