MODEL 1
REMARK minimizedAffinity -3.36280394
REMARK minimizedRMSD -1
REMARK  0 active torsions:
REMARK  status: ('A' for Active; 'I' for Inactive)
ROOT
ATOM      1  C2' OXE d   1      -0.368  -0.573   1.047  0.00  0.00     0.078 C 
ATOM      2  C1' OXE d   1      -1.407   1.902   1.871  0.00  0.00     0.078 C 
ATOM      3  C1  OXE d   1      -0.721   1.838   0.529  0.00  0.00    -0.078 A 
ATOM      4  C2  OXE d   1      -0.175   0.634   0.154  0.00  0.00    -0.078 A 
ATOM      5  C3  OXE d   1       0.421   0.507  -1.097  0.00  0.00     0.003 A 
ATOM      6  C4  OXE d   1       0.605   1.631  -1.912  0.00  0.00    -0.002 A 
ATOM      7  C5  OXE d   1       0.091   2.875  -1.532  0.00  0.00    -0.002 A 
ATOM      8  C6  OXE d   1      -0.610   2.987  -0.336  0.00  0.00     0.003 A 
ENDROOT
TORSDOF 0
ENDMDL
