MODEL 1
REMARK minimizedAffinity -4.06292677
REMARK minimizedRMSD -1
REMARK  0 active torsions:
REMARK  status: ('A' for Active; 'I' for Inactive)
ROOT
ATOM      1  C2' OXE d   1      -0.071  -1.855   1.927  0.00  0.00     0.078 C 
ATOM      2  C1' OXE d   1      -0.256  -1.697  -0.869  0.00  0.00     0.078 C 
ATOM      3  C1  OXE d   1      -0.732  -0.513  -0.065  0.00  0.00    -0.078 A 
ATOM      4  C2  OXE d   1      -0.681  -0.618   1.304  0.00  0.00    -0.078 A 
ATOM      5  C3  OXE d   1      -1.057   0.466   2.092  0.00  0.00     0.003 A 
ATOM      6  C4  OXE d   1      -1.630   1.603   1.508  0.00  0.00    -0.002 A 
ATOM      7  C5  OXE d   1      -1.727   1.713   0.117  0.00  0.00    -0.002 A 
ATOM      8  C6  OXE d   1      -1.245   0.684  -0.684  0.00  0.00     0.003 A 
ENDROOT
TORSDOF 0
ENDMDL
