MODEL 1
REMARK minimizedAffinity -2.16050243
REMARK minimizedRMSD -1
REMARK  1 active torsions:
REMARK  status: ('A' for Active; 'I' for Inactive)
REMARK    1  A    between atoms: N_2  and  C1_3 
ROOT
ATOM      1  C1  UNL d   1       0.019  -0.749  -1.027  0.00  0.00     0.143 A 
ATOM      2  C2  UNL d   1      -0.163   0.566  -0.584  0.00  0.00    -0.057 A 
ATOM      3  C3  UNL d   1      -0.670   0.838   0.692  0.00  0.00     0.033 A 
ATOM      4  C4  UNL d   1      -1.033  -0.203   1.540  0.00  0.00    -0.042 A 
ATOM      5  C5  UNL d   1      -0.884  -1.518   1.111  0.00  0.00     0.033 A 
ATOM      6  C6  UNL d   1      -0.370  -1.783  -0.162  0.00  0.00    -0.057 A 
ENDROOT
BRANCH   1   7
ATOM      7  N   UNL d   1       0.427  -1.084  -2.321  0.00  0.00    -0.732 N 
ATOM      8  C   UNL d   1       0.125  -2.387  -2.874  0.00  0.00     0.284 C 
ATOM      9  H3  UNL d   1       0.307  -0.316  -2.977  0.00  0.00     0.395 HD
ENDBRANCH   1   7
TORSDOF 1
ENDMDL
