MODEL 1
REMARK minimizedAffinity -3.71667099
REMARK minimizedRMSD -1
REMARK  1 active torsions:
REMARK  status: ('A' for Active; 'I' for Inactive)
REMARK    1  A    between atoms: N_2  and  C1_3 
ROOT
ATOM      1  C1  UNL d   1       0.125   1.262  -0.058  0.00  0.00     0.143 A 
ATOM      2  C2  UNL d   1       0.668   0.185  -0.768  0.00  0.00    -0.057 A 
ATOM      3  C3  UNL d   1       0.405  -1.138  -0.393  0.00  0.00     0.033 A 
ATOM      4  C4  UNL d   1      -0.385  -1.408   0.719  0.00  0.00    -0.042 A 
ATOM      5  C5  UNL d   1      -0.914  -0.353   1.455  0.00  0.00     0.033 A 
ATOM      6  C6  UNL d   1      -0.653   0.966   1.072  0.00  0.00    -0.057 A 
ENDROOT
BRANCH   1   7
ATOM      7  N   UNL d   1       0.430   2.600  -0.321  0.00  0.00    -0.732 N 
ATOM      8  C   UNL d   1       1.772   3.103  -0.123  0.00  0.00     0.284 C 
ATOM      9  H3  UNL d   1      -0.022   2.942  -1.167  0.00  0.00     0.395 HD
ENDBRANCH   1   7
TORSDOF 1
ENDMDL
