MODEL 1
REMARK minimizedAffinity -3.80151272
REMARK minimizedRMSD -1
REMARK  1 active torsions:
REMARK  status: ('A' for Active; 'I' for Inactive)
REMARK    1  A    between atoms: N_2  and  C1_3 
ROOT
ATOM      1  C1  UNL d   1       0.024   0.615   1.061  0.00  0.00     0.143 A 
ATOM      2  C2  UNL d   1      -0.841   0.241   0.026  0.00  0.00    -0.057 A 
ATOM      3  C3  UNL d   1      -1.547  -0.967   0.071  0.00  0.00     0.033 A 
ATOM      4  C4  UNL d   1      -1.378  -1.839   1.142  0.00  0.00    -0.042 A 
ATOM      5  C5  UNL d   1      -0.506  -1.499   2.170  0.00  0.00     0.033 A 
ATOM      6  C6  UNL d   1       0.192  -0.288   2.122  0.00  0.00    -0.057 A 
ENDROOT
BRANCH   1   7
ATOM      7  N   UNL d   1       0.829   1.756   1.027  0.00  0.00    -0.732 N 
ATOM      8  C   UNL d   1       0.435   2.913   0.252  0.00  0.00     0.284 C 
ATOM      9  H3  UNL d   1       1.223   1.981   1.938  0.00  0.00     0.395 HD
ENDBRANCH   1   7
TORSDOF 1
ENDMDL
