MODEL 1
REMARK minimizedAffinity -2.88198662
REMARK minimizedRMSD -1
REMARK  1 active torsions:
REMARK  status: ('A' for Active; 'I' for Inactive)
REMARK    1  A    between atoms: N_2  and  C1_3 
ROOT
ATOM      1  C1  UNL d   1      -0.202  -1.145  -1.248  0.00  0.00     0.143 A 
ATOM      2  C2  UNL d   1      -0.058   0.244  -1.164  0.00  0.00    -0.057 A 
ATOM      3  C3  UNL d   1      -0.299   0.928   0.033  0.00  0.00     0.033 A 
ATOM      4  C4  UNL d   1      -0.718   0.236   1.165  0.00  0.00    -0.042 A 
ATOM      5  C5  UNL d   1      -0.892  -1.142   1.098  0.00  0.00     0.033 A 
ATOM      6  C6  UNL d   1      -0.643  -1.820  -0.099  0.00  0.00    -0.057 A 
ENDROOT
BRANCH   1   7
ATOM      7  N   UNL d   1      -0.072  -1.871  -2.434  0.00  0.00    -0.732 N 
ATOM      8  C   UNL d   1      -0.553  -3.233  -2.522  0.00  0.00     0.284 C 
ATOM      9  H3  UNL d   1      -0.270  -1.307  -3.258  0.00  0.00     0.395 HD
ENDBRANCH   1   7
TORSDOF 1
ENDMDL
