MODEL 1
REMARK minimizedAffinity -3.71323657
REMARK minimizedRMSD -1
REMARK  1 active torsions:
REMARK  status: ('A' for Active; 'I' for Inactive)
REMARK    1  A    between atoms: N_2  and  C1_3 
ROOT
ATOM      1  C1  UNL d   1      -0.269  -0.765  -0.053  0.00  0.00     0.143 A 
ATOM      2  C2  UNL d   1      -0.775  -1.901   0.588  0.00  0.00    -0.057 A 
ATOM      3  C3  UNL d   1      -0.884  -3.126  -0.082  0.00  0.00     0.033 A 
ATOM      4  C4  UNL d   1      -0.515  -3.229  -1.419  0.00  0.00    -0.042 A 
ATOM      5  C5  UNL d   1      -0.033  -2.107  -2.084  0.00  0.00     0.033 A 
ATOM      6  C6  UNL d   1       0.080  -0.889  -1.407  0.00  0.00    -0.057 A 
ENDROOT
BRANCH   1   7
ATOM      7  N   UNL d   1      -0.228   0.504   0.529  0.00  0.00    -0.732 N 
ATOM      8  C   UNL d   1       0.194   1.655  -0.240  0.00  0.00     0.284 C 
ATOM      9  H3  UNL d   1      -1.026   0.679   1.136  0.00  0.00     0.395 HD
ENDBRANCH   1   7
TORSDOF 1
ENDMDL
