MODEL 1
REMARK minimizedAffinity -3.04316306
REMARK minimizedRMSD -1
REMARK  1 active torsions:
REMARK  status: ('A' for Active; 'I' for Inactive)
REMARK    1  A    between atoms: N_2  and  C1_3 
ROOT
ATOM      1  C1  UNL d   1      -0.109  -1.375  -1.195  0.00  0.00     0.143 A 
ATOM      2  C2  UNL d   1       0.121  -0.079  -0.721  0.00  0.00    -0.057 A 
ATOM      3  C3  UNL d   1      -0.218   0.286   0.588  0.00  0.00     0.033 A 
ATOM      4  C4  UNL d   1      -0.822  -0.634   1.439  0.00  0.00    -0.042 A 
ATOM      5  C5  UNL d   1      -1.082  -1.921   0.980  0.00  0.00     0.033 A 
ATOM      6  C6  UNL d   1      -0.735  -2.281  -0.325  0.00  0.00    -0.057 A 
ENDROOT
BRANCH   1   7
ATOM      7  N   UNL d   1       0.116  -1.770  -2.516  0.00  0.00    -0.732 N 
ATOM      8  C   UNL d   1      -0.474  -2.987  -3.031  0.00  0.00     0.284 C 
ATOM      9  H3  UNL d   1       0.088  -0.988  -3.166  0.00  0.00     0.395 HD
ENDBRANCH   1   7
TORSDOF 1
ENDMDL
