MODEL 1
REMARK minimizedAffinity -0.246078521
REMARK minimizedRMSD -1
REMARK  1 active torsions:
REMARK  status: ('A' for Active; 'I' for Inactive)
REMARK    1  A    between atoms: N_2  and  C1_3 
ROOT
ATOM      1  C1  UNL d   1       0.340   1.605   0.131  0.00  0.00     0.143 A 
ATOM      2  C2  UNL d   1      -0.086   2.700   0.891  0.00  0.00    -0.057 A 
ATOM      3  C3  UNL d   1       0.798   3.728   1.242  0.00  0.00     0.033 A 
ATOM      4  C4  UNL d   1       2.134   3.665   0.860  0.00  0.00    -0.042 A 
ATOM      5  C5  UNL d   1       2.585   2.574   0.125  0.00  0.00     0.033 A 
ATOM      6  C6  UNL d   1       1.696   1.554  -0.227  0.00  0.00    -0.057 A 
ENDROOT
BRANCH   1   7
ATOM      7  N   UNL d   1      -0.467   0.504  -0.165  0.00  0.00    -0.732 N 
ATOM      8  C   UNL d   1       0.084  -0.654  -0.837  0.00  0.00     0.284 C 
ATOM      9  H3  UNL d   1      -1.110   0.279   0.590  0.00  0.00     0.395 HD
ENDBRANCH   1   7
TORSDOF 1
ENDMDL
