MODEL 1
REMARK minimizedAffinity -2.09794688
REMARK minimizedRMSD -1
REMARK  1 active torsions:
REMARK  status: ('A' for Active; 'I' for Inactive)
REMARK    1  A    between atoms: N_2  and  C1_3 
ROOT
ATOM      1  C1  UNL d   1      -0.318   0.200   0.010  0.00  0.00     0.143 A 
ATOM      2  C2  UNL d   1      -0.842  -0.431   1.143  0.00  0.00    -0.057 A 
ATOM      3  C3  UNL d   1      -1.012  -1.820   1.188  0.00  0.00     0.033 A 
ATOM      4  C4  UNL d   1      -0.686  -2.602   0.085  0.00  0.00    -0.042 A 
ATOM      5  C5  UNL d   1      -0.187  -1.994  -1.061  0.00  0.00     0.033 A 
ATOM      6  C6  UNL d   1      -0.013  -0.607  -1.097  0.00  0.00    -0.057 A 
ENDROOT
BRANCH   1   7
ATOM      7  N   UNL d   1      -0.217   1.586  -0.132  0.00  0.00    -0.732 N 
ATOM      8  C   UNL d   1       1.009   2.275   0.209  0.00  0.00     0.284 C 
ATOM      9  H3  UNL d   1      -0.659   1.922  -0.985  0.00  0.00     0.395 HD
ENDBRANCH   1   7
TORSDOF 1
ENDMDL
