MODEL 1
REMARK minimizedAffinity -3.4405477
REMARK minimizedRMSD -1
REMARK  1 active torsions:
REMARK  status: ('A' for Active; 'I' for Inactive)
REMARK    1  A    between atoms: N_2  and  C1_3 
ROOT
ATOM      1  C1  UNL d   1      -0.239  -1.285  -1.404  0.00  0.00     0.143 A 
ATOM      2  C2  UNL d   1      -0.129   0.019  -0.910  0.00  0.00    -0.057 A 
ATOM      3  C3  UNL d   1      -0.464   0.325   0.415  0.00  0.00     0.033 A 
ATOM      4  C4  UNL d   1      -0.944  -0.668   1.263  0.00  0.00    -0.042 A 
ATOM      5  C5  UNL d   1      -1.085  -1.966   0.786  0.00  0.00     0.033 A 
ATOM      6  C6  UNL d   1      -0.743  -2.266  -0.536  0.00  0.00    -0.057 A 
ENDROOT
BRANCH   1   7
ATOM      7  N   UNL d   1      -0.016  -1.632  -2.739  0.00  0.00    -0.732 N 
ATOM      8  C   UNL d   1      -0.098  -3.013  -3.165  0.00  0.00     0.284 C 
ATOM      9  H3  UNL d   1      -0.436  -0.971  -3.388  0.00  0.00     0.395 HD
ENDBRANCH   1   7
TORSDOF 1
ENDMDL
