MODEL 1
REMARK minimizedAffinity -1.5352
REMARK minimizedRMSD -1
REMARK  1 active torsions:
REMARK  status: ('A' for Active; 'I' for Inactive)
REMARK    1  A    between atoms: N_2  and  C1_3 
ROOT
ATOM      1  C1  UNL d   1      -0.373  -1.357  -1.189  0.00  0.00     0.143 A 
ATOM      2  C2  UNL d   1      -0.255  -0.044  -0.720  0.00  0.00    -0.057 A 
ATOM      3  C3  UNL d   1      -0.610   0.293   0.592  0.00  0.00     0.033 A 
ATOM      4  C4  UNL d   1      -1.118  -0.676   1.451  0.00  0.00    -0.042 A 
ATOM      5  C5  UNL d   1      -1.267  -1.982   0.999  0.00  0.00     0.033 A 
ATOM      6  C6  UNL d   1      -0.905  -2.313  -0.310  0.00  0.00    -0.057 A 
ENDROOT
BRANCH   1   7
ATOM      7  N   UNL d   1      -0.130  -1.735  -2.512  0.00  0.00    -0.732 N 
ATOM      8  C   UNL d   1      -0.624  -2.996  -3.021  0.00  0.00     0.284 C 
ATOM      9  H3  UNL d   1      -0.225  -0.958  -3.162  0.00  0.00     0.395 HD
ENDBRANCH   1   7
TORSDOF 1
ENDMDL
