MODEL 1
REMARK minimizedAffinity -3.14869523
REMARK minimizedRMSD -1
REMARK  1 active torsions:
REMARK  status: ('A' for Active; 'I' for Inactive)
REMARK    1  A    between atoms: N_2  and  C1_3 
ROOT
ATOM      1  C1  UNL d   1      -0.417  -2.229  -0.884  0.00  0.00     0.143 A 
ATOM      2  C2  UNL d   1      -0.578  -2.727   0.413  0.00  0.00    -0.057 A 
ATOM      3  C3  UNL d   1      -0.589  -1.874   1.523  0.00  0.00     0.033 A 
ATOM      4  C4  UNL d   1      -0.409  -0.504   1.357  0.00  0.00    -0.042 A 
ATOM      5  C5  UNL d   1      -0.222   0.011   0.079  0.00  0.00     0.033 A 
ATOM      6  C6  UNL d   1      -0.219  -0.846  -1.026  0.00  0.00    -0.057 A 
ENDROOT
BRANCH   1   7
ATOM      7  N   UNL d   1      -0.299  -3.035  -2.018  0.00  0.00    -0.732 N 
ATOM      8  C   UNL d   1       0.085  -2.465  -3.292  0.00  0.00     0.284 C 
ATOM      9  H3  UNL d   1       0.141  -3.930  -1.814  0.00  0.00     0.395 HD
ENDBRANCH   1   7
TORSDOF 1
ENDMDL
