MODEL 1
REMARK minimizedAffinity -3.93423986
REMARK minimizedRMSD -1
REMARK  1 active torsions:
REMARK  status: ('A' for Active; 'I' for Inactive)
REMARK    1  A    between atoms: N_2  and  C1_3 
ROOT
ATOM      1  C1  UNL d   1      -0.480  -1.195  -0.870  0.00  0.00     0.143 A 
ATOM      2  C2  UNL d   1      -0.357   0.141  -0.472  0.00  0.00    -0.057 A 
ATOM      3  C3  UNL d   1      -0.578   0.526   0.856  0.00  0.00     0.033 A 
ATOM      4  C4  UNL d   1      -0.956  -0.416   1.806  0.00  0.00    -0.042 A 
ATOM      5  C5  UNL d   1      -1.108  -1.745   1.428  0.00  0.00     0.033 A 
ATOM      6  C6  UNL d   1      -0.879  -2.125   0.102  0.00  0.00    -0.057 A 
ENDROOT
BRANCH   1   7
ATOM      7  N   UNL d   1      -0.369  -1.625  -2.194  0.00  0.00    -0.732 N 
ATOM      8  C   UNL d   1      -0.892  -2.913  -2.597  0.00  0.00     0.284 C 
ATOM      9  H3  UNL d   1      -0.547  -0.878  -2.862  0.00  0.00     0.395 HD
ENDBRANCH   1   7
TORSDOF 1
ENDMDL
