MODEL 1
REMARK minimizedAffinity -1.92813087
REMARK minimizedRMSD -1
REMARK  0 active torsions:
REMARK  status: ('A' for Active; 'I' for Inactive)
ROOT
ATOM      1  C   UNL d   1       0.100   1.389  -1.041  0.00  0.00     0.023 A 
ATOM      2  C1  UNL d   1       0.362   0.322  -1.900  0.00  0.00     0.003 A 
ATOM      3  C2  UNL d   1       0.077  -0.985  -1.499  0.00  0.00     0.048 A 
ATOM      4  C3  UNL d   1      -0.470  -1.217  -0.238  0.00  0.00     0.023 A 
ATOM      5  C4  UNL d   1      -0.735  -0.152   0.625  0.00  0.00     0.048 A 
ATOM      6  C5  UNL d   1      -0.448   1.153   0.220  0.00  0.00     0.003 A 
ATOM      7  I   UNL d   1      -0.895  -3.161   0.362  0.00  0.00    -0.146 I 
ENDROOT
TORSDOF 0
ENDMDL
