MODEL 1
REMARK minimizedAffinity -4.32882643
REMARK minimizedRMSD -1
REMARK  0 active torsions:
REMARK  status: ('A' for Active; 'I' for Inactive)
ROOT
ATOM      1  C   UNL d   1       0.010  -3.431   0.676  0.00  0.00     0.023 A 
ATOM      2  C1  UNL d   1       1.167  -2.844   0.164  0.00  0.00     0.003 A 
ATOM      3  C2  UNL d   1       1.176  -1.487  -0.164  0.00  0.00     0.048 A 
ATOM      4  C3  UNL d   1       0.025  -0.722   0.023  0.00  0.00     0.023 A 
ATOM      5  C4  UNL d   1      -1.135  -1.306   0.536  0.00  0.00     0.048 A 
ATOM      6  C5  UNL d   1      -1.139  -2.663   0.862  0.00  0.00     0.003 A 
ATOM      7  I   UNL d   1       0.036   1.298  -0.465  0.00  0.00    -0.146 I 
ENDROOT
TORSDOF 0
ENDMDL
