MODEL 1
REMARK minimizedAffinity -0.994371295
REMARK minimizedRMSD -1
REMARK  0 active torsions:
REMARK  status: ('A' for Active; 'I' for Inactive)
ROOT
ATOM      1  C   UNL d   1      -0.754  -1.013  -0.290  0.00  0.00     0.023 A 
ATOM      2  C1  UNL d   1       0.061  -0.461  -1.278  0.00  0.00     0.003 A 
ATOM      3  C2  UNL d   1       0.641   0.795  -1.086  0.00  0.00     0.048 A 
ATOM      4  C3  UNL d   1       0.401   1.493   0.097  0.00  0.00     0.023 A 
ATOM      5  C4  UNL d   1      -0.414   0.945   1.089  0.00  0.00     0.048 A 
ATOM      6  C5  UNL d   1      -0.992  -0.310   0.892  0.00  0.00     0.003 A 
ATOM      7  I   UNL d   1       1.262   3.363   0.385  0.00  0.00    -0.146 I 
ENDROOT
TORSDOF 0
ENDMDL
