MODEL 1
REMARK minimizedAffinity -4.22610474
REMARK minimizedRMSD -1
REMARK  0 active torsions:
REMARK  status: ('A' for Active; 'I' for Inactive)
ROOT
ATOM      1  C   UNL d   1      -0.550  -3.200  -0.464  0.00  0.00     0.023 A 
ATOM      2  C1  UNL d   1       0.520  -2.626  -1.150  0.00  0.00     0.003 A 
ATOM      3  C2  UNL d   1       0.769  -1.256  -1.039  0.00  0.00     0.048 A 
ATOM      4  C3  UNL d   1      -0.056  -0.467  -0.239  0.00  0.00     0.023 A 
ATOM      5  C4  UNL d   1      -1.127  -1.037   0.451  0.00  0.00     0.048 A 
ATOM      6  C5  UNL d   1      -1.372  -2.406   0.336  0.00  0.00     0.003 A 
ATOM      7  I   UNL d   1       0.312   1.572  -0.072  0.00  0.00    -0.146 I 
ENDROOT
TORSDOF 0
ENDMDL
