MODEL 1
REMARK minimizedAffinity -3.45407128
REMARK minimizedRMSD -1
REMARK  0 active torsions:
REMARK  status: ('A' for Active; 'I' for Inactive)
ROOT
ATOM      1  C   UNL d   1       0.263  -1.179  -2.004  0.00  0.00     0.023 A 
ATOM      2  C1  UNL d   1      -0.406   0.044  -1.960  0.00  0.00     0.003 A 
ATOM      3  C2  UNL d   1      -1.057   0.443  -0.791  0.00  0.00     0.048 A 
ATOM      4  C3  UNL d   1      -1.034  -0.385   0.331  0.00  0.00     0.023 A 
ATOM      5  C4  UNL d   1      -0.366  -1.610   0.291  0.00  0.00     0.048 A 
ATOM      6  C5  UNL d   1       0.283  -2.005  -0.880  0.00  0.00     0.003 A 
ATOM      7  I   UNL d   1      -2.003   0.207   2.072  0.00  0.00    -0.146 I 
ENDROOT
TORSDOF 0
ENDMDL
