MODEL 1
REMARK minimizedAffinity -4.05203342
REMARK minimizedRMSD -1
REMARK  0 active torsions:
REMARK  status: ('A' for Active; 'I' for Inactive)
ROOT
ATOM      1  C   UNL d   1      -0.432  -2.825   0.259  0.00  0.00     0.023 A 
ATOM      2  C1  UNL d   1       0.589  -2.367  -0.574  0.00  0.00     0.003 A 
ATOM      3  C2  UNL d   1       0.878  -1.003  -0.642  0.00  0.00     0.048 A 
ATOM      4  C3  UNL d   1       0.143  -0.101   0.127  0.00  0.00     0.023 A 
ATOM      5  C4  UNL d   1      -0.879  -0.554   0.963  0.00  0.00     0.048 A 
ATOM      6  C5  UNL d   1      -1.165  -1.919   1.027  0.00  0.00     0.003 A 
ATOM      7  I   UNL d   1       0.572   1.930   0.028  0.00  0.00    -0.146 I 
ENDROOT
TORSDOF 0
ENDMDL
