MODEL 1
REMARK minimizedAffinity -4.46025705
REMARK minimizedRMSD -1
REMARK  0 active torsions:
REMARK  status: ('A' for Active; 'I' for Inactive)
ROOT
ATOM      1  C   UNL d   1      -0.648  -2.392   0.721  0.00  0.00     0.023 A 
ATOM      2  C1  UNL d   1       0.265  -2.130  -0.300  0.00  0.00     0.003 A 
ATOM      3  C2  UNL d   1       0.786  -0.844  -0.459  0.00  0.00     0.048 A 
ATOM      4  C3  UNL d   1       0.390   0.174   0.408  0.00  0.00     0.023 A 
ATOM      5  C4  UNL d   1      -0.522  -0.084   1.432  0.00  0.00     0.048 A 
ATOM      6  C5  UNL d   1      -1.041  -1.371   1.586  0.00  0.00     0.003 A 
ATOM      7  I   UNL d   1       1.164   2.089   0.174  0.00  0.00    -0.146 I 
ENDROOT
TORSDOF 0
ENDMDL
