MODEL 1
REMARK minimizedAffinity -3.55430365
REMARK minimizedRMSD -1
REMARK  0 active torsions:
REMARK  status: ('A' for Active; 'I' for Inactive)
ROOT
ATOM      1  C   UNL d   1      -0.002  -3.106   0.382  0.00  0.00     0.023 A 
ATOM      2  C1  UNL d   1      -0.434  -2.437   1.527  0.00  0.00     0.003 A 
ATOM      3  C2  UNL d   1      -0.435  -1.041   1.563  0.00  0.00     0.048 A 
ATOM      4  C3  UNL d   1      -0.003  -0.321   0.450  0.00  0.00     0.023 A 
ATOM      5  C4  UNL d   1       0.430  -0.986  -0.698  0.00  0.00     0.048 A 
ATOM      6  C5  UNL d   1       0.430  -2.382  -0.729  0.00  0.00     0.003 A 
ATOM      7  I   UNL d   1      -0.003   1.757   0.501  0.00  0.00    -0.146 I 
ENDROOT
TORSDOF 0
ENDMDL
