MODEL 1
REMARK minimizedAffinity -2.42498922
REMARK minimizedRMSD -1
REMARK  0 active torsions:
REMARK  status: ('A' for Active; 'I' for Inactive)
ROOT
ATOM      1  C   UNL d   1      -0.760  -1.958   0.164  0.00  0.00     0.023 A 
ATOM      2  C1  UNL d   1      -0.049  -1.393  -0.895  0.00  0.00     0.003 A 
ATOM      3  C2  UNL d   1       0.456  -0.096  -0.785  0.00  0.00     0.048 A 
ATOM      4  C3  UNL d   1       0.245   0.631   0.386  0.00  0.00     0.023 A 
ATOM      5  C4  UNL d   1      -0.465   0.070   1.448  0.00  0.00     0.048 A 
ATOM      6  C5  UNL d   1      -0.968  -1.227   1.334  0.00  0.00     0.003 A 
ATOM      7  I   UNL d   1       0.995   2.563   0.552  0.00  0.00    -0.146 I 
ENDROOT
TORSDOF 0
ENDMDL
