MODEL 1
REMARK minimizedAffinity -2.55005574
REMARK minimizedRMSD -1
REMARK  0 active torsions:
REMARK  status: ('A' for Active; 'I' for Inactive)
ROOT
ATOM      1  C   UNL d   1      -0.594  -2.852   0.362  0.00  0.00     0.023 A 
ATOM      2  C1  UNL d   1      -1.478  -1.900   0.869  0.00  0.00     0.003 A 
ATOM      3  C2  UNL d   1      -1.193  -0.540   0.738  0.00  0.00     0.048 A 
ATOM      4  C3  UNL d   1      -0.022  -0.137   0.096  0.00  0.00     0.023 A 
ATOM      5  C4  UNL d   1       0.865  -1.086  -0.415  0.00  0.00     0.048 A 
ATOM      6  C5  UNL d   1       0.576  -2.445  -0.280  0.00  0.00     0.003 A 
ATOM      7  I   UNL d   1       0.404   1.887  -0.102  0.00  0.00    -0.146 I 
ENDROOT
TORSDOF 0
ENDMDL
