MODEL 1
REMARK minimizedAffinity -3.58129287
REMARK minimizedRMSD -1
REMARK  0 active torsions:
REMARK  status: ('A' for Active; 'I' for Inactive)
ROOT
ATOM      1  C   UNL d   1      -0.466  -3.100   0.573  0.00  0.00     0.023 A 
ATOM      2  C1  UNL d   1       0.627  -2.653  -0.170  0.00  0.00     0.003 A 
ATOM      3  C2  UNL d   1       0.861  -1.285  -0.316  0.00  0.00     0.048 A 
ATOM      4  C3  UNL d   1      -0.001  -0.368   0.284  0.00  0.00     0.023 A 
ATOM      5  C4  UNL d   1      -1.095  -0.810   1.029  0.00  0.00     0.048 A 
ATOM      6  C5  UNL d   1      -1.326  -2.179   1.172  0.00  0.00     0.003 A 
ATOM      7  I   UNL d   1       0.346   1.670   0.068  0.00  0.00    -0.146 I 
ENDROOT
TORSDOF 0
ENDMDL
