MODEL 1
REMARK minimizedAffinity -5.49378252
REMARK minimizedRMSD -1
REMARK  0 active torsions:
REMARK  status: ('A' for Active; 'I' for Inactive)
ROOT
ATOM      1  C   UNL d   1      -0.265  -3.359  -0.345  0.00  0.00     0.023 A 
ATOM      2  C1  UNL d   1       0.275  -2.772  -1.489  0.00  0.00     0.003 A 
ATOM      3  C2  UNL d   1       0.418  -1.385  -1.563  0.00  0.00     0.048 A 
ATOM      4  C3  UNL d   1       0.020  -0.591  -0.489  0.00  0.00     0.023 A 
ATOM      5  C4  UNL d   1      -0.521  -1.174   0.659  0.00  0.00     0.048 A 
ATOM      6  C5  UNL d   1      -0.662  -2.561   0.728  0.00  0.00     0.003 A 
ATOM      7  I   UNL d   1       0.232   1.474  -0.596  0.00  0.00    -0.146 I 
ENDROOT
TORSDOF 0
ENDMDL
