MODEL 1
REMARK minimizedAffinity -2.66166234
REMARK minimizedRMSD -1
REMARK  0 active torsions:
REMARK  status: ('A' for Active; 'I' for Inactive)
ROOT
ATOM      1  C   UNL d   1       0.375  -3.641   0.606  0.00  0.00     0.023 A 
ATOM      2  C1  UNL d   1      -0.806  -2.996   0.237  0.00  0.00     0.003 A 
ATOM      3  C2  UNL d   1      -0.755  -1.805  -0.491  0.00  0.00     0.048 A 
ATOM      4  C3  UNL d   1       0.480  -1.266  -0.849  0.00  0.00     0.023 A 
ATOM      5  C4  UNL d   1       1.665  -1.908  -0.483  0.00  0.00     0.048 A 
ATOM      6  C5  UNL d   1       1.609  -3.098   0.246  0.00  0.00     0.003 A 
ATOM      7  I   UNL d   1       0.559   0.505  -1.933  0.00  0.00    -0.146 I 
ENDROOT
TORSDOF 0
ENDMDL
