MODEL 1
REMARK minimizedAffinity -2.56951523
REMARK minimizedRMSD -1
REMARK  0 active torsions:
REMARK  status: ('A' for Active; 'I' for Inactive)
ROOT
ATOM      1  C   UNL d   1      -0.492  -3.296  -0.393  0.00  0.00     0.023 A 
ATOM      2  C1  UNL d   1      -0.370  -2.670  -1.634  0.00  0.00     0.003 A 
ATOM      3  C2  UNL d   1      -0.284  -1.279  -1.710  0.00  0.00     0.048 A 
ATOM      4  C3  UNL d   1      -0.320  -0.519  -0.541  0.00  0.00     0.023 A 
ATOM      5  C4  UNL d   1      -0.441  -1.141   0.703  0.00  0.00     0.048 A 
ATOM      6  C5  UNL d   1      -0.527  -2.533   0.773  0.00  0.00     0.003 A 
ATOM      7  I   UNL d   1      -0.191   1.552  -0.651  0.00  0.00    -0.146 I 
ENDROOT
TORSDOF 0
ENDMDL
