MODEL 1
REMARK minimizedAffinity 1.72190344
REMARK minimizedRMSD -1
REMARK  0 active torsions:
REMARK  status: ('A' for Active; 'I' for Inactive)
ROOT
ATOM      1  C   UNL d   1       1.716  -1.035   2.214  0.00  0.00     0.172 C 
ATOM      2  N   UNL d   1       1.969   0.121   1.385  0.00  0.00    -0.070 N 
ATOM      3  C1  UNL d   1       3.136   0.385   0.719  0.00  0.00    -0.004 A 
ATOM      4  C2  UNL d   1       2.977   1.576   0.045  0.00  0.00    -0.047 A 
ATOM      5  C3  UNL d   1       1.669   2.044   0.316  0.00  0.00    -0.047 A 
ATOM      6  C4  UNL d   1       1.067   1.124   1.148  0.00  0.00    -0.004 A 
ENDROOT
TORSDOF 0
ENDMDL
