MODEL 1
REMARK minimizedAffinity 4.48549271
REMARK minimizedRMSD -1
REMARK  0 active torsions:
REMARK  status: ('A' for Active; 'I' for Inactive)
ROOT
ATOM      1  C   UNL d   1       2.580   0.606   1.790  0.00  0.00     0.172 C 
ATOM      2  N   UNL d   1       2.178  -0.711   2.223  0.00  0.00    -0.070 N 
ATOM      3  C1  UNL d   1       1.221  -1.489   1.629  0.00  0.00    -0.004 A 
ATOM      4  C2  UNL d   1       1.134  -2.668   2.338  0.00  0.00    -0.047 A 
ATOM      5  C3  UNL d   1       2.071  -2.595   3.396  0.00  0.00    -0.047 A 
ATOM      6  C4  UNL d   1       2.704  -1.373   3.301  0.00  0.00    -0.004 A 
ENDROOT
TORSDOF 0
ENDMDL
