MODEL 1
REMARK minimizedAffinity 0.127650559
REMARK minimizedRMSD -1
REMARK  0 active torsions:
REMARK  status: ('A' for Active; 'I' for Inactive)
ROOT
ATOM      1  C   UNL d   1       0.841  -2.284   0.741  0.00  0.00     0.172 C 
ATOM      2  N   UNL d   1       1.675  -1.911   1.859  0.00  0.00    -0.070 N 
ATOM      3  C1  UNL d   1       2.402  -0.755   1.962  0.00  0.00    -0.004 A 
ATOM      4  C2  UNL d   1       3.059  -0.777   3.174  0.00  0.00    -0.047 A 
ATOM      5  C3  UNL d   1       2.715  -1.987   3.821  0.00  0.00    -0.047 A 
ATOM      6  C4  UNL d   1       1.857  -2.671   2.985  0.00  0.00    -0.004 A 
ENDROOT
TORSDOF 0
ENDMDL
