MODEL 1
REMARK minimizedAffinity -2.7737143
REMARK minimizedRMSD -1
REMARK  0 active torsions:
REMARK  status: ('A' for Active; 'I' for Inactive)
ROOT
ATOM      1  C   UNL d   1       2.291   5.523  -2.219  0.00  0.00     0.172 C 
ATOM      2  N   UNL d   1       3.685   5.261  -2.491  0.00  0.00    -0.070 N 
ATOM      3  C1  UNL d   1       4.737   5.645  -1.704  0.00  0.00    -0.004 A 
ATOM      4  C2  UNL d   1       5.897   5.206  -2.306  0.00  0.00    -0.047 A 
ATOM      5  C3  UNL d   1       5.528   4.536  -3.496  0.00  0.00    -0.047 A 
ATOM      6  C4  UNL d   1       4.153   4.585  -3.586  0.00  0.00    -0.004 A 
ENDROOT
TORSDOF 0
ENDMDL
