MODEL 1
REMARK minimizedAffinity 3.58946586
REMARK minimizedRMSD -1
REMARK  0 active torsions:
REMARK  status: ('A' for Active; 'I' for Inactive)
ROOT
ATOM      1  C   UNL d   1       4.139  -1.417  -3.079  0.00  0.00     0.172 C 
ATOM      2  N   UNL d   1       2.889  -2.057  -2.741  0.00  0.00    -0.070 N 
ATOM      3  C1  UNL d   1       2.753  -3.314  -2.215  0.00  0.00    -0.004 A 
ATOM      4  C2  UNL d   1       1.407  -3.552  -2.036  0.00  0.00    -0.047 A 
ATOM      5  C3  UNL d   1       0.711  -2.399  -2.471  0.00  0.00    -0.047 A 
ATOM      6  C4  UNL d   1       1.653  -1.489  -2.902  0.00  0.00    -0.004 A 
ENDROOT
TORSDOF 0
ENDMDL
