MODEL 1
REMARK minimizedAffinity 1.09498155
REMARK minimizedRMSD -1
REMARK  0 active torsions:
REMARK  status: ('A' for Active; 'I' for Inactive)
ROOT
ATOM      1  C   UNL d   1       1.847  -1.867   2.740  0.00  0.00     0.172 C 
ATOM      2  N   UNL d   1       2.296  -0.523   2.462  0.00  0.00    -0.070 N 
ATOM      3  C1  UNL d   1       2.910  -0.109   1.310  0.00  0.00    -0.004 A 
ATOM      4  C2  UNL d   1       3.178   1.237   1.435  0.00  0.00    -0.047 A 
ATOM      5  C3  UNL d   1       2.710   1.646   2.707  0.00  0.00    -0.047 A 
ATOM      6  C4  UNL d   1       2.168   0.536   3.321  0.00  0.00    -0.004 A 
ENDROOT
TORSDOF 0
ENDMDL
