MODEL 1
REMARK minimizedAffinity 2.26398635
REMARK minimizedRMSD -1
REMARK  0 active torsions:
REMARK  status: ('A' for Active; 'I' for Inactive)
ROOT
ATOM      1  C   UNL d   1       0.068  -1.190   0.446  0.00  0.00     0.172 C 
ATOM      2  N   UNL d   1       0.842  -1.322   1.658  0.00  0.00    -0.070 N 
ATOM      3  C1  UNL d   1       0.899  -2.437   2.451  0.00  0.00    -0.004 A 
ATOM      4  C2  UNL d   1       1.743  -2.161   3.505  0.00  0.00    -0.047 A 
ATOM      5  C3  UNL d   1       2.209  -0.835   3.340  0.00  0.00    -0.047 A 
ATOM      6  C4  UNL d   1       1.635  -0.339   2.188  0.00  0.00    -0.004 A 
ENDROOT
TORSDOF 0
ENDMDL
