MODEL 1
REMARK minimizedAffinity 2.41095591
REMARK minimizedRMSD -1
REMARK  0 active torsions:
REMARK  status: ('A' for Active; 'I' for Inactive)
ROOT
ATOM      1  C   UNL d   1      -2.619   1.764   0.804  0.00  0.00     0.172 C 
ATOM      2  N   UNL d   1      -3.913   2.254   1.215  0.00  0.00    -0.070 N 
ATOM      3  C1  UNL d   1      -4.829   2.868   0.404  0.00  0.00    -0.004 A 
ATOM      4  C2  UNL d   1      -5.930   3.182   1.172  0.00  0.00    -0.047 A 
ATOM      5  C3  UNL d   1      -5.665   2.743   2.491  0.00  0.00    -0.047 A 
ATOM      6  C4  UNL d   1      -4.410   2.172   2.489  0.00  0.00    -0.004 A 
ENDROOT
TORSDOF 0
ENDMDL
