MODEL 1
REMARK minimizedAffinity 5.82108641
REMARK minimizedRMSD -1
REMARK  0 active torsions:
REMARK  status: ('A' for Active; 'I' for Inactive)
ROOT
ATOM      1  C   UNL d   1      -2.075  -0.751  -0.253  0.00  0.00     0.172 C 
ATOM      2  N   UNL d   1      -0.906  -1.503  -0.644  0.00  0.00    -0.070 N 
ATOM      3  C1  UNL d   1       0.157  -1.805   0.166  0.00  0.00    -0.004 A 
ATOM      4  C2  UNL d   1       1.061  -2.532  -0.577  0.00  0.00    -0.047 A 
ATOM      5  C3  UNL d   1       0.524  -2.672  -1.879  0.00  0.00    -0.047 A 
ATOM      6  C4  UNL d   1      -0.694  -2.026  -1.892  0.00  0.00    -0.004 A 
ENDROOT
TORSDOF 0
ENDMDL
