MODEL 1
REMARK minimizedAffinity 0.944201291
REMARK minimizedRMSD -1
REMARK  0 active torsions:
REMARK  status: ('A' for Active; 'I' for Inactive)
ROOT
ATOM      1  C   UNL d   1       0.721  -1.390   0.977  0.00  0.00     0.172 C 
ATOM      2  N   UNL d   1      -0.186  -1.308  -0.144  0.00  0.00    -0.070 N 
ATOM      3  C1  UNL d   1       0.067  -1.762  -1.410  0.00  0.00    -0.004 A 
ATOM      4  C2  UNL d   1      -1.043  -1.499  -2.183  0.00  0.00    -0.047 A 
ATOM      5  C3  UNL d   1      -1.996  -0.862  -1.353  0.00  0.00    -0.047 A 
ATOM      6  C4  UNL d   1      -1.439  -0.757  -0.096  0.00  0.00    -0.004 A 
ENDROOT
TORSDOF 0
ENDMDL
