MODEL 1
REMARK minimizedAffinity 1.72679746
REMARK minimizedRMSD -1
REMARK  0 active torsions:
REMARK  status: ('A' for Active; 'I' for Inactive)
ROOT
ATOM      1  C   UNL d   1       6.000   5.974  -5.250  0.00  0.00     0.172 C 
ATOM      2  N   UNL d   1       5.345   5.933  -3.963  0.00  0.00    -0.070 N 
ATOM      3  C1  UNL d   1       5.971   6.000  -2.747  0.00  0.00    -0.004 A 
ATOM      4  C2  UNL d   1       5.002   5.930  -1.769  0.00  0.00    -0.047 A 
ATOM      5  C3  UNL d   1       3.751   5.817  -2.421  0.00  0.00    -0.047 A 
ATOM      6  C4  UNL d   1       3.993   5.821  -3.778  0.00  0.00    -0.004 A 
ENDROOT
TORSDOF 0
ENDMDL
