MODEL 1
REMARK minimizedAffinity -0.3697806
REMARK minimizedRMSD -1
REMARK  0 active torsions:
REMARK  status: ('A' for Active; 'I' for Inactive)
ROOT
ATOM      1  C   UNL d   1       0.427  -2.119  -2.391  0.00  0.00     0.172 C 
ATOM      2  N   UNL d   1       1.797  -2.507  -2.637  0.00  0.00    -0.070 N 
ATOM      3  C1  UNL d   1       2.907  -1.806  -2.247  0.00  0.00    -0.004 A 
ATOM      4  C2  UNL d   1       4.017  -2.506  -2.669  0.00  0.00    -0.047 A 
ATOM      5  C3  UNL d   1       3.558  -3.666  -3.336  0.00  0.00    -0.047 A 
ATOM      6  C4  UNL d   1       2.180  -3.641  -3.302  0.00  0.00    -0.004 A 
ENDROOT
TORSDOF 0
ENDMDL
