MODEL 1
REMARK minimizedAffinity 4.07160139
REMARK minimizedRMSD -1
REMARK  0 active torsions:
REMARK  status: ('A' for Active; 'I' for Inactive)
ROOT
ATOM      1  N1  IND d   1      -2.582   0.928   2.970  0.00  0.00    -0.196 N 
ATOM      2  C2  IND d   1      -2.608   2.272   3.217  0.00  0.00     0.054 A 
ATOM      3  C3  IND d   1      -1.531   2.873   2.663  0.00  0.00    -0.031 A 
ATOM      4  C4  IND d   1       0.346   1.860   1.222  0.00  0.00     0.051 A 
ATOM      5  C5  IND d   1       0.819   0.667   0.753  0.00  0.00    -0.031 A 
ATOM      6  C6  IND d   1       0.168  -0.524   1.003  0.00  0.00     0.015 A 
ATOM      7  C7  IND d   1      -0.992  -0.565   1.723  0.00  0.00    -0.016 A 
ATOM      8  C8  IND d   1      -1.471   0.644   2.206  0.00  0.00    -0.047 A 
ATOM      9  C9  IND d   1      -0.793   1.851   1.993  0.00  0.00    -0.096 A 
ATOM     10  HN1 IND d   1      -3.162   0.356   3.245  0.00  0.00     0.298 HD
ENDROOT
TORSDOF 0
ENDMDL
