MODEL 1
REMARK minimizedAffinity -2.3943851
REMARK minimizedRMSD -1
REMARK  0 active torsions:
REMARK  status: ('A' for Active; 'I' for Inactive)
ROOT
ATOM      1  N1  IND d   1      -3.261   0.449   2.925  0.00  0.00    -0.196 N 
ATOM      2  C2  IND d   1      -3.486   1.702   3.423  0.00  0.00     0.054 A 
ATOM      3  C3  IND d   1      -2.437   2.511   3.155  0.00  0.00    -0.031 A 
ATOM      4  C4  IND d   1      -0.289   2.016   1.823  0.00  0.00     0.051 A 
ATOM      5  C5  IND d   1       0.384   1.002   1.203  0.00  0.00    -0.031 A 
ATOM      6  C6  IND d   1      -0.135  -0.274   1.121  0.00  0.00     0.015 A 
ATOM      7  C7  IND d   1      -1.357  -0.582   1.649  0.00  0.00    -0.016 A 
ATOM      8  C8  IND d   1      -2.040   0.445   2.285  0.00  0.00    -0.047 A 
ATOM      9  C9  IND d   1      -1.500   1.731   2.409  0.00  0.00    -0.096 A 
ATOM     10  HN1 IND d   1      -3.792  -0.223   2.999  0.00  0.00     0.298 HD
ENDROOT
TORSDOF 0
ENDMDL
