MODEL 1
REMARK minimizedAffinity -1.73743129
REMARK minimizedRMSD -1
REMARK  0 active torsions:
REMARK  status: ('A' for Active; 'I' for Inactive)
ROOT
ATOM      1  N1  IND d   1      -2.941   1.599   3.567  0.00  0.00    -0.196 N 
ATOM      2  C2  IND d   1      -3.678   0.501   3.911  0.00  0.00     0.054 A 
ATOM      3  C3  IND d   1      -3.133  -0.617   3.379  0.00  0.00    -0.031 A 
ATOM      4  C4  IND d   1      -0.978  -0.887   1.998  0.00  0.00     0.051 A 
ATOM      5  C5  IND d   1       0.016  -0.164   1.398  0.00  0.00    -0.031 A 
ATOM      6  C6  IND d   1       0.077   1.211   1.496  0.00  0.00     0.015 A 
ATOM      7  C7  IND d   1      -0.851   1.916   2.209  0.00  0.00    -0.016 A 
ATOM      8  C8  IND d   1      -1.865   1.187   2.812  0.00  0.00    -0.047 A 
ATOM      9  C9  IND d   1      -1.956  -0.205   2.682  0.00  0.00    -0.096 A 
ATOM     10  HN1 IND d   1      -3.119   2.412   3.785  0.00  0.00     0.298 HD
ENDROOT
TORSDOF 0
ENDMDL
