MODEL 1
REMARK minimizedAffinity -3.20400548
REMARK minimizedRMSD -1
REMARK  0 active torsions:
REMARK  status: ('A' for Active; 'I' for Inactive)
ROOT
ATOM      1  N1  IND d   1      -2.891  -0.017   2.810  0.00  0.00    -0.196 N 
ATOM      2  C2  IND d   1      -3.400   1.131   3.349  0.00  0.00     0.054 A 
ATOM      3  C3  IND d   1      -2.563   2.168   3.122  0.00  0.00    -0.031 A 
ATOM      4  C4  IND d   1      -0.354   2.229   1.802  0.00  0.00     0.051 A 
ATOM      5  C5  IND d   1       0.537   1.419   1.155  0.00  0.00    -0.031 A 
ATOM      6  C6  IND d   1       0.325   0.062   1.021  0.00  0.00     0.015 A 
ATOM      7  C7  IND d   1      -0.797  -0.536   1.522  0.00  0.00    -0.016 A 
ATOM      8  C8  IND d   1      -1.700   0.282   2.186  0.00  0.00    -0.047 A 
ATOM      9  C9  IND d   1      -1.470   1.652   2.362  0.00  0.00    -0.096 A 
ATOM     10  HN1 IND d   1      -3.254  -0.795   2.853  0.00  0.00     0.298 HD
ENDROOT
TORSDOF 0
ENDMDL
