MODEL 1
REMARK minimizedAffinity -5.64818954
REMARK minimizedRMSD -1
REMARK  0 active torsions:
REMARK  status: ('A' for Active; 'I' for Inactive)
ROOT
ATOM      1  N1  IND d   1      -2.582   2.583   3.283  0.00  0.00    -0.196 N 
ATOM      2  C2  IND d   1      -3.698   1.806   3.422  0.00  0.00     0.054 A 
ATOM      3  C3  IND d   1      -3.589   0.688   2.670  0.00  0.00    -0.031 A 
ATOM      4  C4  IND d   1      -1.627  -0.119   1.212  0.00  0.00     0.051 A 
ATOM      5  C5  IND d   1      -0.403   0.269   0.743  0.00  0.00    -0.031 A 
ATOM      6  C6  IND d   1       0.170   1.471   1.106  0.00  0.00     0.015 A 
ATOM      7  C7  IND d   1      -0.458   2.329   1.964  0.00  0.00    -0.016 A 
ATOM      8  C8  IND d   1      -1.703   1.941   2.437  0.00  0.00    -0.047 A 
ATOM      9  C9  IND d   1      -2.309   0.742   2.039  0.00  0.00    -0.096 A 
ATOM     10  HN1 IND d   1      -2.450   3.344   3.660  0.00  0.00     0.298 HD
ENDROOT
TORSDOF 0
ENDMDL
