MODEL 1
REMARK minimizedAffinity -3.22940755
REMARK minimizedRMSD -1
REMARK  0 active torsions:
REMARK  status: ('A' for Active; 'I' for Inactive)
ROOT
ATOM      1  N1  IND d   1       1.131   2.055   1.135  0.00  0.00    -0.196 N 
ATOM      2  C2  IND d   1       1.917   1.267   0.341  0.00  0.00     0.054 A 
ATOM      3  C3  IND d   1       1.332   0.064   0.147  0.00  0.00    -0.031 A 
ATOM      4  C4  IND d   1      -0.959  -0.791   0.952  0.00  0.00     0.051 A 
ATOM      5  C5  IND d   1      -2.022  -0.445   1.738  0.00  0.00    -0.031 A 
ATOM      6  C6  IND d   1      -2.092   0.778   2.373  0.00  0.00     0.015 A 
ATOM      7  C7  IND d   1      -1.101   1.709   2.237  0.00  0.00    -0.016 A 
ATOM      8  C8  IND d   1      -0.016   1.358   1.446  0.00  0.00    -0.047 A 
ATOM      9  C9  IND d   1       0.080   0.102   0.833  0.00  0.00    -0.096 A 
ATOM     10  HN1 IND d   1       1.321   2.852   1.397  0.00  0.00     0.298 HD
ENDROOT
TORSDOF 0
ENDMDL
