MODEL 1
REMARK minimizedAffinity -2.59823418
REMARK minimizedRMSD -1
REMARK  0 active torsions:
REMARK  status: ('A' for Active; 'I' for Inactive)
ROOT
ATOM      1  N1  IND d   1      -2.592   1.702   1.806  0.00  0.00    -0.196 N 
ATOM      2  C2  IND d   1      -2.040   2.930   2.044  0.00  0.00     0.054 A 
ATOM      3  C3  IND d   1      -0.691   2.856   1.992  0.00  0.00    -0.031 A 
ATOM      4  C4  IND d   1       0.817   0.846   1.431  0.00  0.00     0.051 A 
ATOM      5  C5  IND d   1       0.773  -0.496   1.179  0.00  0.00    -0.031 A 
ATOM      6  C6  IND d   1      -0.419  -1.188   1.118  0.00  0.00     0.015 A 
ATOM      7  C7  IND d   1      -1.618  -0.558   1.298  0.00  0.00    -0.016 A 
ATOM      8  C8  IND d   1      -1.577   0.804   1.562  0.00  0.00    -0.047 A 
ATOM      9  C9  IND d   1      -0.368   1.503   1.666  0.00  0.00    -0.096 A 
ATOM     10  HN1 IND d   1      -3.433   1.521   1.809  0.00  0.00     0.298 HD
ENDROOT
TORSDOF 0
ENDMDL
