MODEL 1
REMARK minimizedAffinity 3.26682496
REMARK minimizedRMSD -1
REMARK  0 active torsions:
REMARK  status: ('A' for Active; 'I' for Inactive)
ROOT
ATOM      1  N1  IND d   1      -0.668  -0.830   1.883  0.00  0.00    -0.196 N 
ATOM      2  C2  IND d   1       0.428  -0.285   1.274  0.00  0.00     0.054 A 
ATOM      3  C3  IND d   1       0.352   1.065   1.287  0.00  0.00    -0.031 A 
ATOM      4  C4  IND d   1      -1.431   2.592   2.344  0.00  0.00     0.051 A 
ATOM      5  C5  IND d   1      -2.641   2.556   2.980  0.00  0.00    -0.031 A 
ATOM      6  C6  IND d   1      -3.266   1.365   3.290  0.00  0.00     0.015 A 
ATOM      7  C7  IND d   1      -2.697   0.161   2.986  0.00  0.00    -0.016 A 
ATOM      8  C8  IND d   1      -1.472   0.194   2.335  0.00  0.00    -0.047 A 
ATOM      9  C9  IND d   1      -0.853   1.399   1.979  0.00  0.00    -0.096 A 
ATOM     10  HN1 IND d   1      -0.829  -1.670   1.969  0.00  0.00     0.298 HD
ENDROOT
TORSDOF 0
ENDMDL
