MODEL 1
REMARK minimizedAffinity 6.52985191
REMARK minimizedRMSD -1
REMARK  0 active torsions:
REMARK  status: ('A' for Active; 'I' for Inactive)
ROOT
ATOM      1  N1  IND d   1      -3.567   0.770  -0.850  0.00  0.00    -0.196 N 
ATOM      2  C2  IND d   1      -4.356  -0.340  -0.730  0.00  0.00     0.054 A 
ATOM      3  C3  IND d   1      -3.797  -1.224   0.126  0.00  0.00    -0.031 A 
ATOM      4  C4  IND d   1      -1.644  -1.011   1.522  0.00  0.00     0.051 A 
ATOM      5  C5  IND d   1      -0.567  -0.195   1.723  0.00  0.00    -0.031 A 
ATOM      6  C6  IND d   1      -0.434   1.011   1.066  0.00  0.00     0.015 A 
ATOM      7  C7  IND d   1      -1.382   1.452   0.187  0.00  0.00    -0.016 A 
ATOM      8  C8  IND d   1      -2.474   0.622  -0.025  0.00  0.00    -0.047 A 
ATOM      9  C9  IND d   1      -2.594  -0.622   0.607  0.00  0.00    -0.096 A 
ATOM     10  HN1 IND d   1      -3.727   1.447  -1.356  0.00  0.00     0.298 HD
ENDROOT
TORSDOF 0
ENDMDL
