MODEL 1
REMARK minimizedAffinity -1.78213727
REMARK minimizedRMSD -1
REMARK  0 active torsions:
REMARK  status: ('A' for Active; 'I' for Inactive)
ROOT
ATOM      1  N1  IND d   1      -1.809   2.640   2.332  0.00  0.00    -0.196 N 
ATOM      2  C2  IND d   1      -2.567   1.579   2.744  0.00  0.00     0.054 A 
ATOM      3  C3  IND d   1      -1.899   0.420   2.551  0.00  0.00    -0.031 A 
ATOM      4  C4  IND d   1       0.490   0.037   1.669  0.00  0.00     0.051 A 
ATOM      5  C5  IND d   1       1.559   0.698   1.132  0.00  0.00    -0.031 A 
ATOM      6  C6  IND d   1       1.561   2.068   0.968  0.00  0.00     0.015 A 
ATOM      7  C7  IND d   1       0.494   2.833   1.345  0.00  0.00    -0.016 A 
ATOM      8  C8  IND d   1      -0.596   2.164   1.884  0.00  0.00    -0.047 A 
ATOM      9  C9  IND d   1      -0.621   0.770   2.015  0.00  0.00    -0.096 A 
ATOM     10  HN1 IND d   1      -2.049   3.465   2.350  0.00  0.00     0.298 HD
ENDROOT
TORSDOF 0
ENDMDL
