MODEL 1
REMARK minimizedAffinity -4.24347925
REMARK minimizedRMSD -1
REMARK  0 active torsions:
REMARK  status: ('A' for Active; 'I' for Inactive)
ROOT
ATOM      1  N1  IND d   1      -2.737   2.261   3.082  0.00  0.00    -0.196 N 
ATOM      2  C2  IND d   1      -3.568   1.249   3.475  0.00  0.00     0.054 A 
ATOM      3  C3  IND d   1      -3.132   0.066   2.987  0.00  0.00    -0.031 A 
ATOM      4  C4  IND d   1      -1.024  -0.455   1.603  0.00  0.00     0.051 A 
ATOM      5  C5  IND d   1       0.024   0.149   0.968  0.00  0.00    -0.031 A 
ATOM      6  C6  IND d   1       0.211   1.516   1.008  0.00  0.00     0.015 A 
ATOM      7  C7  IND d   1      -0.641   2.331   1.697  0.00  0.00    -0.016 A 
ATOM      8  C8  IND d   1      -1.711   1.722   2.338  0.00  0.00    -0.047 A 
ATOM      9  C9  IND d   1      -1.930   0.340   2.265  0.00  0.00    -0.096 A 
ATOM     10  HN1 IND d   1      -2.839   3.094   3.267  0.00  0.00     0.298 HD
ENDROOT
TORSDOF 0
ENDMDL
