MODEL 1
REMARK minimizedAffinity 0.503184855
REMARK minimizedRMSD -1
REMARK  0 active torsions:
REMARK  status: ('A' for Active; 'I' for Inactive)
ROOT
ATOM      1  N1  IND d   1      -2.735   0.895   3.011  0.00  0.00    -0.196 N 
ATOM      2  C2  IND d   1      -2.647   2.253   3.142  0.00  0.00     0.054 A 
ATOM      3  C3  IND d   1      -1.562   2.720   2.485  0.00  0.00    -0.031 A 
ATOM      4  C4  IND d   1       0.149   1.448   1.042  0.00  0.00     0.051 A 
ATOM      5  C5  IND d   1       0.505   0.187   0.654  0.00  0.00    -0.031 A 
ATOM      6  C6  IND d   1      -0.216  -0.925   1.037  0.00  0.00     0.015 A 
ATOM      7  C7  IND d   1      -1.333  -0.815   1.817  0.00  0.00    -0.016 A 
ATOM      8  C8  IND d   1      -1.694   0.463   2.219  0.00  0.00    -0.047 A 
ATOM      9  C9  IND d   1      -0.941   1.591   1.868  0.00  0.00    -0.096 A 
ATOM     10  HN1 IND d   1      -3.339   0.395   3.363  0.00  0.00     0.298 HD
ENDROOT
TORSDOF 0
ENDMDL
