MODEL 1
REMARK minimizedAffinity 4.33768702
REMARK minimizedRMSD -1
REMARK  0 active torsions:
REMARK  status: ('A' for Active; 'I' for Inactive)
ROOT
ATOM      1  N1  IND d   1       0.650   2.048   1.093  0.00  0.00    -0.196 N 
ATOM      2  C2  IND d   1       1.167   0.801   1.310  0.00  0.00     0.054 A 
ATOM      3  C3  IND d   1       0.261   0.020   1.939  0.00  0.00    -0.031 A 
ATOM      4  C4  IND d   1      -2.166   0.549   2.617  0.00  0.00     0.051 A 
ATOM      5  C5  IND d   1      -3.074   1.569   2.659  0.00  0.00    -0.031 A 
ATOM      6  C6  IND d   1      -2.783   2.825   2.169  0.00  0.00     0.015 A 
ATOM      7  C7  IND d   1      -1.571   3.107   1.605  0.00  0.00    -0.016 A 
ATOM      8  C8  IND d   1      -0.643   2.075   1.567  0.00  0.00    -0.047 A 
ATOM      9  C9  IND d   1      -0.918   0.810   2.102  0.00  0.00    -0.096 A 
ATOM     10  HN1 IND d   1       1.063   2.705   0.722  0.00  0.00     0.298 HD
ENDROOT
TORSDOF 0
ENDMDL
