MODEL 1
REMARK minimizedAffinity 0.158381552
REMARK minimizedRMSD -1
REMARK  0 active torsions:
REMARK  status: ('A' for Active; 'I' for Inactive)
ROOT
ATOM      1  N1  IND d   1       1.727   1.954   1.154  0.00  0.00    -0.196 N 
ATOM      2  C2  IND d   1       2.465   0.953   0.585  0.00  0.00     0.054 A 
ATOM      3  C3  IND d   1       1.805  -0.223   0.671  0.00  0.00    -0.031 A 
ATOM      4  C4  IND d   1      -0.541  -0.719   1.609  0.00  0.00     0.051 A 
ATOM      5  C5  IND d   1      -1.583  -0.131   2.269  0.00  0.00    -0.031 A 
ATOM      6  C6  IND d   1      -1.577   1.210   2.594  0.00  0.00     0.015 A 
ATOM      7  C7  IND d   1      -0.527   2.019   2.261  0.00  0.00    -0.016 A 
ATOM      8  C8  IND d   1       0.536   1.424   1.598  0.00  0.00    -0.047 A 
ATOM      9  C9  IND d   1       0.554   0.054   1.302  0.00  0.00    -0.096 A 
ATOM     10  HN1 IND d   1       1.967   2.777   1.222  0.00  0.00     0.298 HD
ENDROOT
TORSDOF 0
ENDMDL
