MODEL 1
REMARK minimizedAffinity 1.49848926
REMARK minimizedRMSD -1
REMARK  0 active torsions:
REMARK  status: ('A' for Active; 'I' for Inactive)
ROOT
ATOM      1  N1  IND d   1       2.291  -0.796   0.655  0.00  0.00    -0.196 N 
ATOM      2  C2  IND d   1       2.852   0.333   0.125  0.00  0.00     0.054 A 
ATOM      3  C3  IND d   1       1.963   1.351   0.141  0.00  0.00    -0.031 A 
ATOM      4  C4  IND d   1      -0.432   1.417   1.083  0.00  0.00     0.051 A 
ATOM      5  C5  IND d   1      -1.395   0.619   1.633  0.00  0.00    -0.031 A 
ATOM      6  C6  IND d   1      -1.174  -0.718   1.894  0.00  0.00     0.015 A 
ATOM      7  C7  IND d   1       0.029  -1.306   1.622  0.00  0.00    -0.016 A 
ATOM      8  C8  IND d   1       1.007  -0.501   1.057  0.00  0.00    -0.047 A 
ATOM      9  C9  IND d   1       0.774   0.846   0.751  0.00  0.00    -0.096 A 
ATOM     10  HN1 IND d   1       2.676  -1.562   0.725  0.00  0.00     0.298 HD
ENDROOT
TORSDOF 0
ENDMDL
