MODEL 1
REMARK minimizedAffinity 5.02366829
REMARK minimizedRMSD -1
REMARK  0 active torsions:
REMARK  status: ('A' for Active; 'I' for Inactive)
ROOT
ATOM      1  N1  IND d   1       2.689  -0.374   0.024  0.00  0.00    -0.196 N 
ATOM      2  C2  IND d   1       3.094   0.495  -0.950  0.00  0.00     0.054 A 
ATOM      3  C3  IND d   1       2.264   1.560  -1.005  0.00  0.00    -0.031 A 
ATOM      4  C4  IND d   1       0.238   2.134   0.475  0.00  0.00     0.051 A 
ATOM      5  C5  IND d   1      -0.542   1.627   1.477  0.00  0.00    -0.031 A 
ATOM      6  C6  IND d   1      -0.278   0.404   2.059  0.00  0.00     0.015 A 
ATOM      7  C7  IND d   1       0.788  -0.356   1.667  0.00  0.00    -0.016 A 
ATOM      8  C8  IND d   1       1.577   0.152   0.645  0.00  0.00    -0.047 A 
ATOM      9  C9  IND d   1       1.290   1.373   0.022  0.00  0.00    -0.096 A 
ATOM     10  HN1 IND d   1       3.064  -1.123   0.216  0.00  0.00     0.298 HD
ENDROOT
TORSDOF 0
ENDMDL
