MODEL 1
REMARK minimizedAffinity -3.58462977
REMARK minimizedRMSD -1
REMARK  0 active torsions:
REMARK  status: ('A' for Active; 'I' for Inactive)
ROOT
ATOM      1  N1  IND d   1       1.448   1.524   0.986  0.00  0.00    -0.196 N 
ATOM      2  C2  IND d   1       1.827   0.417   0.279  0.00  0.00     0.054 A 
ATOM      3  C3  IND d   1       0.853  -0.520   0.316  0.00  0.00    -0.031 A 
ATOM      4  C4  IND d   1      -1.483  -0.410   1.391  0.00  0.00     0.051 A 
ATOM      5  C5  IND d   1      -2.271   0.383   2.178  0.00  0.00    -0.031 A 
ATOM      6  C6  IND d   1      -1.852   1.623   2.614  0.00  0.00     0.015 A 
ATOM      7  C7  IND d   1      -0.628   2.124   2.269  0.00  0.00    -0.016 A 
ATOM      8  C8  IND d   1       0.177   1.318   1.476  0.00  0.00    -0.047 A 
ATOM      9  C9  IND d   1      -0.226   0.041   1.066  0.00  0.00    -0.096 A 
ATOM     10  HN1 IND d   1       1.924   2.231   1.105  0.00  0.00     0.298 HD
ENDROOT
TORSDOF 0
ENDMDL
