MODEL 1
REMARK minimizedAffinity -0.358498722
REMARK minimizedRMSD -1
REMARK  0 active torsions:
REMARK  status: ('A' for Active; 'I' for Inactive)
ROOT
ATOM      1  N1  IND d   1       2.319  -0.875   0.642  0.00  0.00    -0.196 N 
ATOM      2  C2  IND d   1       2.963  -0.063  -0.249  0.00  0.00     0.054 A 
ATOM      3  C3  IND d   1       2.249   1.066  -0.459  0.00  0.00    -0.031 A 
ATOM      4  C4  IND d   1       0.047   1.833   0.631  0.00  0.00     0.051 A 
ATOM      5  C5  IND d   1      -0.939   1.413   1.480  0.00  0.00    -0.031 A 
ATOM      6  C6  IND d   1      -0.886   0.185   2.107  0.00  0.00     0.015 A 
ATOM      7  C7  IND d   1       0.164  -0.668   1.917  0.00  0.00    -0.016 A 
ATOM      8  C8  IND d   1       1.163  -0.247   1.051  0.00  0.00    -0.047 A 
ATOM      9  C9  IND d   1       1.095   0.980   0.378  0.00  0.00    -0.096 A 
ATOM     10  HN1 IND d   1       2.590  -1.648   0.903  0.00  0.00     0.298 HD
ENDROOT
TORSDOF 0
ENDMDL
