MODEL 1
REMARK minimizedAffinity 2.31436324
REMARK minimizedRMSD -1
REMARK  0 active torsions:
REMARK  status: ('A' for Active; 'I' for Inactive)
ROOT
ATOM      1  N1  IND d   1      -0.357   2.306   2.672  0.00  0.00    -0.196 N 
ATOM      2  C2  IND d   1       0.626   1.596   2.041  0.00  0.00     0.054 A 
ATOM      3  C3  IND d   1       0.205   0.338   1.779  0.00  0.00    -0.031 A 
ATOM      4  C4  IND d   1      -2.094  -0.738   2.207  0.00  0.00     0.051 A 
ATOM      5  C5  IND d   1      -3.304  -0.496   2.794  0.00  0.00    -0.031 A 
ATOM      6  C6  IND d   1      -3.601   0.718   3.379  0.00  0.00     0.015 A 
ATOM      7  C7  IND d   1      -2.699   1.743   3.390  0.00  0.00    -0.016 A 
ATOM      8  C8  IND d   1      -1.466   1.498   2.801  0.00  0.00    -0.047 A 
ATOM      9  C9  IND d   1      -1.144   0.255   2.243  0.00  0.00    -0.096 A 
ATOM     10  HN1 IND d   1      -0.294   3.119   2.943  0.00  0.00     0.298 HD
ENDROOT
TORSDOF 0
ENDMDL
