MODEL 1
REMARK minimizedAffinity 4.81346846
REMARK minimizedRMSD -1
REMARK  0 active torsions:
REMARK  status: ('A' for Active; 'I' for Inactive)
ROOT
ATOM      1  N1  IND d   1      -3.246   0.309  -4.435  0.00  0.00    -0.196 N 
ATOM      2  C2  IND d   1      -2.910   0.635  -5.719  0.00  0.00     0.054 A 
ATOM      3  C3  IND d   1      -1.750   1.329  -5.740  0.00  0.00    -0.031 A 
ATOM      4  C4  IND d   1      -0.183   1.954  -3.795  0.00  0.00     0.051 A 
ATOM      5  C5  IND d   1      -0.084   1.905  -2.433  0.00  0.00    -0.031 A 
ATOM      6  C6  IND d   1      -1.053   1.307  -1.653  0.00  0.00     0.015 A 
ATOM      7  C7  IND d   1      -2.155   0.723  -2.209  0.00  0.00    -0.016 A 
ATOM      8  C8  IND d   1      -2.262   0.777  -3.592  0.00  0.00    -0.047 A 
ATOM      9  C9  IND d   1      -1.304   1.420  -4.386  0.00  0.00    -0.096 A 
ATOM     10  HN1 IND d   1      -3.953  -0.117  -4.194  0.00  0.00     0.298 HD
ENDROOT
TORSDOF 0
ENDMDL
