MODEL 1
REMARK minimizedAffinity 15.5384283
REMARK minimizedRMSD -1
REMARK  0 active torsions:
REMARK  status: ('A' for Active; 'I' for Inactive)
ROOT
ATOM      1  N1  IND d   1      -1.895  -5.846   2.185  0.00  0.00    -0.196 N 
ATOM      2  C2  IND d   1      -2.291  -5.707   0.884  0.00  0.00     0.054 A 
ATOM      3  C3  IND d   1      -1.214  -5.633   0.070  0.00  0.00    -0.031 A 
ATOM      4  C4  IND d   1       1.288  -5.821   0.647  0.00  0.00     0.051 A 
ATOM      5  C5  IND d   1       2.145  -5.917   1.708  0.00  0.00    -0.031 A 
ATOM      6  C6  IND d   1       1.689  -6.000   3.008  0.00  0.00     0.015 A 
ATOM      7  C7  IND d   1       0.354  -6.000   3.296  0.00  0.00    -0.016 A 
ATOM      8  C8  IND d   1      -0.519  -5.895   2.222  0.00  0.00    -0.047 A 
ATOM      9  C9  IND d   1      -0.062  -5.768   0.904  0.00  0.00    -0.096 A 
ATOM     10  HN1 IND d   1      -2.418  -5.896   2.866  0.00  0.00     0.298 HD
ENDROOT
TORSDOF 0
ENDMDL
