MODEL 1
REMARK minimizedAffinity 13.9178152
REMARK minimizedRMSD -1
REMARK  0 active torsions:
REMARK  status: ('A' for Active; 'I' for Inactive)
ROOT
ATOM      1  N1  IND d   1      -1.150  -6.000   2.320  0.00  0.00    -0.196 N 
ATOM      2  C2  IND d   1      -1.918  -5.996   1.189  0.00  0.00     0.054 A 
ATOM      3  C3  IND d   1      -1.134  -5.958   0.088  0.00  0.00    -0.031 A 
ATOM      4  C4  IND d   1       1.434  -5.999  -0.093  0.00  0.00     0.051 A 
ATOM      5  C5  IND d   1       2.568  -5.965   0.668  0.00  0.00    -0.031 A 
ATOM      6  C6  IND d   1       2.520  -5.943   2.047  0.00  0.00     0.015 A 
ATOM      7  C7  IND d   1       1.331  -5.966   2.719  0.00  0.00    -0.016 A 
ATOM      8  C8  IND d   1       0.177  -5.993   1.949  0.00  0.00    -0.047 A 
ATOM      9  C9  IND d   1       0.218  -5.972   0.549  0.00  0.00    -0.096 A 
ATOM     10  HN1 IND d   1      -1.446  -6.005   3.127  0.00  0.00     0.298 HD
ENDROOT
TORSDOF 0
ENDMDL
