MODEL 1
REMARK minimizedAffinity 6.1870141
REMARK minimizedRMSD -1
REMARK  0 active torsions:
REMARK  status: ('A' for Active; 'I' for Inactive)
ROOT
ATOM      1  N1  IND d   1      -1.088   1.538  -2.599  0.00  0.00    -0.196 N 
ATOM      2  C2  IND d   1      -1.729   0.498  -3.213  0.00  0.00     0.054 A 
ATOM      3  C3  IND d   1      -0.849  -0.484  -3.513  0.00  0.00    -0.031 A 
ATOM      4  C4  IND d   1       1.668  -0.639  -3.000  0.00  0.00     0.051 A 
ATOM      5  C5  IND d   1       2.710   0.083  -2.487  0.00  0.00    -0.031 A 
ATOM      6  C6  IND d   1       2.534   1.351  -1.973  0.00  0.00     0.015 A 
ATOM      7  C7  IND d   1       1.303   1.943  -1.942  0.00  0.00    -0.016 A 
ATOM      8  C8  IND d   1       0.245   1.216  -2.468  0.00  0.00    -0.047 A 
ATOM      9  C9  IND d   1       0.424  -0.055  -3.030  0.00  0.00    -0.096 A 
ATOM     10  HN1 IND d   1      -1.456   2.271  -2.339  0.00  0.00     0.298 HD
ENDROOT
TORSDOF 0
ENDMDL
