MODEL 1
REMARK minimizedAffinity 9.35270977
REMARK minimizedRMSD -1
REMARK  0 active torsions:
REMARK  status: ('A' for Active; 'I' for Inactive)
ROOT
ATOM      1  N1  IND d   1      -1.810   2.197  -3.149  0.00  0.00    -0.196 N 
ATOM      2  C2  IND d   1      -2.545   1.758  -4.215  0.00  0.00     0.054 A 
ATOM      3  C3  IND d   1      -3.112   0.564  -3.935  0.00  0.00    -0.031 A 
ATOM      4  C4  IND d   1      -3.051  -0.805  -1.756  0.00  0.00     0.051 A 
ATOM      5  C5  IND d   1      -2.479  -0.830  -0.515  0.00  0.00    -0.031 A 
ATOM      6  C6  IND d   1      -1.639   0.174  -0.079  0.00  0.00     0.015 A 
ATOM      7  C7  IND d   1      -1.349   1.252  -0.867  0.00  0.00    -0.016 A 
ATOM      8  C8  IND d   1      -1.922   1.277  -2.130  0.00  0.00    -0.047 A 
ATOM      9  C9  IND d   1      -2.741   0.239  -2.594  0.00  0.00    -0.096 A 
ATOM     10  HN1 IND d   1      -1.353   2.925  -3.120  0.00  0.00     0.298 HD
ENDROOT
TORSDOF 0
ENDMDL
