MODEL 1
REMARK minimizedAffinity 13.2132626
REMARK minimizedRMSD -1
REMARK  0 active torsions:
REMARK  status: ('A' for Active; 'I' for Inactive)
ROOT
ATOM      1  N1  IND d   1      -5.583   1.431   2.091  0.00  0.00    -0.196 N 
ATOM      2  C2  IND d   1      -5.830   0.240   1.466  0.00  0.00     0.054 A 
ATOM      3  C3  IND d   1      -5.994  -0.744   2.378  0.00  0.00    -0.031 A 
ATOM      4  C4  IND d   1      -5.998  -0.609   4.949  0.00  0.00     0.051 A 
ATOM      5  C5  IND d   1      -5.779   0.258   5.982  0.00  0.00    -0.031 A 
ATOM      6  C6  IND d   1      -5.479   1.588   5.767  0.00  0.00     0.015 A 
ATOM      7  C7  IND d   1      -5.399   2.105   4.505  0.00  0.00    -0.016 A 
ATOM      8  C8  IND d   1      -5.614   1.226   3.453  0.00  0.00    -0.047 A 
ATOM      9  C9  IND d   1      -5.877  -0.134   3.664  0.00  0.00    -0.096 A 
ATOM     10  HN1 IND d   1      -5.432   2.181   1.700  0.00  0.00     0.298 HD
ENDROOT
TORSDOF 0
ENDMDL
