MODEL 1
REMARK minimizedAffinity 0.95221287
REMARK minimizedRMSD -1
REMARK  0 active torsions:
REMARK  status: ('A' for Active; 'I' for Inactive)
ROOT
ATOM      1  N1  IND d   1       2.137   2.060  -3.498  0.00  0.00    -0.196 N 
ATOM      2  C2  IND d   1       1.092   2.200  -2.627  0.00  0.00     0.054 A 
ATOM      3  C3  IND d   1       0.870   1.041  -1.969  0.00  0.00    -0.031 A 
ATOM      4  C4  IND d   1       2.163  -1.182  -2.090  0.00  0.00     0.051 A 
ATOM      5  C5  IND d   1       3.172  -1.806  -2.768  0.00  0.00    -0.031 A 
ATOM      6  C6  IND d   1       3.904  -1.159  -3.742  0.00  0.00     0.015 A 
ATOM      7  C7  IND d   1       3.661   0.145  -4.067  0.00  0.00    -0.016 A 
ATOM      8  C8  IND d   1       2.632   0.780  -3.386  0.00  0.00    -0.047 A 
ATOM      9  C9  IND d   1       1.858   0.115  -2.426  0.00  0.00    -0.096 A 
ATOM     10  HN1 IND d   1       2.434   2.669  -4.027  0.00  0.00     0.298 HD
ENDROOT
TORSDOF 0
ENDMDL
