MODEL 1
REMARK minimizedAffinity 7.06597376
REMARK minimizedRMSD -1
REMARK  0 active torsions:
REMARK  status: ('A' for Active; 'I' for Inactive)
ROOT
ATOM      1  N1  IND d   1       1.242   4.393  -3.069  0.00  0.00    -0.196 N 
ATOM      2  C2  IND d   1       1.577   4.973  -4.261  0.00  0.00     0.054 A 
ATOM      3  C3  IND d   1       2.453   4.192  -4.933  0.00  0.00    -0.031 A 
ATOM      4  C4  IND d   1       3.392   1.877  -4.312  0.00  0.00     0.051 A 
ATOM      5  C5  IND d   1       3.404   0.955  -3.303  0.00  0.00    -0.031 A 
ATOM      6  C6  IND d   1       2.679   1.134  -2.142  0.00  0.00     0.015 A 
ATOM      7  C7  IND d   1       1.903   2.242  -1.951  0.00  0.00    -0.016 A 
ATOM      8  C8  IND d   1       1.894   3.184  -2.971  0.00  0.00    -0.047 A 
ATOM      9  C9  IND d   1       2.660   3.027  -4.133  0.00  0.00    -0.096 A 
ATOM     10  HN1 IND d   1       0.712   4.728  -2.480  0.00  0.00     0.298 HD
ENDROOT
TORSDOF 0
ENDMDL
