MODEL 1
REMARK minimizedAffinity 0.101757973
REMARK minimizedRMSD -1
REMARK  0 active torsions:
REMARK  status: ('A' for Active; 'I' for Inactive)
ROOT
ATOM      1  N1  IND d   1      -0.987   2.448  -3.437  0.00  0.00    -0.196 N 
ATOM      2  C2  IND d   1      -1.906   1.697  -4.117  0.00  0.00     0.054 A 
ATOM      3  C3  IND d   1      -1.472   0.423  -4.241  0.00  0.00    -0.031 A 
ATOM      4  C4  IND d   1       0.666  -0.674  -3.317  0.00  0.00     0.051 A 
ATOM      5  C5  IND d   1       1.830  -0.383  -2.662  0.00  0.00    -0.031 A 
ATOM      6  C6  IND d   1       2.118   0.892  -2.220  0.00  0.00     0.015 A 
ATOM      7  C7  IND d   1       1.245   1.925  -2.408  0.00  0.00    -0.016 A 
ATOM      8  C8  IND d   1       0.066   1.635  -3.079  0.00  0.00    -0.047 A 
ATOM      9  C9  IND d   1      -0.214   0.352  -3.568  0.00  0.00    -0.096 A 
ATOM     10  HN1 IND d   1      -1.056   3.287  -3.262  0.00  0.00     0.298 HD
ENDROOT
TORSDOF 0
ENDMDL
