MODEL 1
REMARK minimizedAffinity 15.627634
REMARK minimizedRMSD -1
REMARK  0 active torsions:
REMARK  status: ('A' for Active; 'I' for Inactive)
ROOT
ATOM      1  N1  IND d   1      -0.898  -4.871   1.212  0.00  0.00    -0.196 N 
ATOM      2  C2  IND d   1      -0.204  -5.986   0.833  0.00  0.00     0.054 A 
ATOM      3  C3  IND d   1       1.120  -5.808   1.040  0.00  0.00    -0.031 A 
ATOM      4  C4  IND d   1       2.358  -3.807   2.084  0.00  0.00     0.051 A 
ATOM      5  C5  IND d   1       2.154  -2.539   2.551  0.00  0.00    -0.031 A 
ATOM      6  C6  IND d   1       0.897  -1.973   2.599  0.00  0.00     0.015 A 
ATOM      7  C7  IND d   1      -0.210  -2.662   2.191  0.00  0.00    -0.016 A 
ATOM      8  C8  IND d   1      -0.006  -3.947   1.709  0.00  0.00    -0.047 A 
ATOM      9  C9  IND d   1       1.273  -4.511   1.619  0.00  0.00    -0.096 A 
ATOM     10  HN1 IND d   1      -1.749  -4.765   1.150  0.00  0.00     0.298 HD
ENDROOT
TORSDOF 0
ENDMDL
