MODEL 1
REMARK minimizedAffinity 3.72427773
REMARK minimizedRMSD -1
REMARK  0 active torsions:
REMARK  status: ('A' for Active; 'I' for Inactive)
ROOT
ATOM      1  N1  IND d   1      -1.192   1.840  -0.331  0.00  0.00    -0.196 N 
ATOM      2  C2  IND d   1      -1.515   0.857   0.562  0.00  0.00     0.054 A 
ATOM      3  C3  IND d   1      -2.045  -0.207  -0.081  0.00  0.00    -0.031 A 
ATOM      4  C4  IND d   1      -2.384  -0.591  -2.604  0.00  0.00     0.051 A 
ATOM      5  C5  IND d   1      -2.274   0.036  -3.813  0.00  0.00    -0.031 A 
ATOM      6  C6  IND d   1      -1.786   1.322  -3.926  0.00  0.00     0.015 A 
ATOM      7  C7  IND d   1      -1.377   2.027  -2.830  0.00  0.00    -0.016 A 
ATOM      8  C8  IND d   1      -1.493   1.396  -1.600  0.00  0.00    -0.047 A 
ATOM      9  C9  IND d   1      -2.027   0.107  -1.474  0.00  0.00    -0.096 A 
ATOM     10  HN1 IND d   1      -0.857   2.608  -0.134  0.00  0.00     0.298 HD
ENDROOT
TORSDOF 0
ENDMDL
