MODEL 1
REMARK minimizedAffinity -0.43505168
REMARK minimizedRMSD -1
REMARK  0 active torsions:
REMARK  status: ('A' for Active; 'I' for Inactive)
ROOT
ATOM      1  N1  IND d   1       1.537  -1.185  -4.024  0.00  0.00    -0.196 N 
ATOM      2  C2  IND d   1       2.775  -0.651  -3.801  0.00  0.00     0.054 A 
ATOM      3  C3  IND d   1       2.667   0.631  -3.385  0.00  0.00    -0.031 A 
ATOM      4  C4  IND d   1       0.554   2.021  -2.902  0.00  0.00     0.051 A 
ATOM      5  C5  IND d   1      -0.809   1.975  -2.992  0.00  0.00    -0.031 A 
ATOM      6  C6  IND d   1      -1.473   0.851  -3.437  0.00  0.00     0.015 A 
ATOM      7  C7  IND d   1      -0.797  -0.280  -3.799  0.00  0.00    -0.016 A 
ATOM      8  C8  IND d   1       0.588  -0.235  -3.716  0.00  0.00    -0.047 A 
ATOM      9  C9  IND d   1       1.270   0.918  -3.305  0.00  0.00    -0.096 A 
ATOM     10  HN1 IND d   1       1.377  -1.981  -4.308  0.00  0.00     0.298 HD
ENDROOT
TORSDOF 0
ENDMDL
