MODEL 1
REMARK minimizedAffinity 10.6935635
REMARK minimizedRMSD -1
REMARK  0 active torsions:
REMARK  status: ('A' for Active; 'I' for Inactive)
ROOT
ATOM      1  N1  IND d   1      -0.860   3.276  -3.592  0.00  0.00    -0.196 N 
ATOM      2  C2  IND d   1       0.113   3.087  -2.650  0.00  0.00     0.054 A 
ATOM      3  C3  IND d   1       0.209   1.777  -2.329  0.00  0.00    -0.031 A 
ATOM      4  C4  IND d   1      -1.060  -0.242  -3.301  0.00  0.00     0.051 A 
ATOM      5  C5  IND d   1      -2.072  -0.566  -4.159  0.00  0.00    -0.031 A 
ATOM      6  C6  IND d   1      -2.744   0.393  -4.890  0.00  0.00     0.015 A 
ATOM      7  C7  IND d   1      -2.419   1.717  -4.797  0.00  0.00    -0.016 A 
ATOM      8  C8  IND d   1      -1.396   2.050  -3.920  0.00  0.00    -0.047 A 
ATOM      9  C9  IND d   1      -0.739   1.086  -3.145  0.00  0.00    -0.096 A 
ATOM     10  HN1 IND d   1      -1.096   4.033  -3.924  0.00  0.00     0.298 HD
ENDROOT
TORSDOF 0
ENDMDL
