MODEL 1
REMARK minimizedAffinity 2.80584168
REMARK minimizedRMSD -1
REMARK  0 active torsions:
REMARK  status: ('A' for Active; 'I' for Inactive)
ROOT
ATOM      1  N1  IND d   1      -2.413  -0.139   2.981  0.00  0.00    -0.196 N 
ATOM      2  C2  IND d   1      -2.938   0.351   1.817  0.00  0.00     0.054 A 
ATOM      3  C3  IND d   1      -4.235   0.690   1.992  0.00  0.00    -0.031 A 
ATOM      4  C4  IND d   1      -5.670   0.622   4.128  0.00  0.00     0.051 A 
ATOM      5  C5  IND d   1      -5.640   0.217   5.433  0.00  0.00    -0.031 A 
ATOM      6  C6  IND d   1      -4.510  -0.336   5.999  0.00  0.00     0.015 A 
ATOM      7  C7  IND d   1      -3.358  -0.495   5.282  0.00  0.00    -0.016 A 
ATOM      8  C8  IND d   1      -3.387  -0.091   3.954  0.00  0.00    -0.047 A 
ATOM      9  C9  IND d   1      -4.544   0.431   3.362  0.00  0.00    -0.096 A 
ATOM     10  HN1 IND d   1      -1.611  -0.428   3.087  0.00  0.00     0.298 HD
ENDROOT
TORSDOF 0
ENDMDL
