MODEL 1
REMARK minimizedAffinity -2.57567644
REMARK minimizedRMSD -1
REMARK  0 active torsions:
REMARK  status: ('A' for Active; 'I' for Inactive)
ROOT
ATOM      1  N1  IND d   1      -0.913   1.940  -3.532  0.00  0.00    -0.196 N 
ATOM      2  C2  IND d   1      -1.708   1.178  -4.341  0.00  0.00     0.054 A 
ATOM      3  C3  IND d   1      -1.141  -0.030  -4.555  0.00  0.00    -0.031 A 
ATOM      4  C4  IND d   1       1.040  -1.006  -3.596  0.00  0.00     0.051 A 
ATOM      5  C5  IND d   1       2.128  -0.672  -2.838  0.00  0.00    -0.031 A 
ATOM      6  C6  IND d   1       2.259   0.573  -2.259  0.00  0.00     0.015 A 
ATOM      7  C7  IND d   1       1.297   1.532  -2.407  0.00  0.00    -0.016 A 
ATOM      8  C8  IND d   1       0.195   1.200  -3.182  0.00  0.00    -0.047 A 
ATOM      9  C9  IND d   1       0.077  -0.048  -3.807  0.00  0.00    -0.096 A 
ATOM     10  HN1 IND d   1      -1.077   2.747  -3.284  0.00  0.00     0.298 HD
ENDROOT
TORSDOF 0
ENDMDL
