MODEL 1
REMARK minimizedAffinity 14.8069401
REMARK minimizedRMSD -1
REMARK  0 active torsions:
REMARK  status: ('A' for Active; 'I' for Inactive)
ROOT
ATOM      1  N1  IND d   1       0.177  -5.869   3.725  0.00  0.00    -0.196 N 
ATOM      2  C2  IND d   1       1.527  -5.905   3.939  0.00  0.00     0.054 A 
ATOM      3  C3  IND d   1       2.188  -5.984   2.762  0.00  0.00    -0.031 A 
ATOM      4  C4  IND d   1       1.260  -5.963   0.360  0.00  0.00     0.051 A 
ATOM      5  C5  IND d   1       0.087  -5.978  -0.342  0.00  0.00    -0.031 A 
ATOM      6  C6  IND d   1      -1.140  -5.955   0.289  0.00  0.00     0.015 A 
ATOM      7  C7  IND d   1      -1.241  -5.903   1.650  0.00  0.00    -0.016 A 
ATOM      8  C8  IND d   1      -0.052  -5.895   2.366  0.00  0.00    -0.047 A 
ATOM      9  C9  IND d   1       1.196  -5.962   1.734  0.00  0.00    -0.096 A 
ATOM     10  HN1 IND d   1      -0.427  -5.837   4.335  0.00  0.00     0.298 HD
ENDROOT
TORSDOF 0
ENDMDL
