MODEL 1
REMARK minimizedAffinity -1.25234079
REMARK minimizedRMSD -1
REMARK  1 active torsions:
REMARK  status: ('A' for Active; 'I' for Inactive)
REMARK    1  A    between atoms: C1_2  and  C2_3 
ROOT
ATOM      1  C2  UNL d   1       0.030   0.228  -0.604  0.00  0.00    -0.076 A 
ATOM      2  C3  UNL d   1      -0.881  -0.452   0.222  0.00  0.00     0.004 A 
ATOM      3  C4  UNL d   1      -0.469  -1.523   1.014  0.00  0.00    -0.003 A 
ATOM      4  C5  UNL d   1       0.860  -1.930   0.993  0.00  0.00     0.000 A 
ATOM      5  C6  UNL d   1       1.781  -1.255   0.192  0.00  0.00     0.000 A 
ATOM      6  C7  UNL d   1       1.386  -0.163  -0.600  0.00  0.00    -0.073 A 
ATOM      7  C8  UNL d   1       2.420   0.524  -1.449  0.00  0.00     0.078 C 
ENDROOT
BRANCH   1   8
ATOM      8  C1  UNL d   1      -0.479   1.365  -1.462  0.00  0.00     0.053 C 
ATOM      9  C   UNL d   1      -1.793   1.030  -2.152  0.00  0.00     0.018 C 
ENDBRANCH   1   8
TORSDOF 1
ENDMDL
