MODEL 1
REMARK minimizedAffinity -6.77264977
REMARK minimizedRMSD -1
REMARK  1 active torsions:
REMARK  status: ('A' for Active; 'I' for Inactive)
REMARK    1  A    between atoms: C1_2  and  C2_3 
ROOT
ATOM      1  C2  UNL d   1       0.185  -0.263   0.654  0.00  0.00    -0.076 A 
ATOM      2  C3  UNL d   1      -0.546  -0.833   1.711  0.00  0.00     0.004 A 
ATOM      3  C4  UNL d   1      -0.151  -2.040   2.287  0.00  0.00    -0.003 A 
ATOM      4  C5  UNL d   1       0.981  -2.695   1.816  0.00  0.00     0.000 A 
ATOM      5  C6  UNL d   1       1.728  -2.135   0.780  0.00  0.00     0.000 A 
ATOM      6  C7  UNL d   1       1.353  -0.912   0.199  0.00  0.00    -0.073 A 
ATOM      7  C8  UNL d   1       2.191  -0.357  -0.920  0.00  0.00     0.078 C 
ENDROOT
BRANCH   1   8
ATOM      8  C1  UNL d   1      -0.307   1.033   0.051  0.00  0.00     0.053 C 
ATOM      9  C   UNL d   1      -1.350   0.813  -1.034  0.00  0.00     0.018 C 
ENDBRANCH   1   8
TORSDOF 1
ENDMDL
