MODEL 1
REMARK minimizedAffinity -5.77002954
REMARK minimizedRMSD -1
REMARK  1 active torsions:
REMARK  status: ('A' for Active; 'I' for Inactive)
REMARK    1  A    between atoms: C1_2  and  C2_3 
ROOT
ATOM      1  C2  UNL d   1       0.165   0.020   0.089  0.00  0.00    -0.076 A 
ATOM      2  C3  UNL d   1      -0.525  -0.879   0.920  0.00  0.00     0.004 A 
ATOM      3  C4  UNL d   1       0.100  -2.023   1.414  0.00  0.00    -0.003 A 
ATOM      4  C5  UNL d   1       1.426  -2.285   1.085  0.00  0.00     0.000 A 
ATOM      5  C6  UNL d   1       2.131  -1.394   0.277  0.00  0.00     0.000 A 
ATOM      6  C7  UNL d   1       1.520  -0.228  -0.217  0.00  0.00    -0.073 A 
ATOM      7  C8  UNL d   1       2.326   0.694  -1.090  0.00  0.00     0.078 C 
ENDROOT
BRANCH   1   8
ATOM      8  C1  UNL d   1      -0.573   1.230  -0.439  0.00  0.00     0.053 C 
ATOM      9  C   UNL d   1      -1.407   1.917   0.631  0.00  0.00     0.018 C 
ENDBRANCH   1   8
TORSDOF 1
ENDMDL
