MODEL 1
REMARK minimizedAffinity -4.535851
REMARK minimizedRMSD -1
REMARK  1 active torsions:
REMARK  status: ('A' for Active; 'I' for Inactive)
REMARK    1  A    between atoms: C1_2  and  C2_3 
ROOT
ATOM      1  C2  UNL d   1      -0.378   1.024  -0.987  0.00  0.00    -0.076 A 
ATOM      2  C3  UNL d   1      -0.342   1.032  -2.392  0.00  0.00     0.004 A 
ATOM      3  C4  UNL d   1      -1.495   1.273  -3.137  0.00  0.00    -0.003 A 
ATOM      4  C5  UNL d   1      -2.702   1.511  -2.490  0.00  0.00     0.000 A 
ATOM      5  C6  UNL d   1      -2.752   1.524  -1.096  0.00  0.00     0.000 A 
ATOM      6  C7  UNL d   1      -1.596   1.299  -0.329  0.00  0.00    -0.073 A 
ATOM      7  C8  UNL d   1      -1.709   1.319   1.170  0.00  0.00     0.078 C 
ENDROOT
BRANCH   1   8
ATOM      8  C1  UNL d   1       0.899   0.730  -0.231  0.00  0.00     0.053 C 
ATOM      9  C   UNL d   1       1.198  -0.759  -0.150  0.00  0.00     0.018 C 
ENDBRANCH   1   8
TORSDOF 1
ENDMDL
