MODEL 1
REMARK minimizedAffinity -4.07520533
REMARK minimizedRMSD -1
REMARK  1 active torsions:
REMARK  status: ('A' for Active; 'I' for Inactive)
REMARK    1  A    between atoms: C1_2  and  C2_3 
ROOT
ATOM      1  C2  UNL d   1       0.193   0.278   0.661  0.00  0.00    -0.076 A 
ATOM      2  C3  UNL d   1      -0.446  -0.890   1.113  0.00  0.00     0.004 A 
ATOM      3  C4  UNL d   1       0.221  -2.113   1.130  0.00  0.00    -0.003 A 
ATOM      4  C5  UNL d   1       1.540  -2.189   0.696  0.00  0.00     0.000 A 
ATOM      5  C6  UNL d   1       2.196  -1.038   0.261  0.00  0.00     0.000 A 
ATOM      6  C7  UNL d   1       1.542   0.206   0.252  0.00  0.00    -0.073 A 
ATOM      7  C8  UNL d   1       2.296   1.415  -0.233  0.00  0.00     0.078 C 
ENDROOT
BRANCH   1   8
ATOM      8  C1  UNL d   1      -0.590   1.571   0.639  0.00  0.00     0.053 C 
ATOM      9  C   UNL d   1      -1.213   1.852  -0.720  0.00  0.00     0.018 C 
ENDBRANCH   1   8
TORSDOF 1
ENDMDL
