MODEL 1
REMARK minimizedAffinity -5.16621256
REMARK minimizedRMSD -1
REMARK  1 active torsions:
REMARK  status: ('A' for Active; 'I' for Inactive)
REMARK    1  A    between atoms: C1_2  and  C2_3 
ROOT
ATOM      1  C2  UNL d   1       0.666  -0.506   0.280  0.00  0.00    -0.076 A 
ATOM      2  C3  UNL d   1      -0.341  -0.949   1.155  0.00  0.00     0.004 A 
ATOM      3  C4  UNL d   1      -0.257  -2.194   1.774  0.00  0.00    -0.003 A 
ATOM      4  C5  UNL d   1       0.836  -3.018   1.529  0.00  0.00     0.000 A 
ATOM      5  C6  UNL d   1       1.853  -2.588   0.677  0.00  0.00     0.000 A 
ATOM      6  C7  UNL d   1       1.792  -1.328   0.057  0.00  0.00    -0.073 A 
ATOM      7  C8  UNL d   1       2.914  -0.918  -0.857  0.00  0.00     0.078 C 
ENDROOT
BRANCH   1   8
ATOM      8  C1  UNL d   1       0.508   0.843  -0.384  0.00  0.00     0.053 C 
ATOM      9  C   UNL d   1      -0.935   1.139  -0.765  0.00  0.00     0.018 C 
ENDBRANCH   1   8
TORSDOF 1
ENDMDL
