MODEL 1
REMARK minimizedAffinity -2.40193319
REMARK minimizedRMSD -1
REMARK  1 active torsions:
REMARK  status: ('A' for Active; 'I' for Inactive)
REMARK    1  A    between atoms: C1_2  and  C2_3 
ROOT
ATOM      1  C2  UNL d   1       0.043   0.546  -0.381  0.00  0.00    -0.076 A 
ATOM      2  C3  UNL d   1       1.228   0.329  -1.106  0.00  0.00     0.004 A 
ATOM      3  C4  UNL d   1       2.087  -0.718  -0.779  0.00  0.00    -0.003 A 
ATOM      4  C5  UNL d   1       1.775  -1.567   0.277  0.00  0.00     0.000 A 
ATOM      5  C6  UNL d   1       0.595  -1.377   0.996  0.00  0.00     0.000 A 
ATOM      6  C7  UNL d   1      -0.290  -0.336   0.669  0.00  0.00    -0.073 A 
ATOM      7  C8  UNL d   1      -1.546  -0.174   1.481  0.00  0.00     0.078 C 
ENDROOT
BRANCH   1   8
ATOM      8  C1  UNL d   1      -0.837   1.715  -0.764  0.00  0.00     0.053 C 
ATOM      9  C   UNL d   1      -1.704   1.418  -1.978  0.00  0.00     0.018 C 
ENDBRANCH   1   8
TORSDOF 1
ENDMDL
