MODEL 1
REMARK minimizedAffinity -5.00709581
REMARK minimizedRMSD -1
REMARK  1 active torsions:
REMARK  status: ('A' for Active; 'I' for Inactive)
REMARK    1  A    between atoms: C1_2  and  C2_3 
ROOT
ATOM      1  C2  UNL d   1       0.102  -0.418  -0.065  0.00  0.00    -0.076 A 
ATOM      2  C3  UNL d   1      -0.716  -1.507   0.285  0.00  0.00     0.004 A 
ATOM      3  C4  UNL d   1      -0.161  -2.708   0.724  0.00  0.00    -0.003 A 
ATOM      4  C5  UNL d   1       1.219  -2.840   0.822  0.00  0.00     0.000 A 
ATOM      5  C6  UNL d   1       2.045  -1.764   0.496  0.00  0.00     0.000 A 
ATOM      6  C7  UNL d   1       1.502  -0.541   0.067  0.00  0.00    -0.073 A 
ATOM      7  C8  UNL d   1       2.439   0.584  -0.277  0.00  0.00     0.078 C 
ENDROOT
BRANCH   1   8
ATOM      8  C1  UNL d   1      -0.555   0.850  -0.561  0.00  0.00     0.053 C 
ATOM      9  C   UNL d   1      -1.501   0.600  -1.725  0.00  0.00     0.018 C 
ENDBRANCH   1   8
TORSDOF 1
ENDMDL
