MODEL 1
REMARK minimizedAffinity -0.293137044
REMARK minimizedRMSD -1
REMARK  1 active torsions:
REMARK  status: ('A' for Active; 'I' for Inactive)
REMARK    1  A    between atoms: C1_2  and  C2_3 
ROOT
ATOM      1  C2  UNL d   1      -0.263  -0.865   0.528  0.00  0.00    -0.076 A 
ATOM      2  C3  UNL d   1      -0.729  -2.190   0.567  0.00  0.00     0.004 A 
ATOM      3  C4  UNL d   1       0.110  -3.256   0.245  0.00  0.00    -0.003 A 
ATOM      4  C5  UNL d   1       1.429  -3.013  -0.121  0.00  0.00     0.000 A 
ATOM      5  C6  UNL d   1       1.914  -1.705  -0.148  0.00  0.00     0.000 A 
ATOM      6  C7  UNL d   1       1.085  -0.621   0.190  0.00  0.00    -0.073 A 
ATOM      7  C8  UNL d   1       1.658   0.769   0.138  0.00  0.00     0.078 C 
ENDROOT
BRANCH   1   8
ATOM      8  C1  UNL d   1      -1.226   0.252   0.861  0.00  0.00     0.053 C 
ATOM      9  C   UNL d   1      -1.961   0.016   2.172  0.00  0.00     0.018 C 
ENDBRANCH   1   8
TORSDOF 1
ENDMDL
