MODEL 1
REMARK minimizedAffinity -1.5613023
REMARK minimizedRMSD -1
REMARK  1 active torsions:
REMARK  status: ('A' for Active; 'I' for Inactive)
REMARK    1  A    between atoms: C1_2  and  C2_3 
ROOT
ATOM      1  C2  UNL d   1      -0.226   0.125   0.085  0.00  0.00    -0.076 A 
ATOM      2  C3  UNL d   1       0.867   0.033  -0.793  0.00  0.00     0.004 A 
ATOM      3  C4  UNL d   1       1.771  -1.025  -0.704  0.00  0.00    -0.003 A 
ATOM      4  C5  UNL d   1       1.596  -2.007   0.264  0.00  0.00     0.000 A 
ATOM      5  C6  UNL d   1       0.506  -1.941   1.132  0.00  0.00     0.000 A 
ATOM      6  C7  UNL d   1      -0.423  -0.891   1.045  0.00  0.00    -0.073 A 
ATOM      7  C8  UNL d   1      -1.577  -0.866   2.011  0.00  0.00     0.078 C 
ENDROOT
BRANCH   1   8
ATOM      8  C1  UNL d   1      -1.159   1.309  -0.041  0.00  0.00     0.053 C 
ATOM      9  C   UNL d   1      -1.242   1.835  -1.466  0.00  0.00     0.018 C 
ENDBRANCH   1   8
TORSDOF 1
ENDMDL
