MODEL 1
REMARK minimizedAffinity -4.11886072
REMARK minimizedRMSD -1
REMARK  1 active torsions:
REMARK  status: ('A' for Active; 'I' for Inactive)
REMARK    1  A    between atoms: C1_2  and  C2_3 
ROOT
ATOM      1  C2  UNL d   1       0.498  -1.520   0.825  0.00  0.00    -0.076 A 
ATOM      2  C3  UNL d   1      -0.713  -1.647   1.526  0.00  0.00     0.004 A 
ATOM      3  C4  UNL d   1      -1.671  -0.634   1.494  0.00  0.00    -0.003 A 
ATOM      4  C5  UNL d   1      -1.432   0.522   0.760  0.00  0.00     0.000 A 
ATOM      5  C6  UNL d   1      -0.243   0.658   0.044  0.00  0.00     0.000 A 
ATOM      6  C7  UNL d   1       0.725  -0.361   0.052  0.00  0.00    -0.073 A 
ATOM      7  C8  UNL d   1       1.992  -0.159  -0.734  0.00  0.00     0.078 C 
ENDROOT
BRANCH   1   8
ATOM      8  C1  UNL d   1       1.511  -2.639   0.919  0.00  0.00     0.053 C 
ATOM      9  C   UNL d   1       1.129  -3.685   1.955  0.00  0.00     0.018 C 
ENDBRANCH   1   8
TORSDOF 1
ENDMDL
