MODEL 1
REMARK minimizedAffinity -4.46356153
REMARK minimizedRMSD -1
REMARK  1 active torsions:
REMARK  status: ('A' for Active; 'I' for Inactive)
REMARK    1  A    between atoms: C3_4  and  O_7 
ROOT
ATOM      1  C   UNL d   1      -1.982   2.392   1.359  0.00  0.00    -0.033 A 
ATOM      2  C1  UNL d   1      -1.493   1.252   2.000  0.00  0.00     0.039 A 
ATOM      3  C2  UNL d   1      -0.547   0.444   1.366  0.00  0.00    -0.080 A 
ATOM      4  C3  UNL d   1      -0.098   0.787   0.094  0.00  0.00     0.150 A 
ATOM      5  C4  UNL d   1      -0.578   1.923  -0.549  0.00  0.00    -0.007 A 
ATOM      6  C5  UNL d   1      -1.523   2.728   0.085  0.00  0.00     0.039 A 
ENDROOT
BRANCH   4   7
ATOM      7  O   UNL d   1       0.821   0.026  -0.566  0.00  0.00    -0.526 OA
ATOM      8  H5  UNL d   1       1.040  -0.741  -0.012  0.00  0.00     0.418 HD
ENDBRANCH   4   7
TORSDOF 1
ENDMDL
