MODEL 1
REMARK minimizedAffinity -5.28548431
REMARK minimizedRMSD -1
REMARK  1 active torsions:
REMARK  status: ('A' for Active; 'I' for Inactive)
REMARK    1  A    between atoms: C3_4  and  O_7 
ROOT
ATOM      1  C   UNL d   1      -1.819   3.403   0.640  0.00  0.00    -0.033 A 
ATOM      2  C1  UNL d   1      -0.794   3.584  -0.291  0.00  0.00     0.039 A 
ATOM      3  C2  UNL d   1       0.023   2.511  -0.650  0.00  0.00    -0.080 A 
ATOM      4  C3  UNL d   1      -0.195   1.263  -0.073  0.00  0.00     0.150 A 
ATOM      5  C4  UNL d   1      -1.217   1.074   0.852  0.00  0.00    -0.007 A 
ATOM      6  C5  UNL d   1      -2.032   2.148   1.210  0.00  0.00     0.039 A 
ENDROOT
BRANCH   4   7
ATOM      7  O   UNL d   1       0.579   0.186  -0.388  0.00  0.00    -0.526 OA
ATOM      8  H5  UNL d   1       1.262   0.472  -1.017  0.00  0.00     0.418 HD
ENDBRANCH   4   7
TORSDOF 1
ENDMDL
