MODEL 1
REMARK minimizedAffinity -3.09785843
REMARK minimizedRMSD -1
REMARK  1 active torsions:
REMARK  status: ('A' for Active; 'I' for Inactive)
REMARK    1  A    between atoms: C3_4  and  O_7 
ROOT
ATOM      1  C   UNL d   1      -1.380   2.381   1.481  0.00  0.00    -0.033 A 
ATOM      2  C1  UNL d   1      -1.484   1.101   2.028  0.00  0.00     0.039 A 
ATOM      3  C2  UNL d   1      -0.908   0.011   1.373  0.00  0.00    -0.080 A 
ATOM      4  C3  UNL d   1      -0.231   0.214   0.174  0.00  0.00     0.150 A 
ATOM      5  C4  UNL d   1      -0.120   1.488  -0.375  0.00  0.00    -0.007 A 
ATOM      6  C5  UNL d   1      -0.696   2.575   0.280  0.00  0.00     0.039 A 
ENDROOT
BRANCH   4   7
ATOM      7  O   UNL d   1       0.344  -0.819  -0.505  0.00  0.00    -0.526 OA
ATOM      8  H5  UNL d   1       0.162  -1.643  -0.022  0.00  0.00     0.418 HD
ENDBRANCH   4   7
TORSDOF 1
ENDMDL
