MODEL 1
REMARK minimizedAffinity -4.34429264
REMARK minimizedRMSD -1
REMARK  1 active torsions:
REMARK  status: ('A' for Active; 'I' for Inactive)
REMARK    1  A    between atoms: C3_4  and  O_7 
ROOT
ATOM      1  C   UNL d   1      -1.512   3.219   0.963  0.00  0.00    -0.033 A 
ATOM      2  C1  UNL d   1      -0.898   3.297  -0.288  0.00  0.00     0.039 A 
ATOM      3  C2  UNL d   1      -0.251   2.180  -0.821  0.00  0.00    -0.080 A 
ATOM      4  C3  UNL d   1      -0.226   0.993  -0.094  0.00  0.00     0.150 A 
ATOM      5  C4  UNL d   1      -0.839   0.908   1.152  0.00  0.00    -0.007 A 
ATOM      6  C5  UNL d   1      -1.483   2.024   1.683  0.00  0.00     0.039 A 
ENDROOT
BRANCH   4   7
ATOM      7  O   UNL d   1       0.397  -0.122  -0.571  0.00  0.00    -0.526 OA
ATOM      8  H5  UNL d   1       0.800   0.094  -1.428  0.00  0.00     0.418 HD
ENDBRANCH   4   7
TORSDOF 1
ENDMDL
