MODEL 1
REMARK minimizedAffinity -5.08320284
REMARK minimizedRMSD -1
REMARK  1 active torsions:
REMARK  status: ('A' for Active; 'I' for Inactive)
REMARK    1  A    between atoms: C3_4  and  O_7 
ROOT
ATOM      1  C   UNL d   1      -1.687   2.847   1.172  0.00  0.00    -0.033 A 
ATOM      2  C1  UNL d   1      -0.905   3.030   0.029  0.00  0.00     0.039 A 
ATOM      3  C2  UNL d   1      -0.088   1.997  -0.432  0.00  0.00    -0.080 A 
ATOM      4  C3  UNL d   1      -0.062   0.787   0.255  0.00  0.00     0.150 A 
ATOM      5  C4  UNL d   1      -0.841   0.596   1.392  0.00  0.00    -0.007 A 
ATOM      6  C5  UNL d   1      -1.656   1.629   1.852  0.00  0.00     0.039 A 
ENDROOT
BRANCH   4   7
ATOM      7  O   UNL d   1       0.724  -0.249  -0.154  0.00  0.00    -0.526 OA
ATOM      8  H5  UNL d   1       1.228   0.037  -0.935  0.00  0.00     0.418 HD
ENDBRANCH   4   7
TORSDOF 1
ENDMDL
