MODEL 1
REMARK minimizedAffinity -3.90802741
REMARK minimizedRMSD -1
REMARK  1 active torsions:
REMARK  status: ('A' for Active; 'I' for Inactive)
REMARK    1  A    between atoms: C3_4  and  O_7 
ROOT
ATOM      1  C   UNL d   1       0.389  -0.308   0.502  0.00  0.00    -0.033 A 
ATOM      2  C1  UNL d   1       0.178   0.040   1.838  0.00  0.00     0.039 A 
ATOM      3  C2  UNL d   1      -0.906   0.847   2.187  0.00  0.00    -0.080 A 
ATOM      4  C3  UNL d   1      -1.772   1.297   1.194  0.00  0.00     0.150 A 
ATOM      5  C4  UNL d   1      -1.569   0.951  -0.138  0.00  0.00    -0.007 A 
ATOM      6  C5  UNL d   1      -0.485   0.146  -0.485  0.00  0.00     0.039 A 
ENDROOT
BRANCH   4   7
ATOM      7  O   UNL d   1      -2.841   2.090   1.486  0.00  0.00    -0.526 OA
ATOM      8  H5  UNL d   1      -2.838   2.271   2.441  0.00  0.00     0.418 HD
ENDBRANCH   4   7
TORSDOF 1
ENDMDL
