MODEL 1
REMARK minimizedAffinity -3.45408368
REMARK minimizedRMSD -1
REMARK  1 active torsions:
REMARK  status: ('A' for Active; 'I' for Inactive)
REMARK    1  A    between atoms: C3_4  and  O_7 
ROOT
ATOM      1  C   UNL d   1       0.481  -3.176  -2.575  0.00  0.00    -0.033 A 
ATOM      2  C1  UNL d   1      -0.492  -2.199  -2.797  0.00  0.00     0.039 A 
ATOM      3  C2  UNL d   1      -0.547  -1.067  -1.982  0.00  0.00    -0.080 A 
ATOM      4  C3  UNL d   1       0.376  -0.923  -0.950  0.00  0.00     0.150 A 
ATOM      5  C4  UNL d   1       1.350  -1.890  -0.725  0.00  0.00    -0.007 A 
ATOM      6  C5  UNL d   1       1.403  -3.020  -1.539  0.00  0.00     0.039 A 
ENDROOT
BRANCH   4   7
ATOM      7  O   UNL d   1       0.359   0.162  -0.125  0.00  0.00    -0.526 OA
ATOM      8  H5  UNL d   1      -0.386   0.731  -0.381  0.00  0.00     0.418 HD
ENDBRANCH   4   7
TORSDOF 1
ENDMDL
