MODEL 1
REMARK minimizedAffinity -4.44759607
REMARK minimizedRMSD -1
REMARK  1 active torsions:
REMARK  status: ('A' for Active; 'I' for Inactive)
REMARK    1  A    between atoms: C3_4  and  O_7 
ROOT
ATOM      1  C   UNL d   1       0.345  -0.184   0.494  0.00  0.00    -0.033 A 
ATOM      2  C1  UNL d   1      -0.286   0.593  -0.480  0.00  0.00     0.039 A 
ATOM      3  C2  UNL d   1      -1.379   1.390  -0.138  0.00  0.00    -0.080 A 
ATOM      4  C3  UNL d   1      -1.831   1.403   1.179  0.00  0.00     0.150 A 
ATOM      5  C4  UNL d   1      -1.204   0.635   2.155  0.00  0.00    -0.007 A 
ATOM      6  C5  UNL d   1      -0.113  -0.162   1.811  0.00  0.00     0.039 A 
ENDROOT
BRANCH   4   7
ATOM      7  O   UNL d   1      -2.897   2.162   1.559  0.00  0.00    -0.526 OA
ATOM      8  H5  UNL d   1      -3.247   2.617   0.775  0.00  0.00     0.418 HD
ENDBRANCH   4   7
TORSDOF 1
ENDMDL
