MODEL 1
REMARK minimizedAffinity -2.6903379
REMARK minimizedRMSD -1
REMARK  1 active torsions:
REMARK  status: ('A' for Active; 'I' for Inactive)
REMARK    1  A    between atoms: C3_4  and  O_7 
ROOT
ATOM      1  C   UNL d   1       0.377  -0.755  -0.065  0.00  0.00    -0.033 A 
ATOM      2  C1  UNL d   1      -0.005   0.434  -0.688  0.00  0.00     0.039 A 
ATOM      3  C2  UNL d   1      -0.853   1.327  -0.031  0.00  0.00    -0.080 A 
ATOM      4  C3  UNL d   1      -1.311   1.020   1.248  0.00  0.00     0.150 A 
ATOM      5  C4  UNL d   1      -0.931  -0.161   1.876  0.00  0.00    -0.007 A 
ATOM      6  C5  UNL d   1      -0.084  -1.052   1.218  0.00  0.00     0.039 A 
ENDROOT
BRANCH   4   7
ATOM      7  O   UNL d   1      -2.144   1.859   1.927  0.00  0.00    -0.526 OA
ATOM      8  H5  UNL d   1      -2.344   2.621   1.359  0.00  0.00     0.418 HD
ENDBRANCH   4   7
TORSDOF 1
ENDMDL
