MODEL 1
REMARK minimizedAffinity -4.8457284
REMARK minimizedRMSD -1
REMARK  1 active torsions:
REMARK  status: ('A' for Active; 'I' for Inactive)
REMARK    1  A    between atoms: C3_4  and  O_7 
ROOT
ATOM      1  C   UNL d   1      -1.825   3.255   0.976  0.00  0.00    -0.033 A 
ATOM      2  C1  UNL d   1      -1.984   1.921   1.353  0.00  0.00     0.039 A 
ATOM      3  C2  UNL d   1      -1.209   0.926   0.754  0.00  0.00    -0.080 A 
ATOM      4  C3  UNL d   1      -0.278   1.280  -0.220  0.00  0.00     0.150 A 
ATOM      5  C4  UNL d   1      -0.111   2.608  -0.598  0.00  0.00    -0.007 A 
ATOM      6  C5  UNL d   1      -0.887   3.599   0.001  0.00  0.00     0.039 A 
ENDROOT
BRANCH   4   7
ATOM      7  O   UNL d   1       0.498   0.344  -0.836  0.00  0.00    -0.526 OA
ATOM      8  H5  UNL d   1       0.253  -0.532  -0.495  0.00  0.00     0.418 HD
ENDBRANCH   4   7
TORSDOF 1
ENDMDL
