MODEL 1
REMARK minimizedAffinity -5.40989971
REMARK minimizedRMSD -1
REMARK  1 active torsions:
REMARK  status: ('A' for Active; 'I' for Inactive)
REMARK    1  A    between atoms: C3_4  and  O_7 
ROOT
ATOM      1  C   UNL d   1      -1.836   3.102   1.276  0.00  0.00    -0.033 A 
ATOM      2  C1  UNL d   1      -1.122   3.300   0.093  0.00  0.00     0.039 A 
ATOM      3  C2  UNL d   1      -0.368   2.260  -0.452  0.00  0.00    -0.080 A 
ATOM      4  C3  UNL d   1      -0.337   1.027   0.194  0.00  0.00     0.150 A 
ATOM      5  C4  UNL d   1      -1.049   0.821   1.371  0.00  0.00    -0.007 A 
ATOM      6  C5  UNL d   1      -1.800   1.862   1.915  0.00  0.00     0.039 A 
ENDROOT
BRANCH   4   7
ATOM      7  O   UNL d   1       0.389  -0.017  -0.298  0.00  0.00    -0.526 OA
ATOM      8  H5  UNL d   1       0.851   0.279  -1.099  0.00  0.00     0.418 HD
ENDBRANCH   4   7
TORSDOF 1
ENDMDL
