MODEL 1
REMARK minimizedAffinity -4.93482208
REMARK minimizedRMSD -1
REMARK  1 active torsions:
REMARK  status: ('A' for Active; 'I' for Inactive)
REMARK    1  A    between atoms: C3_4  and  O_7 
ROOT
ATOM      1  C   UNL d   1      -1.892   1.445   1.360  0.00  0.00    -0.033 A 
ATOM      2  C1  UNL d   1      -1.254   0.384   2.006  0.00  0.00     0.039 A 
ATOM      3  C2  UNL d   1      -0.251  -0.333   1.350  0.00  0.00    -0.080 A 
ATOM      4  C3  UNL d   1       0.104   0.021   0.051  0.00  0.00     0.150 A 
ATOM      5  C4  UNL d   1      -0.525   1.079  -0.596  0.00  0.00    -0.007 A 
ATOM      6  C5  UNL d   1      -1.526   1.793   0.060  0.00  0.00     0.039 A 
ENDROOT
BRANCH   4   7
ATOM      7  O   UNL d   1       1.073  -0.653  -0.631  0.00  0.00    -0.526 OA
ATOM      8  H5  UNL d   1       1.399  -1.376  -0.070  0.00  0.00     0.418 HD
ENDBRANCH   4   7
TORSDOF 1
ENDMDL
