MODEL 1
REMARK minimizedAffinity -4.84484529
REMARK minimizedRMSD -1
REMARK  1 active torsions:
REMARK  status: ('A' for Active; 'I' for Inactive)
REMARK    1  A    between atoms: C3_4  and  O_7 
ROOT
ATOM      1  C   UNL d   1      -1.600   2.748   0.915  0.00  0.00    -0.033 A 
ATOM      2  C1  UNL d   1      -0.779   2.824  -0.212  0.00  0.00     0.039 A 
ATOM      3  C2  UNL d   1      -0.152   1.676  -0.700  0.00  0.00    -0.080 A 
ATOM      4  C3  UNL d   1      -0.354   0.460  -0.053  0.00  0.00     0.150 A 
ATOM      5  C4  UNL d   1      -1.174   0.376   1.067  0.00  0.00    -0.007 A 
ATOM      6  C5  UNL d   1      -1.799   1.524   1.553  0.00  0.00     0.039 A 
ENDROOT
BRANCH   4   7
ATOM      7  O   UNL d   1       0.241  -0.686  -0.490  0.00  0.00    -0.526 OA
ATOM      8  H5  UNL d   1       0.800  -0.471  -1.254  0.00  0.00     0.418 HD
ENDBRANCH   4   7
TORSDOF 1
ENDMDL
