MODEL 1
REMARK minimizedAffinity -4.9713645
REMARK minimizedRMSD -1
REMARK  0 active torsions:
REMARK  status: ('A' for Active; 'I' for Inactive)
ROOT
ATOM      1  C   UNL d   1      -1.951   1.872   1.035  0.00  0.00     0.078 C 
ATOM      2  C1  UNL d   1      -0.788   1.183   0.387  0.00  0.00    -0.077 A 
ATOM      3  C2  UNL d   1      -0.147   1.741  -0.726  0.00  0.00    -0.001 A 
ATOM      4  C3  UNL d   1       0.929   1.084  -1.325  0.00  0.00     0.003 A 
ATOM      5  C4  UNL d   1       1.373  -0.136  -0.818  0.00  0.00    -0.005 A 
ATOM      6  C5  UNL d   1       0.741  -0.700   0.288  0.00  0.00     0.003 A 
ATOM      7  C6  UNL d   1      -0.336  -0.045   0.888  0.00  0.00    -0.001 A 
ENDROOT
TORSDOF 0
ENDMDL
