MODEL 1
REMARK minimizedAffinity -0.835231006
REMARK minimizedRMSD -1
REMARK  0 active torsions:
REMARK  status: ('A' for Active; 'I' for Inactive)
ROOT
ATOM      1  C   UNL d   1      -1.633   1.548   2.058  0.00  0.00     0.078 C 
ATOM      2  C1  UNL d   1      -0.760   0.825   1.077  0.00  0.00    -0.077 A 
ATOM      3  C2  UNL d   1      -0.393  -0.510   1.285  0.00  0.00    -0.001 A 
ATOM      4  C3  UNL d   1       0.428  -1.168   0.369  0.00  0.00     0.003 A 
ATOM      5  C4  UNL d   1       0.892  -0.498  -0.762  0.00  0.00    -0.005 A 
ATOM      6  C5  UNL d   1       0.534   0.831  -0.977  0.00  0.00     0.003 A 
ATOM      7  C6  UNL d   1      -0.287   1.491  -0.061  0.00  0.00    -0.001 A 
ENDROOT
TORSDOF 0
ENDMDL
