MODEL 1
REMARK minimizedAffinity -5.23774767
REMARK minimizedRMSD -1
REMARK  0 active torsions:
REMARK  status: ('A' for Active; 'I' for Inactive)
ROOT
ATOM      1  C   UNL d   1       0.788  -0.536  -0.707  0.00  0.00     0.078 C 
ATOM      2  C1  UNL d   1      -0.108   0.289   0.167  0.00  0.00    -0.077 A 
ATOM      3  C2  UNL d   1      -0.603   1.524  -0.268  0.00  0.00    -0.001 A 
ATOM      4  C3  UNL d   1      -1.429   2.285   0.561  0.00  0.00     0.003 A 
ATOM      5  C4  UNL d   1      -1.766   1.821   1.830  0.00  0.00    -0.005 A 
ATOM      6  C5  UNL d   1      -1.277   0.593   2.273  0.00  0.00     0.003 A 
ATOM      7  C6  UNL d   1      -0.451  -0.169   1.446  0.00  0.00    -0.001 A 
ENDROOT
TORSDOF 0
ENDMDL
