MODEL 1
REMARK minimizedAffinity -4.09588575
REMARK minimizedRMSD -1
REMARK  0 active torsions:
REMARK  status: ('A' for Active; 'I' for Inactive)
ROOT
ATOM      1  C   UNL d   1      -3.136   1.156  -0.735  0.00  0.00     0.078 C 
ATOM      2  C1  UNL d   1      -1.644   1.005  -0.729  0.00  0.00    -0.077 A 
ATOM      3  C2  UNL d   1      -1.013   0.127   0.160  0.00  0.00    -0.001 A 
ATOM      4  C3  UNL d   1       0.378   0.004   0.162  0.00  0.00     0.003 A 
ATOM      5  C4  UNL d   1       1.148   0.756  -0.722  0.00  0.00    -0.005 A 
ATOM      6  C5  UNL d   1       0.528   1.634  -1.609  0.00  0.00     0.003 A 
ATOM      7  C6  UNL d   1      -0.862   1.759  -1.613  0.00  0.00    -0.001 A 
ENDROOT
TORSDOF 0
ENDMDL
