MODEL 1
REMARK minimizedAffinity -3.36065531
REMARK minimizedRMSD -1
REMARK  0 active torsions:
REMARK  status: ('A' for Active; 'I' for Inactive)
ROOT
ATOM      1  C   UNL d   1       0.772  -0.628  -0.535  0.00  0.00     0.078 C 
ATOM      2  C1  UNL d   1      -0.133   0.309   0.207  0.00  0.00    -0.077 A 
ATOM      3  C2  UNL d   1      -0.415   1.586  -0.293  0.00  0.00    -0.001 A 
ATOM      4  C3  UNL d   1      -1.252   2.451   0.414  0.00  0.00     0.003 A 
ATOM      5  C4  UNL d   1      -1.813   2.049   1.624  0.00  0.00    -0.005 A 
ATOM      6  C5  UNL d   1      -1.537   0.781   2.130  0.00  0.00     0.003 A 
ATOM      7  C6  UNL d   1      -0.700  -0.086   1.425  0.00  0.00    -0.001 A 
ENDROOT
TORSDOF 0
ENDMDL
