MODEL 1
REMARK minimizedAffinity -2.58890939
REMARK minimizedRMSD -1
REMARK  0 active torsions:
REMARK  status: ('A' for Active; 'I' for Inactive)
ROOT
ATOM      1  C   UNL d   1      -0.079  -1.898  -1.583  0.00  0.00     0.078 C 
ATOM      2  C1  UNL d   1      -0.235  -0.796  -0.578  0.00  0.00    -0.077 A 
ATOM      3  C2  UNL d   1       0.113  -0.989   0.764  0.00  0.00    -0.001 A 
ATOM      4  C3  UNL d   1      -0.047   0.043   1.690  0.00  0.00     0.003 A 
ATOM      5  C4  UNL d   1      -0.557   1.274   1.285  0.00  0.00    -0.005 A 
ATOM      6  C5  UNL d   1      -0.909   1.475  -0.049  0.00  0.00     0.003 A 
ATOM      7  C6  UNL d   1      -0.749   0.444  -0.976  0.00  0.00    -0.001 A 
ENDROOT
TORSDOF 0
ENDMDL
