MODEL 1
REMARK minimizedAffinity -5.08686829
REMARK minimizedRMSD -1
REMARK  0 active torsions:
REMARK  status: ('A' for Active; 'I' for Inactive)
ROOT
ATOM      1  C   UNL d   1       0.948  -0.736  -0.666  0.00  0.00     0.078 C 
ATOM      2  C1  UNL d   1      -0.012   0.157   0.062  0.00  0.00    -0.077 A 
ATOM      3  C2  UNL d   1      -0.454  -0.159   1.352  0.00  0.00    -0.001 A 
ATOM      4  C3  UNL d   1      -1.355   0.676   2.015  0.00  0.00     0.003 A 
ATOM      5  C4  UNL d   1      -1.822   1.833   1.394  0.00  0.00    -0.005 A 
ATOM      6  C5  UNL d   1      -1.389   2.156   0.110  0.00  0.00     0.003 A 
ATOM      7  C6  UNL d   1      -0.489   1.321  -0.554  0.00  0.00    -0.001 A 
ENDROOT
TORSDOF 0
ENDMDL
