MODEL 1
REMARK minimizedAffinity -1.08379054
REMARK minimizedRMSD -1
REMARK  0 active torsions:
REMARK  status: ('A' for Active; 'I' for Inactive)
ROOT
ATOM      1  C   UNL d   1      -1.129   2.217  -0.738  0.00  0.00     0.078 C 
ATOM      2  C1  UNL d   1      -0.398   0.942  -0.440  0.00  0.00    -0.077 A 
ATOM      3  C2  UNL d   1      -0.623   0.243   0.752  0.00  0.00    -0.001 A 
ATOM      4  C3  UNL d   1       0.072  -0.937   1.020  0.00  0.00     0.003 A 
ATOM      5  C4  UNL d   1       0.997  -1.428   0.102  0.00  0.00    -0.005 A 
ATOM      6  C5  UNL d   1       1.229  -0.739  -1.087  0.00  0.00     0.003 A 
ATOM      7  C6  UNL d   1       0.535   0.442  -1.357  0.00  0.00    -0.001 A 
ENDROOT
TORSDOF 0
ENDMDL
