MODEL 1
REMARK minimizedAffinity -5.48909998
REMARK minimizedRMSD -1
REMARK  0 active torsions:
REMARK  status: ('A' for Active; 'I' for Inactive)
ROOT
ATOM      1  C   UNL d   1       0.711  -1.003  -0.633  0.00  0.00     0.078 C 
ATOM      2  C1  UNL d   1      -0.063   0.033   0.126  0.00  0.00    -0.077 A 
ATOM      3  C2  UNL d   1      -0.402  -0.161   1.471  0.00  0.00    -0.001 A 
ATOM      4  C3  UNL d   1      -1.130   0.807   2.163  0.00  0.00     0.003 A 
ATOM      5  C4  UNL d   1      -1.527   1.977   1.518  0.00  0.00    -0.005 A 
ATOM      6  C5  UNL d   1      -1.197   2.179   0.180  0.00  0.00     0.003 A 
ATOM      7  C6  UNL d   1      -0.468   1.211  -0.514  0.00  0.00    -0.001 A 
ENDROOT
TORSDOF 0
ENDMDL
