MODEL 1
REMARK minimizedAffinity -5.06476688
REMARK minimizedRMSD -1
REMARK  0 active torsions:
REMARK  status: ('A' for Active; 'I' for Inactive)
ROOT
ATOM      1  C   UNL d   1       0.529  -0.621  -0.581  0.00  0.00     0.078 C 
ATOM      2  C1  UNL d   1      -0.294   0.354   0.206  0.00  0.00    -0.077 A 
ATOM      3  C2  UNL d   1      -0.778   0.028   1.479  0.00  0.00    -0.001 A 
ATOM      4  C3  UNL d   1      -1.551   0.942   2.196  0.00  0.00     0.003 A 
ATOM      5  C4  UNL d   1      -1.849   2.188   1.648  0.00  0.00    -0.005 A 
ATOM      6  C5  UNL d   1      -1.374   2.521   0.381  0.00  0.00     0.003 A 
ATOM      7  C6  UNL d   1      -0.601   1.608  -0.337  0.00  0.00    -0.001 A 
ENDROOT
TORSDOF 0
ENDMDL
