MODEL 1
REMARK minimizedAffinity -4.55818367
REMARK minimizedRMSD -1
REMARK  0 active torsions:
REMARK  status: ('A' for Active; 'I' for Inactive)
ROOT
ATOM      1  C   UNL d   1      -2.149   2.131   1.775  0.00  0.00     0.078 C 
ATOM      2  C1  UNL d   1      -1.263   1.376   0.830  0.00  0.00    -0.077 A 
ATOM      3  C2  UNL d   1      -0.843   0.073   1.121  0.00  0.00    -0.001 A 
ATOM      4  C3  UNL d   1      -0.009  -0.614   0.236  0.00  0.00     0.003 A 
ATOM      5  C4  UNL d   1       0.413  -0.005  -0.944  0.00  0.00    -0.005 A 
ATOM      6  C5  UNL d   1       0.002   1.293  -1.240  0.00  0.00     0.003 A 
ATOM      7  C6  UNL d   1      -0.832   1.982  -0.357  0.00  0.00    -0.001 A 
ENDROOT
TORSDOF 0
ENDMDL
