MODEL 1
REMARK minimizedAffinity -5.08107662
REMARK minimizedRMSD -1
REMARK  0 active torsions:
REMARK  status: ('A' for Active; 'I' for Inactive)
ROOT
ATOM      1  C   UNL d   1      -2.594   1.824   1.454  0.00  0.00     0.078 C 
ATOM      2  C1  UNL d   1      -1.370   1.215   0.839  0.00  0.00    -0.077 A 
ATOM      3  C2  UNL d   1      -0.776   1.781  -0.296  0.00  0.00    -0.001 A 
ATOM      4  C3  UNL d   1       0.357   1.197  -0.864  0.00  0.00     0.003 A 
ATOM      5  C4  UNL d   1       0.906   0.045  -0.305  0.00  0.00    -0.005 A 
ATOM      6  C5  UNL d   1       0.321  -0.526   0.823  0.00  0.00     0.003 A 
ATOM      7  C6  UNL d   1      -0.813   0.056   1.393  0.00  0.00    -0.001 A 
ENDROOT
TORSDOF 0
ENDMDL
