MODEL 1
REMARK minimizedAffinity -3.23851824
REMARK minimizedRMSD -1
REMARK  0 active torsions:
REMARK  status: ('A' for Active; 'I' for Inactive)
ROOT
ATOM      1  C   UNL d   1      -0.612  -0.492   2.100  0.00  0.00     0.078 C 
ATOM      2  C1  UNL d   1      -0.283   0.200   0.811  0.00  0.00    -0.077 A 
ATOM      3  C2  UNL d   1       0.836  -0.175   0.057  0.00  0.00    -0.001 A 
ATOM      4  C3  UNL d   1       1.135   0.484  -1.137  0.00  0.00     0.003 A 
ATOM      5  C4  UNL d   1       0.322   1.522  -1.586  0.00  0.00    -0.005 A 
ATOM      6  C5  UNL d   1      -0.793   1.904  -0.841  0.00  0.00     0.003 A 
ATOM      7  C6  UNL d   1      -1.094   1.246   0.352  0.00  0.00    -0.001 A 
ENDROOT
TORSDOF 0
ENDMDL
