MODEL 1
REMARK minimizedAffinity -3.32174516
REMARK minimizedRMSD -1
REMARK  0 active torsions:
REMARK  status: ('A' for Active; 'I' for Inactive)
ROOT
ATOM      1  C   UNL d   1       1.212  -1.016   0.020  0.00  0.00     0.078 C 
ATOM      2  C1  UNL d   1       0.086  -0.117   0.433  0.00  0.00    -0.077 A 
ATOM      3  C2  UNL d   1      -0.563   0.702  -0.499  0.00  0.00    -0.001 A 
ATOM      4  C3  UNL d   1      -1.604   1.541  -0.099  0.00  0.00     0.003 A 
ATOM      5  C4  UNL d   1      -2.004   1.570   1.236  0.00  0.00    -0.005 A 
ATOM      6  C5  UNL d   1      -1.363   0.761   2.171  0.00  0.00     0.003 A 
ATOM      7  C6  UNL d   1      -0.322  -0.079   1.772  0.00  0.00    -0.001 A 
ENDROOT
TORSDOF 0
ENDMDL
