MODEL 1
REMARK minimizedAffinity -3.85342455
REMARK minimizedRMSD -1
REMARK  0 active torsions:
REMARK  status: ('A' for Active; 'I' for Inactive)
ROOT
ATOM      1  C   UNL d   1      -2.831   1.729   0.091  0.00  0.00     0.078 C 
ATOM      2  C1  UNL d   1      -1.446   1.182  -0.086  0.00  0.00    -0.077 A 
ATOM      3  C2  UNL d   1      -0.618   1.634  -1.120  0.00  0.00    -0.001 A 
ATOM      4  C3  UNL d   1       0.665   1.109  -1.278  0.00  0.00     0.003 A 
ATOM      5  C4  UNL d   1       1.131   0.127  -0.407  0.00  0.00    -0.005 A 
ATOM      6  C5  UNL d   1       0.314  -0.331   0.624  0.00  0.00     0.003 A 
ATOM      7  C6  UNL d   1      -0.970   0.193   0.784  0.00  0.00    -0.001 A 
ENDROOT
TORSDOF 0
ENDMDL
