MODEL 1
REMARK minimizedAffinity -4.33716679
REMARK minimizedRMSD -1
REMARK  0 active torsions:
REMARK  status: ('A' for Active; 'I' for Inactive)
ROOT
ATOM      1  C   UNL d   1       0.844  -0.748  -0.702  0.00  0.00     0.078 C 
ATOM      2  C1  UNL d   1      -0.048   0.062   0.192  0.00  0.00    -0.077 A 
ATOM      3  C2  UNL d   1       0.038  -0.046   1.585  0.00  0.00    -0.001 A 
ATOM      4  C3  UNL d   1      -0.805   0.706   2.404  0.00  0.00     0.003 A 
ATOM      5  C4  UNL d   1      -1.741   1.571   1.839  0.00  0.00    -0.005 A 
ATOM      6  C5  UNL d   1      -1.835   1.683   0.454  0.00  0.00     0.003 A 
ATOM      7  C6  UNL d   1      -0.992   0.931  -0.367  0.00  0.00    -0.001 A 
ENDROOT
TORSDOF 0
ENDMDL
