MODEL 1
REMARK minimizedAffinity -4.5734477
REMARK minimizedRMSD -1
REMARK  0 active torsions:
REMARK  status: ('A' for Active; 'I' for Inactive)
ROOT
ATOM      1  C   UNL d   1      -2.118   2.145   1.796  0.00  0.00     0.078 C 
ATOM      2  C1  UNL d   1      -1.223   1.169   1.093  0.00  0.00    -0.077 A 
ATOM      3  C2  UNL d   1      -0.958  -0.091   1.644  0.00  0.00    -0.001 A 
ATOM      4  C3  UNL d   1      -0.115  -0.987   0.983  0.00  0.00     0.003 A 
ATOM      5  C4  UNL d   1       0.470  -0.631  -0.231  0.00  0.00    -0.005 A 
ATOM      6  C5  UNL d   1       0.214   0.621  -0.785  0.00  0.00     0.003 A 
ATOM      7  C6  UNL d   1      -0.629   1.518  -0.126  0.00  0.00    -0.001 A 
ENDROOT
TORSDOF 0
ENDMDL
