MODEL 1
REMARK minimizedAffinity 7.61996269
REMARK minimizedRMSD -1
REMARK  0 active torsions:
REMARK  status: ('A' for Active; 'I' for Inactive)
ROOT
ATOM      1  C   UNL d   1       1.693  -0.390   1.253  0.00  0.00     0.172 C 
ATOM      2  N   UNL d   1       0.702  -1.438   1.303  0.00  0.00    -0.070 N 
ATOM      3  C1  UNL d   1      -0.655  -1.254   1.323  0.00  0.00    -0.004 A 
ATOM      4  C2  UNL d   1      -1.248  -2.497   1.370  0.00  0.00    -0.047 A 
ATOM      5  C3  UNL d   1      -0.213  -3.461   1.379  0.00  0.00    -0.047 A 
ATOM      6  C4  UNL d   1       0.985  -2.779   1.337  0.00  0.00    -0.004 A 
ENDROOT
TORSDOF 0
ENDMDL
