MODEL 1
REMARK minimizedAffinity -0.537215292
REMARK minimizedRMSD -1
REMARK  0 active torsions:
REMARK  status: ('A' for Active; 'I' for Inactive)
ROOT
ATOM      1  C   UNL d   1      -5.245  -2.450  -5.139  0.00  0.00     0.172 C 
ATOM      2  N   UNL d   1      -5.297  -3.893  -5.122  0.00  0.00    -0.070 N 
ATOM      3  C1  UNL d   1      -5.997  -4.677  -6.000  0.00  0.00    -0.004 A 
ATOM      4  C2  UNL d   1      -5.789  -5.993  -5.648  0.00  0.00    -0.047 A 
ATOM      5  C3  UNL d   1      -4.936  -6.000  -4.519  0.00  0.00    -0.047 A 
ATOM      6  C4  UNL d   1      -4.647  -4.687  -4.214  0.00  0.00    -0.004 A 
ENDROOT
TORSDOF 0
ENDMDL
