MODEL 1
REMARK minimizedAffinity -0.772412598
REMARK minimizedRMSD -1
REMARK  0 active torsions:
REMARK  status: ('A' for Active; 'I' for Inactive)
ROOT
ATOM      1  C   UNL d   1      -4.195  -5.966  -5.502  0.00  0.00     0.172 C 
ATOM      2  N   UNL d   1      -4.662  -4.613  -5.691  0.00  0.00    -0.070 N 
ATOM      3  C1  UNL d   1      -5.969  -4.234  -5.847  0.00  0.00    -0.004 A 
ATOM      4  C2  UNL d   1      -5.996  -2.864  -5.998  0.00  0.00    -0.047 A 
ATOM      5  C3  UNL d   1      -4.659  -2.404  -5.932  0.00  0.00    -0.047 A 
ATOM      6  C4  UNL d   1      -3.854  -3.508  -5.741  0.00  0.00    -0.004 A 
ENDROOT
TORSDOF 0
ENDMDL
