MODEL 1
REMARK minimizedAffinity 5.68303919
REMARK minimizedRMSD -1
REMARK  0 active torsions:
REMARK  status: ('A' for Active; 'I' for Inactive)
ROOT
ATOM      1  C   UNL d   1       0.841  -2.277   3.508  0.00  0.00     0.172 C 
ATOM      2  N   UNL d   1       1.374  -1.592   2.353  0.00  0.00    -0.070 N 
ATOM      3  C1  UNL d   1       1.255  -0.253   2.094  0.00  0.00    -0.004 A 
ATOM      4  C2  UNL d   1       1.896   0.005   0.902  0.00  0.00    -0.047 A 
ATOM      5  C3  UNL d   1       2.417  -1.223   0.427  0.00  0.00    -0.047 A 
ATOM      6  C4  UNL d   1       2.079  -2.194   1.345  0.00  0.00    -0.004 A 
ENDROOT
TORSDOF 0
ENDMDL
