MODEL 1
REMARK minimizedAffinity 5.83553123
REMARK minimizedRMSD -1
REMARK  0 active torsions:
REMARK  status: ('A' for Active; 'I' for Inactive)
ROOT
ATOM      1  C   UNL d   1      -5.450  -2.510  -4.501  0.00  0.00     0.172 C 
ATOM      2  N   UNL d   1      -5.233  -3.890  -4.867  0.00  0.00    -0.070 N 
ATOM      3  C1  UNL d   1      -4.509  -4.802  -4.148  0.00  0.00    -0.004 A 
ATOM      4  C2  UNL d   1      -4.541  -5.999  -4.830  0.00  0.00    -0.047 A 
ATOM      5  C3  UNL d   1      -5.312  -5.799  -6.000  0.00  0.00    -0.047 A 
ATOM      6  C4  UNL d   1      -5.728  -4.485  -5.998  0.00  0.00    -0.004 A 
ENDROOT
TORSDOF 0
ENDMDL
