MODEL 1
REMARK minimizedAffinity 9.35619068
REMARK minimizedRMSD -1
REMARK  0 active torsions:
REMARK  status: ('A' for Active; 'I' for Inactive)
ROOT
ATOM      1  C   UNL d   1      -5.350   3.504   1.922  0.00  0.00     0.172 C 
ATOM      2  N   UNL d   1      -4.191   3.123   1.149  0.00  0.00    -0.070 N 
ATOM      3  C1  UNL d   1      -3.252   2.198   1.522  0.00  0.00    -0.004 A 
ATOM      4  C2  UNL d   1      -2.313   2.122   0.517  0.00  0.00    -0.047 A 
ATOM      5  C3  UNL d   1      -2.700   3.033  -0.495  0.00  0.00    -0.047 A 
ATOM      6  C4  UNL d   1      -3.866   3.639  -0.077  0.00  0.00    -0.004 A 
ENDROOT
TORSDOF 0
ENDMDL
