MODEL 1
REMARK minimizedAffinity 16.9340649
REMARK minimizedRMSD -1
REMARK  0 active torsions:
REMARK  status: ('A' for Active; 'I' for Inactive)
ROOT
ATOM      1  O1  BZF d   1       2.690  -2.613   0.948  0.00  0.00    -0.204 OA
ATOM      2  C2  BZF d   1       3.183  -1.744  -0.006  0.00  0.00     0.174 A 
ATOM      3  C3  BZF d   1       4.502  -1.948  -0.203  0.00  0.00    -0.012 A 
ATOM      4  C3A BZF d   1       4.835  -3.072   0.617  0.00  0.00    -0.107 A 
ATOM      5  C4  BZF d   1       5.993  -3.762   0.839  0.00  0.00     0.055 A 
ATOM      6  C5  BZF d   1       5.998  -4.765   1.756  0.00  0.00    -0.016 A 
ATOM      7  C6  BZF d   1       4.867  -5.102   2.471  0.00  0.00     0.022 A 
ATOM      8  C7  BZF d   1       3.695  -4.450   2.281  0.00  0.00     0.029 A 
ATOM      9  C7A BZF d   1       3.677  -3.457   1.332  0.00  0.00     0.058 A 
ENDROOT
TORSDOF 0
ENDMDL
