MODEL 1
REMARK minimizedAffinity 8.48505592
REMARK minimizedRMSD -1
REMARK  0 active torsions:
REMARK  status: ('A' for Active; 'I' for Inactive)
ROOT
ATOM      1  O1  BZF d   1       5.148  -4.273  -1.136  0.00  0.00    -0.204 OA
ATOM      2  C2  BZF d   1       5.480  -4.724  -2.398  0.00  0.00     0.174 A 
ATOM      3  C3  BZF d   1       4.394  -5.207  -3.035  0.00  0.00    -0.012 A 
ATOM      4  C3A BZF d   1       3.298  -4.963  -2.148  0.00  0.00    -0.107 A 
ATOM      5  C4  BZF d   1       1.956  -5.204  -2.225  0.00  0.00     0.055 A 
ATOM      6  C5  BZF d   1       1.170  -4.911  -1.156  0.00  0.00    -0.016 A 
ATOM      7  C6  BZF d   1       1.693  -4.383   0.006  0.00  0.00     0.022 A 
ATOM      8  C7  BZF d   1       3.017  -4.122   0.128  0.00  0.00     0.029 A 
ATOM      9  C7A BZF d   1       3.809  -4.386  -0.963  0.00  0.00     0.058 A 
ENDROOT
TORSDOF 0
ENDMDL
