MODEL 1
REMARK minimizedAffinity 9.72922611
REMARK minimizedRMSD -1
REMARK  0 active torsions:
REMARK  status: ('A' for Active; 'I' for Inactive)
ROOT
ATOM      1  O1  BZF d   1      -3.270   0.865  -3.637  0.00  0.00    -0.204 OA
ATOM      2  C2  BZF d   1      -3.446   0.660  -2.283  0.00  0.00     0.174 A 
ATOM      3  C3  BZF d   1      -3.866   1.789  -1.678  0.00  0.00    -0.012 A 
ATOM      4  C3A BZF d   1      -4.048   2.737  -2.735  0.00  0.00    -0.107 A 
ATOM      5  C4  BZF d   1      -4.468   4.036  -2.769  0.00  0.00     0.055 A 
ATOM      6  C5  BZF d   1      -4.463   4.700  -3.954  0.00  0.00    -0.016 A 
ATOM      7  C6  BZF d   1      -4.041   4.099  -5.122  0.00  0.00     0.022 A 
ATOM      8  C7  BZF d   1      -3.621   2.810  -5.139  0.00  0.00     0.029 A 
ATOM      9  C7A BZF d   1      -3.656   2.126  -3.948  0.00  0.00     0.058 A 
ENDROOT
TORSDOF 0
ENDMDL
