MODEL 1
REMARK minimizedAffinity 18.2847557
REMARK minimizedRMSD -1
REMARK  0 active torsions:
REMARK  status: ('A' for Active; 'I' for Inactive)
ROOT
ATOM      1  O1  BZF d   1      -3.097   2.281  -4.419  0.00  0.00    -0.204 OA
ATOM      2  C2  BZF d   1      -3.412   1.404  -3.399  0.00  0.00     0.174 A 
ATOM      3  C3  BZF d   1      -4.466   1.854  -2.689  0.00  0.00    -0.012 A 
ATOM      4  C3A BZF d   1      -4.891   3.044  -3.361  0.00  0.00    -0.107 A 
ATOM      5  C4  BZF d   1      -5.902   3.936  -3.142  0.00  0.00     0.055 A 
ATOM      6  C5  BZF d   1      -6.000   5.033  -3.939  0.00  0.00    -0.016 A 
ATOM      7  C6  BZF d   1      -5.101   5.272  -4.958  0.00  0.00     0.022 A 
ATOM      8  C7  BZF d   1      -4.085   4.413  -5.217  0.00  0.00     0.029 A 
ATOM      9  C7A BZF d   1      -4.003   3.287  -4.434  0.00  0.00     0.058 A 
ENDROOT
TORSDOF 0
ENDMDL
