MODEL 1
REMARK minimizedAffinity 18.8827782
REMARK minimizedRMSD -1
REMARK  0 active torsions:
REMARK  status: ('A' for Active; 'I' for Inactive)
ROOT
ATOM      1  O1  BZF d   1      -1.033  -3.747   0.647  0.00  0.00    -0.204 OA
ATOM      2  C2  BZF d   1      -1.995  -4.243  -0.212  0.00  0.00     0.174 A 
ATOM      3  C3  BZF d   1      -1.425  -4.793  -1.303  0.00  0.00    -0.012 A 
ATOM      4  C3A BZF d   1      -0.015  -4.712  -1.072  0.00  0.00    -0.107 A 
ATOM      5  C4  BZF d   1       1.078  -5.107  -1.789  0.00  0.00     0.055 A 
ATOM      6  C5  BZF d   1       2.319  -4.816  -1.316  0.00  0.00    -0.016 A 
ATOM      7  C6  BZF d   1       2.502  -4.128  -0.134  0.00  0.00     0.022 A 
ATOM      8  C7  BZF d   1       1.448  -3.720   0.614  0.00  0.00     0.029 A 
ATOM      9  C7A BZF d   1       0.194  -4.042   0.156  0.00  0.00     0.058 A 
ENDROOT
TORSDOF 0
ENDMDL
