MODEL 1
REMARK minimizedAffinity 13.1877766
REMARK minimizedRMSD -1
REMARK  0 active torsions:
REMARK  status: ('A' for Active; 'I' for Inactive)
ROOT
ATOM      1  O1  BZF d   1       0.675  -2.958   1.684  0.00  0.00    -0.204 OA
ATOM      2  C2  BZF d   1       1.422  -1.920   2.205  0.00  0.00     0.174 A 
ATOM      3  C3  BZF d   1       2.378  -1.534   1.336  0.00  0.00    -0.012 A 
ATOM      4  C3A BZF d   1       2.158  -2.322   0.162  0.00  0.00    -0.107 A 
ATOM      5  C4  BZF d   1       2.775  -2.386  -1.055  0.00  0.00     0.055 A 
ATOM      6  C5  BZF d   1       2.363  -3.315  -1.957  0.00  0.00    -0.016 A 
ATOM      7  C6  BZF d   1       1.342  -4.199  -1.673  0.00  0.00     0.022 A 
ATOM      8  C7  BZF d   1       0.697  -4.171  -0.482  0.00  0.00     0.029 A 
ATOM      9  C7A BZF d   1       1.089  -3.211   0.419  0.00  0.00     0.058 A 
ENDROOT
TORSDOF 0
ENDMDL
