MODEL 1
REMARK minimizedAffinity 14.074439
REMARK minimizedRMSD -1
REMARK  0 active torsions:
REMARK  status: ('A' for Active; 'I' for Inactive)
ROOT
ATOM      1  O1  BZF d   1      -1.309  -4.338   0.829  0.00  0.00    -0.204 OA
ATOM      2  C2  BZF d   1      -2.342  -4.895   0.100  0.00  0.00     0.174 A 
ATOM      3  C3  BZF d   1      -1.920  -5.255  -1.129  0.00  0.00    -0.012 A 
ATOM      4  C3A BZF d   1      -0.514  -4.986  -1.138  0.00  0.00    -0.107 A 
ATOM      5  C4  BZF d   1       0.467  -5.148  -2.074  0.00  0.00     0.055 A 
ATOM      6  C5  BZF d   1       1.725  -4.717  -1.794  0.00  0.00    -0.016 A 
ATOM      7  C6  BZF d   1       2.035  -4.117  -0.592  0.00  0.00     0.022 A 
ATOM      8  C7  BZF d   1       1.097  -3.939   0.370  0.00  0.00     0.029 A 
ATOM      9  C7A BZF d   1      -0.168  -4.402   0.102  0.00  0.00     0.058 A 
ENDROOT
TORSDOF 0
ENDMDL
