MODEL 1
REMARK minimizedAffinity 7.46645975
REMARK minimizedRMSD -1
REMARK  0 active torsions:
REMARK  status: ('A' for Active; 'I' for Inactive)
ROOT
ATOM      1  O1  BZF d   1       2.445  -2.986   2.139  0.00  0.00    -0.204 OA
ATOM      2  C2  BZF d   1       1.852  -1.895   1.535  0.00  0.00     0.174 A 
ATOM      3  C3  BZF d   1       1.220  -1.128   2.446  0.00  0.00    -0.012 A 
ATOM      4  C3A BZF d   1       1.509  -1.731   3.711  0.00  0.00    -0.107 A 
ATOM      5  C4  BZF d   1       1.174  -1.420   4.998  0.00  0.00     0.055 A 
ATOM      6  C5  BZF d   1       1.555  -2.256   6.000  0.00  0.00    -0.016 A 
ATOM      7  C6  BZF d   1       2.266  -3.411   5.750  0.00  0.00     0.022 A 
ATOM      8  C7  BZF d   1       2.626  -3.759   4.491  0.00  0.00     0.029 A 
ATOM      9  C7A BZF d   1       2.270  -2.900   3.480  0.00  0.00     0.058 A 
ENDROOT
TORSDOF 0
ENDMDL
