MODEL 1
REMARK minimizedAffinity 13.1430492
REMARK minimizedRMSD -1
REMARK  0 active torsions:
REMARK  status: ('A' for Active; 'I' for Inactive)
ROOT
ATOM      1  O1  BZF d   1       2.366  -5.046  -1.897  0.00  0.00    -0.204 OA
ATOM      2  C2  BZF d   1       1.552  -4.437  -0.961  0.00  0.00     0.174 A 
ATOM      3  C3  BZF d   1       2.288  -3.886   0.026  0.00  0.00    -0.012 A 
ATOM      4  C3A BZF d   1       3.650  -4.087  -0.363  0.00  0.00    -0.107 A 
ATOM      5  C4  BZF d   1       4.847  -3.749   0.201  0.00  0.00     0.055 A 
ATOM      6  C5  BZF d   1       5.997  -4.158  -0.396  0.00  0.00    -0.016 A 
ATOM      7  C6  BZF d   1       5.988  -4.911  -1.552  0.00  0.00     0.022 A 
ATOM      8  C7  BZF d   1       4.825  -5.267  -2.151  0.00  0.00     0.029 A 
ATOM      9  C7A BZF d   1       3.662  -4.827  -1.568  0.00  0.00     0.058 A 
ENDROOT
TORSDOF 0
ENDMDL
