MODEL 1
REMARK minimizedAffinity 12.1326504
REMARK minimizedRMSD -1
REMARK  0 active torsions:
REMARK  status: ('A' for Active; 'I' for Inactive)
ROOT
ATOM      1  O1  BZF d   1       0.738  -1.122   3.316  0.00  0.00    -0.204 OA
ATOM      2  C2  BZF d   1       1.092  -1.380   2.005  0.00  0.00     0.174 A 
ATOM      3  C3  BZF d   1       1.916  -2.445   1.933  0.00  0.00    -0.012 A 
ATOM      4  C3A BZF d   1       2.015  -2.936   3.273  0.00  0.00    -0.107 A 
ATOM      5  C4  BZF d   1       2.678  -3.986   3.842  0.00  0.00     0.055 A 
ATOM      6  C5  BZF d   1       2.626  -4.148   5.190  0.00  0.00    -0.016 A 
ATOM      7  C6  BZF d   1       1.926  -3.277   5.999  0.00  0.00     0.022 A 
ATOM      8  C7  BZF d   1       1.248  -2.224   5.480  0.00  0.00     0.029 A 
ATOM      9  C7A BZF d   1       1.272  -2.077   4.115  0.00  0.00     0.058 A 
ENDROOT
TORSDOF 0
ENDMDL
