MODEL 1
REMARK minimizedAffinity 17.3484783
REMARK minimizedRMSD -1
REMARK  0 active torsions:
REMARK  status: ('A' for Active; 'I' for Inactive)
ROOT
ATOM      1  O1  BZF d   1       0.918  -0.874   4.625  0.00  0.00    -0.204 OA
ATOM      2  C2  BZF d   1       1.189  -1.953   5.443  0.00  0.00     0.174 A 
ATOM      3  C3  BZF d   1       1.725  -2.968   4.735  0.00  0.00    -0.012 A 
ATOM      4  C3A BZF d   1       1.878  -2.460   3.407  0.00  0.00    -0.107 A 
ATOM      5  C4  BZF d   1       2.372  -2.991   2.249  0.00  0.00     0.055 A 
ATOM      6  C5  BZF d   1       2.313  -2.257   1.107  0.00  0.00    -0.016 A 
ATOM      7  C6  BZF d   1       1.762  -0.992   1.085  0.00  0.00     0.022 A 
ATOM      8  C7  BZF d   1       1.265  -0.421   2.209  0.00  0.00     0.029 A 
ATOM      9  C7A BZF d   1       1.353  -1.147   3.371  0.00  0.00     0.058 A 
ENDROOT
TORSDOF 0
ENDMDL
