MODEL 1
REMARK minimizedAffinity 3.50293946
REMARK minimizedRMSD -1
REMARK  0 active torsions:
REMARK  status: ('A' for Active; 'I' for Inactive)
ROOT
ATOM      1  O1  BZF d   1      -3.601   2.040  -4.743  0.00  0.00    -0.204 OA
ATOM      2  C2  BZF d   1      -3.843   1.107  -3.753  0.00  0.00     0.174 A 
ATOM      3  C3  BZF d   1      -4.155   1.714  -2.589  0.00  0.00    -0.012 A 
ATOM      4  C3A BZF d   1      -4.195   3.112  -2.893  0.00  0.00    -0.107 A 
ATOM      5  C4  BZF d   1      -4.465   4.226  -2.151  0.00  0.00     0.055 A 
ATOM      6  C5  BZF d   1      -4.347   5.449  -2.730  0.00  0.00    -0.016 A 
ATOM      7  C6  BZF d   1      -3.956   5.596  -4.045  0.00  0.00     0.022 A 
ATOM      8  C7  BZF d   1      -3.682   4.520  -4.822  0.00  0.00     0.029 A 
ATOM      9  C7A BZF d   1      -3.832   3.280  -4.249  0.00  0.00     0.058 A 
ENDROOT
TORSDOF 0
ENDMDL
