MODEL 1
REMARK minimizedAffinity 18.4438248
REMARK minimizedRMSD -1
REMARK  0 active torsions:
REMARK  status: ('A' for Active; 'I' for Inactive)
ROOT
ATOM      1  O1  BZF d   1       2.289  -3.680   4.881  0.00  0.00    -0.204 OA
ATOM      2  C2  BZF d   1       1.823  -3.015   5.999  0.00  0.00     0.174 A 
ATOM      3  C3  BZF d   1       1.280  -1.829   5.658  0.00  0.00    -0.012 A 
ATOM      4  C3A BZF d   1       1.333  -1.787   4.229  0.00  0.00    -0.107 A 
ATOM      5  C4  BZF d   1       0.931  -0.870   3.301  0.00  0.00     0.055 A 
ATOM      6  C5  BZF d   1       1.194  -1.100   1.988  0.00  0.00    -0.016 A 
ATOM      7  C6  BZF d   1       1.861  -2.233   1.568  0.00  0.00     0.022 A 
ATOM      8  C7  BZF d   1       2.275  -3.174   2.452  0.00  0.00     0.029 A 
ATOM      9  C7A BZF d   1       1.981  -2.960   3.776  0.00  0.00     0.058 A 
ENDROOT
TORSDOF 0
ENDMDL
