MODEL 1
REMARK minimizedAffinity 3.43682957
REMARK minimizedRMSD -1
REMARK  0 active torsions:
REMARK  status: ('A' for Active; 'I' for Inactive)
ROOT
ATOM      1  C   UNL d   1      -0.784   2.140   1.067  0.00  0.00     0.023 A 
ATOM      2  C1  UNL d   1       0.023   1.090   1.506  0.00  0.00     0.003 A 
ATOM      3  C2  UNL d   1      -0.225  -0.213   1.069  0.00  0.00     0.048 A 
ATOM      4  C3  UNL d   1      -1.282  -0.459   0.192  0.00  0.00     0.023 A 
ATOM      5  C4  UNL d   1      -2.091   0.589  -0.250  0.00  0.00     0.048 A 
ATOM      6  C5  UNL d   1      -1.840   1.889   0.190  0.00  0.00     0.003 A 
ATOM      7  I   UNL d   1      -1.653  -2.397  -0.460  0.00  0.00    -0.146 I 
ENDROOT
TORSDOF 0
ENDMDL
