MODEL 1
REMARK minimizedAffinity -3.14176798
REMARK minimizedRMSD -1
REMARK  0 active torsions:
REMARK  status: ('A' for Active; 'I' for Inactive)
ROOT
ATOM      1  C   UNL d   1       0.151   3.042   0.208  0.00  0.00     0.023 A 
ATOM      2  C1  UNL d   1       1.291   2.266  -0.001  0.00  0.00     0.003 A 
ATOM      3  C2  UNL d   1       1.176   0.885  -0.172  0.00  0.00     0.048 A 
ATOM      4  C3  UNL d   1      -0.083   0.286  -0.133  0.00  0.00     0.023 A 
ATOM      5  C4  UNL d   1      -1.227   1.058   0.076  0.00  0.00     0.048 A 
ATOM      6  C5  UNL d   1      -1.107   2.439   0.247  0.00  0.00     0.003 A 
ATOM      7  I   UNL d   1      -0.258  -1.770  -0.387  0.00  0.00    -0.146 I 
ENDROOT
TORSDOF 0
ENDMDL
