MODEL 1
REMARK minimizedAffinity -4.44728756
REMARK minimizedRMSD -1
REMARK  0 active torsions:
REMARK  status: ('A' for Active; 'I' for Inactive)
ROOT
ATOM      1  C   UNL d   1       0.728   3.451   0.198  0.00  0.00     0.023 A 
ATOM      2  C1  UNL d   1      -0.508   2.834   0.003  0.00  0.00     0.003 A 
ATOM      3  C2  UNL d   1      -0.602   1.440   0.003  0.00  0.00     0.048 A 
ATOM      4  C3  UNL d   1       0.543   0.670   0.199  0.00  0.00     0.023 A 
ATOM      5  C4  UNL d   1       1.782   1.283   0.395  0.00  0.00     0.048 A 
ATOM      6  C5  UNL d   1       1.871   2.676   0.394  0.00  0.00     0.003 A 
ATOM      7  I   UNL d   1       0.406  -1.404   0.200  0.00  0.00    -0.146 I 
ENDROOT
TORSDOF 0
ENDMDL
