MODEL 1
REMARK minimizedAffinity 1.91215992
REMARK minimizedRMSD -1
REMARK  0 active torsions:
REMARK  status: ('A' for Active; 'I' for Inactive)
ROOT
ATOM      1  C   UNL d   1       1.021   1.195   1.127  0.00  0.00     0.023 A 
ATOM      2  C1  UNL d   1      -0.357   1.239   0.917  0.00  0.00     0.003 A 
ATOM      3  C2  UNL d   1      -0.995   0.202   0.234  0.00  0.00     0.048 A 
ATOM      4  C3  UNL d   1      -0.248  -0.878  -0.236  0.00  0.00     0.023 A 
ATOM      5  C4  UNL d   1       1.131  -0.928  -0.028  0.00  0.00     0.048 A 
ATOM      6  C5  UNL d   1       1.764   0.113   0.655  0.00  0.00     0.003 A 
ATOM      7  I   UNL d   1      -1.195  -2.424  -1.254  0.00  0.00    -0.146 I 
ENDROOT
TORSDOF 0
ENDMDL
