MODEL 1
REMARK minimizedAffinity -3.81494927
REMARK minimizedRMSD -1
REMARK  0 active torsions:
REMARK  status: ('A' for Active; 'I' for Inactive)
ROOT
ATOM      1  C   UNL d   1       1.148  -1.356   0.462  0.00  0.00     0.023 A 
ATOM      2  C1  UNL d   1       2.247  -0.504   0.352  0.00  0.00     0.003 A 
ATOM      3  C2  UNL d   1       2.053   0.872   0.207  0.00  0.00     0.048 A 
ATOM      4  C3  UNL d   1       0.758   1.388   0.172  0.00  0.00     0.023 A 
ATOM      5  C4  UNL d   1      -0.344   0.538   0.283  0.00  0.00     0.048 A 
ATOM      6  C5  UNL d   1      -0.146  -0.836   0.428  0.00  0.00     0.003 A 
ATOM      7  I   UNL d   1       0.467   3.434  -0.044  0.00  0.00    -0.146 I 
ENDROOT
TORSDOF 0
ENDMDL
