MODEL 1
REMARK minimizedAffinity -1.10489392
REMARK minimizedRMSD -1
REMARK  0 active torsions:
REMARK  status: ('A' for Active; 'I' for Inactive)
ROOT
ATOM      1  C   UNL d   1      -0.124   0.534   1.038  0.00  0.00     0.023 A 
ATOM      2  C1  UNL d   1      -1.415   0.066   0.792  0.00  0.00     0.003 A 
ATOM      3  C2  UNL d   1      -1.616  -1.013  -0.071  0.00  0.00     0.048 A 
ATOM      4  C3  UNL d   1      -0.520  -1.619  -0.685  0.00  0.00     0.023 A 
ATOM      5  C4  UNL d   1       0.773  -1.155  -0.441  0.00  0.00     0.048 A 
ATOM      6  C5  UNL d   1       0.969  -0.076   0.422  0.00  0.00     0.003 A 
ATOM      7  I   UNL d   1      -0.816  -3.225  -1.971  0.00  0.00    -0.146 I 
ENDROOT
TORSDOF 0
ENDMDL
