MODEL 1
REMARK minimizedAffinity -3.09038711
REMARK minimizedRMSD -1
REMARK  0 active torsions:
REMARK  status: ('A' for Active; 'I' for Inactive)
ROOT
ATOM      1  C   UNL d   1      -1.088  -4.305  -2.613  0.00  0.00     0.023 A 
ATOM      2  C1  UNL d   1       0.180  -3.852  -2.250  0.00  0.00     0.003 A 
ATOM      3  C2  UNL d   1       0.319  -2.659  -1.536  0.00  0.00     0.048 A 
ATOM      4  C3  UNL d   1      -0.815  -1.926  -1.188  0.00  0.00     0.023 A 
ATOM      5  C4  UNL d   1      -2.086  -2.376  -1.549  0.00  0.00     0.048 A 
ATOM      6  C5  UNL d   1      -2.220  -3.568  -2.263  0.00  0.00     0.003 A 
ATOM      7  I   UNL d   1      -0.611  -0.151  -0.126  0.00  0.00    -0.146 I 
ENDROOT
TORSDOF 0
ENDMDL
