MODEL 1
REMARK minimizedAffinity -3.07867455
REMARK minimizedRMSD -1
REMARK  0 active torsions:
REMARK  status: ('A' for Active; 'I' for Inactive)
ROOT
ATOM      1  C   UNL d   1       2.289   3.435   0.250  0.00  0.00     0.023 A 
ATOM      2  C1  UNL d   1       0.985   3.610   0.714  0.00  0.00     0.003 A 
ATOM      3  C2  UNL d   1       0.109   2.524   0.765  0.00  0.00     0.048 A 
ATOM      4  C3  UNL d   1       0.542   1.266   0.351  0.00  0.00     0.023 A 
ATOM      5  C4  UNL d   1       1.846   1.085  -0.114  0.00  0.00     0.048 A 
ATOM      6  C5  UNL d   1       2.719   2.174  -0.164  0.00  0.00     0.003 A 
ATOM      7  I   UNL d   1      -0.761  -0.352   0.426  0.00  0.00    -0.146 I 
ENDROOT
TORSDOF 0
ENDMDL
