MODEL 1
REMARK minimizedAffinity -2.77078342
REMARK minimizedRMSD -1
REMARK  0 active torsions:
REMARK  status: ('A' for Active; 'I' for Inactive)
ROOT
ATOM      1  C   UNL d   1      -0.237   2.445   0.523  0.00  0.00     0.023 A 
ATOM      2  C1  UNL d   1       0.826   1.905  -0.201  0.00  0.00     0.003 A 
ATOM      3  C2  UNL d   1       0.847   0.541  -0.499  0.00  0.00     0.048 A 
ATOM      4  C3  UNL d   1      -0.198  -0.277  -0.072  0.00  0.00     0.023 A 
ATOM      5  C4  UNL d   1      -1.265   0.259   0.652  0.00  0.00     0.048 A 
ATOM      6  C5  UNL d   1      -1.281   1.623   0.949  0.00  0.00     0.003 A 
ATOM      7  I   UNL d   1      -0.169  -2.308  -0.515  0.00  0.00    -0.146 I 
ENDROOT
TORSDOF 0
ENDMDL
