MODEL 1
REMARK minimizedAffinity 0.985442281
REMARK minimizedRMSD -1
REMARK  0 active torsions:
REMARK  status: ('A' for Active; 'I' for Inactive)
ROOT
ATOM      1  C   UNL d   1      -0.734   1.057   1.062  0.00  0.00     0.023 A 
ATOM      2  C1  UNL d   1       0.369   0.258   0.759  0.00  0.00     0.003 A 
ATOM      3  C2  UNL d   1       0.199  -0.922   0.033  0.00  0.00     0.048 A 
ATOM      4  C3  UNL d   1      -1.076  -1.298  -0.389  0.00  0.00     0.023 A 
ATOM      5  C4  UNL d   1      -2.182  -0.501  -0.089  0.00  0.00     0.048 A 
ATOM      6  C5  UNL d   1      -2.008   0.678   0.638  0.00  0.00     0.003 A 
ATOM      7  I   UNL d   1      -1.331  -3.054  -1.470  0.00  0.00    -0.146 I 
ENDROOT
TORSDOF 0
ENDMDL
