MODEL 1
REMARK minimizedAffinity -1.26291513
REMARK minimizedRMSD -1
REMARK  0 active torsions:
REMARK  status: ('A' for Active; 'I' for Inactive)
ROOT
ATOM      1  O1  BZF d   1      -1.193  -2.413   0.264  0.00  0.00    -0.204 OA
ATOM      2  C2  BZF d   1      -1.526  -1.861   1.486  0.00  0.00     0.174 A 
ATOM      3  C3  BZF d   1      -1.230  -0.545   1.513  0.00  0.00    -0.012 A 
ATOM      4  C3A BZF d   1      -0.762  -0.238   0.196  0.00  0.00    -0.107 A 
ATOM      5  C4  BZF d   1      -0.332   0.912  -0.402  0.00  0.00     0.055 A 
ATOM      6  C5  BZF d   1       0.126   0.859  -1.681  0.00  0.00    -0.016 A 
ATOM      7  C6  BZF d   1       0.172  -0.325  -2.387  0.00  0.00     0.022 A 
ATOM      8  C7  BZF d   1      -0.248  -1.490  -1.837  0.00  0.00     0.029 A 
ATOM      9  C7A BZF d   1      -0.743  -1.434  -0.557  0.00  0.00     0.058 A 
ENDROOT
TORSDOF 0
ENDMDL
