MODEL 1
REMARK minimizedAffinity -3.40102029
REMARK minimizedRMSD -1
REMARK  0 active torsions:
REMARK  status: ('A' for Active; 'I' for Inactive)
ROOT
ATOM      1  O1  BZF d   1       0.284   2.918  -0.405  0.00  0.00    -0.204 OA
ATOM      2  C2  BZF d   1       1.500   3.403   0.035  0.00  0.00     0.174 A 
ATOM      3  C3  BZF d   1       2.137   2.485   0.791  0.00  0.00    -0.012 A 
ATOM      4  C3A BZF d   1       1.305   1.322   0.750  0.00  0.00    -0.107 A 
ATOM      5  C4  BZF d   1       1.409   0.074   1.295  0.00  0.00     0.055 A 
ATOM      6  C5  BZF d   1       0.389  -0.808   1.125  0.00  0.00    -0.016 A 
ATOM      7  C6  BZF d   1      -0.750  -0.474   0.422  0.00  0.00     0.022 A 
ATOM      8  C7  BZF d   1      -0.896   0.750  -0.142  0.00  0.00     0.029 A 
ATOM      9  C7A BZF d   1       0.147   1.632   0.000  0.00  0.00     0.058 A 
ENDROOT
TORSDOF 0
ENDMDL
