MODEL 1
REMARK minimizedAffinity -4.08309555
REMARK minimizedRMSD -1
REMARK  0 active torsions:
REMARK  status: ('A' for Active; 'I' for Inactive)
ROOT
ATOM      1  O1  BZF d   1      -1.264  -2.235   1.319  0.00  0.00    -0.204 OA
ATOM      2  C2  BZF d   1      -1.234  -1.085   2.084  0.00  0.00     0.174 A 
ATOM      3  C3  BZF d   1      -0.741  -0.050   1.373  0.00  0.00    -0.012 A 
ATOM      4  C3A BZF d   1      -0.530  -0.565   0.055  0.00  0.00    -0.107 A 
ATOM      5  C4  BZF d   1      -0.070  -0.014  -1.106  0.00  0.00     0.055 A 
ATOM      6  C5  BZF d   1       0.084  -0.807  -2.199  0.00  0.00    -0.016 A 
ATOM      7  C6  BZF d   1      -0.207  -2.155  -2.164  0.00  0.00     0.022 A 
ATOM      8  C7  BZF d   1      -0.671  -2.747  -1.036  0.00  0.00     0.029 A 
ATOM      9  C7A BZF d   1      -0.859  -1.941   0.060  0.00  0.00     0.058 A 
ENDROOT
TORSDOF 0
ENDMDL
