MODEL 1
REMARK minimizedAffinity -2.73793459
REMARK minimizedRMSD -1
REMARK  0 active torsions:
REMARK  status: ('A' for Active; 'I' for Inactive)
ROOT
ATOM      1  O1  BZF d   1      -0.963  -0.871   1.472  0.00  0.00    -0.204 OA
ATOM      2  C2  BZF d   1      -0.876  -2.240   1.305  0.00  0.00     0.174 A 
ATOM      3  C3  BZF d   1      -0.411  -2.544   0.076  0.00  0.00    -0.012 A 
ATOM      4  C3A BZF d   1      -0.107  -1.285  -0.533  0.00  0.00    -0.107 A 
ATOM      5  C4  BZF d   1       0.404  -0.929  -1.748  0.00  0.00     0.055 A 
ATOM      6  C5  BZF d   1       0.510   0.390  -2.060  0.00  0.00    -0.016 A 
ATOM      7  C6  BZF d   1       0.110   1.377  -1.183  0.00  0.00     0.022 A 
ATOM      8  C7  BZF d   1      -0.397   1.073   0.036  0.00  0.00     0.029 A 
ATOM      9  C7A BZF d   1      -0.475  -0.258   0.367  0.00  0.00     0.058 A 
ENDROOT
TORSDOF 0
ENDMDL
