MODEL 1
REMARK minimizedAffinity -2.98751593
REMARK minimizedRMSD -1
REMARK  0 active torsions:
REMARK  status: ('A' for Active; 'I' for Inactive)
ROOT
ATOM      1  O1  BZF d   1       0.368   1.685  -0.610  0.00  0.00    -0.204 OA
ATOM      2  C2  BZF d   1       1.378   2.401   0.003  0.00  0.00     0.174 A 
ATOM      3  C3  BZF d   1       1.615   1.928   1.243  0.00  0.00    -0.012 A 
ATOM      4  C3A BZF d   1       0.759   0.789   1.381  0.00  0.00    -0.107 A 
ATOM      5  C4  BZF d   1       0.551  -0.112   2.386  0.00  0.00     0.055 A 
ATOM      6  C5  BZF d   1      -0.408  -1.063   2.232  0.00  0.00    -0.016 A 
ATOM      7  C6  BZF d   1      -1.180  -1.137   1.091  0.00  0.00     0.022 A 
ATOM      8  C7  BZF d   1      -1.006  -0.268   0.065  0.00  0.00     0.029 A 
ATOM      9  C7A BZF d   1      -0.016   0.673   0.204  0.00  0.00     0.058 A 
ENDROOT
TORSDOF 0
ENDMDL
