MODEL 1
REMARK minimizedAffinity 0.187912032
REMARK minimizedRMSD -1
REMARK  0 active torsions:
REMARK  status: ('A' for Active; 'I' for Inactive)
ROOT
ATOM      1  O1  BZF d   1       0.890   0.467  -0.238  0.00  0.00    -0.204 OA
ATOM      2  C2  BZF d   1      -0.458   0.163  -0.253  0.00  0.00     0.174 A 
ATOM      3  C3  BZF d   1      -1.188   1.208   0.188  0.00  0.00    -0.012 A 
ATOM      4  C3A BZF d   1      -0.245   2.260   0.411  0.00  0.00    -0.107 A 
ATOM      5  C4  BZF d   1      -0.362   3.552   0.838  0.00  0.00     0.055 A 
ATOM      6  C5  BZF d   1       0.763   4.292   1.018  0.00  0.00    -0.016 A 
ATOM      7  C6  BZF d   1       2.020   3.772   0.788  0.00  0.00     0.022 A 
ATOM      8  C7  BZF d   1       2.186   2.497   0.359  0.00  0.00     0.029 A 
ATOM      9  C7A BZF d   1       1.050   1.757   0.144  0.00  0.00     0.058 A 
ENDROOT
TORSDOF 0
ENDMDL
