MODEL 1
REMARK minimizedAffinity -2.91759419
REMARK minimizedRMSD -1
REMARK  0 active torsions:
REMARK  status: ('A' for Active; 'I' for Inactive)
ROOT
ATOM      1  O1  BZF d   1      -0.151  -0.913  -2.022  0.00  0.00    -0.204 OA
ATOM      2  C2  BZF d   1      -0.444  -2.182  -2.481  0.00  0.00     0.174 A 
ATOM      3  C3  BZF d   1      -0.863  -2.971  -1.471  0.00  0.00    -0.012 A 
ATOM      4  C3A BZF d   1      -0.918  -2.117  -0.324  0.00  0.00    -0.107 A 
ATOM      5  C4  BZF d   1      -1.277  -2.316   0.978  0.00  0.00     0.055 A 
ATOM      6  C5  BZF d   1      -1.148  -1.293   1.863  0.00  0.00    -0.016 A 
ATOM      7  C6  BZF d   1      -0.659  -0.061   1.481  0.00  0.00     0.022 A 
ATOM      8  C7  BZF d   1      -0.295   0.186   0.199  0.00  0.00     0.029 A 
ATOM      9  C7A BZF d   1      -0.455  -0.836  -0.704  0.00  0.00     0.058 A 
ENDROOT
TORSDOF 0
ENDMDL
