MODEL 1
REMARK minimizedAffinity -1.36985731
REMARK minimizedRMSD -1
REMARK  0 active torsions:
REMARK  status: ('A' for Active; 'I' for Inactive)
ROOT
ATOM      1  O1  BZF d   1      -0.367   2.443  -0.359  0.00  0.00    -0.204 OA
ATOM      2  C2  BZF d   1       0.860   2.974  -0.013  0.00  0.00     0.174 A 
ATOM      3  C3  BZF d   1       1.553   2.114   0.761  0.00  0.00    -0.012 A 
ATOM      4  C3A BZF d   1       0.744   0.936   0.831  0.00  0.00    -0.107 A 
ATOM      5  C4  BZF d   1       0.900  -0.276   1.441  0.00  0.00     0.055 A 
ATOM      6  C5  BZF d   1      -0.109  -1.183   1.376  0.00  0.00    -0.016 A 
ATOM      7  C6  BZF d   1      -1.289  -0.911   0.715  0.00  0.00     0.022 A 
ATOM      8  C7  BZF d   1      -1.488   0.275   0.090  0.00  0.00     0.029 A 
ATOM      9  C7A BZF d   1      -0.457   1.182   0.126  0.00  0.00     0.058 A 
ENDROOT
TORSDOF 0
ENDMDL
