MODEL 1
REMARK minimizedAffinity 1.51764989
REMARK minimizedRMSD -1
REMARK  0 active torsions:
REMARK  status: ('A' for Active; 'I' for Inactive)
ROOT
ATOM      1  O1  BZF d   1       0.421   1.963  -1.182  0.00  0.00    -0.204 OA
ATOM      2  C2  BZF d   1       0.297   2.487   0.090  0.00  0.00     0.174 A 
ATOM      3  C3  BZF d   1      -0.039   1.524   0.973  0.00  0.00    -0.012 A 
ATOM      4  C3A BZF d   1      -0.041   0.307   0.220  0.00  0.00    -0.107 A 
ATOM      5  C4  BZF d   1      -0.284  -0.997   0.545  0.00  0.00     0.055 A 
ATOM      6  C5  BZF d   1      -0.277  -1.935  -0.439  0.00  0.00    -0.016 A 
ATOM      7  C6  BZF d   1      -0.035  -1.603  -1.756  0.00  0.00     0.022 A 
ATOM      8  C7  BZF d   1       0.216  -0.324  -2.126  0.00  0.00     0.029 A 
ATOM      9  C7A BZF d   1       0.242   0.621  -1.129  0.00  0.00     0.058 A 
ENDROOT
TORSDOF 0
ENDMDL
