MODEL 1
REMARK minimizedAffinity -2.96847773
REMARK minimizedRMSD -1
REMARK  0 active torsions:
REMARK  status: ('A' for Active; 'I' for Inactive)
ROOT
ATOM      1  O1  BZF d   1      -0.311   0.113  -2.094  0.00  0.00    -0.204 OA
ATOM      2  C2  BZF d   1      -0.502   1.290  -1.396  0.00  0.00     0.174 A 
ATOM      3  C3  BZF d   1      -0.816   1.038  -0.109  0.00  0.00    -0.012 A 
ATOM      4  C3A BZF d   1      -0.733  -0.383   0.027  0.00  0.00    -0.107 A 
ATOM      5  C4  BZF d   1      -0.919  -1.239   1.075  0.00  0.00     0.055 A 
ATOM      6  C5  BZF d   1      -0.833  -2.577   0.859  0.00  0.00    -0.016 A 
ATOM      7  C6  BZF d   1      -0.567  -3.095  -0.392  0.00  0.00     0.022 A 
ATOM      8  C7  BZF d   1      -0.370  -2.286  -1.461  0.00  0.00     0.029 A 
ATOM      9  C7A BZF d   1      -0.424  -0.932  -1.239  0.00  0.00     0.058 A 
ENDROOT
TORSDOF 0
ENDMDL
