MODEL 1
REMARK minimizedAffinity -4.71240711
REMARK minimizedRMSD -1
REMARK  0 active torsions:
REMARK  status: ('A' for Active; 'I' for Inactive)
ROOT
ATOM      1  O1  BZF d   1      -1.329  -2.533   0.962  0.00  0.00    -0.204 OA
ATOM      2  C2  BZF d   1      -1.258  -1.552   1.933  0.00  0.00     0.174 A 
ATOM      3  C3  BZF d   1      -0.718  -0.422   1.432  0.00  0.00    -0.012 A 
ATOM      4  C3A BZF d   1      -0.518  -0.685   0.040  0.00  0.00    -0.107 A 
ATOM      5  C4  BZF d   1      -0.027   0.058  -0.995  0.00  0.00     0.055 A 
ATOM      6  C5  BZF d   1       0.103  -0.518  -2.219  0.00  0.00    -0.016 A 
ATOM      7  C6  BZF d   1      -0.243  -1.834  -2.442  0.00  0.00     0.022 A 
ATOM      8  C7  BZF d   1      -0.740  -2.610  -1.448  0.00  0.00     0.029 A 
ATOM      9  C7A BZF d   1      -0.903  -2.021  -0.218  0.00  0.00     0.058 A 
ENDROOT
TORSDOF 0
ENDMDL
