MODEL 1
REMARK minimizedAffinity -2.15292358
REMARK minimizedRMSD -1
REMARK  0 active torsions:
REMARK  status: ('A' for Active; 'I' for Inactive)
ROOT
ATOM      1  O1  BZF d   1      -1.228  -2.422   0.865  0.00  0.00    -0.204 OA
ATOM      2  C2  BZF d   1      -0.685  -3.157  -0.172  0.00  0.00     0.174 A 
ATOM      3  C3  BZF d   1       0.005  -2.361  -1.013  0.00  0.00    -0.012 A 
ATOM      4  C3A BZF d   1      -0.036  -1.060  -0.419  0.00  0.00    -0.107 A 
ATOM      5  C4  BZF d   1       0.483   0.152  -0.775  0.00  0.00     0.055 A 
ATOM      6  C5  BZF d   1       0.199   1.241  -0.015  0.00  0.00    -0.016 A 
ATOM      7  C6  BZF d   1      -0.604   1.157   1.104  0.00  0.00     0.022 A 
ATOM      8  C7  BZF d   1      -1.138  -0.025   1.500  0.00  0.00     0.029 A 
ATOM      9  C7A BZF d   1      -0.826  -1.134   0.752  0.00  0.00     0.058 A 
ENDROOT
TORSDOF 0
ENDMDL
