MODEL 1
REMARK minimizedAffinity -3.16832018
REMARK minimizedRMSD -1
REMARK  0 active torsions:
REMARK  status: ('A' for Active; 'I' for Inactive)
ROOT
ATOM      1  O1  BZF d   1       1.033   0.924   0.567  0.00  0.00    -0.204 OA
ATOM      2  C2  BZF d   1       0.236   1.694  -0.258  0.00  0.00     0.174 A 
ATOM      3  C3  BZF d   1      -0.748   0.950  -0.803  0.00  0.00    -0.012 A 
ATOM      4  C3A BZF d   1      -0.609  -0.347  -0.214  0.00  0.00    -0.107 A 
ATOM      5  C4  BZF d   1      -1.304  -1.516  -0.343  0.00  0.00     0.055 A 
ATOM      6  C5  BZF d   1      -0.866  -2.620   0.317  0.00  0.00    -0.016 A 
ATOM      7  C6  BZF d   1       0.264  -2.593   1.108  0.00  0.00     0.022 A 
ATOM      8  C7  BZF d   1       0.982  -1.456   1.271  0.00  0.00     0.029 A 
ATOM      9  C7A BZF d   1       0.524  -0.330   0.632  0.00  0.00     0.058 A 
ENDROOT
TORSDOF 0
ENDMDL
