MODEL 1
REMARK minimizedAffinity -0.805610359
REMARK minimizedRMSD -1
REMARK  0 active torsions:
REMARK  status: ('A' for Active; 'I' for Inactive)
ROOT
ATOM      1  O1  BZF d   1      -1.579  -1.912  -0.079  0.00  0.00    -0.204 OA
ATOM      2  C2  BZF d   1      -1.723  -1.968   1.294  0.00  0.00     0.174 A 
ATOM      3  C3  BZF d   1      -1.040  -0.968   1.888  0.00  0.00    -0.012 A 
ATOM      4  C3A BZF d   1      -0.507  -0.187   0.813  0.00  0.00    -0.107 A 
ATOM      5  C4  BZF d   1       0.250   0.949   0.764  0.00  0.00     0.055 A 
ATOM      6  C5  BZF d   1       0.664   1.414  -0.444  0.00  0.00    -0.016 A 
ATOM      7  C6  BZF d   1       0.344   0.767  -1.620  0.00  0.00     0.022 A 
ATOM      8  C7  BZF d   1      -0.409  -0.359  -1.621  0.00  0.00     0.029 A 
ATOM      9  C7A BZF d   1      -0.857  -0.814  -0.405  0.00  0.00     0.058 A 
ENDROOT
TORSDOF 0
ENDMDL
