MODEL 1
REMARK minimizedAffinity -3.51023889
REMARK minimizedRMSD -1
REMARK  0 active torsions:
REMARK  status: ('A' for Active; 'I' for Inactive)
ROOT
ATOM      1  O1  BZF d   1       0.854  -1.027   1.964  0.00  0.00    -0.204 OA
ATOM      2  C2  BZF d   1      -0.316  -1.694   1.655  0.00  0.00     0.174 A 
ATOM      3  C3  BZF d   1      -1.062  -0.975   0.791  0.00  0.00    -0.012 A 
ATOM      4  C3A BZF d   1      -0.269   0.173   0.474  0.00  0.00    -0.107 A 
ATOM      5  C4  BZF d   1      -0.462   1.250  -0.344  0.00  0.00     0.055 A 
ATOM      6  C5  BZF d   1       0.476   2.233  -0.372  0.00  0.00    -0.016 A 
ATOM      7  C6  BZF d   1       1.613   2.175   0.406  0.00  0.00     0.022 A 
ATOM      8  C7  BZF d   1       1.850   1.124   1.229  0.00  0.00     0.029 A 
ATOM      9  C7A BZF d   1       0.921   0.113   1.235  0.00  0.00     0.058 A 
ENDROOT
TORSDOF 0
ENDMDL
