MODEL 1
REMARK minimizedAffinity -2.17392921
REMARK minimizedRMSD -1
REMARK  0 active torsions:
REMARK  status: ('A' for Active; 'I' for Inactive)
ROOT
ATOM      1  O1  BZF d   1       0.396   0.142  -1.835  0.00  0.00    -0.204 OA
ATOM      2  C2  BZF d   1       0.459   1.429  -1.338  0.00  0.00     0.174 A 
ATOM      3  C3  BZF d   1      -0.000   1.476  -0.071  0.00  0.00    -0.012 A 
ATOM      4  C3A BZF d   1      -0.286   0.118   0.276  0.00  0.00    -0.107 A 
ATOM      5  C4  BZF d   1      -0.756  -0.483   1.409  0.00  0.00     0.055 A 
ATOM      6  C5  BZF d   1      -0.993  -1.821   1.397  0.00  0.00    -0.016 A 
ATOM      7  C6  BZF d   1      -0.778  -2.587   0.270  0.00  0.00     0.022 A 
ATOM      8  C7  BZF d   1      -0.308  -2.037  -0.876  0.00  0.00     0.029 A 
ATOM      9  C7A BZF d   1      -0.035  -0.690  -0.857  0.00  0.00     0.058 A 
ENDROOT
TORSDOF 0
ENDMDL
