MODEL 1
REMARK minimizedAffinity -2.55342865
REMARK minimizedRMSD -1
REMARK  0 active torsions:
REMARK  status: ('A' for Active; 'I' for Inactive)
ROOT
ATOM      1  O1  BZF d   1      -0.558  -3.272  -1.166  0.00  0.00    -0.204 OA
ATOM      2  C2  BZF d   1      -0.242  -2.739  -2.401  0.00  0.00     0.174 A 
ATOM      3  C3  BZF d   1       0.001  -1.416  -2.303  0.00  0.00    -0.012 A 
ATOM      4  C3A BZF d   1      -0.083  -1.120  -0.905  0.00  0.00    -0.107 A 
ATOM      5  C4  BZF d   1       0.078   0.023  -0.176  0.00  0.00     0.055 A 
ATOM      6  C5  BZF d   1      -0.145  -0.011   1.164  0.00  0.00    -0.016 A 
ATOM      7  C6  BZF d   1      -0.534  -1.169   1.806  0.00  0.00     0.022 A 
ATOM      8  C7  BZF d   1      -0.701  -2.329   1.126  0.00  0.00     0.029 A 
ATOM      9  C7A BZF d   1      -0.445  -2.305  -0.224  0.00  0.00     0.058 A 
ENDROOT
TORSDOF 0
ENDMDL
