MODEL 1
REMARK minimizedAffinity -2.98390174
REMARK minimizedRMSD -1
REMARK  0 active torsions:
REMARK  status: ('A' for Active; 'I' for Inactive)
ROOT
ATOM      1  O1  BZF d   1       0.100   0.237   2.672  0.00  0.00    -0.204 OA
ATOM      2  C2  BZF d   1      -0.434  -0.649   1.756  0.00  0.00     0.174 A 
ATOM      3  C3  BZF d   1      -0.458  -0.105   0.522  0.00  0.00    -0.012 A 
ATOM      4  C3A BZF d   1       0.181   1.168   0.660  0.00  0.00    -0.107 A 
ATOM      5  C4  BZF d   1       0.474   2.171  -0.219  0.00  0.00     0.055 A 
ATOM      6  C5  BZF d   1       1.038   3.316   0.249  0.00  0.00    -0.016 A 
ATOM      7  C6  BZF d   1       1.316   3.493   1.589  0.00  0.00     0.022 A 
ATOM      8  C7  BZF d   1       1.047   2.524   2.498  0.00  0.00     0.029 A 
ATOM      9  C7A BZF d   1       0.509   1.353   2.023  0.00  0.00     0.058 A 
ENDROOT
TORSDOF 0
ENDMDL
