MODEL 1
REMARK minimizedAffinity -0.195977241
REMARK minimizedRMSD -1
REMARK  3 active torsions:
REMARK  status: ('A' for Active; 'I' for Inactive)
REMARK    1  A    between atoms: C3'_2  and  C2'_3 
REMARK    2  A    between atoms: C2'_3  and  C1'_4 
REMARK    3  A    between atoms: C1'_4  and  C1_5 
ROOT
ATOM      1  C1  N4B d   1       5.881   2.657   3.741  0.00  0.00    -0.075 A 
ATOM      2  C2  N4B d   1       5.962   3.611   4.780  0.00  0.00     0.002 A 
ATOM      3  C3  N4B d   1       5.937   4.952   4.484  0.00  0.00     0.002 A 
ATOM      4  C4  N4B d   1       5.850   5.361   3.161  0.00  0.00    -0.004 A 
ATOM      5  C5  N4B d   1       5.747   4.433   2.166  0.00  0.00     0.002 A 
ATOM      6  C6  N4B d   1       5.767   3.083   2.449  0.00  0.00     0.002 A 
ENDROOT
BRANCH   1   7
ATOM      7  C1' N4B d   1       5.991   1.181   4.008  0.00  0.00     0.057 C 
BRANCH   7   8
ATOM      8  C2' N4B d   1       5.987   0.943   5.516  0.00  0.00     0.009 C 
BRANCH   8   9
ATOM      9  C3' N4B d   1       5.666  -0.501   5.862  0.00  0.00     0.004 C 
ATOM     10  C4' N4B d   1       5.804  -1.424   4.689  0.00  0.00     0.003 C 
ENDBRANCH   8   9
ENDBRANCH   7   8
ENDBRANCH   1   7
TORSDOF 3
ENDMDL
