MODEL 1
REMARK minimizedAffinity 1.98331964
REMARK minimizedRMSD -1
REMARK  3 active torsions:
REMARK  status: ('A' for Active; 'I' for Inactive)
REMARK    1  A    between atoms: C3'_2  and  C2'_3 
REMARK    2  A    between atoms: C2'_3  and  C1'_4 
REMARK    3  A    between atoms: C1'_4  and  C1_5 
ROOT
ATOM      1  C1  N4B d   1       5.290   1.485   4.061  0.00  0.00    -0.075 A 
ATOM      2  C2  N4B d   1       5.634   1.294   2.705  0.00  0.00     0.002 A 
ATOM      3  C3  N4B d   1       5.994   2.369   1.930  0.00  0.00     0.002 A 
ATOM      4  C4  N4B d   1       5.999   3.641   2.482  0.00  0.00    -0.004 A 
ATOM      5  C5  N4B d   1       5.691   3.814   3.800  0.00  0.00     0.002 A 
ATOM      6  C6  N4B d   1       5.331   2.742   4.591  0.00  0.00     0.002 A 
ENDROOT
BRANCH   1   7
ATOM      7  C1' N4B d   1       4.807   0.352   4.925  0.00  0.00     0.057 C 
BRANCH   7   8
ATOM      8  C2' N4B d   1       5.959  -0.140   5.797  0.00  0.00     0.009 C 
BRANCH   8   9
ATOM      9  C3' N4B d   1       5.998  -1.656   5.885  0.00  0.00     0.004 C 
ATOM     10  C4' N4B d   1       5.896  -2.319   4.544  0.00  0.00     0.003 C 
ENDBRANCH   8   9
ENDBRANCH   7   8
ENDBRANCH   1   7
TORSDOF 3
ENDMDL
