MODEL 1
REMARK minimizedAffinity 1.59602118
REMARK minimizedRMSD -1
REMARK  3 active torsions:
REMARK  status: ('A' for Active; 'I' for Inactive)
REMARK    1  A    between atoms: C3'_2  and  C2'_3 
REMARK    2  A    between atoms: C2'_3  and  C1'_4 
REMARK    3  A    between atoms: C1'_4  and  C1_5 
ROOT
ATOM      1  C1  N4B d   1       5.799   1.837   4.662  0.00  0.00    -0.075 A 
ATOM      2  C2  N4B d   1       5.776   3.238   4.838  0.00  0.00     0.002 A 
ATOM      3  C3  N4B d   1       5.866   4.068   3.748  0.00  0.00     0.002 A 
ATOM      4  C4  N4B d   1       5.997   3.523   2.479  0.00  0.00    -0.004 A 
ATOM      5  C5  N4B d   1       5.992   2.169   2.315  0.00  0.00     0.002 A 
ATOM      6  C6  N4B d   1       5.899   1.322   3.401  0.00  0.00     0.002 A 
ENDROOT
BRANCH   1   7
ATOM      7  C1' N4B d   1       5.789   0.889   5.830  0.00  0.00     0.057 C 
BRANCH   7   8
ATOM      8  C2' N4B d   1       5.999  -0.534   5.322  0.00  0.00     0.009 C 
BRANCH   8   9
ATOM      9  C3' N4B d   1       4.927  -0.947   4.329  0.00  0.00     0.004 C 
ATOM     10  C4' N4B d   1       4.878  -2.429   4.109  0.00  0.00     0.003 C 
ENDBRANCH   8   9
ENDBRANCH   7   8
ENDBRANCH   1   7
TORSDOF 3
ENDMDL
