MODEL 1
REMARK minimizedAffinity 4.23098183
REMARK minimizedRMSD -1
REMARK  3 active torsions:
REMARK  status: ('A' for Active; 'I' for Inactive)
REMARK    1  A    between atoms: C3'_2  and  C2'_3 
REMARK    2  A    between atoms: C2'_3  and  C1'_4 
REMARK    3  A    between atoms: C1'_4  and  C1_5 
ROOT
ATOM      1  C1  N4B d   1       5.408   0.725   3.756  0.00  0.00    -0.075 A 
ATOM      2  C2  N4B d   1       5.314  -0.651   3.451  0.00  0.00     0.002 A 
ATOM      3  C3  N4B d   1       5.563  -1.588   4.424  0.00  0.00     0.002 A 
ATOM      4  C4  N4B d   1       5.925  -1.175   5.697  0.00  0.00    -0.004 A 
ATOM      5  C5  N4B d   1       5.989   0.156   5.990  0.00  0.00     0.002 A 
ATOM      6  C6  N4B d   1       5.737   1.109   5.024  0.00  0.00     0.002 A 
ENDROOT
BRANCH   1   7
ATOM      7  C1' N4B d   1       5.228   1.786   2.704  0.00  0.00     0.057 C 
BRANCH   7   8
ATOM      8  C2' N4B d   1       4.934   3.120   3.383  0.00  0.00     0.009 C 
BRANCH   8   9
ATOM      9  C3' N4B d   1       4.947   4.275   2.397  0.00  0.00     0.004 C 
ATOM     10  C4' N4B d   1       5.955   5.327   2.748  0.00  0.00     0.003 C 
ENDBRANCH   8   9
ENDBRANCH   7   8
ENDBRANCH   1   7
TORSDOF 3
ENDMDL
