MODEL 1
REMARK minimizedAffinity -2.94654465
REMARK minimizedRMSD -1
REMARK  3 active torsions:
REMARK  status: ('A' for Active; 'I' for Inactive)
REMARK    1  A    between atoms: C3'_2  and  C2'_3 
REMARK    2  A    between atoms: C2'_3  and  C1'_4 
REMARK    3  A    between atoms: C1'_4  and  C1_5 
ROOT
ATOM      1  C1  N4B d   1       5.896  -0.475   4.647  0.00  0.00    -0.075 A 
ATOM      2  C2  N4B d   1       5.871   0.751   5.348  0.00  0.00     0.002 A 
ATOM      3  C3  N4B d   1       5.913   1.937   4.658  0.00  0.00     0.002 A 
ATOM      4  C4  N4B d   1       6.000   1.923   3.274  0.00  0.00    -0.004 A 
ATOM      5  C5  N4B d   1       5.998   0.735   2.603  0.00  0.00     0.002 A 
ATOM      6  C6  N4B d   1       5.951  -0.465   3.284  0.00  0.00     0.002 A 
ENDROOT
BRANCH   1   7
ATOM      7  C1' N4B d   1       5.938  -1.798   5.362  0.00  0.00     0.057 C 
BRANCH   7   8
ATOM      8  C2' N4B d   1       5.261  -2.856   4.496  0.00  0.00     0.009 C 
BRANCH   8   9
ATOM      9  C3' N4B d   1       5.996  -4.185   4.545  0.00  0.00     0.004 C 
ATOM     10  C4' N4B d   1       6.000  -4.797   5.914  0.00  0.00     0.003 C 
ENDBRANCH   8   9
ENDBRANCH   7   8
ENDBRANCH   1   7
TORSDOF 3
ENDMDL
