MODEL 1
REMARK minimizedAffinity -1.576249
REMARK minimizedRMSD -1
REMARK  3 active torsions:
REMARK  status: ('A' for Active; 'I' for Inactive)
REMARK    1  A    between atoms: C3'_2  and  C2'_3 
REMARK    2  A    between atoms: C2'_3  and  C1'_4 
REMARK    3  A    between atoms: C1'_4  and  C1_5 
ROOT
ATOM      1  C1  N4B d   1       5.925   1.418   4.229  0.00  0.00    -0.075 A 
ATOM      2  C2  N4B d   1       5.867   2.192   5.409  0.00  0.00     0.002 A 
ATOM      3  C3  N4B d   1       5.881   3.563   5.332  0.00  0.00     0.002 A 
ATOM      4  C4  N4B d   1       5.970   4.180   4.093  0.00  0.00    -0.004 A 
ATOM      5  C5  N4B d   1       6.000   3.425   2.957  0.00  0.00     0.002 A 
ATOM      6  C6  N4B d   1       5.983   2.047   3.019  0.00  0.00     0.002 A 
ENDROOT
BRANCH   1   7
ATOM      7  C1' N4B d   1       6.000  -0.084   4.267  0.00  0.00     0.057 C 
BRANCH   7   8
ATOM      8  C2' N4B d   1       4.626  -0.662   3.939  0.00  0.00     0.009 C 
BRANCH   8   9
ATOM      9  C3' N4B d   1       4.581  -1.264   2.545  0.00  0.00     0.004 C 
ATOM     10  C4' N4B d   1       5.927  -1.718   2.065  0.00  0.00     0.003 C 
ENDBRANCH   8   9
ENDBRANCH   7   8
ENDBRANCH   1   7
TORSDOF 3
ENDMDL
