MODEL 1
REMARK minimizedAffinity 3.56723571
REMARK minimizedRMSD -1
REMARK  3 active torsions:
REMARK  status: ('A' for Active; 'I' for Inactive)
REMARK    1  A    between atoms: C3'_2  and  C2'_3 
REMARK    2  A    between atoms: C2'_3  and  C1'_4 
REMARK    3  A    between atoms: C1'_4  and  C1_5 
ROOT
ATOM      1  C1  N4B d   1       5.324   1.379   4.435  0.00  0.00    -0.075 A 
ATOM      2  C2  N4B d   1       4.496   2.291   5.126  0.00  0.00     0.002 A 
ATOM      3  C3  N4B d   1       4.385   3.587   4.685  0.00  0.00     0.002 A 
ATOM      4  C4  N4B d   1       5.103   3.997   3.572  0.00  0.00    -0.004 A 
ATOM      5  C5  N4B d   1       5.881   3.103   2.895  0.00  0.00     0.002 A 
ATOM      6  C6  N4B d   1       5.999   1.796   3.324  0.00  0.00     0.002 A 
ENDROOT
BRANCH   1   7
ATOM      7  C1' N4B d   1       5.545  -0.025   4.929  0.00  0.00     0.057 C 
BRANCH   7   8
ATOM      8  C2' N4B d   1       5.475  -0.988   3.747  0.00  0.00     0.009 C 
BRANCH   8   9
ATOM      9  C3' N4B d   1       5.929  -2.387   4.127  0.00  0.00     0.004 C 
ATOM     10  C4' N4B d   1       5.997  -2.592   5.611  0.00  0.00     0.003 C 
ENDBRANCH   8   9
ENDBRANCH   7   8
ENDBRANCH   1   7
TORSDOF 3
ENDMDL
