MODEL 1
REMARK minimizedAffinity -1.24982631
REMARK minimizedRMSD -1
REMARK  3 active torsions:
REMARK  status: ('A' for Active; 'I' for Inactive)
REMARK    1  A    between atoms: C3'_2  and  C2'_3 
REMARK    2  A    between atoms: C2'_3  and  C1'_4 
REMARK    3  A    between atoms: C1'_4  and  C1_5 
ROOT
ATOM      1  C1  N4B d   1       6.000   1.383   3.576  0.00  0.00    -0.075 A 
ATOM      2  C2  N4B d   1       6.000   1.980   4.856  0.00  0.00     0.002 A 
ATOM      3  C3  N4B d   1       5.950   1.194   5.980  0.00  0.00     0.002 A 
ATOM      4  C4  N4B d   1       5.881  -0.185   5.850  0.00  0.00    -0.004 A 
ATOM      5  C5  N4B d   1       5.908  -0.755   4.611  0.00  0.00     0.002 A 
ATOM      6  C6  N4B d   1       5.961   0.023   3.472  0.00  0.00     0.002 A 
ENDROOT
BRANCH   1   7
ATOM      7  C1' N4B d   1       5.967   2.205   2.316  0.00  0.00     0.057 C 
BRANCH   7   8
ATOM      8  C2' N4B d   1       5.131   3.458   2.558  0.00  0.00     0.009 C 
BRANCH   8   9
ATOM      9  C3' N4B d   1       5.999   4.684   2.784  0.00  0.00     0.004 C 
ATOM     10  C4' N4B d   1       5.690   5.384   4.074  0.00  0.00     0.003 C 
ENDBRANCH   8   9
ENDBRANCH   7   8
ENDBRANCH   1   7
TORSDOF 3
ENDMDL
