MODEL 1
REMARK minimizedAffinity 8.33144665
REMARK minimizedRMSD -1
REMARK  3 active torsions:
REMARK  status: ('A' for Active; 'I' for Inactive)
REMARK    1  A    between atoms: C3'_2  and  C2'_3 
REMARK    2  A    between atoms: C2'_3  and  C1'_4 
REMARK    3  A    between atoms: C1'_4  and  C1_5 
ROOT
ATOM      1  C1  N4B d   1       5.917   1.960   3.260  0.00  0.00    -0.075 A 
ATOM      2  C2  N4B d   1       5.939   1.636   1.886  0.00  0.00     0.002 A 
ATOM      3  C3  N4B d   1       5.963   0.321   1.491  0.00  0.00     0.002 A 
ATOM      4  C4  N4B d   1       5.986  -0.683   2.448  0.00  0.00    -0.004 A 
ATOM      5  C5  N4B d   1       5.940  -0.362   3.773  0.00  0.00     0.002 A 
ATOM      6  C6  N4B d   1       5.911   0.955   4.185  0.00  0.00     0.002 A 
ENDROOT
BRANCH   1   7
ATOM      7  C1' N4B d   1       5.977   3.384   3.742  0.00  0.00     0.057 C 
BRANCH   7   8
ATOM      8  C2' N4B d   1       5.816   4.322   2.550  0.00  0.00     0.009 C 
BRANCH   8   9
ATOM      9  C3' N4B d   1       5.565   5.756   2.985  0.00  0.00     0.004 C 
ATOM     10  C4' N4B d   1       5.877   5.986   4.434  0.00  0.00     0.003 C 
ENDBRANCH   8   9
ENDBRANCH   7   8
ENDBRANCH   1   7
TORSDOF 3
ENDMDL
