MODEL 1
REMARK minimizedAffinity -5.14321756
REMARK minimizedRMSD -1
REMARK  1 active torsions:
REMARK  status: ('A' for Active; 'I' for Inactive)
REMARK    1  A    between atoms: N_2  and  C1_3 
ROOT
ATOM      1  C1  UNL d   1       0.689   0.233   0.094  0.00  0.00     0.143 A 
ATOM      2  C2  UNL d   1       0.957  -1.139   0.036  0.00  0.00    -0.057 A 
ATOM      3  C3  UNL d   1       2.231  -1.643   0.324  0.00  0.00     0.033 A 
ATOM      4  C4  UNL d   1       3.270  -0.778   0.649  0.00  0.00    -0.042 A 
ATOM      5  C5  UNL d   1       3.033   0.592   0.690  0.00  0.00     0.033 A 
ATOM      6  C6  UNL d   1       1.757   1.088   0.407  0.00  0.00    -0.057 A 
ENDROOT
BRANCH   1   7
ATOM      7  N   UNL d   1      -0.531   0.803  -0.277  0.00  0.00    -0.732 N 
ATOM      8  C   UNL d   1      -1.664   0.773   0.623  0.00  0.00     0.284 C 
ATOM      9  H3  UNL d   1      -0.413   1.687  -0.767  0.00  0.00     0.395 HD
ENDBRANCH   1   7
TORSDOF 1
ENDMDL
