MODEL 1
REMARK minimizedAffinity -3.51973987
REMARK minimizedRMSD -1
REMARK  1 active torsions:
REMARK  status: ('A' for Active; 'I' for Inactive)
REMARK    1  A    between atoms: N_2  and  C1_3 
ROOT
ATOM      1  C1  UNL d   1      -0.289   0.244  -0.197  0.00  0.00     0.143 A 
ATOM      2  C2  UNL d   1       0.598   0.839   0.707  0.00  0.00    -0.057 A 
ATOM      3  C3  UNL d   1       1.720   0.150   1.182  0.00  0.00     0.033 A 
ATOM      4  C4  UNL d   1       1.961  -1.160   0.782  0.00  0.00    -0.042 A 
ATOM      5  C5  UNL d   1       1.079  -1.780  -0.096  0.00  0.00     0.033 A 
ATOM      6  C6  UNL d   1      -0.037  -1.085  -0.573  0.00  0.00    -0.057 A 
ENDROOT
BRANCH   1   7
ATOM      7  N   UNL d   1      -1.476   0.842  -0.630  0.00  0.00    -0.732 N 
ATOM      8  C   UNL d   1      -2.568   1.063   0.293  0.00  0.00     0.284 C 
ATOM      9  H3  UNL d   1      -1.310   1.614  -1.271  0.00  0.00     0.395 HD
ENDBRANCH   1   7
TORSDOF 1
ENDMDL
