MODEL 1
REMARK minimizedAffinity -5.37196302
REMARK minimizedRMSD -1
REMARK  1 active torsions:
REMARK  status: ('A' for Active; 'I' for Inactive)
REMARK    1  A    between atoms: N_2  and  C1_3 
ROOT
ATOM      1  C1  UNL d   1       0.396   0.764   0.254  0.00  0.00     0.143 A 
ATOM      2  C2  UNL d   1       0.452  -0.634   0.257  0.00  0.00    -0.057 A 
ATOM      3  C3  UNL d   1       1.643  -1.313   0.544  0.00  0.00     0.033 A 
ATOM      4  C4  UNL d   1       2.810  -0.602   0.806  0.00  0.00    -0.042 A 
ATOM      5  C5  UNL d   1       2.783   0.788   0.784  0.00  0.00     0.033 A 
ATOM      6  C6  UNL d   1       1.590   1.460   0.503  0.00  0.00    -0.057 A 
ENDROOT
BRANCH   1   7
ATOM      7  N   UNL d   1      -0.733   1.496  -0.121  0.00  0.00    -0.732 N 
ATOM      8  C   UNL d   1      -2.038   1.157   0.404  0.00  0.00     0.284 C 
ATOM      9  H3  UNL d   1      -0.550   2.496  -0.167  0.00  0.00     0.395 HD
ENDBRANCH   1   7
TORSDOF 1
ENDMDL
