MODEL 1
REMARK minimizedAffinity -2.120471
REMARK minimizedRMSD -1
REMARK  1 active torsions:
REMARK  status: ('A' for Active; 'I' for Inactive)
REMARK    1  A    between atoms: N_2  and  C1_3 
ROOT
ATOM      1  C1  UNL d   1      -0.731   0.812  -0.273  0.00  0.00     0.143 A 
ATOM      2  C2  UNL d   1       0.085   1.947  -0.322  0.00  0.00    -0.057 A 
ATOM      3  C3  UNL d   1       1.393   1.923   0.178  0.00  0.00     0.033 A 
ATOM      4  C4  UNL d   1       1.898   0.767   0.764  0.00  0.00    -0.042 A 
ATOM      5  C5  UNL d   1       1.096  -0.366   0.846  0.00  0.00     0.033 A 
ATOM      6  C6  UNL d   1      -0.206  -0.337   0.339  0.00  0.00    -0.057 A 
ENDROOT
BRANCH   1   7
ATOM      7  N   UNL d   1      -2.073   0.801  -0.664  0.00  0.00    -0.732 N 
ATOM      8  C   UNL d   1      -3.121   1.094   0.290  0.00  0.00     0.284 C 
ATOM      9  H3  UNL d   1      -2.214   1.222  -1.579  0.00  0.00     0.395 HD
ENDBRANCH   1   7
TORSDOF 1
ENDMDL
