MODEL 1
REMARK minimizedAffinity 11.0391293
REMARK minimizedRMSD -1
REMARK  0 active torsions:
REMARK  status: ('A' for Active; 'I' for Inactive)
ROOT
ATOM      1  N1  IND d   1       0.906  -2.261  -3.749  0.00  0.00    -0.196 N 
ATOM      2  C2  IND d   1       2.208  -2.676  -3.779  0.00  0.00     0.054 A 
ATOM      3  C3  IND d   1       2.878  -2.200  -2.706  0.00  0.00    -0.031 A 
ATOM      4  C4  IND d   1       2.011  -0.806  -0.722  0.00  0.00     0.051 A 
ATOM      5  C5  IND d   1       0.899  -0.154  -0.268  0.00  0.00    -0.031 A 
ATOM      6  C6  IND d   1      -0.292  -0.174  -0.964  0.00  0.00     0.015 A 
ATOM      7  C7  IND d   1      -0.420  -0.859  -2.139  0.00  0.00    -0.016 A 
ATOM      8  C8  IND d   1       0.710  -1.516  -2.607  0.00  0.00    -0.047 A 
ATOM      9  C9  IND d   1       1.933  -1.465  -1.927  0.00  0.00    -0.096 A 
ATOM     10  HN1 IND d   1       0.310  -2.436  -4.343  0.00  0.00     0.298 HD
ENDROOT
TORSDOF 0
ENDMDL
