MODEL 1
REMARK minimizedAffinity 9.89927578
REMARK minimizedRMSD -1
REMARK  0 active torsions:
REMARK  status: ('A' for Active; 'I' for Inactive)
ROOT
ATOM      1  N1  IND d   1       4.132   2.765   0.491  0.00  0.00    -0.196 N 
ATOM      2  C2  IND d   1       5.405   2.513   0.061  0.00  0.00     0.054 A 
ATOM      3  C3  IND d   1       5.543   1.208  -0.261  0.00  0.00    -0.031 A 
ATOM      4  C4  IND d   1       3.785  -0.673  -0.256  0.00  0.00     0.051 A 
ATOM      5  C5  IND d   1       2.490  -0.936   0.094  0.00  0.00    -0.031 A 
ATOM      6  C6  IND d   1       1.659   0.041   0.601  0.00  0.00     0.015 A 
ATOM      7  C7  IND d   1       2.090   1.327   0.768  0.00  0.00    -0.016 A 
ATOM      8  C8  IND d   1       3.406   1.596   0.421  0.00  0.00    -0.047 A 
ATOM      9  C9  IND d   1       4.267   0.599  -0.054  0.00  0.00    -0.096 A 
ATOM     10  HN1 IND d   1       3.834   3.525   0.761  0.00  0.00     0.298 HD
ENDROOT
TORSDOF 0
ENDMDL
