MODEL 1
REMARK minimizedAffinity 10.154314
REMARK minimizedRMSD -1
REMARK  0 active torsions:
REMARK  status: ('A' for Active; 'I' for Inactive)
ROOT
ATOM      1  N1  IND d   1      -0.484  -4.978  -0.220  0.00  0.00    -0.196 N 
ATOM      2  C2  IND d   1      -1.467  -4.847  -1.161  0.00  0.00     0.054 A 
ATOM      3  C3  IND d   1      -1.343  -3.667  -1.809  0.00  0.00    -0.031 A 
ATOM      4  C4  IND d   1       0.458  -1.844  -1.558  0.00  0.00     0.051 A 
ATOM      5  C5  IND d   1       1.542  -1.498  -0.801  0.00  0.00    -0.031 A 
ATOM      6  C6  IND d   1       2.017  -2.312   0.207  0.00  0.00     0.015 A 
ATOM      7  C7  IND d   1       1.430  -3.513   0.489  0.00  0.00    -0.016 A 
ATOM      8  C8  IND d   1       0.325  -3.864  -0.273  0.00  0.00    -0.047 A 
ATOM      9  C9  IND d   1      -0.188  -3.023  -1.268  0.00  0.00    -0.096 A 
ATOM     10  HN1 IND d   1      -0.388  -5.644   0.316  0.00  0.00     0.298 HD
ENDROOT
TORSDOF 0
ENDMDL
