MODEL 1
REMARK minimizedAffinity 4.3470149
REMARK minimizedRMSD -1
REMARK  0 active torsions:
REMARK  status: ('A' for Active; 'I' for Inactive)
ROOT
ATOM      1  N1  IND d   1       3.628   4.039   2.652  0.00  0.00    -0.196 N 
ATOM      2  C2  IND d   1       2.831   3.102   3.247  0.00  0.00     0.054 A 
ATOM      3  C3  IND d   1       3.078   3.049   4.575  0.00  0.00    -0.031 A 
ATOM      4  C4  IND d   1       4.674   4.481   6.000  0.00  0.00     0.051 A 
ATOM      5  C5  IND d   1       5.639   5.443   5.898  0.00  0.00    -0.031 A 
ATOM      6  C6  IND d   1       5.988   6.000   4.685  0.00  0.00     0.015 A 
ATOM      7  C7  IND d   1       5.375   5.621   3.524  0.00  0.00    -0.016 A 
ATOM      8  C8  IND d   1       4.399   4.639   3.623  0.00  0.00    -0.047 A 
ATOM      9  C9  IND d   1       4.071   4.040   4.846  0.00  0.00    -0.096 A 
ATOM     10  HN1 IND d   1       3.645   4.223   1.812  0.00  0.00     0.298 HD
ENDROOT
TORSDOF 0
ENDMDL
