MODEL 1
REMARK minimizedAffinity 5.12520838
REMARK minimizedRMSD -1
REMARK  0 active torsions:
REMARK  status: ('A' for Active; 'I' for Inactive)
ROOT
ATOM      1  N1  IND d   1      -2.628   5.998   4.463  0.00  0.00    -0.196 N 
ATOM      2  C2  IND d   1      -2.239   5.590   3.218  0.00  0.00     0.054 A 
ATOM      3  C3  IND d   1      -3.092   4.656   2.740  0.00  0.00    -0.031 A 
ATOM      4  C4  IND d   1      -5.251   3.724   3.789  0.00  0.00     0.051 A 
ATOM      5  C5  IND d   1      -5.998   3.767   4.933  0.00  0.00    -0.031 A 
ATOM      6  C6  IND d   1      -5.655   4.573   5.999  0.00  0.00     0.015 A 
ATOM      7  C7  IND d   1      -4.553   5.380   5.956  0.00  0.00    -0.016 A 
ATOM      8  C8  IND d   1      -3.788   5.334   4.799  0.00  0.00    -0.047 A 
ATOM      9  C9  IND d   1      -4.107   4.486   3.731  0.00  0.00    -0.096 A 
ATOM     10  HN1 IND d   1      -2.218   6.572   4.954  0.00  0.00     0.298 HD
ENDROOT
TORSDOF 0
ENDMDL
