MODEL 1
REMARK minimizedAffinity 11.35989
REMARK minimizedRMSD -1
REMARK  0 active torsions:
REMARK  status: ('A' for Active; 'I' for Inactive)
ROOT
ATOM      1  N1  IND d   1       3.594  -2.265  -0.730  0.00  0.00    -0.196 N 
ATOM      2  C2  IND d   1       2.387  -2.798  -0.374  0.00  0.00     0.054 A 
ATOM      3  C3  IND d   1       1.578  -1.838   0.129  0.00  0.00    -0.031 A 
ATOM      4  C4  IND d   1       1.993   0.692   0.364  0.00  0.00     0.051 A 
ATOM      5  C5  IND d   1       2.962   1.644   0.207  0.00  0.00    -0.031 A 
ATOM      6  C6  IND d   1       4.214   1.336  -0.283  0.00  0.00     0.015 A 
ATOM      7  C7  IND d   1       4.543   0.060  -0.646  0.00  0.00    -0.016 A 
ATOM      8  C8  IND d   1       3.565  -0.910  -0.482  0.00  0.00    -0.047 A 
ATOM      9  C9  IND d   1       2.306  -0.611   0.055  0.00  0.00    -0.096 A 
ATOM     10  HN1 IND d   1       4.259  -2.702  -1.055  0.00  0.00     0.298 HD
ENDROOT
TORSDOF 0
ENDMDL
