MODEL 1
REMARK minimizedAffinity 17.0311375
REMARK minimizedRMSD -1
REMARK  0 active torsions:
REMARK  status: ('A' for Active; 'I' for Inactive)
ROOT
ATOM      1  N1  IND d   1      -2.633   5.994   5.163  0.00  0.00    -0.196 N 
ATOM      2  C2  IND d   1      -1.880   5.859   4.030  0.00  0.00     0.054 A 
ATOM      3  C3  IND d   1      -2.550   5.138   3.103  0.00  0.00    -0.031 A 
ATOM      4  C4  IND d   1      -4.935   4.172   3.194  0.00  0.00     0.051 A 
ATOM      5  C5  IND d   1      -5.999   4.007   4.035  0.00  0.00    -0.031 A 
ATOM      6  C6  IND d   1      -5.997   4.509   5.320  0.00  0.00     0.015 A 
ATOM      7  C7  IND d   1      -4.930   5.207   5.810  0.00  0.00    -0.016 A 
ATOM      8  C8  IND d   1      -3.844   5.370   4.961  0.00  0.00    -0.047 A 
ATOM      9  C9  IND d   1      -3.824   4.826   3.671  0.00  0.00    -0.096 A 
ATOM     10  HN1 IND d   1      -2.391   6.401   5.881  0.00  0.00     0.298 HD
ENDROOT
TORSDOF 0
ENDMDL
