MODEL 1
REMARK minimizedAffinity 7.83991432
REMARK minimizedRMSD -1
REMARK  1 active torsions:
REMARK  status: ('A' for Active; 'I' for Inactive)
REMARK    1  A    between atoms: C1_2  and  C2_3 
ROOT
ATOM      1  C2  UNL d   1       1.139  -0.572  -1.850  0.00  0.00    -0.081 A 
ATOM      2  C3  UNL d   1       0.421   0.435  -1.193  0.00  0.00     0.006 A 
ATOM      3  C4  UNL d   1       0.558   1.770  -1.579  0.00  0.00     0.002 A 
ATOM      4  C5  UNL d   1       1.410   2.121  -2.633  0.00  0.00    -0.080 A 
ATOM      5  C6  UNL d   1       1.543   3.547  -3.077  0.00  0.00     0.076 C 
ATOM      6  C7  UNL d   1       2.141   1.117  -3.278  0.00  0.00     0.002 A 
ATOM      7  C8  UNL d   1       2.004  -0.218  -2.892  0.00  0.00     0.006 A 
ENDROOT
BRANCH   1   8
ATOM      8  C1  UNL d   1       0.944  -2.020  -1.479  0.00  0.00     0.054 C 
ATOM      9  C   UNL d   1       0.801  -2.894  -2.717  0.00  0.00     0.018 C 
ENDBRANCH   1   8
TORSDOF 1
ENDMDL
