MODEL 1
REMARK minimizedAffinity -2.13795686
REMARK minimizedRMSD -1
REMARK  1 active torsions:
REMARK  status: ('A' for Active; 'I' for Inactive)
REMARK    1  A    between atoms: C1_2  and  C2_3 
ROOT
ATOM      1  C2  UNL d   1       0.339   1.137  -1.332  0.00  0.00    -0.081 A 
ATOM      2  C3  UNL d   1       1.475   1.175  -2.151  0.00  0.00     0.006 A 
ATOM      3  C4  UNL d   1       2.330   0.074  -2.228  0.00  0.00     0.002 A 
ATOM      4  C5  UNL d   1       2.060  -1.087  -1.495  0.00  0.00    -0.080 A 
ATOM      5  C6  UNL d   1       2.953  -2.288  -1.592  0.00  0.00     0.076 C 
ATOM      6  C7  UNL d   1       0.935  -1.119  -0.664  0.00  0.00     0.002 A 
ATOM      7  C8  UNL d   1       0.081  -0.017  -0.585  0.00  0.00     0.006 A 
ENDROOT
BRANCH   1   8
ATOM      8  C1  UNL d   1      -0.619   2.300  -1.296  0.00  0.00     0.054 C 
ATOM      9  C   UNL d   1      -1.130   2.552   0.115  0.00  0.00     0.018 C 
ENDBRANCH   1   8
TORSDOF 1
ENDMDL
