MODEL 1
REMARK minimizedAffinity 5.13593006
REMARK minimizedRMSD -1
REMARK  1 active torsions:
REMARK  status: ('A' for Active; 'I' for Inactive)
REMARK    1  A    between atoms: C1_2  and  C2_3 
ROOT
ATOM      1  C2  UNL d   1       1.014   0.539  -1.775  0.00  0.00    -0.081 A 
ATOM      2  C3  UNL d   1      -0.147   0.179  -1.079  0.00  0.00     0.006 A 
ATOM      3  C4  UNL d   1      -0.201  -1.020  -0.365  0.00  0.00     0.002 A 
ATOM      4  C5  UNL d   1       0.906  -1.875  -0.327  0.00  0.00    -0.080 A 
ATOM      5  C6  UNL d   1       0.872  -3.151   0.461  0.00  0.00     0.076 C 
ATOM      6  C7  UNL d   1       2.060  -1.524  -1.037  0.00  0.00     0.002 A 
ATOM      7  C8  UNL d   1       2.114  -0.326  -1.752  0.00  0.00     0.006 A 
ENDROOT
BRANCH   1   8
ATOM      8  C1  UNL d   1       1.098   1.861  -2.493  0.00  0.00     0.054 C 
ATOM      9  C   UNL d   1       1.769   1.712  -3.851  0.00  0.00     0.018 C 
ENDBRANCH   1   8
TORSDOF 1
ENDMDL
