MODEL 1
REMARK minimizedAffinity 10.2579288
REMARK minimizedRMSD -1
REMARK  1 active torsions:
REMARK  status: ('A' for Active; 'I' for Inactive)
REMARK    1  A    between atoms: C1_2  and  C2_3 
ROOT
ATOM      1  C2  UNL d   1       1.923   1.610  -0.686  0.00  0.00    -0.081 A 
ATOM      2  C3  UNL d   1       1.917   2.659  -1.614  0.00  0.00     0.006 A 
ATOM      3  C4  UNL d   1       1.794   2.394  -2.980  0.00  0.00     0.002 A 
ATOM      4  C5  UNL d   1       1.666   1.079  -3.440  0.00  0.00    -0.080 A 
ATOM      5  C6  UNL d   1       1.502   0.784  -4.901  0.00  0.00     0.076 C 
ATOM      6  C7  UNL d   1       1.689   0.031  -2.514  0.00  0.00     0.002 A 
ATOM      7  C8  UNL d   1       1.814   0.294  -1.149  0.00  0.00     0.006 A 
ENDROOT
BRANCH   1   8
ATOM      8  C1  UNL d   1       1.991   1.896   0.793  0.00  0.00     0.054 C 
ATOM      9  C   UNL d   1       0.609   2.173   1.367  0.00  0.00     0.018 C 
ENDBRANCH   1   8
TORSDOF 1
ENDMDL
