MODEL 1
REMARK minimizedAffinity 11.2297077
REMARK minimizedRMSD -1
REMARK  1 active torsions:
REMARK  status: ('A' for Active; 'I' for Inactive)
REMARK    1  A    between atoms: C1_2  and  C2_3 
ROOT
ATOM      1  C2  UNL d   1       1.818   1.287  -1.291  0.00  0.00    -0.081 A 
ATOM      2  C3  UNL d   1       2.152   1.606   0.031  0.00  0.00     0.006 A 
ATOM      3  C4  UNL d   1       1.230   2.251   0.859  0.00  0.00     0.002 A 
ATOM      4  C5  UNL d   1      -0.043   2.581   0.382  0.00  0.00    -0.080 A 
ATOM      5  C6  UNL d   1      -1.053   3.246   1.269  0.00  0.00     0.076 C 
ATOM      6  C7  UNL d   1      -0.371   2.278  -0.944  0.00  0.00     0.002 A 
ATOM      7  C8  UNL d   1       0.551   1.634  -1.773  0.00  0.00     0.006 A 
ENDROOT
BRANCH   1   8
ATOM      8  C1  UNL d   1       2.787   0.534  -2.166  0.00  0.00     0.054 C 
ATOM      9  C   UNL d   1       2.957  -0.903  -1.694  0.00  0.00     0.018 C 
ENDBRANCH   1   8
TORSDOF 1
ENDMDL
