MODEL 1
REMARK minimizedAffinity 6.03831959
REMARK minimizedRMSD -1
REMARK  1 active torsions:
REMARK  status: ('A' for Active; 'I' for Inactive)
REMARK    1  A    between atoms: C1_2  and  C2_3 
ROOT
ATOM      1  C2  UNL d   1       2.075   0.519  -2.502  0.00  0.00    -0.081 A 
ATOM      2  C3  UNL d   1       1.603   0.285  -3.800  0.00  0.00     0.006 A 
ATOM      3  C4  UNL d   1       1.487  -1.019  -4.287  0.00  0.00     0.002 A 
ATOM      4  C5  UNL d   1       1.833  -2.111  -3.483  0.00  0.00    -0.080 A 
ATOM      5  C6  UNL d   1       1.684  -3.517  -3.983  0.00  0.00     0.076 C 
ATOM      6  C7  UNL d   1       2.321  -1.876  -2.193  0.00  0.00     0.002 A 
ATOM      7  C8  UNL d   1       2.438  -0.573  -1.706  0.00  0.00     0.006 A 
ENDROOT
BRANCH   1   8
ATOM      8  C1  UNL d   1       2.140   1.920  -1.951  0.00  0.00     0.054 C 
ATOM      9  C   UNL d   1       1.327   2.887  -2.801  0.00  0.00     0.018 C 
ENDBRANCH   1   8
TORSDOF 1
ENDMDL
