MODEL 1
REMARK minimizedAffinity -0.211795643
REMARK minimizedRMSD -1
REMARK  1 active torsions:
REMARK  status: ('A' for Active; 'I' for Inactive)
REMARK    1  A    between atoms: C1_2  and  C2_3 
ROOT
ATOM      1  C2  UNL d   1       1.903  -0.605  -1.883  0.00  0.00    -0.081 A 
ATOM      2  C3  UNL d   1       0.711  -1.335  -1.802  0.00  0.00     0.006 A 
ATOM      3  C4  UNL d   1       0.637  -2.482  -1.008  0.00  0.00     0.002 A 
ATOM      4  C5  UNL d   1       1.749  -2.914  -0.278  0.00  0.00    -0.080 A 
ATOM      5  C6  UNL d   1       1.674  -4.127   0.600  0.00  0.00     0.076 C 
ATOM      6  C7  UNL d   1       2.945  -2.195  -0.374  0.00  0.00     0.002 A 
ATOM      7  C8  UNL d   1       3.021  -1.048  -1.167  0.00  0.00     0.006 A 
ENDROOT
BRANCH   1   8
ATOM      8  C1  UNL d   1       1.968   0.669  -2.686  0.00  0.00     0.054 C 
ATOM      9  C   UNL d   1       1.178   1.786  -2.018  0.00  0.00     0.018 C 
ENDBRANCH   1   8
TORSDOF 1
ENDMDL
