MODEL 1
REMARK minimizedAffinity 5.03329086
REMARK minimizedRMSD -1
REMARK  1 active torsions:
REMARK  status: ('A' for Active; 'I' for Inactive)
REMARK    1  A    between atoms: C1_2  and  C2_3 
ROOT
ATOM      1  C2  UNL d   1       1.505   1.053  -1.036  0.00  0.00    -0.081 A 
ATOM      2  C3  UNL d   1       2.098   1.648   0.085  0.00  0.00     0.006 A 
ATOM      3  C4  UNL d   1       1.322   2.359   1.003  0.00  0.00     0.002 A 
ATOM      4  C5  UNL d   1      -0.060   2.480   0.821  0.00  0.00    -0.080 A 
ATOM      5  C6  UNL d   1      -0.909   3.215   1.815  0.00  0.00     0.076 C 
ATOM      6  C7  UNL d   1      -0.650   1.900  -0.307  0.00  0.00     0.002 A 
ATOM      7  C8  UNL d   1       0.125   1.190  -1.226  0.00  0.00     0.006 A 
ENDROOT
BRANCH   1   8
ATOM      8  C1  UNL d   1       2.329   0.230  -1.993  0.00  0.00     0.054 C 
ATOM      9  C   UNL d   1       1.992  -1.250  -1.883  0.00  0.00     0.018 C 
ENDBRANCH   1   8
TORSDOF 1
ENDMDL
