MODEL 1
REMARK minimizedAffinity 12.8874998
REMARK minimizedRMSD -1
REMARK  1 active torsions:
REMARK  status: ('A' for Active; 'I' for Inactive)
REMARK    1  A    between atoms: C1_2  and  C2_3 
ROOT
ATOM      1  C2  UNL d   1       1.455  -0.436  -2.167  0.00  0.00    -0.081 A 
ATOM      2  C3  UNL d   1       1.658  -0.073  -3.504  0.00  0.00     0.006 A 
ATOM      3  C4  UNL d   1       1.497   1.254  -3.910  0.00  0.00     0.002 A 
ATOM      4  C5  UNL d   1       1.137   2.240  -2.986  0.00  0.00    -0.080 A 
ATOM      5  C6  UNL d   1       0.990   3.673  -3.403  0.00  0.00     0.076 C 
ATOM      6  C7  UNL d   1       0.917   1.875  -1.653  0.00  0.00     0.002 A 
ATOM      7  C8  UNL d   1       1.078   0.549  -1.247  0.00  0.00     0.006 A 
ENDROOT
BRANCH   1   8
ATOM      8  C1  UNL d   1       1.692  -1.853  -1.712  0.00  0.00     0.054 C 
ATOM      9  C   UNL d   1       2.951  -1.960  -0.864  0.00  0.00     0.018 C 
ENDBRANCH   1   8
TORSDOF 1
ENDMDL
