MODEL 1
REMARK minimizedAffinity 7.96930313
REMARK minimizedRMSD -1
REMARK  3 active torsions:
REMARK  status: ('A' for Active; 'I' for Inactive)
REMARK    1  A    between atoms: C3'_2  and  C2'_3 
REMARK    2  A    between atoms: C2'_3  and  C1'_4 
REMARK    3  A    between atoms: C1'_4  and  C1_5 
ROOT
ATOM      1  C1  N4B d   1       1.586   0.357   0.568  0.00  0.00    -0.075 A 
ATOM      2  C2  N4B d   1       0.327   0.410  -0.069  0.00  0.00     0.002 A 
ATOM      3  C3  N4B d   1       0.144  -0.212  -1.280  0.00  0.00     0.002 A 
ATOM      4  C4  N4B d   1       1.205  -0.874  -1.879  0.00  0.00    -0.004 A 
ATOM      5  C5  N4B d   1       2.411  -0.942  -1.244  0.00  0.00     0.002 A 
ATOM      6  C6  N4B d   1       2.609  -0.325  -0.025  0.00  0.00     0.002 A 
ENDROOT
BRANCH   1   7
ATOM      7  C1' N4B d   1       1.858   1.094   1.851  0.00  0.00     0.057 C 
BRANCH   7   8
ATOM      8  C2' N4B d   1       1.948   2.589   1.560  0.00  0.00     0.009 C 
BRANCH   8   9
ATOM      9  C3' N4B d   1       1.940   3.417   2.834  0.00  0.00     0.004 C 
ATOM     10  C4' N4B d   1       3.012   3.009   3.799  0.00  0.00     0.003 C 
ENDBRANCH   8   9
ENDBRANCH   7   8
ENDBRANCH   1   7
TORSDOF 3
ENDMDL
