MODEL 1
REMARK minimizedAffinity 11.5615387
REMARK minimizedRMSD -1
REMARK  3 active torsions:
REMARK  status: ('A' for Active; 'I' for Inactive)
REMARK    1  A    between atoms: C3'_2  and  C2'_3 
REMARK    2  A    between atoms: C2'_3  and  C1'_4 
REMARK    3  A    between atoms: C1'_4  and  C1_5 
ROOT
ATOM      1  C1  N4B d   1       4.233   3.853   3.875  0.00  0.00    -0.075 A 
ATOM      2  C2  N4B d   1       4.455   5.217   3.581  0.00  0.00     0.002 A 
ATOM      3  C3  N4B d   1       5.174   5.999   4.452  0.00  0.00     0.002 A 
ATOM      4  C4  N4B d   1       5.662   5.446   5.627  0.00  0.00    -0.004 A 
ATOM      5  C5  N4B d   1       5.465   4.123   5.891  0.00  0.00     0.002 A 
ATOM      6  C6  N4B d   1       4.748   3.324   5.023  0.00  0.00     0.002 A 
ENDROOT
BRANCH   1   7
ATOM      7  C1' N4B d   1       3.381   2.980   2.995  0.00  0.00     0.057 C 
BRANCH   7   8
ATOM      8  C2' N4B d   1       1.952   3.515   2.993  0.00  0.00     0.009 C 
BRANCH   8   9
ATOM      9  C3' N4B d   1       1.125   2.932   4.126  0.00  0.00     0.004 C 
ATOM     10  C4' N4B d   1       1.142   1.433   4.145  0.00  0.00     0.003 C 
ENDBRANCH   8   9
ENDBRANCH   7   8
ENDBRANCH   1   7
TORSDOF 3
ENDMDL
