MODEL 1
REMARK minimizedAffinity 3.93779778
REMARK minimizedRMSD -1
REMARK  3 active torsions:
REMARK  status: ('A' for Active; 'I' for Inactive)
REMARK    1  A    between atoms: C3'_2  and  C2'_3 
REMARK    2  A    between atoms: C2'_3  and  C1'_4 
REMARK    3  A    between atoms: C1'_4  and  C1_5 
ROOT
ATOM      1  C1  N4B d   1       2.230  -0.566  -0.036  0.00  0.00    -0.075 A 
ATOM      2  C2  N4B d   1       0.877  -0.970  -0.012  0.00  0.00     0.002 A 
ATOM      3  C3  N4B d   1       0.544  -2.272  -0.296  0.00  0.00     0.002 A 
ATOM      4  C4  N4B d   1       1.541  -3.178  -0.625  0.00  0.00    -0.004 A 
ATOM      5  C5  N4B d   1       2.848  -2.786  -0.621  0.00  0.00     0.002 A 
ATOM      6  C6  N4B d   1       3.197  -1.482  -0.333  0.00  0.00     0.002 A 
ENDROOT
BRANCH   1   7
ATOM      7  C1' N4B d   1       2.634   0.866   0.184  0.00  0.00     0.057 C 
BRANCH   7   8
ATOM      8  C2' N4B d   1       4.156   0.970   0.132  0.00  0.00     0.009 C 
BRANCH   8   9
ATOM      9  C3' N4B d   1       4.620   2.019  -0.864  0.00  0.00     0.004 C 
ATOM     10  C4' N4B d   1       5.334   1.425  -2.042  0.00  0.00     0.003 C 
ENDBRANCH   8   9
ENDBRANCH   7   8
ENDBRANCH   1   7
TORSDOF 3
ENDMDL
