MODEL 1
REMARK minimizedAffinity 1.09906363
REMARK minimizedRMSD -1
REMARK  3 active torsions:
REMARK  status: ('A' for Active; 'I' for Inactive)
REMARK    1  A    between atoms: C3'_2  and  C2'_3 
REMARK    2  A    between atoms: C2'_3  and  C1'_4 
REMARK    3  A    between atoms: C1'_4  and  C1_5 
ROOT
ATOM      1  C1  N4B d   1       0.495  -3.138  -1.257  0.00  0.00    -0.075 A 
ATOM      2  C2  N4B d   1      -0.748  -3.647  -1.693  0.00  0.00     0.002 A 
ATOM      3  C3  N4B d   1      -0.923  -5.001  -1.835  0.00  0.00     0.002 A 
ATOM      4  C4  N4B d   1       0.131  -5.861  -1.564  0.00  0.00    -0.004 A 
ATOM      5  C5  N4B d   1       1.320  -5.363  -1.119  0.00  0.00     0.002 A 
ATOM      6  C6  N4B d   1       1.509  -4.004  -0.969  0.00  0.00     0.002 A 
ENDROOT
BRANCH   1   7
ATOM      7  C1' N4B d   1       0.761  -1.660  -1.170  0.00  0.00     0.057 C 
BRANCH   7   8
ATOM      8  C2' N4B d   1       2.267  -1.426  -1.090  0.00  0.00     0.009 C 
BRANCH   8   9
ATOM      9  C3' N4B d   1       2.600   0.001  -0.687  0.00  0.00     0.004 C 
ATOM     10  C4' N4B d   1       1.859   1.021  -1.498  0.00  0.00     0.003 C 
ENDBRANCH   8   9
ENDBRANCH   7   8
ENDBRANCH   1   7
TORSDOF 3
ENDMDL
