MODEL 1
REMARK minimizedAffinity -2.17184687
REMARK minimizedRMSD -1
REMARK  1 active torsions:
REMARK  status: ('A' for Active; 'I' for Inactive)
REMARK    1  A    between atoms: C1_2  and  C2_3 
ROOT
ATOM      1  C2  UNL d   1       0.759  -1.254  -0.053  0.00  0.00    -0.076 A 
ATOM      2  C3  UNL d   1       0.335  -0.396   0.976  0.00  0.00     0.004 A 
ATOM      3  C4  UNL d   1      -0.052   0.915   0.703  0.00  0.00    -0.003 A 
ATOM      4  C5  UNL d   1      -0.021   1.389  -0.603  0.00  0.00     0.000 A 
ATOM      5  C6  UNL d   1       0.380   0.546  -1.639  0.00  0.00     0.000 A 
ATOM      6  C7  UNL d   1       0.757  -0.783  -1.384  0.00  0.00    -0.073 A 
ATOM      7  C8  UNL d   1       1.187  -1.646  -2.538  0.00  0.00     0.078 C 
ENDROOT
BRANCH   1   8
ATOM      8  C1  UNL d   1       1.193  -2.658   0.306  0.00  0.00     0.053 C 
ATOM      9  C   UNL d   1       0.020  -3.620   0.413  0.00  0.00     0.018 C 
ENDBRANCH   1   8
TORSDOF 1
ENDMDL
