MODEL 1
REMARK minimizedAffinity -2.20725322
REMARK minimizedRMSD -1
REMARK  1 active torsions:
REMARK  status: ('A' for Active; 'I' for Inactive)
REMARK    1  A    between atoms: C1_2  and  C2_3 
ROOT
ATOM      1  C2  UNL d   1      -1.080  -1.696   0.733  0.00  0.00    -0.076 A 
ATOM      2  C3  UNL d   1      -0.343  -1.522  -0.451  0.00  0.00     0.004 A 
ATOM      3  C4  UNL d   1       0.210  -0.285  -0.777  0.00  0.00    -0.003 A 
ATOM      4  C5  UNL d   1       0.036   0.799   0.077  0.00  0.00     0.000 A 
ATOM      5  C6  UNL d   1      -0.677   0.640   1.265  0.00  0.00     0.000 A 
ATOM      6  C7  UNL d   1      -1.227  -0.605   1.616  0.00  0.00    -0.073 A 
ATOM      7  C8  UNL d   1      -1.992  -0.718   2.907  0.00  0.00     0.078 C 
ENDROOT
BRANCH   1   8
ATOM      8  C1  UNL d   1      -1.679  -3.054   1.020  0.00  0.00     0.053 C 
ATOM      9  C   UNL d   1      -2.980  -3.287   0.268  0.00  0.00     0.018 C 
ENDBRANCH   1   8
TORSDOF 1
ENDMDL
