MODEL 1
REMARK minimizedAffinity -3.07449794
REMARK minimizedRMSD -1
REMARK  1 active torsions:
REMARK  status: ('A' for Active; 'I' for Inactive)
REMARK    1  A    between atoms: C1_2  and  C2_3 
ROOT
ATOM      1  C2  UNL d   1      -0.796  -1.698   0.148  0.00  0.00    -0.076 A 
ATOM      2  C3  UNL d   1      -1.600  -0.814   0.887  0.00  0.00     0.004 A 
ATOM      3  C4  UNL d   1      -1.289   0.543   0.967  0.00  0.00    -0.003 A 
ATOM      4  C5  UNL d   1      -0.168   1.037   0.309  0.00  0.00     0.000 A 
ATOM      5  C6  UNL d   1       0.631   0.177  -0.444  0.00  0.00     0.000 A 
ATOM      6  C7  UNL d   1       0.322  -1.190  -0.548  0.00  0.00    -0.073 A 
ATOM      7  C8  UNL d   1       1.222  -2.073  -1.368  0.00  0.00     0.078 C 
ENDROOT
BRANCH   1   8
ATOM      8  C1  UNL d   1      -1.168  -3.163   0.119  0.00  0.00     0.053 C 
ATOM      9  C   UNL d   1      -2.633  -3.399   0.450  0.00  0.00     0.018 C 
ENDBRANCH   1   8
TORSDOF 1
ENDMDL
