MODEL 1
REMARK minimizedAffinity -1.62299299
REMARK minimizedRMSD -1
REMARK  1 active torsions:
REMARK  status: ('A' for Active; 'I' for Inactive)
REMARK    1  A    between atoms: C1_2  and  C2_3 
ROOT
ATOM      1  C2  UNL d   1       0.758   2.455   0.469  0.00  0.00    -0.076 A 
ATOM      2  C3  UNL d   1       2.019   1.923   0.150  0.00  0.00     0.004 A 
ATOM      3  C4  UNL d   1       3.187   2.638   0.412  0.00  0.00    -0.003 A 
ATOM      4  C5  UNL d   1       3.112   3.897   0.997  0.00  0.00     0.000 A 
ATOM      5  C6  UNL d   1       1.870   4.433   1.337  0.00  0.00     0.000 A 
ATOM      6  C7  UNL d   1       0.684   3.718   1.094  0.00  0.00    -0.073 A 
ATOM      7  C8  UNL d   1      -0.628   4.347   1.475  0.00  0.00     0.078 C 
ENDROOT
BRANCH   1   8
ATOM      8  C1  UNL d   1      -0.475   1.645   0.137  0.00  0.00     0.053 C 
ATOM      9  C   UNL d   1      -0.146   0.205  -0.225  0.00  0.00     0.018 C 
ENDBRANCH   1   8
TORSDOF 1
ENDMDL
