MODEL 1
REMARK minimizedAffinity -2.90943646
REMARK minimizedRMSD -1
REMARK  1 active torsions:
REMARK  status: ('A' for Active; 'I' for Inactive)
REMARK    1  A    between atoms: C1_2  and  C2_3 
ROOT
ATOM      1  C2  UNL d   1      -0.225   0.567   0.364  0.00  0.00    -0.076 A 
ATOM      2  C3  UNL d   1      -0.625   0.185   1.656  0.00  0.00     0.004 A 
ATOM      3  C4  UNL d   1      -0.706  -1.160   2.014  0.00  0.00    -0.003 A 
ATOM      4  C5  UNL d   1      -0.387  -2.144   1.084  0.00  0.00     0.000 A 
ATOM      5  C6  UNL d   1       0.029  -1.783  -0.196  0.00  0.00     0.000 A 
ATOM      6  C7  UNL d   1       0.131  -0.431  -0.568  0.00  0.00    -0.073 A 
ATOM      7  C8  UNL d   1       0.579  -0.098  -1.964  0.00  0.00     0.078 C 
ENDROOT
BRANCH   1   8
ATOM      8  C1  UNL d   1      -0.183   2.040   0.026  0.00  0.00     0.053 C 
ATOM      9  C   UNL d   1       0.929   2.775   0.758  0.00  0.00     0.018 C 
ENDBRANCH   1   8
TORSDOF 1
ENDMDL
