MODEL 1
REMARK minimizedAffinity -4.13684559
REMARK minimizedRMSD -1
REMARK  1 active torsions:
REMARK  status: ('A' for Active; 'I' for Inactive)
REMARK    1  A    between atoms: C1_2  and  C2_3 
ROOT
ATOM      1  C2  UNL d   1      -1.463  -1.805   0.782  0.00  0.00    -0.076 A 
ATOM      2  C3  UNL d   1      -1.494  -0.401   0.845  0.00  0.00     0.004 A 
ATOM      3  C4  UNL d   1      -0.503   0.367   0.236  0.00  0.00    -0.003 A 
ATOM      4  C5  UNL d   1       0.535  -0.257  -0.447  0.00  0.00     0.000 A 
ATOM      5  C6  UNL d   1       0.572  -1.649  -0.535  0.00  0.00     0.000 A 
ATOM      6  C7  UNL d   1      -0.429  -2.436   0.059  0.00  0.00    -0.073 A 
ATOM      7  C8  UNL d   1      -0.336  -3.933  -0.062  0.00  0.00     0.078 C 
ENDROOT
BRANCH   1   8
ATOM      8  C1  UNL d   1      -2.551  -2.585   1.485  0.00  0.00     0.053 C 
ATOM      9  C   UNL d   1      -3.716  -2.918   0.566  0.00  0.00     0.018 C 
ENDBRANCH   1   8
TORSDOF 1
ENDMDL
