MODEL 1
REMARK minimizedAffinity -4.68665457
REMARK minimizedRMSD -1
REMARK  1 active torsions:
REMARK  status: ('A' for Active; 'I' for Inactive)
REMARK    1  A    between atoms: C1_2  and  C2_3 
ROOT
ATOM      1  C2  UNL d   1      -1.214  -1.338   1.059  0.00  0.00    -0.076 A 
ATOM      2  C3  UNL d   1      -1.506  -2.712   1.101  0.00  0.00     0.004 A 
ATOM      3  C4  UNL d   1      -0.877  -3.606   0.237  0.00  0.00    -0.003 A 
ATOM      4  C5  UNL d   1       0.055  -3.141  -0.684  0.00  0.00     0.000 A 
ATOM      5  C6  UNL d   1       0.370  -1.783  -0.728  0.00  0.00     0.000 A 
ATOM      6  C7  UNL d   1      -0.243  -0.870   0.147  0.00  0.00    -0.073 A 
ATOM      7  C8  UNL d   1       0.130   0.584   0.052  0.00  0.00     0.078 C 
ENDROOT
BRANCH   1   8
ATOM      8  C1  UNL d   1      -1.948  -0.412   2.002  0.00  0.00     0.053 C 
ATOM      9  C   UNL d   1      -2.016  -0.959   3.420  0.00  0.00     0.018 C 
ENDBRANCH   1   8
TORSDOF 1
ENDMDL
