MODEL 1
REMARK minimizedAffinity -4.06341648
REMARK minimizedRMSD -1
REMARK  1 active torsions:
REMARK  status: ('A' for Active; 'I' for Inactive)
REMARK    1  A    between atoms: C1_2  and  C2_3 
ROOT
ATOM      1  C2  UNL d   1      -0.204  -0.360   0.308  0.00  0.00    -0.076 A 
ATOM      2  C3  UNL d   1       0.715  -1.235  -0.298  0.00  0.00     0.004 A 
ATOM      3  C4  UNL d   1       0.571  -2.617  -0.185  0.00  0.00    -0.003 A 
ATOM      4  C5  UNL d   1      -0.494  -3.146   0.534  0.00  0.00     0.000 A 
ATOM      5  C6  UNL d   1      -1.425  -2.293   1.127  0.00  0.00     0.000 A 
ATOM      6  C7  UNL d   1      -1.304  -0.898   1.009  0.00  0.00    -0.073 A 
ATOM      7  C8  UNL d   1      -2.333  -0.026   1.674  0.00  0.00     0.078 C 
ENDROOT
BRANCH   1   8
ATOM      8  C1  UNL d   1       0.019   1.130   0.175  0.00  0.00     0.053 C 
ATOM      9  C   UNL d   1      -0.141   1.617  -1.257  0.00  0.00     0.018 C 
ENDBRANCH   1   8
TORSDOF 1
ENDMDL
