MODEL 1
REMARK minimizedAffinity -3.57824063
REMARK minimizedRMSD -1
REMARK  1 active torsions:
REMARK  status: ('A' for Active; 'I' for Inactive)
REMARK    1  A    between atoms: C1_2  and  C2_3 
ROOT
ATOM      1  C2  UNL d   1      -0.093   0.129  -0.009  0.00  0.00    -0.076 A 
ATOM      2  C3  UNL d   1       0.846  -0.593  -0.767  0.00  0.00     0.004 A 
ATOM      3  C4  UNL d   1       0.938  -1.980  -0.664  0.00  0.00    -0.003 A 
ATOM      4  C5  UNL d   1       0.092  -2.668   0.199  0.00  0.00     0.000 A 
ATOM      5  C6  UNL d   1      -0.857  -1.970   0.945  0.00  0.00     0.000 A 
ATOM      6  C7  UNL d   1      -0.974  -0.574   0.840  0.00  0.00    -0.073 A 
ATOM      7  C8  UNL d   1      -2.011   0.129   1.673  0.00  0.00     0.078 C 
ENDROOT
BRANCH   1   8
ATOM      8  C1  UNL d   1      -0.128   1.634  -0.143  0.00  0.00     0.053 C 
ATOM      9  C   UNL d   1       1.134   2.296   0.390  0.00  0.00     0.018 C 
ENDBRANCH   1   8
TORSDOF 1
ENDMDL
