MODEL 1
REMARK minimizedAffinity -3.9839263
REMARK minimizedRMSD -1
REMARK  1 active torsions:
REMARK  status: ('A' for Active; 'I' for Inactive)
REMARK    1  A    between atoms: C1_2  and  C2_3 
ROOT
ATOM      1  C2  UNL d   1      -0.011   0.010  -0.153  0.00  0.00    -0.076 A 
ATOM      2  C3  UNL d   1      -0.490   0.019   1.169  0.00  0.00     0.004 A 
ATOM      3  C4  UNL d   1      -0.960  -1.147   1.770  0.00  0.00    -0.003 A 
ATOM      4  C5  UNL d   1      -0.960  -2.342   1.059  0.00  0.00     0.000 A 
ATOM      5  C6  UNL d   1      -0.472  -2.373  -0.248  0.00  0.00     0.000 A 
ATOM      6  C7  UNL d   1       0.021  -1.209  -0.862  0.00  0.00    -0.073 A 
ATOM      7  C8  UNL d   1       0.529  -1.299  -2.275  0.00  0.00     0.078 C 
ENDROOT
BRANCH   1   8
ATOM      8  C1  UNL d   1       0.462   1.311  -0.761  0.00  0.00     0.053 C 
ATOM      9  C   UNL d   1       1.158   2.208   0.251  0.00  0.00     0.018 C 
ENDBRANCH   1   8
TORSDOF 1
ENDMDL
