MODEL 1
REMARK minimizedAffinity -4.9447999
REMARK minimizedRMSD -1
REMARK  1 active torsions:
REMARK  status: ('A' for Active; 'I' for Inactive)
REMARK    1  A    between atoms: C1_2  and  C2_3 
ROOT
ATOM      1  C2  UNL d   1      -0.149  -0.708  -0.554  0.00  0.00    -0.076 A 
ATOM      2  C3  UNL d   1      -0.603  -0.939   0.756  0.00  0.00     0.004 A 
ATOM      3  C4  UNL d   1      -0.717  -2.234   1.258  0.00  0.00    -0.003 A 
ATOM      4  C5  UNL d   1      -0.376  -3.320   0.459  0.00  0.00     0.000 A 
ATOM      5  C6  UNL d   1       0.093  -3.108  -0.837  0.00  0.00     0.000 A 
ATOM      6  C7  UNL d   1       0.229  -1.808  -1.353  0.00  0.00    -0.073 A 
ATOM      7  C8  UNL d   1       0.735  -1.639  -2.760  0.00  0.00     0.078 C 
ENDROOT
BRANCH   1   8
ATOM      8  C1  UNL d   1      -0.072   0.717  -1.054  0.00  0.00     0.053 C 
ATOM      9  C   UNL d   1       0.042   1.726   0.078  0.00  0.00     0.018 C 
ENDBRANCH   1   8
TORSDOF 1
ENDMDL
