MODEL 1
REMARK minimizedAffinity 6.29330683
REMARK minimizedRMSD -1
REMARK  3 active torsions:
REMARK  status: ('A' for Active; 'I' for Inactive)
REMARK    1  A    between atoms: C3'_2  and  C2'_3 
REMARK    2  A    between atoms: C2'_3  and  C1'_4 
REMARK    3  A    between atoms: C1'_4  and  C1_5 
ROOT
ATOM      1  C1  N4B d   1       1.735   3.097   3.138  0.00  0.00    -0.075 A 
ATOM      2  C2  N4B d   1       0.837   4.187   3.120  0.00  0.00     0.002 A 
ATOM      3  C3  N4B d   1       1.299   5.461   3.343  0.00  0.00     0.002 A 
ATOM      4  C4  N4B d   1       2.645   5.666   3.605  0.00  0.00    -0.004 A 
ATOM      5  C5  N4B d   1       3.510   4.611   3.595  0.00  0.00     0.002 A 
ATOM      6  C6  N4B d   1       3.061   3.326   3.368  0.00  0.00     0.002 A 
ENDROOT
BRANCH   1   7
ATOM      7  C1' N4B d   1       1.263   1.677   2.985  0.00  0.00     0.057 C 
BRANCH   7   8
ATOM      8  C2' N4B d   1       0.468   1.276   4.224  0.00  0.00     0.009 C 
BRANCH   8   9
ATOM      9  C3' N4B d   1       1.245   0.320   5.113  0.00  0.00     0.004 C 
ATOM     10  C4' N4B d   1       1.187  -1.098   4.630  0.00  0.00     0.003 C 
ENDBRANCH   8   9
ENDBRANCH   7   8
ENDBRANCH   1   7
TORSDOF 3
ENDMDL
