MODEL 1
REMARK minimizedAffinity 9.70897579
REMARK minimizedRMSD -1
REMARK  3 active torsions:
REMARK  status: ('A' for Active; 'I' for Inactive)
REMARK    1  A    between atoms: C3'_2  and  C2'_3 
REMARK    2  A    between atoms: C2'_3  and  C1'_4 
REMARK    3  A    between atoms: C1'_4  and  C1_5 
ROOT
ATOM      1  C1  N4B d   1       0.745  -3.533   4.506  0.00  0.00    -0.075 A 
ATOM      2  C2  N4B d   1      -0.640  -3.808   4.511  0.00  0.00     0.002 A 
ATOM      3  C3  N4B d   1      -1.130  -4.852   5.259  0.00  0.00     0.002 A 
ATOM      4  C4  N4B d   1      -0.255  -5.641   5.990  0.00  0.00    -0.004 A 
ATOM      5  C5  N4B d   1       1.078  -5.353   5.999  0.00  0.00     0.002 A 
ATOM      6  C6  N4B d   1       1.583  -4.305   5.256  0.00  0.00     0.002 A 
ENDROOT
BRANCH   1   7
ATOM      7  C1' N4B d   1       1.337  -2.457   3.637  0.00  0.00     0.057 C 
BRANCH   7   8
ATOM      8  C2' N4B d   1       0.458  -1.212   3.713  0.00  0.00     0.009 C 
BRANCH   8   9
ATOM      9  C3' N4B d   1       1.090  -0.027   3.004  0.00  0.00     0.004 C 
ATOM     10  C4' N4B d   1       0.868   1.268   3.726  0.00  0.00     0.003 C 
ENDBRANCH   8   9
ENDBRANCH   7   8
ENDBRANCH   1   7
TORSDOF 3
ENDMDL
