MODEL 1
REMARK minimizedAffinity 3.03413224
REMARK minimizedRMSD -1
REMARK  3 active torsions:
REMARK  status: ('A' for Active; 'I' for Inactive)
REMARK    1  A    between atoms: C3'_2  and  C2'_3 
REMARK    2  A    between atoms: C2'_3  and  C1'_4 
REMARK    3  A    between atoms: C1'_4  and  C1_5 
ROOT
ATOM      1  C1  N4B d   1       0.382  -3.842   5.020  0.00  0.00    -0.075 A 
ATOM      2  C2  N4B d   1       0.435  -4.878   5.978  0.00  0.00     0.002 A 
ATOM      3  C3  N4B d   1      -0.541  -5.844   5.999  0.00  0.00     0.002 A 
ATOM      4  C4  N4B d   1      -1.585  -5.784   5.088  0.00  0.00    -0.004 A 
ATOM      5  C5  N4B d   1      -1.615  -4.795   4.149  0.00  0.00     0.002 A 
ATOM      6  C6  N4B d   1      -0.638  -3.820   4.114  0.00  0.00     0.002 A 
ENDROOT
BRANCH   1   7
ATOM      7  C1' N4B d   1       1.379  -2.716   5.012  0.00  0.00     0.057 C 
BRANCH   7   8
ATOM      8  C2' N4B d   1       1.154  -1.855   3.772  0.00  0.00     0.009 C 
BRANCH   8   9
ATOM      9  C3' N4B d   1       2.272  -2.018   2.757  0.00  0.00     0.004 C 
ATOM     10  C4' N4B d   1       1.910  -1.480   1.404  0.00  0.00     0.003 C 
ENDBRANCH   8   9
ENDBRANCH   7   8
ENDBRANCH   1   7
TORSDOF 3
ENDMDL
