MODEL 1
REMARK minimizedAffinity 2.97121119
REMARK minimizedRMSD -1
REMARK  3 active torsions:
REMARK  status: ('A' for Active; 'I' for Inactive)
REMARK    1  A    between atoms: C3'_2  and  C2'_3 
REMARK    2  A    between atoms: C2'_3  and  C1'_4 
REMARK    3  A    between atoms: C1'_4  and  C1_5 
ROOT
ATOM      1  C1  N4B d   1       0.598  -3.377   4.917  0.00  0.00    -0.075 A 
ATOM      2  C2  N4B d   1       0.776  -4.360   5.916  0.00  0.00     0.002 A 
ATOM      3  C3  N4B d   1      -0.093  -5.419   5.999  0.00  0.00     0.002 A 
ATOM      4  C4  N4B d   1      -1.155  -5.507   5.110  0.00  0.00    -0.004 A 
ATOM      5  C5  N4B d   1      -1.305  -4.568   4.133  0.00  0.00     0.002 A 
ATOM      6  C6  N4B d   1      -0.436  -3.499   4.035  0.00  0.00     0.002 A 
ENDROOT
BRANCH   1   7
ATOM      7  C1' N4B d   1       1.472  -2.155   4.840  0.00  0.00     0.057 C 
BRANCH   7   8
ATOM      8  C2' N4B d   1       1.128  -1.372   3.577  0.00  0.00     0.009 C 
BRANCH   8   9
ATOM      9  C3' N4B d   1       0.331  -0.116   3.887  0.00  0.00     0.004 C 
ATOM     10  C4' N4B d   1       1.042   0.804   4.834  0.00  0.00     0.003 C 
ENDBRANCH   8   9
ENDBRANCH   7   8
ENDBRANCH   1   7
TORSDOF 3
ENDMDL
