MODEL 1
REMARK minimizedAffinity 6.94767857
REMARK minimizedRMSD -1
REMARK  3 active torsions:
REMARK  status: ('A' for Active; 'I' for Inactive)
REMARK    1  A    between atoms: C3'_2  and  C2'_3 
REMARK    2  A    between atoms: C2'_3  and  C1'_4 
REMARK    3  A    between atoms: C1'_4  and  C1_5 
ROOT
ATOM      1  C1  N4B d   1      -1.829   0.366  -4.257  0.00  0.00    -0.075 A 
ATOM      2  C2  N4B d   1      -1.503   1.691  -3.892  0.00  0.00     0.002 A 
ATOM      3  C3  N4B d   1      -1.641   2.097  -2.587  0.00  0.00     0.002 A 
ATOM      4  C4  N4B d   1      -2.118   1.206  -1.638  0.00  0.00    -0.004 A 
ATOM      5  C5  N4B d   1      -2.406  -0.079  -1.993  0.00  0.00     0.002 A 
ATOM      6  C6  N4B d   1      -2.269  -0.502  -3.300  0.00  0.00     0.002 A 
ENDROOT
BRANCH   1   7
ATOM      7  C1' N4B d   1      -1.777  -0.100  -5.686  0.00  0.00     0.057 C 
BRANCH   7   8
ATOM      8  C2' N4B d   1      -0.369  -0.597  -5.999  0.00  0.00     0.009 C 
BRANCH   8   9
ATOM      9  C3' N4B d   1       0.683   0.110  -5.162  0.00  0.00     0.004 C 
ATOM     10  C4' N4B d   1       1.712   0.815  -5.996  0.00  0.00     0.003 C 
ENDBRANCH   8   9
ENDBRANCH   7   8
ENDBRANCH   1   7
TORSDOF 3
ENDMDL
