MODEL 1
REMARK minimizedAffinity 16.9829121
REMARK minimizedRMSD -1
REMARK  3 active torsions:
REMARK  status: ('A' for Active; 'I' for Inactive)
REMARK    1  A    between atoms: C3'_2  and  C2'_3 
REMARK    2  A    between atoms: C2'_3  and  C1'_4 
REMARK    3  A    between atoms: C1'_4  and  C1_5 
ROOT
ATOM      1  C1  N4B d   1      -1.922  -0.402  -4.471  0.00  0.00    -0.075 A 
ATOM      2  C2  N4B d   1      -1.548   0.923  -4.786  0.00  0.00     0.002 A 
ATOM      3  C3  N4B d   1      -0.434   1.158  -5.554  0.00  0.00     0.002 A 
ATOM      4  C4  N4B d   1       0.329   0.089  -6.000  0.00  0.00    -0.004 A 
ATOM      5  C5  N4B d   1      -0.053  -1.188  -5.712  0.00  0.00     0.002 A 
ATOM      6  C6  N4B d   1      -1.173  -1.439  -4.945  0.00  0.00     0.002 A 
ENDROOT
BRANCH   1   7
ATOM      7  C1' N4B d   1      -3.083  -0.704  -3.563  0.00  0.00     0.057 C 
BRANCH   7   8
ATOM      8  C2' N4B d   1      -2.890   0.032  -2.241  0.00  0.00     0.009 C 
BRANCH   8   9
ATOM      9  C3' N4B d   1      -4.064  -0.175  -1.299  0.00  0.00     0.004 C 
ATOM     10  C4' N4B d   1      -5.070   0.935  -1.371  0.00  0.00     0.003 C 
ENDBRANCH   8   9
ENDBRANCH   7   8
ENDBRANCH   1   7
TORSDOF 3
ENDMDL
