MODEL 1
REMARK minimizedAffinity 0.520036638
REMARK minimizedRMSD -1
REMARK  3 active torsions:
REMARK  status: ('A' for Active; 'I' for Inactive)
REMARK    1  A    between atoms: C3'_2  and  C2'_3 
REMARK    2  A    between atoms: C2'_3  and  C1'_4 
REMARK    3  A    between atoms: C1'_4  and  C1_5 
ROOT
ATOM      1  C1  N4B d   1       1.271  -0.236   1.353  0.00  0.00    -0.075 A 
ATOM      2  C2  N4B d   1      -0.076   0.190   1.355  0.00  0.00     0.002 A 
ATOM      3  C3  N4B d   1      -0.951  -0.306   2.289  0.00  0.00     0.002 A 
ATOM      4  C4  N4B d   1      -0.510  -1.239   3.215  0.00  0.00    -0.004 A 
ATOM      5  C5  N4B d   1       0.798  -1.626   3.223  0.00  0.00     0.002 A 
ATOM      6  C6  N4B d   1       1.690  -1.133   2.292  0.00  0.00     0.002 A 
ENDROOT
BRANCH   1   7
ATOM      7  C1' N4B d   1       2.244   0.213   0.298  0.00  0.00     0.057 C 
BRANCH   7   8
ATOM      8  C2' N4B d   1       2.952   1.478   0.775  0.00  0.00     0.009 C 
BRANCH   8   9
ATOM      9  C3' N4B d   1       2.293   2.736   0.235  0.00  0.00     0.004 C 
ATOM     10  C4' N4B d   1       2.159   3.812   1.271  0.00  0.00     0.003 C 
ENDBRANCH   8   9
ENDBRANCH   7   8
ENDBRANCH   1   7
TORSDOF 3
ENDMDL
