MODEL 1
REMARK minimizedAffinity 7.0088706
REMARK minimizedRMSD -1
REMARK  3 active torsions:
REMARK  status: ('A' for Active; 'I' for Inactive)
REMARK    1  A    between atoms: C3'_2  and  C2'_3 
REMARK    2  A    between atoms: C2'_3  and  C1'_4 
REMARK    3  A    between atoms: C1'_4  and  C1_5 
ROOT
ATOM      1  C1  N4B d   1       1.850  -1.536   3.094  0.00  0.00    -0.075 A 
ATOM      2  C2  N4B d   1       3.148  -2.044   3.326  0.00  0.00     0.002 A 
ATOM      3  C3  N4B d   1       3.771  -1.811   4.528  0.00  0.00     0.002 A 
ATOM      4  C4  N4B d   1       3.128  -1.061   5.500  0.00  0.00    -0.004 A 
ATOM      5  C5  N4B d   1       1.865  -0.595   5.278  0.00  0.00     0.002 A 
ATOM      6  C6  N4B d   1       1.224  -0.825   4.077  0.00  0.00     0.002 A 
ENDROOT
BRANCH   1   7
ATOM      7  C1' N4B d   1       1.163  -1.692   1.765  0.00  0.00     0.057 C 
BRANCH   7   8
ATOM      8  C2' N4B d   1       2.200  -1.595   0.650  0.00  0.00     0.009 C 
BRANCH   8   9
ATOM      9  C3' N4B d   1       1.630  -2.013  -0.694  0.00  0.00     0.004 C 
ATOM     10  C4' N4B d   1       2.658  -2.633  -1.593  0.00  0.00     0.003 C 
ENDBRANCH   8   9
ENDBRANCH   7   8
ENDBRANCH   1   7
TORSDOF 3
ENDMDL
