MODEL 1
REMARK minimizedAffinity 8.00066376
REMARK minimizedRMSD -1
REMARK  3 active torsions:
REMARK  status: ('A' for Active; 'I' for Inactive)
REMARK    1  A    between atoms: C3'_2  and  C2'_3 
REMARK    2  A    between atoms: C2'_3  and  C1'_4 
REMARK    3  A    between atoms: C1'_4  and  C1_5 
ROOT
ATOM      1  C1  N4B d   1       0.432   5.072  -0.891  0.00  0.00    -0.075 A 
ATOM      2  C2  N4B d   1       0.328   3.999  -1.803  0.00  0.00     0.002 A 
ATOM      3  C3  N4B d   1      -0.791   3.874  -2.591  0.00  0.00     0.002 A 
ATOM      4  C4  N4B d   1      -1.821   4.794  -2.470  0.00  0.00    -0.004 A 
ATOM      5  C5  N4B d   1      -1.701   5.842  -1.605  0.00  0.00     0.002 A 
ATOM      6  C6  N4B d   1      -0.582   5.983  -0.810  0.00  0.00     0.002 A 
ENDROOT
BRANCH   1   7
ATOM      7  C1' N4B d   1       1.597   5.203   0.052  0.00  0.00     0.057 C 
BRANCH   7   8
ATOM      8  C2' N4B d   1       1.666   3.961   0.936  0.00  0.00     0.009 C 
BRANCH   8   9
ATOM      9  C3' N4B d   1       3.099   3.520   1.185  0.00  0.00     0.004 C 
ATOM     10  C4' N4B d   1       3.201   2.080   1.591  0.00  0.00     0.003 C 
ENDBRANCH   8   9
ENDBRANCH   7   8
ENDBRANCH   1   7
TORSDOF 3
ENDMDL
