MODEL 1
REMARK minimizedAffinity -0.353483528
REMARK minimizedRMSD -1
REMARK  0 active torsions:
REMARK  status: ('A' for Active; 'I' for Inactive)
ROOT
ATOM      1  O1  BZF d   1       2.159   1.493  -0.596  0.00  0.00    -0.204 OA
ATOM      2  C2  BZF d   1       0.954   0.929  -0.967  0.00  0.00     0.174 A 
ATOM      3  C3  BZF d   1      -0.077   1.719  -0.603  0.00  0.00    -0.012 A 
ATOM      4  C3A BZF d   1       0.527   2.891  -0.046  0.00  0.00    -0.107 A 
ATOM      5  C4  BZF d   1       0.023   4.047   0.478  0.00  0.00     0.055 A 
ATOM      6  C5  BZF d   1       0.880   4.962   1.004  0.00  0.00    -0.016 A 
ATOM      7  C6  BZF d   1       2.243   4.751   1.026  0.00  0.00     0.022 A 
ATOM      8  C7  BZF d   1       2.789   3.622   0.513  0.00  0.00     0.029 A 
ATOM      9  C7A BZF d   1       1.929   2.710  -0.048  0.00  0.00     0.058 A 
ENDROOT
TORSDOF 0
ENDMDL
