MODEL 1
REMARK minimizedAffinity 4.17499924
REMARK minimizedRMSD -1
REMARK  0 active torsions:
REMARK  status: ('A' for Active; 'I' for Inactive)
ROOT
ATOM      1  O1  BZF d   1      -0.854   1.575   0.504  0.00  0.00    -0.204 OA
ATOM      2  C2  BZF d   1       0.136   1.316  -0.424  0.00  0.00     0.174 A 
ATOM      3  C3  BZF d   1       0.488   0.014  -0.397  0.00  0.00    -0.012 A 
ATOM      4  C3A BZF d   1      -0.398  -0.596   0.547  0.00  0.00    -0.107 A 
ATOM      5  C4  BZF d   1      -0.553  -1.875   0.999  0.00  0.00     0.055 A 
ATOM      6  C5  BZF d   1      -1.461  -2.125   1.978  0.00  0.00    -0.016 A 
ATOM      7  C6  BZF d   1      -2.227  -1.119   2.531  0.00  0.00     0.022 A 
ATOM      8  C7  BZF d   1      -2.112   0.165   2.113  0.00  0.00     0.029 A 
ATOM      9  C7A BZF d   1      -1.218   0.415   1.100  0.00  0.00     0.058 A 
ENDROOT
TORSDOF 0
ENDMDL
