MODEL 1
REMARK minimizedAffinity -5.75633144
REMARK minimizedRMSD -1
REMARK  0 active torsions:
REMARK  status: ('A' for Active; 'I' for Inactive)
ROOT
ATOM      1  O1  BZF d   1       1.474   1.600   0.446  0.00  0.00    -0.204 OA
ATOM      2  C2  BZF d   1       0.186   2.100   0.429  0.00  0.00     0.174 A 
ATOM      3  C3  BZF d   1      -0.712   1.102   0.306  0.00  0.00    -0.012 A 
ATOM      4  C3A BZF d   1       0.058  -0.104   0.335  0.00  0.00    -0.107 A 
ATOM      5  C4  BZF d   1      -0.269  -1.428   0.270  0.00  0.00     0.055 A 
ATOM      6  C5  BZF d   1       0.726  -2.354   0.251  0.00  0.00    -0.016 A 
ATOM      7  C6  BZF d   1       2.056  -1.990   0.290  0.00  0.00     0.022 A 
ATOM      8  C7  BZF d   1       2.429  -0.689   0.361  0.00  0.00     0.029 A 
ATOM      9  C7A BZF d   1       1.425   0.247   0.414  0.00  0.00     0.058 A 
ENDROOT
TORSDOF 0
ENDMDL
