MODEL 1
REMARK minimizedAffinity -1.8185991
REMARK minimizedRMSD -1
REMARK  0 active torsions:
REMARK  status: ('A' for Active; 'I' for Inactive)
ROOT
ATOM      1  O1  BZF d   1       0.202   4.293  -3.419  0.00  0.00    -0.204 OA
ATOM      2  C2  BZF d   1      -0.453   3.483  -4.326  0.00  0.00     0.174 A 
ATOM      3  C3  BZF d   1      -0.867   2.342  -3.739  0.00  0.00    -0.012 A 
ATOM      4  C3A BZF d   1      -0.524   2.485  -2.357  0.00  0.00    -0.107 A 
ATOM      5  C4  BZF d   1      -0.693   1.688  -1.261  0.00  0.00     0.055 A 
ATOM      6  C5  BZF d   1      -0.179   2.089  -0.068  0.00  0.00    -0.016 A 
ATOM      7  C6  BZF d   1       0.512   3.276   0.063  0.00  0.00     0.022 A 
ATOM      8  C7  BZF d   1       0.700   4.102  -0.994  0.00  0.00     0.029 A 
ATOM      9  C7A BZF d   1       0.154   3.715  -2.194  0.00  0.00     0.058 A 
ENDROOT
TORSDOF 0
ENDMDL
