MODEL 1
REMARK minimizedAffinity -2.61054635
REMARK minimizedRMSD -1
REMARK  0 active torsions:
REMARK  status: ('A' for Active; 'I' for Inactive)
ROOT
ATOM      1  O1  BZF d   1       2.395   2.881   0.036  0.00  0.00    -0.204 OA
ATOM      2  C2  BZF d   1       1.542   3.961   0.155  0.00  0.00     0.174 A 
ATOM      3  C3  BZF d   1       0.256   3.555   0.169  0.00  0.00    -0.012 A 
ATOM      4  C3A BZF d   1       0.312   2.126   0.145  0.00  0.00    -0.107 A 
ATOM      5  C4  BZF d   1      -0.642   1.149   0.159  0.00  0.00     0.055 A 
ATOM      6  C5  BZF d   1      -0.258  -0.151   0.052  0.00  0.00    -0.016 A 
ATOM      7  C6  BZF d   1       1.069  -0.507  -0.076  0.00  0.00     0.022 A 
ATOM      8  C7  BZF d   1       2.051   0.426  -0.089  0.00  0.00     0.029 A 
ATOM      9  C7A BZF d   1       1.668   1.738   0.052  0.00  0.00     0.058 A 
ENDROOT
TORSDOF 0
ENDMDL
