MODEL 1
REMARK minimizedAffinity -4.08592892
REMARK minimizedRMSD -1
REMARK  0 active torsions:
REMARK  status: ('A' for Active; 'I' for Inactive)
ROOT
ATOM      1  O1  BZF d   1       1.973  -2.013   0.820  0.00  0.00    -0.204 OA
ATOM      2  C2  BZF d   1       0.911  -2.722   1.347  0.00  0.00     0.174 A 
ATOM      3  C3  BZF d   1      -0.208  -1.970   1.357  0.00  0.00    -0.012 A 
ATOM      4  C3A BZF d   1       0.157  -0.744   0.716  0.00  0.00    -0.107 A 
ATOM      5  C4  BZF d   1      -0.529   0.397   0.411  0.00  0.00     0.055 A 
ATOM      6  C5  BZF d   1       0.138   1.439  -0.150  0.00  0.00    -0.016 A 
ATOM      7  C6  BZF d   1       1.490   1.377  -0.415  0.00  0.00     0.022 A 
ATOM      8  C7  BZF d   1       2.213   0.265  -0.135  0.00  0.00     0.029 A 
ATOM      9  C7A BZF d   1       1.534  -0.802   0.402  0.00  0.00     0.058 A 
ENDROOT
TORSDOF 0
ENDMDL
