MODEL 1
REMARK minimizedAffinity -2.92515039
REMARK minimizedRMSD -1
REMARK  0 active torsions:
REMARK  status: ('A' for Active; 'I' for Inactive)
ROOT
ATOM      1  O1  BZF d   1       0.350   3.365   0.189  0.00  0.00    -0.204 OA
ATOM      2  C2  BZF d   1       1.638   3.862   0.122  0.00  0.00     0.174 A 
ATOM      3  C3  BZF d   1       2.532   2.859  -0.001  0.00  0.00    -0.012 A 
ATOM      4  C3A BZF d   1       1.748   1.667  -0.103  0.00  0.00    -0.107 A 
ATOM      5  C4  BZF d   1       2.063   0.347  -0.259  0.00  0.00     0.055 A 
ATOM      6  C5  BZF d   1       1.065  -0.576  -0.250  0.00  0.00    -0.016 A 
ATOM      7  C6  BZF d   1      -0.256  -0.215  -0.081  0.00  0.00     0.022 A 
ATOM      8  C7  BZF d   1      -0.618   1.082   0.072  0.00  0.00     0.029 A 
ATOM      9  C7A BZF d   1       0.385   2.020   0.030  0.00  0.00     0.058 A 
ENDROOT
TORSDOF 0
ENDMDL
