MODEL 1
REMARK minimizedAffinity -2.15108609
REMARK minimizedRMSD -1
REMARK  0 active torsions:
REMARK  status: ('A' for Active; 'I' for Inactive)
ROOT
ATOM      1  O1  BZF d   1      -0.108   0.735  -0.316  0.00  0.00    -0.204 OA
ATOM      2  C2  BZF d   1      -1.382   0.282  -0.031  0.00  0.00     0.174 A 
ATOM      3  C3  BZF d   1      -1.339  -0.940   0.537  0.00  0.00    -0.012 A 
ATOM      4  C3A BZF d   1       0.053  -1.233   0.695  0.00  0.00    -0.107 A 
ATOM      5  C4  BZF d   1       0.736  -2.295   1.215  0.00  0.00     0.055 A 
ATOM      6  C5  BZF d   1       2.093  -2.302   1.152  0.00  0.00    -0.016 A 
ATOM      7  C6  BZF d   1       2.799  -1.268   0.574  0.00  0.00     0.022 A 
ATOM      8  C7  BZF d   1       2.165  -0.190   0.049  0.00  0.00     0.029 A 
ATOM      9  C7A BZF d   1       0.795  -0.165   0.140  0.00  0.00     0.058 A 
ENDROOT
TORSDOF 0
ENDMDL
