MODEL 1
REMARK minimizedAffinity -4.63654566
REMARK minimizedRMSD -1
REMARK  0 active torsions:
REMARK  status: ('A' for Active; 'I' for Inactive)
ROOT
ATOM      1  O1  BZF d   1       0.365   3.060  -0.886  0.00  0.00    -0.204 OA
ATOM      2  C2  BZF d   1       0.317   2.131   0.135  0.00  0.00     0.174 A 
ATOM      3  C3  BZF d   1      -0.721   1.287  -0.034  0.00  0.00    -0.012 A 
ATOM      4  C3A BZF d   1      -1.308   1.659  -1.285  0.00  0.00    -0.107 A 
ATOM      5  C4  BZF d   1      -2.365   1.180  -2.005  0.00  0.00     0.055 A 
ATOM      6  C5  BZF d   1      -2.723   1.813  -3.153  0.00  0.00    -0.016 A 
ATOM      7  C6  BZF d   1      -2.050   2.929  -3.607  0.00  0.00     0.022 A 
ATOM      8  C7  BZF d   1      -0.993   3.438  -2.929  0.00  0.00     0.029 A 
ATOM      9  C7A BZF d   1      -0.608   2.780  -1.786  0.00  0.00     0.058 A 
ENDROOT
TORSDOF 0
ENDMDL
