MODEL 1
REMARK minimizedAffinity -1.82901704
REMARK minimizedRMSD -1
REMARK  0 active torsions:
REMARK  status: ('A' for Active; 'I' for Inactive)
ROOT
ATOM      1  O1  BZF d   1       0.112   1.722  -0.245  0.00  0.00    -0.204 OA
ATOM      2  C2  BZF d   1      -0.199   0.488   0.293  0.00  0.00     0.174 A 
ATOM      3  C3  BZF d   1      -1.314  -0.014  -0.274  0.00  0.00    -0.012 A 
ATOM      4  C3A BZF d   1      -1.675   0.925  -1.292  0.00  0.00    -0.107 A 
ATOM      5  C4  BZF d   1      -2.685   0.973  -2.209  0.00  0.00     0.055 A 
ATOM      6  C5  BZF d   1      -2.798   2.065  -3.011  0.00  0.00    -0.016 A 
ATOM      7  C6  BZF d   1      -1.923   3.127  -2.918  0.00  0.00     0.022 A 
ATOM      8  C7  BZF d   1      -0.901   3.122  -2.027  0.00  0.00     0.029 A 
ATOM      9  C7A BZF d   1      -0.765   2.006  -1.238  0.00  0.00     0.058 A 
ENDROOT
TORSDOF 0
ENDMDL
