MODEL 1
REMARK minimizedAffinity -2.59897232
REMARK minimizedRMSD -1
REMARK  0 active torsions:
REMARK  status: ('A' for Active; 'I' for Inactive)
ROOT
ATOM      1  O1  BZF d   1       0.016   4.188  -1.584  0.00  0.00    -0.204 OA
ATOM      2  C2  BZF d   1       0.983   4.151  -0.597  0.00  0.00     0.174 A 
ATOM      3  C3  BZF d   1       0.895   3.010   0.115  0.00  0.00    -0.012 A 
ATOM      4  C3A BZF d   1      -0.134   2.247  -0.521  0.00  0.00    -0.107 A 
ATOM      5  C4  BZF d   1      -0.672   1.014  -0.284  0.00  0.00     0.055 A 
ATOM      6  C5  BZF d   1      -1.715   0.591  -1.045  0.00  0.00    -0.016 A 
ATOM      7  C6  BZF d   1      -2.249   1.376  -2.046  0.00  0.00     0.022 A 
ATOM      8  C7  BZF d   1      -1.746   2.604  -2.322  0.00  0.00     0.029 A 
ATOM      9  C7A BZF d   1      -0.670   3.021  -1.576  0.00  0.00     0.058 A 
ENDROOT
TORSDOF 0
ENDMDL
