MODEL 1
REMARK minimizedAffinity -4.22351122
REMARK minimizedRMSD -1
REMARK  0 active torsions:
REMARK  status: ('A' for Active; 'I' for Inactive)
ROOT
ATOM      1  O1  BZF d   1       1.280  -1.035   1.710  0.00  0.00    -0.204 OA
ATOM      2  C2  BZF d   1       1.841  -2.250   1.369  0.00  0.00     0.174 A 
ATOM      3  C3  BZF d   1       1.417  -2.648   0.152  0.00  0.00    -0.012 A 
ATOM      4  C3A BZF d   1       0.609  -1.573  -0.335  0.00  0.00    -0.107 A 
ATOM      5  C4  BZF d   1      -0.080  -1.367  -1.496  0.00  0.00     0.055 A 
ATOM      6  C5  BZF d   1      -0.829  -0.242  -1.629  0.00  0.00    -0.016 A 
ATOM      7  C6  BZF d   1      -0.917   0.695  -0.621  0.00  0.00     0.022 A 
ATOM      8  C7  BZF d   1      -0.248   0.538   0.547  0.00  0.00     0.029 A 
ATOM      9  C7A BZF d   1       0.537  -0.583   0.672  0.00  0.00     0.058 A 
ENDROOT
TORSDOF 0
ENDMDL
