MODEL 1
REMARK minimizedAffinity -3.01608849
REMARK minimizedRMSD -1
REMARK  0 active torsions:
REMARK  status: ('A' for Active; 'I' for Inactive)
ROOT
ATOM      1  O1  BZF d   1      -1.282   1.767   0.102  0.00  0.00    -0.204 OA
ATOM      2  C2  BZF d   1      -1.360   0.391   0.006  0.00  0.00     0.174 A 
ATOM      3  C3  BZF d   1      -0.144  -0.141  -0.234  0.00  0.00    -0.012 A 
ATOM      4  C3A BZF d   1       0.764   0.964  -0.200  0.00  0.00    -0.107 A 
ATOM      5  C4  BZF d   1       2.117   1.073  -0.353  0.00  0.00     0.055 A 
ATOM      6  C5  BZF d   1       2.686   2.307  -0.336  0.00  0.00    -0.016 A 
ATOM      7  C6  BZF d   1       1.933   3.451  -0.174  0.00  0.00     0.022 A 
ATOM      8  C7  BZF d   1       0.589   3.393  -0.014  0.00  0.00     0.029 A 
ATOM      9  C7A BZF d   1       0.015   2.146   0.003  0.00  0.00     0.058 A 
ENDROOT
TORSDOF 0
ENDMDL
