MODEL 1
REMARK minimizedAffinity 2.95847321
REMARK minimizedRMSD -1
REMARK  0 active torsions:
REMARK  status: ('A' for Active; 'I' for Inactive)
ROOT
ATOM      1  O1  BZF d   1       0.042  -0.158  -0.885  0.00  0.00    -0.204 OA
ATOM      2  C2  BZF d   1      -0.398   0.146   0.389  0.00  0.00     0.174 A 
ATOM      3  C3  BZF d   1      -1.597   0.761   0.347  0.00  0.00    -0.012 A 
ATOM      4  C3A BZF d   1      -1.970   0.764  -1.035  0.00  0.00    -0.107 A 
ATOM      5  C4  BZF d   1      -3.066   1.221  -1.710  0.00  0.00     0.055 A 
ATOM      6  C5  BZF d   1      -3.088   1.137  -3.066  0.00  0.00    -0.016 A 
ATOM      7  C6  BZF d   1      -2.032   0.606  -3.778  0.00  0.00     0.022 A 
ATOM      8  C7  BZF d   1      -0.926   0.135  -3.152  0.00  0.00     0.029 A 
ATOM      9  C7A BZF d   1      -0.915   0.189  -1.779  0.00  0.00     0.058 A 
ENDROOT
TORSDOF 0
ENDMDL
