MODEL 1
REMARK minimizedAffinity -3.63156962
REMARK minimizedRMSD -1
REMARK  0 active torsions:
REMARK  status: ('A' for Active; 'I' for Inactive)
ROOT
ATOM      1  O1  BZF d   1      -0.582   2.839   0.008  0.00  0.00    -0.204 OA
ATOM      2  C2  BZF d   1      -0.964   1.522  -0.162  0.00  0.00     0.174 A 
ATOM      3  C3  BZF d   1       0.107   0.742  -0.413  0.00  0.00    -0.012 A 
ATOM      4  C3A BZF d   1       1.239   1.611  -0.306  0.00  0.00    -0.107 A 
ATOM      5  C4  BZF d   1       2.585   1.419  -0.432  0.00  0.00     0.055 A 
ATOM      6  C5  BZF d   1       3.416   2.491  -0.340  0.00  0.00    -0.016 A 
ATOM      7  C6  BZF d   1       2.936   3.766  -0.129  0.00  0.00     0.022 A 
ATOM      8  C7  BZF d   1       1.609   4.005   0.008  0.00  0.00     0.029 A 
ATOM      9  C7A BZF d   1       0.769   2.920  -0.051  0.00  0.00     0.058 A 
ENDROOT
TORSDOF 0
ENDMDL
