MODEL 1
REMARK minimizedAffinity -4.48209572
REMARK minimizedRMSD -1
REMARK  0 active torsions:
REMARK  status: ('A' for Active; 'I' for Inactive)
ROOT
ATOM      1  O1  BZF d   1      -2.094   1.986   0.169  0.00  0.00    -0.204 OA
ATOM      2  C2  BZF d   1      -1.298   2.973   0.717  0.00  0.00     0.174 A 
ATOM      3  C3  BZF d   1      -0.657   3.662  -0.250  0.00  0.00    -0.012 A 
ATOM      4  C3A BZF d   1      -1.150   3.128  -1.482  0.00  0.00    -0.107 A 
ATOM      5  C4  BZF d   1      -0.903   3.414  -2.795  0.00  0.00     0.055 A 
ATOM      6  C5  BZF d   1      -1.494   2.658  -3.757  0.00  0.00    -0.016 A 
ATOM      7  C6  BZF d   1      -2.332   1.608  -3.444  0.00  0.00     0.022 A 
ATOM      8  C7  BZF d   1      -2.611   1.290  -2.157  0.00  0.00     0.029 A 
ATOM      9  C7A BZF d   1      -2.042   2.072  -1.182  0.00  0.00     0.058 A 
ENDROOT
TORSDOF 0
ENDMDL
