MODEL 1
REMARK minimizedAffinity -3.10640335
REMARK minimizedRMSD -1
REMARK  0 active torsions:
REMARK  status: ('A' for Active; 'I' for Inactive)
ROOT
ATOM      1  O1  BZF d   1       1.898  -2.462   1.541  0.00  0.00    -0.204 OA
ATOM      2  C2  BZF d   1       0.768  -2.779   0.812  0.00  0.00     0.174 A 
ATOM      3  C3  BZF d   1       0.448  -1.779  -0.034  0.00  0.00    -0.012 A 
ATOM      4  C3A BZF d   1       1.494  -0.813   0.113  0.00  0.00    -0.107 A 
ATOM      5  C4  BZF d   1       1.746   0.394  -0.473  0.00  0.00     0.055 A 
ATOM      6  C5  BZF d   1       2.814   1.122  -0.053  0.00  0.00    -0.016 A 
ATOM      7  C6  BZF d   1       3.646   0.676   0.953  0.00  0.00     0.022 A 
ATOM      8  C7  BZF d   1       3.439  -0.517   1.562  0.00  0.00     0.029 A 
ATOM      9  C7A BZF d   1       2.380  -1.270   1.116  0.00  0.00     0.058 A 
ENDROOT
TORSDOF 0
ENDMDL
