MODEL 1
REMARK minimizedAffinity 3.45093179
REMARK minimizedRMSD -1
REMARK  1 active torsions:
REMARK  status: ('A' for Active; 'I' for Inactive)
REMARK    1  A    between atoms: N_2  and  C1_3 
ROOT
ATOM      1  C1  UNL d   1       1.670   0.343   1.333  0.00  0.00     0.143 A 
ATOM      2  C2  UNL d   1       3.012   0.479   0.963  0.00  0.00    -0.057 A 
ATOM      3  C3  UNL d   1       3.460   1.602   0.256  0.00  0.00     0.033 A 
ATOM      4  C4  UNL d   1       2.564   2.598  -0.119  0.00  0.00    -0.042 A 
ATOM      5  C5  UNL d   1       1.221   2.471   0.216  0.00  0.00     0.033 A 
ATOM      6  C6  UNL d   1       0.781   1.351   0.928  0.00  0.00    -0.057 A 
ENDROOT
BRANCH   1   7
ATOM      7  N   UNL d   1       1.145  -0.796   1.949  0.00  0.00    -0.732 N 
ATOM      8  C   UNL d   1       0.330  -1.729   1.202  0.00  0.00     0.284 C 
ATOM      9  H3  UNL d   1       1.810  -1.237   2.581  0.00  0.00     0.395 HD
ENDBRANCH   1   7
TORSDOF 1
ENDMDL
