MODEL 1
REMARK minimizedAffinity 1.09243596
REMARK minimizedRMSD -1
REMARK  1 active torsions:
REMARK  status: ('A' for Active; 'I' for Inactive)
REMARK    1  A    between atoms: N_2  and  C1_3 
ROOT
ATOM      1  C1  UNL d   1      -1.883  -1.936  -2.331  0.00  0.00     0.143 A 
ATOM      2  C2  UNL d   1      -0.543  -2.223  -2.609  0.00  0.00    -0.057 A 
ATOM      3  C3  UNL d   1       0.399  -2.357  -1.581  0.00  0.00     0.033 A 
ATOM      4  C4  UNL d   1       0.022  -2.175  -0.255  0.00  0.00    -0.042 A 
ATOM      5  C5  UNL d   1      -1.300  -1.863   0.043  0.00  0.00     0.033 A 
ATOM      6  C6  UNL d   1      -2.238  -1.738  -0.987  0.00  0.00    -0.057 A 
ENDROOT
BRANCH   1   7
ATOM      7  N   UNL d   1      -2.847  -1.694  -3.313  0.00  0.00    -0.732 N 
ATOM      8  C   UNL d   1      -3.255  -0.341  -3.628  0.00  0.00     0.284 C 
ATOM      9  H3  UNL d   1      -2.730  -2.293  -4.127  0.00  0.00     0.395 HD
ENDBRANCH   1   7
TORSDOF 1
ENDMDL
