MODEL 1
REMARK minimizedAffinity -2.37944674
REMARK minimizedRMSD -1
REMARK  1 active torsions:
REMARK  status: ('A' for Active; 'I' for Inactive)
REMARK    1  A    between atoms: N_2  and  C1_3 
ROOT
ATOM      1  C1  UNL d   1       1.254  -0.552   2.291  0.00  0.00     0.143 A 
ATOM      2  C2  UNL d   1       2.171   0.496   2.157  0.00  0.00    -0.057 A 
ATOM      3  C3  UNL d   1       2.094   1.396   1.087  0.00  0.00     0.033 A 
ATOM      4  C4  UNL d   1       1.112   1.245   0.113  0.00  0.00    -0.042 A 
ATOM      5  C5  UNL d   1       0.206   0.195   0.213  0.00  0.00     0.033 A 
ATOM      6  C6  UNL d   1       0.284  -0.696   1.287  0.00  0.00    -0.057 A 
ENDROOT
BRANCH   1   7
ATOM      7  N   UNL d   1       1.338  -1.537   3.278  0.00  0.00    -0.732 N 
ATOM      8  C   UNL d   1       2.037  -1.280   4.519  0.00  0.00     0.284 C 
ATOM      9  H3  UNL d   1       0.466  -2.049   3.391  0.00  0.00     0.395 HD
ENDBRANCH   1   7
TORSDOF 1
ENDMDL
