MODEL 1
REMARK minimizedAffinity 10.2022142
REMARK minimizedRMSD -1
REMARK  0 active torsions:
REMARK  status: ('A' for Active; 'I' for Inactive)
ROOT
ATOM      1  C1  BNZ d   1       4.768  -0.093  -4.469  0.00  0.00     0.000 A 
ATOM      2  C2  BNZ d   1       5.960   0.545  -4.685  0.00  0.00     0.000 A 
ATOM      3  C3  BNZ d   1       6.000   1.889  -4.934  0.00  0.00     0.000 A 
ATOM      4  C4  BNZ d   1       4.846   2.584  -5.007  0.00  0.00     0.000 A 
ATOM      5  C5  BNZ d   1       3.636   1.953  -4.801  0.00  0.00     0.000 A 
ATOM      6  C6  BNZ d   1       3.602   0.608  -4.512  0.00  0.00     0.000 A 
ENDROOT
TORSDOF 0
ENDMDL
