MODEL 1
REMARK minimizedAffinity 2.59691548
REMARK minimizedRMSD -1
REMARK  0 active torsions:
REMARK  status: ('A' for Active; 'I' for Inactive)
ROOT
ATOM      1  C1  BNZ d   1      -4.020   0.803   5.250  0.00  0.00     0.000 A 
ATOM      2  C2  BNZ d   1      -5.165   0.844   6.000  0.00  0.00     0.000 A 
ATOM      3  C3  BNZ d   1      -5.963   1.954   5.999  0.00  0.00     0.000 A 
ATOM      4  C4  BNZ d   1      -5.595   3.035   5.282  0.00  0.00     0.000 A 
ATOM      5  C5  BNZ d   1      -4.438   3.013   4.529  0.00  0.00     0.000 A 
ATOM      6  C6  BNZ d   1      -3.658   1.880   4.501  0.00  0.00     0.000 A 
ENDROOT
TORSDOF 0
ENDMDL
