MODEL 1
REMARK minimizedAffinity 9.82102585
REMARK minimizedRMSD -1
REMARK  0 active torsions:
REMARK  status: ('A' for Active; 'I' for Inactive)
ROOT
ATOM      1  C1  BNZ d   1      -0.576  -2.836   0.196  0.00  0.00     0.000 A 
ATOM      2  C2  BNZ d   1      -1.481  -2.562  -0.795  0.00  0.00     0.000 A 
ATOM      3  C3  BNZ d   1      -2.823  -2.695  -0.574  0.00  0.00     0.000 A 
ATOM      4  C4  BNZ d   1      -3.257  -3.140   0.623  0.00  0.00     0.000 A 
ATOM      5  C5  BNZ d   1      -2.357  -3.429   1.630  0.00  0.00     0.000 A 
ATOM      6  C6  BNZ d   1      -1.008  -3.257   1.416  0.00  0.00     0.000 A 
ENDROOT
TORSDOF 0
ENDMDL
