MODEL 1
REMARK minimizedAffinity 8.0312376
REMARK minimizedRMSD -1
REMARK  0 active torsions:
REMARK  status: ('A' for Active; 'I' for Inactive)
ROOT
ATOM      1  C1  BNZ d   1      -2.393  -2.217   3.532  0.00  0.00     0.000 A 
ATOM      2  C2  BNZ d   1      -2.087  -0.883   3.505  0.00  0.00     0.000 A 
ATOM      3  C3  BNZ d   1      -2.461  -0.058   4.529  0.00  0.00     0.000 A 
ATOM      4  C4  BNZ d   1      -3.174  -0.560   5.558  0.00  0.00     0.000 A 
ATOM      5  C5  BNZ d   1      -3.498  -1.902   5.595  0.00  0.00     0.000 A 
ATOM      6  C6  BNZ d   1      -3.086  -2.736   4.582  0.00  0.00     0.000 A 
ENDROOT
TORSDOF 0
ENDMDL
