MODEL 1
REMARK minimizedAffinity -1.38148963
REMARK minimizedRMSD -1
REMARK  0 active torsions:
REMARK  status: ('A' for Active; 'I' for Inactive)
ROOT
ATOM      1  C1  BNZ d   1       4.018  -3.758  -5.891  0.00  0.00     0.000 A 
ATOM      2  C2  BNZ d   1       4.031  -2.860  -4.857  0.00  0.00     0.000 A 
ATOM      3  C3  BNZ d   1       5.034  -2.875  -3.929  0.00  0.00     0.000 A 
ATOM      4  C4  BNZ d   1       6.000  -3.813  -4.012  0.00  0.00     0.000 A 
ATOM      5  C5  BNZ d   1       5.995  -4.732  -5.043  0.00  0.00     0.000 A 
ATOM      6  C6  BNZ d   1       5.005  -4.688  -5.997  0.00  0.00     0.000 A 
ENDROOT
TORSDOF 0
ENDMDL
