MODEL 1
REMARK minimizedAffinity 1.14506054
REMARK minimizedRMSD -1
REMARK  0 active torsions:
REMARK  status: ('A' for Active; 'I' for Inactive)
ROOT
ATOM      1  C1  BNZ d   1       3.053  -3.009   5.464  0.00  0.00     0.000 A 
ATOM      2  C2  BNZ d   1       3.743  -1.963   4.911  0.00  0.00     0.000 A 
ATOM      3  C3  BNZ d   1       5.109  -1.967   4.876  0.00  0.00     0.000 A 
ATOM      4  C4  BNZ d   1       5.784  -2.995   5.430  0.00  0.00     0.000 A 
ATOM      5  C5  BNZ d   1       5.103  -4.052   6.000  0.00  0.00     0.000 A 
ATOM      6  C6  BNZ d   1       3.727  -4.063   5.998  0.00  0.00     0.000 A 
ENDROOT
TORSDOF 0
ENDMDL
