MODEL 1
REMARK minimizedAffinity -1.12126708
REMARK minimizedRMSD -1
REMARK  0 active torsions:
REMARK  status: ('A' for Active; 'I' for Inactive)
ROOT
ATOM      1  C1  BNZ d   1       3.473  -4.046  -5.183  0.00  0.00     0.000 A 
ATOM      2  C2  BNZ d   1       3.786  -2.998  -4.359  0.00  0.00     0.000 A 
ATOM      3  C3  BNZ d   1       5.045  -2.466  -4.351  0.00  0.00     0.000 A 
ATOM      4  C4  BNZ d   1       5.999  -3.008  -5.135  0.00  0.00     0.000 A 
ATOM      5  C5  BNZ d   1       5.701  -4.071  -5.965  0.00  0.00     0.000 A 
ATOM      6  C6  BNZ d   1       4.423  -4.578  -6.000  0.00  0.00     0.000 A 
ENDROOT
TORSDOF 0
ENDMDL
