MODEL 1
REMARK minimizedAffinity 2.48682237
REMARK minimizedRMSD -1
REMARK  0 active torsions:
REMARK  status: ('A' for Active; 'I' for Inactive)
ROOT
ATOM      1  C1  BNZ d   1       4.607  -3.817   5.989  0.00  0.00     0.000 A 
ATOM      2  C2  BNZ d   1       5.163  -2.566   6.000  0.00  0.00     0.000 A 
ATOM      3  C3  BNZ d   1       4.483  -1.494   5.492  0.00  0.00     0.000 A 
ATOM      4  C4  BNZ d   1       3.268  -1.680   4.939  0.00  0.00     0.000 A 
ATOM      5  C5  BNZ d   1       2.697  -2.938   4.913  0.00  0.00     0.000 A 
ATOM      6  C6  BNZ d   1       3.368  -4.008   5.460  0.00  0.00     0.000 A 
ENDROOT
TORSDOF 0
ENDMDL
