MODEL 1
REMARK minimizedAffinity 0.73438859
REMARK minimizedRMSD -1
REMARK  0 active torsions:
REMARK  status: ('A' for Active; 'I' for Inactive)
ROOT
ATOM      1  C1  BNZ d   1       5.005  -4.870   5.710  0.00  0.00     0.000 A 
ATOM      2  C2  BNZ d   1       3.790  -4.592   5.143  0.00  0.00     0.000 A 
ATOM      3  C3  BNZ d   1       3.562  -3.391   4.531  0.00  0.00     0.000 A 
ATOM      4  C4  BNZ d   1       4.534  -2.456   4.522  0.00  0.00     0.000 A 
ATOM      5  C5  BNZ d   1       5.761  -2.719   5.098  0.00  0.00     0.000 A 
ATOM      6  C6  BNZ d   1       6.000  -3.943   5.679  0.00  0.00     0.000 A 
ENDROOT
TORSDOF 0
ENDMDL
