MODEL 1
REMARK minimizedAffinity 2.2972126
REMARK minimizedRMSD -1
REMARK  0 active torsions:
REMARK  status: ('A' for Active; 'I' for Inactive)
ROOT
ATOM      1  C1  BNZ d   1      -3.737   0.617   5.442  0.00  0.00     0.000 A 
ATOM      2  C2  BNZ d   1      -4.394  -0.447   5.999  0.00  0.00     0.000 A 
ATOM      3  C3  BNZ d   1      -3.832  -1.693   6.000  0.00  0.00     0.000 A 
ATOM      4  C4  BNZ d   1      -2.634  -1.881   5.410  0.00  0.00     0.000 A 
ATOM      5  C5  BNZ d   1      -1.964  -0.820   4.836  0.00  0.00     0.000 A 
ATOM      6  C6  BNZ d   1      -2.515   0.441   4.871  0.00  0.00     0.000 A 
ENDROOT
TORSDOF 0
ENDMDL
