MODEL 1
REMARK minimizedAffinity 1.57000792
REMARK minimizedRMSD -1
REMARK  0 active torsions:
REMARK  status: ('A' for Active; 'I' for Inactive)
ROOT
ATOM      1  C1  BNZ d   1       3.167  -4.099  -5.242  0.00  0.00     0.000 A 
ATOM      2  C2  BNZ d   1       3.442  -2.973  -4.512  0.00  0.00     0.000 A 
ATOM      3  C3  BNZ d   1       4.687  -2.408  -4.541  0.00  0.00     0.000 A 
ATOM      4  C4  BNZ d   1       5.663  -2.990  -5.266  0.00  0.00     0.000 A 
ATOM      5  C5  BNZ d   1       5.404  -4.130  -6.000  0.00  0.00     0.000 A 
ATOM      6  C6  BNZ d   1       4.140  -4.674  -6.000  0.00  0.00     0.000 A 
ENDROOT
TORSDOF 0
ENDMDL
