MODEL 1
REMARK minimizedAffinity -3.54373479
REMARK minimizedRMSD -1
REMARK  0 active torsions:
REMARK  status: ('A' for Active; 'I' for Inactive)
ROOT
ATOM      1  C1  BNZ d   1       3.190  -2.097   5.853  0.00  0.00     0.000 A 
ATOM      2  C2  BNZ d   1       4.106  -1.648   4.939  0.00  0.00     0.000 A 
ATOM      3  C3  BNZ d   1       4.733  -2.519   4.092  0.00  0.00     0.000 A 
ATOM      4  C4  BNZ d   1       4.474  -3.839   4.187  0.00  0.00     0.000 A 
ATOM      5  C5  BNZ d   1       3.560  -4.308   5.110  0.00  0.00     0.000 A 
ATOM      6  C6  BNZ d   1       2.902  -3.424   5.934  0.00  0.00     0.000 A 
ENDROOT
TORSDOF 0
ENDMDL
