MODEL 1
REMARK minimizedAffinity 0.237791151
REMARK minimizedRMSD -1
REMARK  0 active torsions:
REMARK  status: ('A' for Active; 'I' for Inactive)
ROOT
ATOM      1  C1  BNZ d   1      -1.113  -2.711   0.516  0.00  0.00     0.000 A 
ATOM      2  C2  BNZ d   1      -0.139  -2.602  -0.441  0.00  0.00     0.000 A 
ATOM      3  C3  BNZ d   1      -0.465  -2.531  -1.766  0.00  0.00     0.000 A 
ATOM      4  C4  BNZ d   1      -1.760  -2.610  -2.136  0.00  0.00     0.000 A 
ATOM      5  C5  BNZ d   1      -2.753  -2.730  -1.183  0.00  0.00     0.000 A 
ATOM      6  C6  BNZ d   1      -2.423  -2.762   0.152  0.00  0.00     0.000 A 
ENDROOT
TORSDOF 0
ENDMDL
