MODEL 1
REMARK minimizedAffinity -2.85740972
REMARK minimizedRMSD -1
REMARK  0 active torsions:
REMARK  status: ('A' for Active; 'I' for Inactive)
ROOT
ATOM      1  C1  BNZ d   1       0.198  -0.926   0.309  0.00  0.00     0.000 A 
ATOM      2  C2  BNZ d   1       0.804  -0.842  -0.916  0.00  0.00     0.000 A 
ATOM      3  C3  BNZ d   1       0.752   0.313  -1.645  0.00  0.00     0.000 A 
ATOM      4  C4  BNZ d   1       0.061   1.368  -1.167  0.00  0.00     0.000 A 
ATOM      5  C5  BNZ d   1      -0.563   1.296   0.063  0.00  0.00     0.000 A 
ATOM      6  C6  BNZ d   1      -0.476   0.145   0.811  0.00  0.00     0.000 A 
ENDROOT
TORSDOF 0
ENDMDL
