MODEL 1
REMARK minimizedAffinity -0.879925549
REMARK minimizedRMSD -1
REMARK  0 active torsions:
REMARK  status: ('A' for Active; 'I' for Inactive)
ROOT
ATOM      1  C1  BNZ d   1      -1.863  -3.739  -4.908  0.00  0.00     0.000 A 
ATOM      2  C2  BNZ d   1      -2.615  -4.063  -3.811  0.00  0.00     0.000 A 
ATOM      3  C3  BNZ d   1      -3.366  -5.205  -3.790  0.00  0.00     0.000 A 
ATOM      4  C4  BNZ d   1      -3.395  -6.000  -4.879  0.00  0.00     0.000 A 
ATOM      5  C5  BNZ d   1      -2.650  -5.682  -5.996  0.00  0.00     0.000 A 
ATOM      6  C6  BNZ d   1      -1.864  -4.552  -5.999  0.00  0.00     0.000 A 
ENDROOT
TORSDOF 0
ENDMDL
