MODEL 1
REMARK minimizedAffinity 20.2709064
REMARK minimizedRMSD -1
REMARK  0 active torsions:
REMARK  status: ('A' for Active; 'I' for Inactive)
ROOT
ATOM      1  C1  DEN d   1      -3.379  -2.376   4.077  0.00  0.00     0.130 A 
ATOM      2  C2  DEN d   1      -2.564  -2.452   5.287  0.00  0.00    -0.031 A 
ATOM      3  C3  DEN d   1      -1.145  -2.350   4.888  0.00  0.00     0.027 A 
ATOM      4  C4  DEN d   1      -0.138  -2.078   2.529  0.00  0.00     0.027 A 
ATOM      5  C5  DEN d   1      -0.433  -1.977   1.188  0.00  0.00    -0.003 A 
ATOM      6  C6  DEN d   1      -1.717  -2.035   0.716  0.00  0.00     0.001 A 
ATOM      7  C7  DEN d   1      -2.759  -2.154   1.597  0.00  0.00     0.017 A 
ATOM      8  C8  DEN d   1      -2.470  -2.264   2.951  0.00  0.00    -0.094 A 
ATOM      9  C9  DEN d   1      -1.165  -2.191   3.409  0.00  0.00    -0.072 A 
ENDROOT
TORSDOF 0
ENDMDL
