MODEL 1
REMARK minimizedAffinity 6.91135073
REMARK minimizedRMSD -1
REMARK  0 active torsions:
REMARK  status: ('A' for Active; 'I' for Inactive)
ROOT
ATOM      1  C1  DEN d   1       5.418   2.101   5.911  0.00  0.00     0.130 A 
ATOM      2  C2  DEN d   1       4.160   1.361   5.942  0.00  0.00    -0.031 A 
ATOM      3  C3  DEN d   1       3.054   2.339   5.907  0.00  0.00     0.027 A 
ATOM      4  C4  DEN d   1       3.168   4.914   5.805  0.00  0.00     0.027 A 
ATOM      5  C5  DEN d   1       4.014   6.000   5.773  0.00  0.00    -0.003 A 
ATOM      6  C6  DEN d   1       5.377   5.865   5.819  0.00  0.00     0.001 A 
ATOM      7  C7  DEN d   1       5.934   4.614   5.854  0.00  0.00     0.017 A 
ATOM      8  C8  DEN d   1       5.087   3.515   5.893  0.00  0.00    -0.094 A 
ATOM      9  C9  DEN d   1       3.712   3.671   5.834  0.00  0.00    -0.072 A 
ENDROOT
TORSDOF 0
ENDMDL
