MODEL 1
REMARK minimizedAffinity 20.8115654
REMARK minimizedRMSD -1
REMARK  0 active torsions:
REMARK  status: ('A' for Active; 'I' for Inactive)
ROOT
ATOM      1  C1  DEN d   1      -4.710  -3.040   1.732  0.00  0.00     0.130 A 
ATOM      2  C2  DEN d   1      -6.000  -2.382   1.922  0.00  0.00    -0.031 A 
ATOM      3  C3  DEN d   1      -6.000  -1.138   1.128  0.00  0.00     0.027 A 
ATOM      4  C4  DEN d   1      -4.140  -0.173  -0.376  0.00  0.00     0.027 A 
ATOM      5  C5  DEN d   1      -2.859  -0.369  -0.843  0.00  0.00    -0.003 A 
ATOM      6  C6  DEN d   1      -2.099  -1.443  -0.461  0.00  0.00     0.001 A 
ATOM      7  C7  DEN d   1      -2.630  -2.386   0.378  0.00  0.00     0.017 A 
ATOM      8  C8  DEN d   1      -3.918  -2.191   0.859  0.00  0.00    -0.094 A 
ATOM      9  C9  DEN d   1      -4.675  -1.105   0.452  0.00  0.00    -0.072 A 
ENDROOT
TORSDOF 0
ENDMDL
