MODEL 1
REMARK minimizedAffinity 14.0917768
REMARK minimizedRMSD -1
REMARK  0 active torsions:
REMARK  status: ('A' for Active; 'I' for Inactive)
ROOT
ATOM      1  C1  DEN d   1       0.799   0.524  -0.847  0.00  0.00     0.130 A 
ATOM      2  C2  DEN d   1       1.097  -0.579  -1.757  0.00  0.00    -0.031 A 
ATOM      3  C3  DEN d   1       2.516  -0.476  -2.150  0.00  0.00     0.027 A 
ATOM      4  C4  DEN d   1       4.275   1.271  -1.437  0.00  0.00     0.027 A 
ATOM      5  C5  DEN d   1       4.489   2.406  -0.686  0.00  0.00    -0.003 A 
ATOM      6  C6  DEN d   1       3.489   3.007   0.031  0.00  0.00     0.001 A 
ATOM      7  C7  DEN d   1       2.237   2.451   0.048  0.00  0.00     0.017 A 
ATOM      8  C8  DEN d   1       2.011   1.311  -0.712  0.00  0.00    -0.094 A 
ATOM      9  C9  DEN d   1       3.039   0.711  -1.420  0.00  0.00    -0.072 A 
ENDROOT
TORSDOF 0
ENDMDL
