MODEL 1
REMARK minimizedAffinity 15.3480606
REMARK minimizedRMSD -1
REMARK  0 active torsions:
REMARK  status: ('A' for Active; 'I' for Inactive)
ROOT
ATOM      1  C1  DEN d   1       4.739   1.147  -2.764  0.00  0.00     0.130 A 
ATOM      2  C2  DEN d   1       6.000   1.872  -2.630  0.00  0.00    -0.031 A 
ATOM      3  C3  DEN d   1       5.893   2.760  -1.455  0.00  0.00     0.027 A 
ATOM      4  C4  DEN d   1       3.910   3.077   0.165  0.00  0.00     0.027 A 
ATOM      5  C5  DEN d   1       2.620   2.687   0.449  0.00  0.00    -0.003 A 
ATOM      6  C6  DEN d   1       1.939   1.790  -0.330  0.00  0.00     0.001 A 
ATOM      7  C7  DEN d   1       2.562   1.218  -1.408  0.00  0.00     0.017 A 
ATOM      8  C8  DEN d   1       3.860   1.611  -1.706  0.00  0.00    -0.094 A 
ATOM      9  C9  DEN d   1       4.536   2.510  -0.898  0.00  0.00    -0.072 A 
ENDROOT
TORSDOF 0
ENDMDL
