MODEL 1
REMARK minimizedAffinity 9.81287861
REMARK minimizedRMSD -1
REMARK  0 active torsions:
REMARK  status: ('A' for Active; 'I' for Inactive)
ROOT
ATOM      1  C1  DEN d   1       2.331   4.608   5.893  0.00  0.00     0.130 A 
ATOM      2  C2  DEN d   1       2.758   5.991   5.703  0.00  0.00    -0.031 A 
ATOM      3  C3  DEN d   1       4.225   5.996   5.529  0.00  0.00     0.027 A 
ATOM      4  C4  DEN d   1       5.866   4.006   5.532  0.00  0.00     0.027 A 
ATOM      5  C5  DEN d   1       5.973   2.640   5.668  0.00  0.00    -0.003 A 
ATOM      6  C6  DEN d   1       4.887   1.844   5.921  0.00  0.00     0.001 A 
ATOM      7  C7  DEN d   1       3.639   2.403   6.000  0.00  0.00     0.017 A 
ATOM      8  C8  DEN d   1       3.524   3.781   5.871  0.00  0.00    -0.094 A 
ATOM      9  C9  DEN d   1       4.632   4.567   5.604  0.00  0.00    -0.072 A 
ENDROOT
TORSDOF 0
ENDMDL
