MODEL 1
REMARK minimizedAffinity 6.292696
REMARK minimizedRMSD -1
REMARK  0 active torsions:
REMARK  status: ('A' for Active; 'I' for Inactive)
ROOT
ATOM      1  C1  DEN d   1       2.887   2.211   5.963  0.00  0.00     0.130 A 
ATOM      2  C2  DEN d   1       4.087   1.379   5.952  0.00  0.00    -0.031 A 
ATOM      3  C3  DEN d   1       5.262   2.273   5.958  0.00  0.00     0.027 A 
ATOM      4  C4  DEN d   1       5.341   4.851   5.990  0.00  0.00     0.027 A 
ATOM      5  C5  DEN d   1       4.577   5.997   5.993  0.00  0.00    -0.003 A 
ATOM      6  C6  DEN d   1       3.208   5.963   5.951  0.00  0.00     0.001 A 
ATOM      7  C7  DEN d   1       2.559   4.756   5.952  0.00  0.00     0.017 A 
ATOM      8  C8  DEN d   1       3.323   3.596   5.941  0.00  0.00    -0.094 A 
ATOM      9  C9  DEN d   1       4.705   3.652   5.996  0.00  0.00    -0.072 A 
ENDROOT
TORSDOF 0
ENDMDL
