MODEL 1
REMARK minimizedAffinity 5.14330864
REMARK minimizedRMSD -1
REMARK  0 active torsions:
REMARK  status: ('A' for Active; 'I' for Inactive)
ROOT
ATOM      1  C1  DEN d   1       3.150   2.226   5.972  0.00  0.00     0.130 A 
ATOM      2  C2  DEN d   1       4.346   1.388   5.945  0.00  0.00    -0.031 A 
ATOM      3  C3  DEN d   1       5.522   2.276   5.847  0.00  0.00     0.027 A 
ATOM      4  C4  DEN d   1       5.608   4.851   5.742  0.00  0.00     0.027 A 
ATOM      5  C5  DEN d   1       4.847   6.000   5.724  0.00  0.00    -0.003 A 
ATOM      6  C6  DEN d   1       3.478   5.970   5.752  0.00  0.00     0.001 A 
ATOM      7  C7  DEN d   1       2.828   4.768   5.846  0.00  0.00     0.017 A 
ATOM      8  C8  DEN d   1       3.587   3.605   5.858  0.00  0.00    -0.094 A 
ATOM      9  C9  DEN d   1       4.970   3.657   5.841  0.00  0.00    -0.072 A 
ENDROOT
TORSDOF 0
ENDMDL
