MODEL 1
REMARK minimizedAffinity 8.60684109
REMARK minimizedRMSD -1
REMARK  0 active torsions:
REMARK  status: ('A' for Active; 'I' for Inactive)
ROOT
ATOM      1  C1  DEN d   1       5.124   1.958   5.959  0.00  0.00     0.130 A 
ATOM      2  C2  DEN d   1       3.786   1.375   5.989  0.00  0.00    -0.031 A 
ATOM      3  C3  DEN d   1       2.806   2.480   5.982  0.00  0.00     0.027 A 
ATOM      4  C4  DEN d   1       3.230   5.024   5.925  0.00  0.00     0.027 A 
ATOM      5  C5  DEN d   1       4.202   6.000   5.904  0.00  0.00    -0.003 A 
ATOM      6  C6  DEN d   1       5.538   5.700   5.935  0.00  0.00     0.001 A 
ATOM      7  C7  DEN d   1       5.941   4.391   5.942  0.00  0.00     0.017 A 
ATOM      8  C8  DEN d   1       4.966   3.401   5.970  0.00  0.00    -0.094 A 
ATOM      9  C9  DEN d   1       3.621   3.724   5.926  0.00  0.00    -0.072 A 
ENDROOT
TORSDOF 0
ENDMDL
