MODEL 1
REMARK minimizedAffinity 12.134798
REMARK minimizedRMSD -1
REMARK  0 active torsions:
REMARK  status: ('A' for Active; 'I' for Inactive)
ROOT
ATOM      1  C1  DEN d   1       5.590   2.068   5.543  0.00  0.00     0.130 A 
ATOM      2  C2  DEN d   1       4.431   1.184   5.634  0.00  0.00    -0.031 A 
ATOM      3  C3  DEN d   1       3.228   2.023   5.805  0.00  0.00     0.027 A 
ATOM      4  C4  DEN d   1       3.047   4.593   5.931  0.00  0.00     0.027 A 
ATOM      5  C5  DEN d   1       3.761   5.770   5.914  0.00  0.00    -0.003 A 
ATOM      6  C6  DEN d   1       5.126   5.795   5.807  0.00  0.00     0.001 A 
ATOM      7  C7  DEN d   1       5.817   4.621   5.667  0.00  0.00     0.017 A 
ATOM      8  C8  DEN d   1       5.105   3.429   5.691  0.00  0.00    -0.094 A 
ATOM      9  C9  DEN d   1       3.724   3.425   5.788  0.00  0.00    -0.072 A 
ENDROOT
TORSDOF 0
ENDMDL
