MODEL 1
REMARK minimizedAffinity 26.7357407
REMARK minimizedRMSD -1
REMARK  0 active torsions:
REMARK  status: ('A' for Active; 'I' for Inactive)
ROOT
ATOM      1  C1  DEN d   1      -0.353  -1.291  -3.269  0.00  0.00     0.130 A 
ATOM      2  C2  DEN d   1      -1.112  -2.202  -2.417  0.00  0.00    -0.031 A 
ATOM      3  C3  DEN d   1      -2.470  -1.647  -2.252  0.00  0.00     0.027 A 
ATOM      4  C4  DEN d   1      -3.468   0.521  -3.230  0.00  0.00     0.027 A 
ATOM      5  C5  DEN d   1      -3.203   1.628  -4.005  0.00  0.00    -0.003 A 
ATOM      6  C6  DEN d   1      -1.970   1.856  -4.556  0.00  0.00     0.001 A 
ATOM      7  C7  DEN d   1      -0.967   0.940  -4.378  0.00  0.00     0.017 A 
ATOM      8  C8  DEN d   1      -1.224  -0.176  -3.592  0.00  0.00    -0.094 A 
ATOM      9  C9  DEN d   1      -2.481  -0.394  -3.053  0.00  0.00    -0.072 A 
ENDROOT
TORSDOF 0
ENDMDL
