MODEL 1
REMARK minimizedAffinity 5.51792669
REMARK minimizedRMSD -1
REMARK  1 active torsions:
REMARK  status: ('A' for Active; 'I' for Inactive)
REMARK    1  A    between atoms: N_2  and  C1_3 
ROOT
ATOM      1  C1  UNL d   1       3.193   4.885  -5.677  0.00  0.00     0.143 A 
ATOM      2  C2  UNL d   1       3.977   6.000  -5.993  0.00  0.00    -0.057 A 
ATOM      3  C3  UNL d   1       5.367   5.980  -5.829  0.00  0.00     0.033 A 
ATOM      4  C4  UNL d   1       5.997   4.851  -5.316  0.00  0.00    -0.042 A 
ATOM      5  C5  UNL d   1       5.236   3.740  -4.971  0.00  0.00     0.033 A 
ATOM      6  C6  UNL d   1       3.848   3.763  -5.144  0.00  0.00    -0.057 A 
ENDROOT
BRANCH   1   7
ATOM      7  N   UNL d   1       1.797   4.876  -5.725  0.00  0.00    -0.732 N 
ATOM      8  C   UNL d   1       1.033   5.969  -5.163  0.00  0.00     0.284 C 
ATOM      9  H3  UNL d   1       1.441   4.536  -6.616  0.00  0.00     0.395 HD
ENDBRANCH   1   7
TORSDOF 1
ENDMDL
