MODEL 1
REMARK minimizedAffinity -3.39915848
REMARK minimizedRMSD -1
REMARK  1 active torsions:
REMARK  status: ('A' for Active; 'I' for Inactive)
REMARK    1  A    between atoms: N_2  and  C1_3 
ROOT
ATOM      1  C1  UNL d   1      -0.283   5.984  -3.503  0.00  0.00     0.143 A 
ATOM      2  C2  UNL d   1       1.112   5.931  -3.581  0.00  0.00    -0.057 A 
ATOM      3  C3  UNL d   1       1.772   5.937  -4.816  0.00  0.00     0.033 A 
ATOM      4  C4  UNL d   1       1.043   5.966  -6.000  0.00  0.00    -0.042 A 
ATOM      5  C5  UNL d   1      -0.346   5.994  -5.947  0.00  0.00     0.033 A 
ATOM      6  C6  UNL d   1      -0.999   5.995  -4.711  0.00  0.00    -0.057 A 
ENDROOT
BRANCH   1   7
ATOM      7  N   UNL d   1      -1.001   5.882  -2.309  0.00  0.00    -0.732 N 
ATOM      8  C   UNL d   1      -2.443   5.996  -2.303  0.00  0.00     0.284 C 
ATOM      9  H3  UNL d   1      -0.639   5.152  -1.699  0.00  0.00     0.395 HD
ENDBRANCH   1   7
TORSDOF 1
ENDMDL
