MODEL 1
REMARK minimizedAffinity -1.31694317
REMARK minimizedRMSD -1
REMARK  1 active torsions:
REMARK  status: ('A' for Active; 'I' for Inactive)
REMARK    1  A    between atoms: N_2  and  C1_3 
ROOT
ATOM      1  C1  UNL d   1       2.274   5.963  -4.779  0.00  0.00     0.143 A 
ATOM      2  C2  UNL d   1       1.561   5.951  -5.983  0.00  0.00    -0.057 A 
ATOM      3  C3  UNL d   1       0.162   5.984  -5.999  0.00  0.00     0.033 A 
ATOM      4  C4  UNL d   1      -0.553   6.000  -4.806  0.00  0.00    -0.042 A 
ATOM      5  C5  UNL d   1       0.134   5.987  -3.597  0.00  0.00     0.033 A 
ATOM      6  C6  UNL d   1       1.532   5.961  -3.588  0.00  0.00    -0.057 A 
ENDROOT
BRANCH   1   7
ATOM      7  N   UNL d   1       3.662   5.833  -4.696  0.00  0.00    -0.732 N 
ATOM      8  C   UNL d   1       4.490   5.989  -5.873  0.00  0.00     0.284 C 
ATOM      9  H3  UNL d   1       4.044   6.268  -3.859  0.00  0.00     0.395 HD
ENDBRANCH   1   7
TORSDOF 1
ENDMDL
