MODEL 1
REMARK minimizedAffinity 0.766746759
REMARK minimizedRMSD -1
REMARK  1 active torsions:
REMARK  status: ('A' for Active; 'I' for Inactive)
REMARK    1  A    between atoms: N_2  and  C1_3 
ROOT
ATOM      1  C1  UNL d   1       3.516   5.395  -5.051  0.00  0.00     0.143 A 
ATOM      2  C2  UNL d   1       4.722   5.987  -5.438  0.00  0.00    -0.057 A 
ATOM      3  C3  UNL d   1       5.952   5.378  -5.161  0.00  0.00     0.033 A 
ATOM      4  C4  UNL d   1       5.998   4.175  -4.464  0.00  0.00    -0.042 A 
ATOM      5  C5  UNL d   1       4.812   3.580  -4.048  0.00  0.00     0.033 A 
ATOM      6  C6  UNL d   1       3.587   4.190  -4.333  0.00  0.00    -0.057 A 
ENDROOT
BRANCH   1   7
ATOM      7  N   UNL d   1       2.266   5.999  -5.210  0.00  0.00    -0.732 N 
ATOM      8  C   UNL d   1       1.055   5.207  -5.181  0.00  0.00     0.284 C 
ATOM      9  H3  UNL d   1       2.196   6.883  -4.712  0.00  0.00     0.395 HD
ENDBRANCH   1   7
TORSDOF 1
ENDMDL
