MODEL 1
REMARK minimizedAffinity 2.42668152
REMARK minimizedRMSD -1
REMARK  1 active torsions:
REMARK  status: ('A' for Active; 'I' for Inactive)
REMARK    1  A    between atoms: N_2  and  C1_3 
ROOT
ATOM      1  C1  UNL d   1       0.835   0.093   0.246  0.00  0.00     0.143 A 
ATOM      2  C2  UNL d   1       0.913   0.514  -1.086  0.00  0.00    -0.057 A 
ATOM      3  C3  UNL d   1       1.363   1.799  -1.416  0.00  0.00     0.033 A 
ATOM      4  C4  UNL d   1       1.716   2.697  -0.414  0.00  0.00    -0.042 A 
ATOM      5  C5  UNL d   1       1.623   2.308   0.917  0.00  0.00     0.033 A 
ATOM      6  C6  UNL d   1       1.179   1.022   1.240  0.00  0.00    -0.057 A 
ENDROOT
BRANCH   1   7
ATOM      7  N   UNL d   1       0.303  -1.137   0.642  0.00  0.00    -0.732 N 
ATOM      8  C   UNL d   1      -1.129  -1.333   0.708  0.00  0.00     0.284 C 
ATOM      9  H3  UNL d   1       0.814  -1.925   0.252  0.00  0.00     0.395 HD
ENDBRANCH   1   7
TORSDOF 1
ENDMDL
