MODEL 1
REMARK minimizedAffinity 5.21755266
REMARK minimizedRMSD -1
REMARK  1 active torsions:
REMARK  status: ('A' for Active; 'I' for Inactive)
REMARK    1  A    between atoms: N_2  and  C1_3 
ROOT
ATOM      1  C1  UNL d   1       0.255   1.578   2.387  0.00  0.00     0.143 A 
ATOM      2  C2  UNL d   1       0.722   2.847   2.026  0.00  0.00    -0.057 A 
ATOM      3  C3  UNL d   1       1.403   3.054   0.821  0.00  0.00     0.033 A 
ATOM      4  C4  UNL d   1       1.657   1.986  -0.034  0.00  0.00    -0.042 A 
ATOM      5  C5  UNL d   1       1.224   0.712   0.316  0.00  0.00     0.033 A 
ATOM      6  C6  UNL d   1       0.538   0.513   1.518  0.00  0.00    -0.057 A 
ENDROOT
BRANCH   1   7
ATOM      7  N   UNL d   1      -0.342   1.290   3.617  0.00  0.00    -0.732 N 
ATOM      8  C   UNL d   1       0.455   0.826   4.732  0.00  0.00     0.284 C 
ATOM      9  H3  UNL d   1      -1.056   1.969   3.870  0.00  0.00     0.395 HD
ENDBRANCH   1   7
TORSDOF 1
ENDMDL
