MODEL 1
REMARK minimizedAffinity -2.38446689
REMARK minimizedRMSD -1
REMARK  1 active torsions:
REMARK  status: ('A' for Active; 'I' for Inactive)
REMARK    1  A    between atoms: N_2  and  C1_3 
ROOT
ATOM      1  C1  UNL d   1      -1.332   5.925  -3.345  0.00  0.00     0.143 A 
ATOM      2  C2  UNL d   1      -1.835   5.965  -2.041  0.00  0.00    -0.057 A 
ATOM      3  C3  UNL d   1      -3.214   5.988  -1.795  0.00  0.00     0.033 A 
ATOM      4  C4  UNL d   1      -4.115   6.000  -2.854  0.00  0.00    -0.042 A 
ATOM      5  C5  UNL d   1      -3.637   5.985  -4.159  0.00  0.00     0.033 A 
ATOM      6  C6  UNL d   1      -2.259   5.956  -4.398  0.00  0.00    -0.057 A 
ENDROOT
BRANCH   1   7
ATOM      7  N   UNL d   1       0.028   6.000  -3.657  0.00  0.00    -0.732 N 
ATOM      8  C   UNL d   1       0.504   5.634  -4.973  0.00  0.00     0.284 C 
ATOM      9  H3  UNL d   1       0.469   6.832  -3.272  0.00  0.00     0.395 HD
ENDBRANCH   1   7
TORSDOF 1
ENDMDL
