MODEL 1
REMARK minimizedAffinity 3.99936128
REMARK minimizedRMSD -1
REMARK  1 active torsions:
REMARK  status: ('A' for Active; 'I' for Inactive)
REMARK    1  A    between atoms: N_2  and  C1_3 
ROOT
ATOM      1  C1  UNL d   1       3.892   5.342  -5.273  0.00  0.00     0.143 A 
ATOM      2  C2  UNL d   1       4.881   6.000  -4.534  0.00  0.00    -0.057 A 
ATOM      3  C3  UNL d   1       5.798   5.287  -3.752  0.00  0.00     0.033 A 
ATOM      4  C4  UNL d   1       5.723   3.900  -3.672  0.00  0.00    -0.042 A 
ATOM      5  C5  UNL d   1       4.732   3.227  -4.378  0.00  0.00     0.033 A 
ATOM      6  C6  UNL d   1       3.824   3.944  -5.162  0.00  0.00    -0.057 A 
ENDROOT
BRANCH   1   7
ATOM      7  N   UNL d   1       2.890   6.000  -5.990  0.00  0.00    -0.732 N 
ATOM      8  C   UNL d   1       1.500   5.633  -5.822  0.00  0.00     0.284 C 
ATOM      9  H3  UNL d   1       3.051   7.003  -6.052  0.00  0.00     0.395 HD
ENDBRANCH   1   7
TORSDOF 1
ENDMDL
