MODEL 1
REMARK minimizedAffinity 0.134371072
REMARK minimizedRMSD -1
REMARK  1 active torsions:
REMARK  status: ('A' for Active; 'I' for Inactive)
REMARK    1  A    between atoms: N_2  and  C1_3 
ROOT
ATOM      1  C1  UNL d   1       0.427   0.280   0.846  0.00  0.00     0.143 A 
ATOM      2  C2  UNL d   1       0.060   0.740   2.115  0.00  0.00    -0.057 A 
ATOM      3  C3  UNL d   1       0.130   2.099   2.443  0.00  0.00     0.033 A 
ATOM      4  C4  UNL d   1       0.599   3.022   1.514  0.00  0.00    -0.042 A 
ATOM      5  C5  UNL d   1       0.994   2.584   0.255  0.00  0.00     0.033 A 
ATOM      6  C6  UNL d   1       0.914   1.226  -0.069  0.00  0.00    -0.057 A 
ENDROOT
BRANCH   1   7
ATOM      7  N   UNL d   1       0.473  -1.071   0.491  0.00  0.00    -0.732 N 
ATOM      8  C   UNL d   1      -0.461  -2.016   1.065  0.00  0.00     0.284 C 
ATOM      9  H3  UNL d   1       0.643  -1.206  -0.503  0.00  0.00     0.395 HD
ENDBRANCH   1   7
TORSDOF 1
ENDMDL
