MODEL 1
REMARK minimizedAffinity 4.13221645
REMARK minimizedRMSD -1
REMARK  1 active torsions:
REMARK  status: ('A' for Active; 'I' for Inactive)
REMARK    1  A    between atoms: N_2  and  C1_3 
ROOT
ATOM      1  C1  UNL d   1       0.604   0.204   0.463  0.00  0.00     0.143 A 
ATOM      2  C2  UNL d   1       0.816   1.256   1.361  0.00  0.00    -0.057 A 
ATOM      3  C3  UNL d   1       1.106   2.549   0.910  0.00  0.00     0.033 A 
ATOM      4  C4  UNL d   1       1.217   2.808  -0.452  0.00  0.00    -0.042 A 
ATOM      5  C5  UNL d   1       1.035   1.773  -1.362  0.00  0.00     0.033 A 
ATOM      6  C6  UNL d   1       0.739   0.485  -0.906  0.00  0.00    -0.057 A 
ENDROOT
BRANCH   1   7
ATOM      7  N   UNL d   1       0.410  -1.123   0.852  0.00  0.00    -0.732 N 
ATOM      8  C   UNL d   1      -0.901  -1.592   1.247  0.00  0.00     0.284 C 
ATOM      9  H3  UNL d   1       0.927  -1.778   0.269  0.00  0.00     0.395 HD
ENDBRANCH   1   7
TORSDOF 1
ENDMDL
