MODEL 1
REMARK minimizedAffinity 3.86815929
REMARK minimizedRMSD -1
REMARK  1 active torsions:
REMARK  status: ('A' for Active; 'I' for Inactive)
REMARK    1  A    between atoms: N_2  and  C1_3 
ROOT
ATOM      1  C1  UNL d   1      -1.356   5.999  -4.203  0.00  0.00     0.143 A 
ATOM      2  C2  UNL d   1      -2.754   5.986  -4.146  0.00  0.00    -0.057 A 
ATOM      3  C3  UNL d   1      -3.431   6.000  -2.920  0.00  0.00     0.033 A 
ATOM      4  C4  UNL d   1      -2.718   5.997  -1.726  0.00  0.00    -0.042 A 
ATOM      5  C5  UNL d   1      -1.329   5.985  -1.758  0.00  0.00     0.033 A 
ATOM      6  C6  UNL d   1      -0.659   5.979  -2.985  0.00  0.00    -0.057 A 
ENDROOT
BRANCH   1   7
ATOM      7  N   UNL d   1      -0.625   5.887  -5.388  0.00  0.00    -0.732 N 
ATOM      8  C   UNL d   1       0.818   5.993  -5.377  0.00  0.00     0.284 C 
ATOM      9  H3  UNL d   1      -0.984   5.156  -5.998  0.00  0.00     0.395 HD
ENDBRANCH   1   7
TORSDOF 1
ENDMDL
