MODEL 1
REMARK minimizedAffinity -4.9320817
REMARK minimizedRMSD -1
REMARK  0 active torsions:
REMARK  status: ('A' for Active; 'I' for Inactive)
ROOT
ATOM      1  C   UNL d   1       2.138   2.777  -0.032  0.00  0.00     0.020 A 
ATOM      2  C1  UNL d   1       1.032   3.302   0.634  0.00  0.00     0.020 A 
ATOM      3  C2  UNL d   1      -0.088   2.501   0.869  0.00  0.00     0.034 A 
ATOM      4  C3  UNL d   1      -0.103   1.169   0.437  0.00  0.00     0.017 A 
ATOM      5  C4  UNL d   1       1.008   0.643  -0.232  0.00  0.00     0.017 A 
ATOM      6  C5  UNL d   1       2.126   1.450  -0.464  0.00  0.00     0.034 A 
ATOM      7 Cl   UNL d   1       1.063  -0.990  -0.795  0.00  0.00    -0.070 Cl
ATOM      8 Cl1  UNL d   1      -1.520   0.236   0.761  0.00  0.00    -0.070 Cl
ENDROOT
TORSDOF 0
ENDMDL
