MODEL 1
REMARK minimizedAffinity -4.48998976
REMARK minimizedRMSD -1
REMARK  0 active torsions:
REMARK  status: ('A' for Active; 'I' for Inactive)
ROOT
ATOM      1  C   UNL d   1      -1.110   2.766   0.309  0.00  0.00     0.020 A 
ATOM      2  C1  UNL d   1       0.013   3.592   0.290  0.00  0.00     0.020 A 
ATOM      3  C2  UNL d   1       1.292   3.031   0.286  0.00  0.00     0.034 A 
ATOM      4  C3  UNL d   1       1.451   1.641   0.301  0.00  0.00     0.017 A 
ATOM      5  C4  UNL d   1       0.323   0.813   0.321  0.00  0.00     0.017 A 
ATOM      6  C5  UNL d   1      -0.955   1.379   0.324  0.00  0.00     0.034 A 
ATOM      7 Cl   UNL d   1       0.439  -0.912   0.340  0.00  0.00    -0.070 Cl
ATOM      8 Cl1  UNL d   1       3.062   1.016   0.295  0.00  0.00    -0.070 Cl
ENDROOT
TORSDOF 0
ENDMDL
