MODEL 1
REMARK minimizedAffinity -4.89984369
REMARK minimizedRMSD -1
REMARK  0 active torsions:
REMARK  status: ('A' for Active; 'I' for Inactive)
ROOT
ATOM      1  C   UNL d   1       2.290   2.498   0.240  0.00  0.00     0.020 A 
ATOM      2  C1  UNL d   1       1.138   3.282   0.273  0.00  0.00     0.020 A 
ATOM      3  C2  UNL d   1      -0.119   2.678   0.195  0.00  0.00     0.034 A 
ATOM      4  C3  UNL d   1      -0.227   1.287   0.084  0.00  0.00     0.017 A 
ATOM      5  C4  UNL d   1       0.931   0.502   0.050  0.00  0.00     0.017 A 
ATOM      6  C5  UNL d   1       2.187   1.111   0.129  0.00  0.00     0.034 A 
ATOM      7 Cl   UNL d   1       0.878  -1.221  -0.086  0.00  0.00    -0.070 Cl
ATOM      8 Cl1  UNL d   1      -1.813   0.609  -0.008  0.00  0.00    -0.070 Cl
ENDROOT
TORSDOF 0
ENDMDL
