MODEL 1
REMARK minimizedAffinity -4.38176632
REMARK minimizedRMSD -1
REMARK  0 active torsions:
REMARK  status: ('A' for Active; 'I' for Inactive)
ROOT
ATOM      1  C   UNL d   1      -1.170  -0.417   0.128  0.00  0.00     0.020 A 
ATOM      2  C1  UNL d   1      -0.082  -1.288   0.139  0.00  0.00     0.020 A 
ATOM      3  C2  UNL d   1       1.217  -0.781   0.221  0.00  0.00     0.034 A 
ATOM      4  C3  UNL d   1       1.431   0.600   0.293  0.00  0.00     0.017 A 
ATOM      5  C4  UNL d   1       0.338   1.474   0.283  0.00  0.00     0.017 A 
ATOM      6  C5  UNL d   1      -0.961   0.961   0.200  0.00  0.00     0.034 A 
ATOM      7 Cl   UNL d   1       0.522   3.190   0.368  0.00  0.00    -0.070 Cl
ATOM      8 Cl1  UNL d   1       3.064   1.156   0.394  0.00  0.00    -0.070 Cl
ENDROOT
TORSDOF 0
ENDMDL
