MODEL 1
REMARK minimizedAffinity -4.20978308
REMARK minimizedRMSD -1
REMARK  0 active torsions:
REMARK  status: ('A' for Active; 'I' for Inactive)
ROOT
ATOM      1  C   UNL d   1      -1.030   2.756   0.206  0.00  0.00     0.020 A 
ATOM      2  C1  UNL d   1       0.080   3.595   0.287  0.00  0.00     0.020 A 
ATOM      3  C2  UNL d   1       1.361   3.050   0.401  0.00  0.00     0.034 A 
ATOM      4  C3  UNL d   1       1.534   1.662   0.435  0.00  0.00     0.017 A 
ATOM      5  C4  UNL d   1       0.419   0.820   0.354  0.00  0.00     0.017 A 
ATOM      6  C5  UNL d   1      -0.861   1.371   0.240  0.00  0.00     0.034 A 
ATOM      7 Cl   UNL d   1       0.554  -0.903   0.390  0.00  0.00    -0.070 Cl
ATOM      8 Cl1  UNL d   1       3.147   1.057   0.577  0.00  0.00    -0.070 Cl
ENDROOT
TORSDOF 0
ENDMDL
