MODEL 1
REMARK minimizedAffinity -4.9169302
REMARK minimizedRMSD -1
REMARK  0 active torsions:
REMARK  status: ('A' for Active; 'I' for Inactive)
ROOT
ATOM      1  C   UNL d   1       0.292   3.947   0.070  0.00  0.00     0.020 A 
ATOM      2  C1  UNL d   1      -0.827   3.163  -0.211  0.00  0.00     0.020 A 
ATOM      3  C2  UNL d   1      -0.736   1.771  -0.153  0.00  0.00     0.034 A 
ATOM      4  C3  UNL d   1       0.476   1.158   0.186  0.00  0.00     0.017 A 
ATOM      5  C4  UNL d   1       1.598   1.945   0.467  0.00  0.00     0.017 A 
ATOM      6  C5  UNL d   1       1.502   3.339   0.408  0.00  0.00     0.034 A 
ATOM      7 Cl   UNL d   1       3.127   1.261   0.893  0.00  0.00    -0.070 Cl
ATOM      8 Cl1  UNL d   1       0.516  -0.569   0.238  0.00  0.00    -0.070 Cl
ENDROOT
TORSDOF 0
ENDMDL
