MODEL 1
REMARK minimizedAffinity -3.14104533
REMARK minimizedRMSD -1
REMARK  0 active torsions:
REMARK  status: ('A' for Active; 'I' for Inactive)
ROOT
ATOM      1  C   UNL d   1      -0.577   0.094   0.720  0.00  0.00     0.020 A 
ATOM      2  C1  UNL d   1      -1.375   1.177   1.085  0.00  0.00     0.020 A 
ATOM      3  C2  UNL d   1      -1.018   2.470   0.697  0.00  0.00     0.034 A 
ATOM      4  C3  UNL d   1       0.140   2.683  -0.059  0.00  0.00     0.017 A 
ATOM      5  C4  UNL d   1       0.942   1.596  -0.424  0.00  0.00     0.017 A 
ATOM      6  C5  UNL d   1       0.579   0.303  -0.033  0.00  0.00     0.034 A 
ATOM      7 Cl   UNL d   1       2.386   1.780  -1.356  0.00  0.00    -0.070 Cl
ATOM      8 Cl1  UNL d   1       0.521   4.309  -0.504  0.00  0.00    -0.070 Cl
ENDROOT
TORSDOF 0
ENDMDL
