MODEL 1
REMARK minimizedAffinity -3.41451812
REMARK minimizedRMSD -1
REMARK  0 active torsions:
REMARK  status: ('A' for Active; 'I' for Inactive)
ROOT
ATOM      1  C   UNL d   1      -1.966   1.472   0.776  0.00  0.00     0.020 A 
ATOM      2  C1  UNL d   1      -1.130   2.586   0.715  0.00  0.00     0.020 A 
ATOM      3  C2  UNL d   1       0.235   2.422   0.471  0.00  0.00     0.034 A 
ATOM      4  C3  UNL d   1       0.768   1.140   0.286  0.00  0.00     0.017 A 
ATOM      5  C4  UNL d   1      -0.073   0.023   0.348  0.00  0.00     0.017 A 
ATOM      6  C5  UNL d   1      -1.439   0.194   0.593  0.00  0.00     0.034 A 
ATOM      7 Cl   UNL d   1       0.511  -1.589   0.130  0.00  0.00    -0.070 Cl
ATOM      8 Cl1  UNL d   1       2.465   1.011  -0.013  0.00  0.00    -0.070 Cl
ENDROOT
TORSDOF 0
ENDMDL
