MODEL 1
REMARK minimizedAffinity -3.25218654
REMARK minimizedRMSD -1
REMARK  0 active torsions:
REMARK  status: ('A' for Active; 'I' for Inactive)
ROOT
ATOM      1  C   UNL d   1       1.583   2.567  -0.120  0.00  0.00     0.020 A 
ATOM      2  C1  UNL d   1       0.600   3.241   0.603  0.00  0.00     0.020 A 
ATOM      3  C2  UNL d   1      -0.576   2.582   0.967  0.00  0.00     0.034 A 
ATOM      4  C3  UNL d   1      -0.772   1.243   0.608  0.00  0.00     0.017 A 
ATOM      5  C4  UNL d   1       0.215   0.567  -0.118  0.00  0.00     0.017 A 
ATOM      6  C5  UNL d   1       1.391   1.232  -0.480  0.00  0.00     0.034 A 
ATOM      7 Cl   UNL d   1       0.045  -1.085  -0.597  0.00  0.00    -0.070 Cl
ATOM      8 Cl1  UNL d   1      -2.250   0.490   1.092  0.00  0.00    -0.070 Cl
ENDROOT
TORSDOF 0
ENDMDL
