MODEL 1
REMARK minimizedAffinity -3.9302628
REMARK minimizedRMSD -1
REMARK  0 active torsions:
REMARK  status: ('A' for Active; 'I' for Inactive)
ROOT
ATOM      1  C   UNL d   1       0.925   2.037  -0.147  0.00  0.00     0.020 A 
ATOM      2  C1  UNL d   1      -0.066   2.754   0.521  0.00  0.00     0.020 A 
ATOM      3  C2  UNL d   1      -1.224   2.106   0.957  0.00  0.00     0.034 A 
ATOM      4  C3  UNL d   1      -1.393   0.736   0.725  0.00  0.00     0.017 A 
ATOM      5  C4  UNL d   1      -0.397   0.016   0.055  0.00  0.00     0.017 A 
ATOM      6  C5  UNL d   1       0.760   0.671  -0.379  0.00  0.00     0.034 A 
ATOM      7 Cl   UNL d   1      -0.533  -1.676  -0.267  0.00  0.00    -0.070 Cl
ATOM      8 Cl1  UNL d   1      -2.849  -0.001   1.292  0.00  0.00    -0.070 Cl
ENDROOT
TORSDOF 0
ENDMDL
