MODEL 1
REMARK minimizedAffinity -5.42802906
REMARK minimizedRMSD -1
REMARK  0 active torsions:
REMARK  status: ('A' for Active; 'I' for Inactive)
ROOT
ATOM      1  C   UNL d   1       2.275   3.050   0.124  0.00  0.00     0.020 A 
ATOM      2  C1  UNL d   1       1.097   3.786   0.248  0.00  0.00     0.020 A 
ATOM      3  C2  UNL d   1      -0.132   3.128   0.333  0.00  0.00     0.034 A 
ATOM      4  C3  UNL d   1      -0.186   1.730   0.293  0.00  0.00     0.017 A 
ATOM      5  C4  UNL d   1       0.996   0.992   0.168  0.00  0.00     0.017 A 
ATOM      6  C5  UNL d   1       2.224   1.656   0.085  0.00  0.00     0.034 A 
ATOM      7 Cl   UNL d   1       1.009  -0.736   0.113  0.00  0.00    -0.070 Cl
ATOM      8 Cl1  UNL d   1      -1.740   0.983   0.403  0.00  0.00    -0.070 Cl
ENDROOT
TORSDOF 0
ENDMDL
