MODEL 1
REMARK minimizedAffinity -3.07835054
REMARK minimizedRMSD -1
REMARK  0 active torsions:
REMARK  status: ('A' for Active; 'I' for Inactive)
ROOT
ATOM      1  C   UNL d   1      -0.603   2.751   0.769  0.00  0.00     0.020 A 
ATOM      2  C1  UNL d   1      -1.636   1.824   0.635  0.00  0.00     0.020 A 
ATOM      3  C2  UNL d   1      -1.341   0.474   0.433  0.00  0.00     0.034 A 
ATOM      4  C3  UNL d   1      -0.010   0.047   0.365  0.00  0.00     0.017 A 
ATOM      5  C4  UNL d   1       1.026   0.979   0.500  0.00  0.00     0.017 A 
ATOM      6  C5  UNL d   1       0.725   2.329   0.702  0.00  0.00     0.034 A 
ATOM      7 Cl   UNL d   1       2.693   0.528   0.427  0.00  0.00    -0.070 Cl
ATOM      8 Cl1  UNL d   1       0.282  -1.637   0.114  0.00  0.00    -0.070 Cl
ENDROOT
TORSDOF 0
ENDMDL
