MODEL 1
REMARK minimizedAffinity -4.677598
REMARK minimizedRMSD -1
REMARK  0 active torsions:
REMARK  status: ('A' for Active; 'I' for Inactive)
ROOT
ATOM      1  C   UNL d   1       1.371   3.838  -0.535  0.00  0.00     0.020 A 
ATOM      2  C1  UNL d   1       0.097   3.404  -0.900  0.00  0.00     0.020 A 
ATOM      3  C2  UNL d   1      -0.233   2.050  -0.807  0.00  0.00     0.034 A 
ATOM      4  C3  UNL d   1       0.712   1.125  -0.347  0.00  0.00     0.017 A 
ATOM      5  C4  UNL d   1       1.990   1.562   0.019  0.00  0.00     0.017 A 
ATOM      6  C5  UNL d   1       2.315   2.919  -0.076  0.00  0.00     0.034 A 
ATOM      7 Cl   UNL d   1       3.209   0.480   0.595  0.00  0.00    -0.070 Cl
ATOM      8 Cl1  UNL d   1       0.235  -0.533  -0.257  0.00  0.00    -0.070 Cl
ENDROOT
TORSDOF 0
ENDMDL
