MODEL 1
REMARK minimizedAffinity -4.96462107
REMARK minimizedRMSD -1
REMARK  0 active torsions:
REMARK  status: ('A' for Active; 'I' for Inactive)
ROOT
ATOM      1  C   UNL d   1       1.621   3.048   0.299  0.00  0.00     0.020 A 
ATOM      2  C1  UNL d   1       0.445   3.786   0.168  0.00  0.00     0.020 A 
ATOM      3  C2  UNL d   1      -0.780   3.129   0.034  0.00  0.00     0.034 A 
ATOM      4  C3  UNL d   1      -0.832   1.730   0.031  0.00  0.00     0.017 A 
ATOM      5  C4  UNL d   1       0.349   0.991   0.162  0.00  0.00     0.017 A 
ATOM      6  C5  UNL d   1       1.573   1.654   0.297  0.00  0.00     0.034 A 
ATOM      7 Cl   UNL d   1       0.365  -0.738   0.167  0.00  0.00    -0.070 Cl
ATOM      8 Cl1  UNL d   1      -2.381   0.984  -0.139  0.00  0.00    -0.070 Cl
ENDROOT
TORSDOF 0
ENDMDL
