MODEL 1
REMARK minimizedAffinity -5.70002031
REMARK minimizedRMSD -1
REMARK  0 active torsions:
REMARK  status: ('A' for Active; 'I' for Inactive)
ROOT
ATOM      1  C   UNL d   1       1.432   3.360   0.116  0.00  0.00     0.020 A 
ATOM      2  C1  UNL d   1       2.487   2.482   0.363  0.00  0.00     0.020 A 
ATOM      3  C2  UNL d   1       2.236   1.120   0.535  0.00  0.00     0.034 A 
ATOM      4  C3  UNL d   1       0.926   0.631   0.462  0.00  0.00     0.017 A 
ATOM      5  C4  UNL d   1      -0.132   1.513   0.214  0.00  0.00     0.017 A 
ATOM      6  C5  UNL d   1       0.125   2.876   0.042  0.00  0.00     0.034 A 
ATOM      7 Cl   UNL d   1      -1.774   0.984   0.110  0.00  0.00    -0.070 Cl
ATOM      8 Cl1  UNL d   1       0.689  -1.066   0.685  0.00  0.00    -0.070 Cl
ENDROOT
TORSDOF 0
ENDMDL
