MODEL 1
REMARK minimizedAffinity -4.98091412
REMARK minimizedRMSD -1
REMARK  0 active torsions:
REMARK  status: ('A' for Active; 'I' for Inactive)
ROOT
ATOM      1  C   UNL d   1       1.585   2.549  -0.474  0.00  0.00     0.020 A 
ATOM      2  C1  UNL d   1       0.535   3.379  -0.082  0.00  0.00     0.020 A 
ATOM      3  C2  UNL d   1      -0.697   2.826   0.273  0.00  0.00     0.034 A 
ATOM      4  C3  UNL d   1      -0.883   1.440   0.237  0.00  0.00     0.017 A 
ATOM      5  C4  UNL d   1       0.172   0.607  -0.157  0.00  0.00     0.017 A 
ATOM      6  C5  UNL d   1       1.403   1.166  -0.511  0.00  0.00     0.034 A 
ATOM      7 Cl   UNL d   1       0.018  -1.113  -0.226  0.00  0.00    -0.070 Cl
ATOM      8 Cl1  UNL d   1      -2.433   0.825   0.689  0.00  0.00    -0.070 Cl
ENDROOT
TORSDOF 0
ENDMDL
