MODEL 1
REMARK minimizedAffinity -3.23483562
REMARK minimizedRMSD -1
REMARK  0 active torsions:
REMARK  status: ('A' for Active; 'I' for Inactive)
ROOT
ATOM      1  C   UNL d   1       0.647  -0.997   0.075  0.00  0.00     0.020 A 
ATOM      2  C1  UNL d   1       0.970  -0.968  -1.281  0.00  0.00     0.020 A 
ATOM      3  C2  UNL d   1       0.492  -1.966  -2.133  0.00  0.00     0.034 A 
ATOM      4  C3  UNL d   1      -0.311  -2.996  -1.631  0.00  0.00     0.017 A 
ATOM      5  C4  UNL d   1      -0.635  -3.024  -0.270  0.00  0.00     0.017 A 
ATOM      6  C5  UNL d   1      -0.154  -2.023   0.580  0.00  0.00     0.034 A 
ATOM      7 Cl   UNL d   1      -1.620  -4.263   0.424  0.00  0.00    -0.070 Cl
ATOM      8 Cl1  UNL d   1      -0.867  -4.196  -2.743  0.00  0.00    -0.070 Cl
ENDROOT
TORSDOF 0
ENDMDL
