MODEL 1
REMARK minimizedAffinity -3.33020997
REMARK minimizedRMSD -1
REMARK  0 active torsions:
REMARK  status: ('A' for Active; 'I' for Inactive)
ROOT
ATOM      1  C   UNL d   1      -3.004   0.757   1.221  0.00  0.00     0.172 C 
ATOM      2  N   UNL d   1      -1.616   0.518   1.537  0.00  0.00    -0.070 N 
ATOM      3  C1  UNL d   1      -0.604   0.367   0.626  0.00  0.00    -0.004 A 
ATOM      4  C2  UNL d   1       0.565   0.157   1.324  0.00  0.00    -0.047 A 
ATOM      5  C3  UNL d   1       0.245   0.181   2.703  0.00  0.00    -0.047 A 
ATOM      6  C4  UNL d   1      -1.111   0.406   2.806  0.00  0.00    -0.004 A 
ENDROOT
TORSDOF 0
ENDMDL
