MODEL 1
REMARK minimizedAffinity -2.44757628
REMARK minimizedRMSD -1
REMARK  0 active torsions:
REMARK  status: ('A' for Active; 'I' for Inactive)
ROOT
ATOM      1  C   UNL d   1       0.133   0.066  -0.921  0.00  0.00     0.172 C 
ATOM      2  N   UNL d   1       0.111   0.105   0.522  0.00  0.00    -0.070 N 
ATOM      3  C1  UNL d   1       1.131  -0.291   1.346  0.00  0.00    -0.004 A 
ATOM      4  C2  UNL d   1       0.721  -0.097   2.648  0.00  0.00    -0.047 A 
ATOM      5  C3  UNL d   1      -0.591   0.433   2.604  0.00  0.00    -0.047 A 
ATOM      6  C4  UNL d   1      -0.943   0.547   1.276  0.00  0.00    -0.004 A 
ENDROOT
TORSDOF 0
ENDMDL
