MODEL 1
REMARK minimizedAffinity 0.237380862
REMARK minimizedRMSD -1
REMARK  0 active torsions:
REMARK  status: ('A' for Active; 'I' for Inactive)
ROOT
ATOM      1  C   UNL d   1       1.164  -0.460  -2.887  0.00  0.00     0.172 C 
ATOM      2  N   UNL d   1       0.532  -0.206  -1.614  0.00  0.00    -0.070 N 
ATOM      3  C1  UNL d   1       0.967  -0.666  -0.400  0.00  0.00    -0.004 A 
ATOM      4  C2  UNL d   1       0.095  -0.207   0.564  0.00  0.00    -0.047 A 
ATOM      5  C3  UNL d   1      -0.899   0.556  -0.094  0.00  0.00    -0.047 A 
ATOM      6  C4  UNL d   1      -0.604   0.540  -1.441  0.00  0.00    -0.004 A 
ENDROOT
TORSDOF 0
ENDMDL
