MODEL 1
REMARK minimizedAffinity -1.78848279
REMARK minimizedRMSD -1
REMARK  0 active torsions:
REMARK  status: ('A' for Active; 'I' for Inactive)
ROOT
ATOM      1  C   UNL d   1       0.685  -1.076  -3.120  0.00  0.00     0.172 C 
ATOM      2  N   UNL d   1       0.337  -0.640  -1.788  0.00  0.00    -0.070 N 
ATOM      3  C1  UNL d   1      -0.584   0.325  -1.480  0.00  0.00    -0.004 A 
ATOM      4  C2  UNL d   1      -0.624   0.447  -0.108  0.00  0.00    -0.047 A 
ATOM      5  C3  UNL d   1       0.306  -0.476   0.427  0.00  0.00    -0.047 A 
ATOM      6  C4  UNL d   1       0.887  -1.135  -0.635  0.00  0.00    -0.004 A 
ENDROOT
TORSDOF 0
ENDMDL
