MODEL 1
REMARK minimizedAffinity -1.96815586
REMARK minimizedRMSD -1
REMARK  0 active torsions:
REMARK  status: ('A' for Active; 'I' for Inactive)
ROOT
ATOM      1  C   UNL d   1       0.783  -0.616  -0.442  0.00  0.00     0.172 C 
ATOM      2  N   UNL d   1       1.073  -0.953  -1.816  0.00  0.00    -0.070 N 
ATOM      3  C1  UNL d   1       0.977  -0.102  -2.885  0.00  0.00    -0.004 A 
ATOM      4  C2  UNL d   1       1.338  -0.802  -4.016  0.00  0.00    -0.047 A 
ATOM      5  C3  UNL d   1       1.662  -2.120  -3.613  0.00  0.00    -0.047 A 
ATOM      6  C4  UNL d   1       1.490  -2.185  -2.246  0.00  0.00    -0.004 A 
ENDROOT
TORSDOF 0
ENDMDL
