MODEL 1
REMARK minimizedAffinity -1.24726832
REMARK minimizedRMSD -1
REMARK  0 active torsions:
REMARK  status: ('A' for Active; 'I' for Inactive)
ROOT
ATOM      1  C   UNL d   1       0.665  -1.371  -2.500  0.00  0.00     0.172 C 
ATOM      2  N   UNL d   1       0.602  -0.681  -1.233  0.00  0.00    -0.070 N 
ATOM      3  C1  UNL d   1       0.544   0.677  -1.065  0.00  0.00    -0.004 A 
ATOM      4  C2  UNL d   1       0.494   0.933   0.288  0.00  0.00    -0.047 A 
ATOM      5  C3  UNL d   1       0.525  -0.314   0.956  0.00  0.00    -0.047 A 
ATOM      6  C4  UNL d   1       0.591  -1.296  -0.009  0.00  0.00    -0.004 A 
ENDROOT
TORSDOF 0
ENDMDL
