MODEL 1
REMARK minimizedAffinity -2.18768477
REMARK minimizedRMSD -1
REMARK  0 active torsions:
REMARK  status: ('A' for Active; 'I' for Inactive)
ROOT
ATOM      1  C   UNL d   1       1.004   0.120   0.387  0.00  0.00     0.172 C 
ATOM      2  N   UNL d   1       0.605   0.110  -1.001  0.00  0.00    -0.070 N 
ATOM      3  C1  UNL d   1      -0.632   0.450  -1.478  0.00  0.00    -0.004 A 
ATOM      4  C2  UNL d   1      -0.609   0.310  -2.849  0.00  0.00    -0.047 A 
ATOM      5  C3  UNL d   1       0.688  -0.129  -3.208  0.00  0.00    -0.047 A 
ATOM      6  C4  UNL d   1       1.419  -0.245  -2.044  0.00  0.00    -0.004 A 
ENDROOT
TORSDOF 0
ENDMDL
