MODEL 1
REMARK minimizedAffinity -2.48879051
REMARK minimizedRMSD -1
REMARK  0 active torsions:
REMARK  status: ('A' for Active; 'I' for Inactive)
ROOT
ATOM      1  C   UNL d   1      -1.473   0.788   2.975  0.00  0.00     0.172 C 
ATOM      2  N   UNL d   1      -0.353   0.373   2.164  0.00  0.00    -0.070 N 
ATOM      3  C1  UNL d   1      -0.305   0.400   0.796  0.00  0.00    -0.004 A 
ATOM      4  C2  UNL d   1       0.929  -0.074   0.407  0.00  0.00    -0.047 A 
ATOM      5  C3  UNL d   1       1.648  -0.398   1.582  0.00  0.00    -0.047 A 
ATOM      6  C4  UNL d   1       0.830  -0.111   2.655  0.00  0.00    -0.004 A 
ENDROOT
TORSDOF 0
ENDMDL
