MODEL 1
REMARK minimizedAffinity -2.57182908
REMARK minimizedRMSD -1
REMARK  0 active torsions:
REMARK  status: ('A' for Active; 'I' for Inactive)
ROOT
ATOM      1  C   UNL d   1      -2.273   0.665   0.409  0.00  0.00     0.172 C 
ATOM      2  N   UNL d   1      -0.933   0.408   0.883  0.00  0.00    -0.070 N 
ATOM      3  C1  UNL d   1      -0.534   0.416   2.193  0.00  0.00    -0.004 A 
ATOM      4  C2  UNL d   1       0.813   0.126   2.226  0.00  0.00    -0.047 A 
ATOM      5  C3  UNL d   1       1.238  -0.063   0.890  0.00  0.00    -0.047 A 
ATOM      6  C4  UNL d   1       0.138   0.118   0.079  0.00  0.00    -0.004 A 
ENDROOT
TORSDOF 0
ENDMDL
