MODEL 1
REMARK minimizedAffinity -3.4364574
REMARK minimizedRMSD -1
REMARK  0 active torsions:
REMARK  status: ('A' for Active; 'I' for Inactive)
ROOT
ATOM      1  C   UNL d   1       1.488  -0.389  -3.431  0.00  0.00     0.172 C 
ATOM      2  N   UNL d   1       1.154  -0.426  -2.027  0.00  0.00    -0.070 N 
ATOM      3  C1  UNL d   1       0.172   0.310  -1.420  0.00  0.00    -0.004 A 
ATOM      4  C2  UNL d   1       0.170  -0.012  -0.080  0.00  0.00    -0.047 A 
ATOM      5  C3  UNL d   1       1.188  -0.973   0.126  0.00  0.00    -0.047 A 
ATOM      6  C4  UNL d   1       1.781  -1.212  -1.096  0.00  0.00    -0.004 A 
ENDROOT
TORSDOF 0
ENDMDL
