MODEL 1
REMARK minimizedAffinity -0.789554775
REMARK minimizedRMSD -1
REMARK  0 active torsions:
REMARK  status: ('A' for Active; 'I' for Inactive)
ROOT
ATOM      1  C   UNL d   1       1.064  -0.263  -2.578  0.00  0.00     0.172 C 
ATOM      2  N   UNL d   1       0.679  -0.027  -1.207  0.00  0.00    -0.070 N 
ATOM      3  C1  UNL d   1      -0.597   0.190  -0.761  0.00  0.00    -0.004 A 
ATOM      4  C2  UNL d   1      -0.543   0.371   0.604  0.00  0.00    -0.047 A 
ATOM      5  C3  UNL d   1       0.813   0.260   0.992  0.00  0.00    -0.047 A 
ATOM      6  C4  UNL d   1       1.548   0.014  -0.148  0.00  0.00    -0.004 A 
ENDROOT
TORSDOF 0
ENDMDL
