MODEL 1
REMARK minimizedAffinity -2.81499553
REMARK minimizedRMSD -1
REMARK  0 active torsions:
REMARK  status: ('A' for Active; 'I' for Inactive)
ROOT
ATOM      1  C   UNL d   1       3.353   0.081  -4.219  0.00  0.00     0.172 C 
ATOM      2  N   UNL d   1       2.035  -0.429  -3.920  0.00  0.00    -0.070 N 
ATOM      3  C1  UNL d   1       1.338  -1.332  -4.677  0.00  0.00    -0.004 A 
ATOM      4  C2  UNL d   1       0.129  -1.560  -4.055  0.00  0.00    -0.047 A 
ATOM      5  C3  UNL d   1       0.099  -0.765  -2.885  0.00  0.00    -0.047 A 
ATOM      6  C4  UNL d   1       1.291  -0.075  -2.826  0.00  0.00    -0.004 A 
ENDROOT
TORSDOF 0
ENDMDL
