MODEL 1
REMARK minimizedAffinity -3.1590941
REMARK minimizedRMSD -1
REMARK  0 active torsions:
REMARK  status: ('A' for Active; 'I' for Inactive)
ROOT
ATOM      1  C   UNL d   1       0.268   0.095  -1.120  0.00  0.00     0.172 C 
ATOM      2  N   UNL d   1       0.277   0.103   0.324  0.00  0.00    -0.070 N 
ATOM      3  C1  UNL d   1       1.323  -0.283   1.118  0.00  0.00    -0.004 A 
ATOM      4  C2  UNL d   1       0.937  -0.126   2.432  0.00  0.00    -0.047 A 
ATOM      5  C3  UNL d   1      -0.388   0.370   2.427  0.00  0.00    -0.047 A 
ATOM      6  C4  UNL d   1      -0.772   0.503   1.109  0.00  0.00    -0.004 A 
ENDROOT
TORSDOF 0
ENDMDL
