MODEL 1
REMARK minimizedAffinity -2.04318857
REMARK minimizedRMSD -1
REMARK  0 active torsions:
REMARK  status: ('A' for Active; 'I' for Inactive)
ROOT
ATOM      1  C   UNL d   1       1.160  -1.339  -2.915  0.00  0.00     0.172 C 
ATOM      2  N   UNL d   1       0.693  -0.786  -1.666  0.00  0.00    -0.070 N 
ATOM      3  C1  UNL d   1      -0.174   0.266  -1.533  0.00  0.00    -0.004 A 
ATOM      4  C2  UNL d   1      -0.368   0.485  -0.186  0.00  0.00    -0.047 A 
ATOM      5  C3  UNL d   1       0.410  -0.468   0.514  0.00  0.00    -0.047 A 
ATOM      6  C4  UNL d   1       1.056  -1.242  -0.426  0.00  0.00    -0.004 A 
ENDROOT
TORSDOF 0
ENDMDL
