MODEL 1
REMARK minimizedAffinity -1.92113912
REMARK minimizedRMSD -1
REMARK  0 active torsions:
REMARK  status: ('A' for Active; 'I' for Inactive)
ROOT
ATOM      1  C   UNL d   1       0.514   0.193   2.328  0.00  0.00     0.172 C 
ATOM      2  N   UNL d   1       0.522   0.084   0.889  0.00  0.00    -0.070 N 
ATOM      3  C1  UNL d   1       0.554  -1.085   0.176  0.00  0.00    -0.004 A 
ATOM      4  C2  UNL d   1       0.551  -0.763  -1.164  0.00  0.00    -0.047 A 
ATOM      5  C3  UNL d   1       0.517   0.648  -1.260  0.00  0.00    -0.047 A 
ATOM      6  C4  UNL d   1       0.500   1.148   0.025  0.00  0.00    -0.004 A 
ENDROOT
TORSDOF 0
ENDMDL
