MODEL 1
REMARK minimizedAffinity -3.2873199
REMARK minimizedRMSD -1
REMARK  0 active torsions:
REMARK  status: ('A' for Active; 'I' for Inactive)
ROOT
ATOM      1  C   UNL d   1       0.521  -1.536  -2.485  0.00  0.00     0.172 C 
ATOM      2  N   UNL d   1       0.612  -0.935  -1.174  0.00  0.00    -0.070 N 
ATOM      3  C1  UNL d   1       1.087  -1.549  -0.046  0.00  0.00    -0.004 A 
ATOM      4  C2  UNL d   1       1.009  -0.644   0.991  0.00  0.00    -0.047 A 
ATOM      5  C3  UNL d   1       0.467   0.554   0.468  0.00  0.00    -0.047 A 
ATOM      6  C4  UNL d   1       0.230   0.346  -0.875  0.00  0.00    -0.004 A 
ENDROOT
TORSDOF 0
ENDMDL
