MODEL 1
REMARK minimizedAffinity -0.992066979
REMARK minimizedRMSD -1
REMARK  0 active torsions:
REMARK  status: ('A' for Active; 'I' for Inactive)
ROOT
ATOM      1  C1  BNZ d   1      -2.234  -2.994  -5.847  0.00  0.00     0.000 A 
ATOM      2  C2  BNZ d   1      -3.542  -2.627  -5.672  0.00  0.00     0.000 A 
ATOM      3  C3  BNZ d   1      -4.534  -3.567  -5.636  0.00  0.00     0.000 A 
ATOM      4  C4  BNZ d   1      -4.223  -4.867  -5.814  0.00  0.00     0.000 A 
ATOM      5  C5  BNZ d   1      -2.910  -5.252  -6.000  0.00  0.00     0.000 A 
ATOM      6  C6  BNZ d   1      -1.910  -4.307  -5.997  0.00  0.00     0.000 A 
ENDROOT
TORSDOF 0
ENDMDL
