MODEL 1
REMARK minimizedAffinity -2.65155888
REMARK minimizedRMSD -1
REMARK  0 active torsions:
REMARK  status: ('A' for Active; 'I' for Inactive)
ROOT
ATOM      1  C1  BNZ d   1       1.448  -0.234   3.005  0.00  0.00     0.000 A 
ATOM      2  C2  BNZ d   1       2.754  -0.638   2.929  0.00  0.00     0.000 A 
ATOM      3  C3  BNZ d   1       3.661   0.061   2.182  0.00  0.00     0.000 A 
ATOM      4  C4  BNZ d   1       3.252   1.138   1.481  0.00  0.00     0.000 A 
ATOM      5  C5  BNZ d   1       1.937   1.553   1.540  0.00  0.00     0.000 A 
ATOM      6  C6  BNZ d   1       1.035   0.870   2.324  0.00  0.00     0.000 A 
ENDROOT
TORSDOF 0
ENDMDL
