MODEL 1
REMARK minimizedAffinity 0.101978637
REMARK minimizedRMSD -1
REMARK  0 active torsions:
REMARK  status: ('A' for Active; 'I' for Inactive)
ROOT
ATOM      1  C1  BNZ d   1      -5.856  -3.635   1.019  0.00  0.00     0.000 A 
ATOM      2  C2  BNZ d   1      -5.666  -4.816   1.685  0.00  0.00     0.000 A 
ATOM      3  C3  BNZ d   1      -5.560  -5.995   1.003  0.00  0.00     0.000 A 
ATOM      4  C4  BNZ d   1      -5.686  -5.998  -0.340  0.00  0.00     0.000 A 
ATOM      5  C5  BNZ d   1      -5.887  -4.817  -1.026  0.00  0.00     0.000 A 
ATOM      6  C6  BNZ d   1      -5.954  -3.627  -0.339  0.00  0.00     0.000 A 
ENDROOT
TORSDOF 0
ENDMDL
