MODEL 1
REMARK minimizedAffinity 1.1884917
REMARK minimizedRMSD -1
REMARK  0 active torsions:
REMARK  status: ('A' for Active; 'I' for Inactive)
ROOT
ATOM      1  C1  BNZ d   1      -5.974  -1.169  -2.043  0.00  0.00     0.000 A 
ATOM      2  C2  BNZ d   1      -5.965  -1.181  -3.412  0.00  0.00     0.000 A 
ATOM      3  C3  BNZ d   1      -5.993  -2.361  -4.102  0.00  0.00     0.000 A 
ATOM      4  C4  BNZ d   1      -5.989  -3.526  -3.422  0.00  0.00     0.000 A 
ATOM      5  C5  BNZ d   1      -5.988  -3.530  -2.042  0.00  0.00     0.000 A 
ATOM      6  C6  BNZ d   1      -6.000  -2.340  -1.351  0.00  0.00     0.000 A 
ENDROOT
TORSDOF 0
ENDMDL
