MODEL 1
REMARK minimizedAffinity 3.74099731
REMARK minimizedRMSD -1
REMARK  0 active torsions:
REMARK  status: ('A' for Active; 'I' for Inactive)
ROOT
ATOM      1  C1  BNZ d   1      -2.320  -4.519  -5.999  0.00  0.00     0.000 A 
ATOM      2  C2  BNZ d   1      -2.978  -5.720  -5.997  0.00  0.00     0.000 A 
ATOM      3  C3  BNZ d   1      -4.344  -5.770  -5.988  0.00  0.00     0.000 A 
ATOM      4  C4  BNZ d   1      -5.049  -4.621  -5.942  0.00  0.00     0.000 A 
ATOM      5  C5  BNZ d   1      -4.400  -3.403  -5.934  0.00  0.00     0.000 A 
ATOM      6  C6  BNZ d   1      -3.025  -3.356  -5.982  0.00  0.00     0.000 A 
ENDROOT
TORSDOF 0
ENDMDL
