MODEL 1
REMARK minimizedAffinity 5.35195446
REMARK minimizedRMSD -1
REMARK  0 active torsions:
REMARK  status: ('A' for Active; 'I' for Inactive)
ROOT
ATOM      1  C1  BNZ d   1      -4.125  -4.877  -0.495  0.00  0.00     0.000 A 
ATOM      2  C2  BNZ d   1      -4.483  -3.754   0.202  0.00  0.00     0.000 A 
ATOM      3  C3  BNZ d   1      -4.453  -3.738   1.568  0.00  0.00     0.000 A 
ATOM      4  C4  BNZ d   1      -4.105  -4.856   2.236  0.00  0.00     0.000 A 
ATOM      5  C5  BNZ d   1      -3.750  -6.000   1.549  0.00  0.00     0.000 A 
ATOM      6  C6  BNZ d   1      -3.744  -6.000   0.173  0.00  0.00     0.000 A 
ENDROOT
TORSDOF 0
ENDMDL
