MODEL 1
REMARK minimizedAffinity 6.15790892
REMARK minimizedRMSD -1
REMARK  0 active torsions:
REMARK  status: ('A' for Active; 'I' for Inactive)
ROOT
ATOM      1  C1  BNZ d   1      -5.979  -3.853  -2.228  0.00  0.00     0.000 A 
ATOM      2  C2  BNZ d   1      -5.991  -3.535  -3.560  0.00  0.00     0.000 A 
ATOM      3  C3  BNZ d   1      -5.981  -2.231  -3.968  0.00  0.00     0.000 A 
ATOM      4  C4  BNZ d   1      -6.000  -1.247  -3.046  0.00  0.00     0.000 A 
ATOM      5  C5  BNZ d   1      -5.997  -1.551  -1.700  0.00  0.00     0.000 A 
ATOM      6  C6  BNZ d   1      -5.968  -2.865  -1.292  0.00  0.00     0.000 A 
ENDROOT
TORSDOF 0
ENDMDL
