MODEL 1
REMARK minimizedAffinity 6.17378044
REMARK minimizedRMSD -1
REMARK  0 active torsions:
REMARK  status: ('A' for Active; 'I' for Inactive)
ROOT
ATOM      1  C1  BNZ d   1       0.894  -1.537  -2.708  0.00  0.00     0.000 A 
ATOM      2  C2  BNZ d   1       0.794  -0.667  -1.655  0.00  0.00     0.000 A 
ATOM      3  C3  BNZ d   1       1.538   0.479  -1.620  0.00  0.00     0.000 A 
ATOM      4  C4  BNZ d   1       2.409   0.734  -2.617  0.00  0.00     0.000 A 
ATOM      5  C5  BNZ d   1       2.528  -0.137  -3.682  0.00  0.00     0.000 A 
ATOM      6  C6  BNZ d   1       1.749  -1.270  -3.733  0.00  0.00     0.000 A 
ENDROOT
TORSDOF 0
ENDMDL
