MODEL 1
REMARK minimizedAffinity 2.7257514
REMARK minimizedRMSD -1
REMARK  0 active torsions:
REMARK  status: ('A' for Active; 'I' for Inactive)
ROOT
ATOM      1  C1  BNZ d   1       1.502  -0.376  -2.250  0.00  0.00     0.000 A 
ATOM      2  C2  BNZ d   1       1.017  -1.009  -3.363  0.00  0.00     0.000 A 
ATOM      3  C3  BNZ d   1       0.038  -0.435  -4.125  0.00  0.00     0.000 A 
ATOM      4  C4  BNZ d   1      -0.483   0.751  -3.750  0.00  0.00     0.000 A 
ATOM      5  C5  BNZ d   1      -0.012   1.398  -2.625  0.00  0.00     0.000 A 
ATOM      6  C6  BNZ d   1       1.001   0.835  -1.883  0.00  0.00     0.000 A 
ENDROOT
TORSDOF 0
ENDMDL
