MODEL 1
REMARK minimizedAffinity 5.01683807
REMARK minimizedRMSD -1
REMARK  0 active torsions:
REMARK  status: ('A' for Active; 'I' for Inactive)
ROOT
ATOM      1  C1  BNZ d   1      -6.000  -3.607  -2.549  0.00  0.00     0.000 A 
ATOM      2  C2  BNZ d   1      -5.985  -3.470  -3.911  0.00  0.00     0.000 A 
ATOM      3  C3  BNZ d   1      -5.952  -2.232  -4.490  0.00  0.00     0.000 A 
ATOM      4  C4  BNZ d   1      -5.975  -1.134  -3.707  0.00  0.00     0.000 A 
ATOM      5  C5  BNZ d   1      -6.000  -1.255  -2.332  0.00  0.00     0.000 A 
ATOM      6  C6  BNZ d   1      -5.993  -2.503  -1.753  0.00  0.00     0.000 A 
ENDROOT
TORSDOF 0
ENDMDL
