MODEL 1
REMARK minimizedAffinity 5.61920404
REMARK minimizedRMSD -1
REMARK  0 active torsions:
REMARK  status: ('A' for Active; 'I' for Inactive)
ROOT
ATOM      1  C1  BNZ d   1       2.596   2.165  -0.903  0.00  0.00     0.000 A 
ATOM      2  C2  BNZ d   1       3.353   1.579  -1.882  0.00  0.00     0.000 A 
ATOM      3  C3  BNZ d   1       2.898   0.480  -2.556  0.00  0.00     0.000 A 
ATOM      4  C4  BNZ d   1       1.705  -0.054  -2.223  0.00  0.00     0.000 A 
ATOM      5  C5  BNZ d   1       0.934   0.520  -1.232  0.00  0.00     0.000 A 
ATOM      6  C6  BNZ d   1       1.379   1.648  -0.582  0.00  0.00     0.000 A 
ENDROOT
TORSDOF 0
ENDMDL
