MODEL 1
REMARK minimizedAffinity 5.34337521
REMARK minimizedRMSD -1
REMARK  0 active torsions:
REMARK  status: ('A' for Active; 'I' for Inactive)
ROOT
ATOM      1  C1  BNZ d   1      -0.745  -1.185   4.239  0.00  0.00     0.000 A 
ATOM      2  C2  BNZ d   1       0.624  -1.134   4.228  0.00  0.00     0.000 A 
ATOM      3  C3  BNZ d   1       1.279  -0.047   3.720  0.00  0.00     0.000 A 
ATOM      4  C4  BNZ d   1       0.567   0.968   3.189  0.00  0.00     0.000 A 
ATOM      5  C5  BNZ d   1      -0.813   0.927   3.185  0.00  0.00     0.000 A 
ATOM      6  C6  BNZ d   1      -1.470  -0.151   3.732  0.00  0.00     0.000 A 
ENDROOT
TORSDOF 0
ENDMDL
