MODEL 1
REMARK minimizedAffinity 5.12263489
REMARK minimizedRMSD -1
REMARK  0 active torsions:
REMARK  status: ('A' for Active; 'I' for Inactive)
ROOT
ATOM      1  C1  BNZ d   1      -1.773  -1.959  -5.964  0.00  0.00     0.000 A 
ATOM      2  C2  BNZ d   1      -0.753  -2.872  -5.956  0.00  0.00     0.000 A 
ATOM      3  C3  BNZ d   1      -1.014  -4.214  -5.994  0.00  0.00     0.000 A 
ATOM      4  C4  BNZ d   1      -2.293  -4.640  -5.999  0.00  0.00     0.000 A 
ATOM      5  C5  BNZ d   1      -3.333  -3.732  -5.998  0.00  0.00     0.000 A 
ATOM      6  C6  BNZ d   1      -3.066  -2.382  -6.000  0.00  0.00     0.000 A 
ENDROOT
TORSDOF 0
ENDMDL
