MODEL 1
REMARK minimizedAffinity 11.8615694
REMARK minimizedRMSD -1
REMARK  0 active torsions:
REMARK  status: ('A' for Active; 'I' for Inactive)
ROOT
ATOM      1  C1  BNZ d   1      -0.659  -0.623  -5.704  0.00  0.00     0.000 A 
ATOM      2  C2  BNZ d   1      -1.890  -0.045  -5.862  0.00  0.00     0.000 A 
ATOM      3  C3  BNZ d   1      -3.014  -0.813  -5.990  0.00  0.00     0.000 A 
ATOM      4  C4  BNZ d   1      -2.900  -2.157  -6.000  0.00  0.00     0.000 A 
ATOM      5  C5  BNZ d   1      -1.664  -2.755  -5.851  0.00  0.00     0.000 A 
ATOM      6  C6  BNZ d   1      -0.541  -1.978  -5.683  0.00  0.00     0.000 A 
ENDROOT
TORSDOF 0
ENDMDL
