MODEL 1
REMARK minimizedAffinity 5.16377449
REMARK minimizedRMSD -1
REMARK  0 active torsions:
REMARK  status: ('A' for Active; 'I' for Inactive)
ROOT
ATOM      1  C1  BNZ d   1      -5.997  -4.802  -3.602  0.00  0.00     0.000 A 
ATOM      2  C2  BNZ d   1      -5.494  -5.973  -3.102  0.00  0.00     0.000 A 
ATOM      3  C3  BNZ d   1      -4.849  -6.000  -1.897  0.00  0.00     0.000 A 
ATOM      4  C4  BNZ d   1      -4.674  -4.851  -1.213  0.00  0.00     0.000 A 
ATOM      5  C5  BNZ d   1      -5.168  -3.660  -1.709  0.00  0.00     0.000 A 
ATOM      6  C6  BNZ d   1      -5.850  -3.643  -2.903  0.00  0.00     0.000 A 
ENDROOT
TORSDOF 0
ENDMDL
