MODEL 1
REMARK minimizedAffinity 4.12586451
REMARK minimizedRMSD -1
REMARK  0 active torsions:
REMARK  status: ('A' for Active; 'I' for Inactive)
ROOT
ATOM      1  C1  BNZ d   1       4.935   3.013  -5.083  0.00  0.00     0.000 A 
ATOM      2  C2  BNZ d   1       3.918   2.961  -5.999  0.00  0.00     0.000 A 
ATOM      3  C3  BNZ d   1       2.928   3.903  -6.000  0.00  0.00     0.000 A 
ATOM      4  C4  BNZ d   1       2.934   4.872  -5.062  0.00  0.00     0.000 A 
ATOM      5  C5  BNZ d   1       3.947   4.933  -4.126  0.00  0.00     0.000 A 
ATOM      6  C6  BNZ d   1       4.963   4.005  -4.152  0.00  0.00     0.000 A 
ENDROOT
TORSDOF 0
ENDMDL
