MODEL 1
REMARK minimizedAffinity -3.86615658
REMARK minimizedRMSD -1
REMARK  1 active torsions:
REMARK  status: ('A' for Active; 'I' for Inactive)
REMARK    1  A    between atoms: C1_2  and  C2_3 
ROOT
ATOM      1  C2  UNL d   1      -0.050  -0.198   0.126  0.00  0.00    -0.077 A 
ATOM      2  C3  UNL d   1       0.712  -1.355   0.342  0.00  0.00     0.002 A 
ATOM      3  C4  UNL d   1       2.072  -1.259   0.645  0.00  0.00     0.002 A 
ATOM      4  C5  UNL d   1       2.680  -0.009   0.737  0.00  0.00    -0.004 A 
ATOM      5  C6  UNL d   1       1.931   1.148   0.522  0.00  0.00     0.002 A 
ATOM      6  C7  UNL d   1       0.572   1.053   0.218  0.00  0.00     0.002 A 
ENDROOT
BRANCH   1   7
ATOM      7  C1  UNL d   1      -1.527  -0.298  -0.152  0.00  0.00     0.055 C 
ATOM      8  C   UNL d   1      -1.913   0.504  -1.386  0.00  0.00     0.019 C 
ENDBRANCH   1   7
TORSDOF 1
ENDMDL
