MODEL 1
REMARK minimizedAffinity -6.29169369
REMARK minimizedRMSD -1
REMARK  1 active torsions:
REMARK  status: ('A' for Active; 'I' for Inactive)
REMARK    1  A    between atoms: C1_2  and  C2_3 
ROOT
ATOM      1  C2  UNL d   1       0.782  -0.916   0.779  0.00  0.00    -0.077 A 
ATOM      2  C3  UNL d   1       2.028  -0.280   0.694  0.00  0.00     0.002 A 
ATOM      3  C4  UNL d   1       3.097  -0.712   1.482  0.00  0.00     0.002 A 
ATOM      4  C5  UNL d   1       2.931  -1.784   2.357  0.00  0.00    -0.004 A 
ATOM      5  C6  UNL d   1       1.695  -2.421   2.450  0.00  0.00     0.002 A 
ATOM      6  C7  UNL d   1       0.625  -1.990   1.665  0.00  0.00     0.002 A 
ENDROOT
BRANCH   1   7
ATOM      7  C1  UNL d   1      -0.358  -0.483  -0.105  0.00  0.00     0.055 C 
ATOM      8  C   UNL d   1      -0.191   0.961  -0.556  0.00  0.00     0.019 C 
ENDBRANCH   1   7
TORSDOF 1
ENDMDL
