MODEL 1
REMARK minimizedAffinity -4.06287622
REMARK minimizedRMSD -1
REMARK  1 active torsions:
REMARK  status: ('A' for Active; 'I' for Inactive)
REMARK    1  A    between atoms: C1_2  and  C2_3 
ROOT
ATOM      1  C2  UNL d   1       1.558   0.658   0.059  0.00  0.00    -0.077 A 
ATOM      2  C3  UNL d   1       0.565  -0.317   0.233  0.00  0.00     0.002 A 
ATOM      3  C4  UNL d   1       0.847  -1.497   0.924  0.00  0.00     0.002 A 
ATOM      4  C5  UNL d   1       2.119  -1.710   1.451  0.00  0.00    -0.004 A 
ATOM      5  C6  UNL d   1       3.113  -0.748   1.282  0.00  0.00     0.002 A 
ATOM      6  C7  UNL d   1       2.834   0.431   0.590  0.00  0.00     0.002 A 
ENDROOT
BRANCH   1   7
ATOM      7  C1  UNL d   1       1.242   1.952  -0.644  0.00  0.00     0.055 C 
ATOM      8  C   UNL d   1       0.081   2.676   0.023  0.00  0.00     0.019 C 
ENDBRANCH   1   7
TORSDOF 1
ENDMDL
