MODEL 1
REMARK minimizedAffinity -2.6864655
REMARK minimizedRMSD -1
REMARK  1 active torsions:
REMARK  status: ('A' for Active; 'I' for Inactive)
REMARK    1  A    between atoms: C1_2  and  C2_3 
ROOT
ATOM      1  C2  UNL d   1       0.620  -0.717   1.296  0.00  0.00    -0.077 A 
ATOM      2  C3  UNL d   1      -0.362  -0.079   0.525  0.00  0.00     0.002 A 
ATOM      3  C4  UNL d   1      -0.086   1.138  -0.102  0.00  0.00     0.002 A 
ATOM      4  C5  UNL d   1       1.171   1.724   0.032  0.00  0.00    -0.004 A 
ATOM      5  C6  UNL d   1       2.153   1.098   0.799  0.00  0.00     0.002 A 
ATOM      6  C7  UNL d   1       1.879  -0.118   1.427  0.00  0.00     0.002 A 
ENDROOT
BRANCH   1   7
ATOM      7  C1  UNL d   1       0.340  -2.054   1.932  0.00  0.00     0.055 C 
ATOM      8  C   UNL d   1       1.444  -2.446   2.905  0.00  0.00     0.019 C 
ENDBRANCH   1   7
TORSDOF 1
ENDMDL
