MODEL 1
REMARK minimizedAffinity -4.33867788
REMARK minimizedRMSD -1
REMARK  1 active torsions:
REMARK  status: ('A' for Active; 'I' for Inactive)
REMARK    1  A    between atoms: C1_2  and  C2_3 
ROOT
ATOM      1  C2  UNL d   1      -2.004  -0.230  -1.306  0.00  0.00    -0.077 A 
ATOM      2  C3  UNL d   1      -2.702   0.924  -1.687  0.00  0.00     0.002 A 
ATOM      3  C4  UNL d   1      -3.501   0.920  -2.832  0.00  0.00     0.002 A 
ATOM      4  C5  UNL d   1      -3.613  -0.235  -3.602  0.00  0.00    -0.004 A 
ATOM      5  C6  UNL d   1      -2.921  -1.388  -3.232  0.00  0.00     0.002 A 
ATOM      6  C7  UNL d   1      -2.121  -1.385  -2.089  0.00  0.00     0.002 A 
ENDROOT
BRANCH   1   7
ATOM      7  C1  UNL d   1      -1.180  -0.242  -0.045  0.00  0.00     0.055 C 
ATOM      8  C   UNL d   1      -0.158   0.885  -0.040  0.00  0.00     0.019 C 
ENDBRANCH   1   7
TORSDOF 1
ENDMDL
