MODEL 1
REMARK minimizedAffinity -4.12536001
REMARK minimizedRMSD -1
REMARK  1 active torsions:
REMARK  status: ('A' for Active; 'I' for Inactive)
REMARK    1  A    between atoms: C1_2  and  C2_3 
ROOT
ATOM      1  C2  UNL d   1       0.033  -1.096   0.237  0.00  0.00    -0.077 A 
ATOM      2  C3  UNL d   1       0.207  -1.461  -1.105  0.00  0.00     0.002 A 
ATOM      3  C4  UNL d   1       0.160  -2.804  -1.483  0.00  0.00     0.002 A 
ATOM      4  C5  UNL d   1      -0.064  -3.792  -0.527  0.00  0.00    -0.004 A 
ATOM      5  C6  UNL d   1      -0.236  -3.439   0.811  0.00  0.00     0.002 A 
ATOM      6  C7  UNL d   1      -0.189  -2.097   1.191  0.00  0.00     0.002 A 
ENDROOT
BRANCH   1   7
ATOM      7  C1  UNL d   1       0.033   0.356   0.640  0.00  0.00     0.055 C 
ATOM      8  C   UNL d   1      -1.304   0.764   1.241  0.00  0.00     0.019 C 
ENDBRANCH   1   7
TORSDOF 1
ENDMDL
