MODEL 1
REMARK minimizedAffinity -4.1824708
REMARK minimizedRMSD -1
REMARK  1 active torsions:
REMARK  status: ('A' for Active; 'I' for Inactive)
REMARK    1  A    between atoms: C1_2  and  C2_3 
ROOT
ATOM      1  C2  UNL d   1      -0.058   0.104   0.141  0.00  0.00    -0.077 A 
ATOM      2  C3  UNL d   1       0.652  -0.775  -0.689  0.00  0.00     0.002 A 
ATOM      3  C4  UNL d   1       0.590  -2.154  -0.475  0.00  0.00     0.002 A 
ATOM      4  C5  UNL d   1      -0.182  -2.665   0.566  0.00  0.00    -0.004 A 
ATOM      5  C6  UNL d   1      -0.889  -1.799   1.399  0.00  0.00     0.002 A 
ATOM      6  C7  UNL d   1      -0.828  -0.421   1.187  0.00  0.00     0.002 A 
ENDROOT
BRANCH   1   7
ATOM      7  C1  UNL d   1      -0.033   1.587  -0.118  0.00  0.00     0.055 C 
ATOM      8  C   UNL d   1       1.309   2.193   0.266  0.00  0.00     0.019 C 
ENDBRANCH   1   7
TORSDOF 1
ENDMDL
