MODEL 1
REMARK minimizedAffinity -4.81579494
REMARK minimizedRMSD -1
REMARK  1 active torsions:
REMARK  status: ('A' for Active; 'I' for Inactive)
REMARK    1  A    between atoms: C1_2  and  C2_3 
ROOT
ATOM      1  C2  UNL d   1      -0.107  -0.088   0.254  0.00  0.00    -0.077 A 
ATOM      2  C3  UNL d   1      -0.866  -0.624   1.304  0.00  0.00     0.002 A 
ATOM      3  C4  UNL d   1      -0.874  -2.000   1.539  0.00  0.00     0.002 A 
ATOM      4  C5  UNL d   1      -0.123  -2.851   0.731  0.00  0.00    -0.004 A 
ATOM      5  C6  UNL d   1       0.633  -2.328  -0.317  0.00  0.00     0.002 A 
ATOM      6  C7  UNL d   1       0.642  -0.953  -0.554  0.00  0.00     0.002 A 
ENDROOT
BRANCH   1   7
ATOM      7  C1  UNL d   1      -0.058   1.401   0.030  0.00  0.00     0.055 C 
ATOM      8  C   UNL d   1       1.370   1.922   0.089  0.00  0.00     0.019 C 
ENDBRANCH   1   7
TORSDOF 1
ENDMDL
