MODEL 1
REMARK minimizedAffinity -4.57842827
REMARK minimizedRMSD -1
REMARK  1 active torsions:
REMARK  status: ('A' for Active; 'I' for Inactive)
REMARK    1  A    between atoms: C1_2  and  C2_3 
ROOT
ATOM      1  C2  UNL d   1       0.065   0.530  -0.129  0.00  0.00    -0.077 A 
ATOM      2  C3  UNL d   1      -0.782  -0.017   0.845  0.00  0.00     0.002 A 
ATOM      3  C4  UNL d   1      -0.770  -1.389   1.101  0.00  0.00     0.002 A 
ATOM      4  C5  UNL d   1       0.090  -2.224   0.391  0.00  0.00    -0.004 A 
ATOM      5  C6  UNL d   1       0.935  -1.690  -0.581  0.00  0.00     0.002 A 
ATOM      6  C7  UNL d   1       0.923  -0.319  -0.839  0.00  0.00     0.002 A 
ENDROOT
BRANCH   1   7
ATOM      7  C1  UNL d   1       0.089   2.017  -0.373  0.00  0.00     0.055 C 
ATOM      8  C   UNL d   1       1.222   2.685   0.393  0.00  0.00     0.019 C 
ENDBRANCH   1   7
TORSDOF 1
ENDMDL
