MODEL 1
REMARK minimizedAffinity -3.45515227
REMARK minimizedRMSD -1
REMARK  1 active torsions:
REMARK  status: ('A' for Active; 'I' for Inactive)
REMARK    1  A    between atoms: C1_2  and  C2_3 
ROOT
ATOM      1  C2  UNL d   1      -0.286  -0.659   0.632  0.00  0.00    -0.077 A 
ATOM      2  C3  UNL d   1       0.896  -1.117   1.228  0.00  0.00     0.002 A 
ATOM      3  C4  UNL d   1       1.063  -2.473   1.517  0.00  0.00     0.002 A 
ATOM      4  C5  UNL d   1       0.052  -3.381   1.208  0.00  0.00    -0.004 A 
ATOM      5  C6  UNL d   1      -1.129  -2.935   0.617  0.00  0.00     0.002 A 
ATOM      6  C7  UNL d   1      -1.297  -1.580   0.329  0.00  0.00     0.002 A 
ENDROOT
BRANCH   1   7
ATOM      7  C1  UNL d   1      -0.448   0.796   0.275  0.00  0.00     0.055 C 
ATOM      8  C   UNL d   1      -0.056   1.058  -1.172  0.00  0.00     0.019 C 
ENDBRANCH   1   7
TORSDOF 1
ENDMDL
