MODEL 1
REMARK minimizedAffinity -5.76526165
REMARK minimizedRMSD -1
REMARK  1 active torsions:
REMARK  status: ('A' for Active; 'I' for Inactive)
REMARK    1  A    between atoms: C1_2  and  C2_3 
ROOT
ATOM      1  C2  UNL d   1      -0.064  -0.870   0.199  0.00  0.00    -0.077 A 
ATOM      2  C3  UNL d   1       0.389  -0.843  -1.128  0.00  0.00     0.002 A 
ATOM      3  C4  UNL d   1       0.502  -2.027  -1.859  0.00  0.00     0.002 A 
ATOM      4  C5  UNL d   1       0.160  -3.244  -1.275  0.00  0.00    -0.004 A 
ATOM      5  C6  UNL d   1      -0.290  -3.282   0.044  0.00  0.00     0.002 A 
ATOM      6  C7  UNL d   1      -0.402  -2.100   0.777  0.00  0.00     0.002 A 
ENDROOT
BRANCH   1   7
ATOM      7  C1  UNL d   1      -0.233   0.411   0.974  0.00  0.00     0.055 C 
ATOM      8  C   UNL d   1       0.205   1.616   0.154  0.00  0.00     0.019 C 
ENDBRANCH   1   7
TORSDOF 1
ENDMDL
