MODEL 1
REMARK minimizedAffinity -5.31877422
REMARK minimizedRMSD -1
REMARK  1 active torsions:
REMARK  status: ('A' for Active; 'I' for Inactive)
REMARK    1  A    between atoms: C1_2  and  C2_3 
ROOT
ATOM      1  C2  UNL d   1       0.010  -2.076  -0.685  0.00  0.00    -0.077 A 
ATOM      2  C3  UNL d   1      -0.269  -2.671   0.553  0.00  0.00     0.002 A 
ATOM      3  C4  UNL d   1      -0.517  -1.881   1.677  0.00  0.00     0.002 A 
ATOM      4  C5  UNL d   1      -0.493  -0.492   1.573  0.00  0.00    -0.004 A 
ATOM      5  C6  UNL d   1      -0.214   0.110   0.347  0.00  0.00     0.002 A 
ATOM      6  C7  UNL d   1       0.036  -0.678  -0.777  0.00  0.00     0.002 A 
ENDROOT
BRANCH   1   7
ATOM      7  C1  UNL d   1       0.230  -2.926  -1.909  0.00  0.00     0.055 C 
ATOM      8  C   UNL d   1       0.401  -2.069  -3.155  0.00  0.00     0.019 C 
ENDBRANCH   1   7
TORSDOF 1
ENDMDL
