MODEL 1
REMARK minimizedAffinity -4.24488211
REMARK minimizedRMSD -1
REMARK  1 active torsions:
REMARK  status: ('A' for Active; 'I' for Inactive)
REMARK    1  A    between atoms: C1_2  and  C2_3 
ROOT
ATOM      1  C2  UNL d   1      -0.406  -2.202  -0.724  0.00  0.00    -0.077 A 
ATOM      2  C3  UNL d   1      -1.078  -2.710   0.397  0.00  0.00     0.002 A 
ATOM      3  C4  UNL d   1      -1.232  -1.927   1.543  0.00  0.00     0.002 A 
ATOM      4  C5  UNL d   1      -0.721  -0.631   1.577  0.00  0.00    -0.004 A 
ATOM      5  C6  UNL d   1      -0.050  -0.118   0.468  0.00  0.00     0.002 A 
ATOM      6  C7  UNL d   1       0.106  -0.899  -0.678  0.00  0.00     0.002 A 
ENDROOT
BRANCH   1   7
ATOM      7  C1  UNL d   1      -0.282  -3.027  -1.978  0.00  0.00     0.055 C 
ATOM      8  C   UNL d   1       0.411  -2.249  -3.087  0.00  0.00     0.019 C 
ENDBRANCH   1   7
TORSDOF 1
ENDMDL
