MODEL 1
REMARK minimizedAffinity -3.94017482
REMARK minimizedRMSD -1
REMARK  1 active torsions:
REMARK  status: ('A' for Active; 'I' for Inactive)
REMARK    1  A    between atoms: C1_2  and  C2_3 
ROOT
ATOM      1  C2  UNL d   1       0.144   1.470   0.212  0.00  0.00    -0.077 A 
ATOM      2  C3  UNL d   1       0.003   0.835  -1.029  0.00  0.00     0.002 A 
ATOM      3  C4  UNL d   1      -0.550  -0.445  -1.109  0.00  0.00     0.002 A 
ATOM      4  C5  UNL d   1      -0.970  -1.098   0.048  0.00  0.00    -0.004 A 
ATOM      5  C6  UNL d   1      -0.833  -0.475   1.288  0.00  0.00     0.002 A 
ATOM      6  C7  UNL d   1      -0.279   0.804   1.369  0.00  0.00     0.002 A 
ENDROOT
BRANCH   1   7
ATOM      7  C1  UNL d   1       0.694   2.870   0.296  0.00  0.00     0.055 C 
ATOM      8  C   UNL d   1       2.197   2.888   0.060  0.00  0.00     0.019 C 
ENDBRANCH   1   7
TORSDOF 1
ENDMDL
