MODEL 1
REMARK minimizedAffinity -5.36577845
REMARK minimizedRMSD -1
REMARK  1 active torsions:
REMARK  status: ('A' for Active; 'I' for Inactive)
REMARK    1  A    between atoms: C1_2  and  C2_3 
ROOT
ATOM      1  C2  UNL d   1      -0.151  -1.917  -0.702  0.00  0.00    -0.077 A 
ATOM      2  C3  UNL d   1      -0.585  -2.292   0.578  0.00  0.00     0.002 A 
ATOM      3  C4  UNL d   1      -0.872  -1.320   1.538  0.00  0.00     0.002 A 
ATOM      4  C5  UNL d   1      -0.733   0.031   1.228  0.00  0.00    -0.004 A 
ATOM      5  C6  UNL d   1      -0.299   0.413  -0.041  0.00  0.00     0.002 A 
ATOM      6  C7  UNL d   1      -0.011  -0.556  -1.002  0.00  0.00     0.002 A 
ENDROOT
BRANCH   1   7
ATOM      7  C1  UNL d   1       0.112  -2.962  -1.755  0.00  0.00     0.055 C 
ATOM      8  C   UNL d   1       0.330  -2.329  -3.121  0.00  0.00     0.019 C 
ENDBRANCH   1   7
TORSDOF 1
ENDMDL
