MODEL 1
REMARK minimizedAffinity -6.29132891
REMARK minimizedRMSD -1
REMARK  1 active torsions:
REMARK  status: ('A' for Active; 'I' for Inactive)
REMARK    1  A    between atoms: C1_2  and  C2_3 
ROOT
ATOM      1  C2  UNL d   1       0.542  -0.931  -0.953  0.00  0.00    -0.077 A 
ATOM      2  C3  UNL d   1       0.280  -1.852   0.071  0.00  0.00     0.002 A 
ATOM      3  C4  UNL d   1       0.005  -3.186  -0.233  0.00  0.00     0.002 A 
ATOM      4  C5  UNL d   1      -0.006  -3.613  -1.560  0.00  0.00    -0.004 A 
ATOM      5  C6  UNL d   1       0.251  -2.704  -2.585  0.00  0.00     0.002 A 
ATOM      6  C7  UNL d   1       0.525  -1.369  -2.283  0.00  0.00     0.002 A 
ENDROOT
BRANCH   1   7
ATOM      7  C1  UNL d   1       0.887   0.498  -0.625  0.00  0.00     0.055 C 
ATOM      8  C   UNL d   1      -0.251   1.187   0.115  0.00  0.00     0.019 C 
ENDBRANCH   1   7
TORSDOF 1
ENDMDL
