MODEL 1
REMARK minimizedAffinity -4.48763275
REMARK minimizedRMSD -1
REMARK  1 active torsions:
REMARK  status: ('A' for Active; 'I' for Inactive)
REMARK    1  A    between atoms: C1_2  and  C2_3 
ROOT
ATOM      1  C2  UNL d   1      -0.194  -0.856  -0.132  0.00  0.00    -0.077 A 
ATOM      2  C3  UNL d   1       0.757  -1.625  -0.816  0.00  0.00     0.002 A 
ATOM      3  C4  UNL d   1       0.651  -3.017  -0.846  0.00  0.00     0.002 A 
ATOM      4  C5  UNL d   1      -0.407  -3.651  -0.199  0.00  0.00    -0.004 A 
ATOM      5  C6  UNL d   1      -1.358  -2.895   0.486  0.00  0.00     0.002 A 
ATOM      6  C7  UNL d   1      -1.253  -1.503   0.519  0.00  0.00     0.002 A 
ENDROOT
BRANCH   1   7
ATOM      7  C1  UNL d   1      -0.109   0.648  -0.139  0.00  0.00     0.055 C 
ATOM      8  C   UNL d   1      -0.407   1.213  -1.520  0.00  0.00     0.019 C 
ENDBRANCH   1   7
TORSDOF 1
ENDMDL
