MODEL 1
REMARK minimizedAffinity -0.995463669
REMARK minimizedRMSD -1
REMARK  1 active torsions:
REMARK  status: ('A' for Active; 'I' for Inactive)
REMARK    1  A    between atoms: C1_2  and  C2_3 
ROOT
ATOM      1  C2  UNL d   1       0.429   1.424   0.108  0.00  0.00    -0.077 A 
ATOM      2  C3  UNL d   1      -0.268   0.951  -1.012  0.00  0.00     0.002 A 
ATOM      3  C4  UNL d   1      -0.806  -0.337  -1.018  0.00  0.00     0.002 A 
ATOM      4  C5  UNL d   1      -0.656  -1.161   0.096  0.00  0.00    -0.004 A 
ATOM      5  C6  UNL d   1       0.037  -0.701   1.215  0.00  0.00     0.002 A 
ATOM      6  C7  UNL d   1       0.577   0.586   1.221  0.00  0.00     0.002 A 
ENDROOT
BRANCH   1   7
ATOM      7  C1  UNL d   1       0.967   2.831   0.135  0.00  0.00     0.055 C 
ATOM      8  C   UNL d   1       2.336   2.887   0.798  0.00  0.00     0.019 C 
ENDBRANCH   1   7
TORSDOF 1
ENDMDL
