MODEL 1
REMARK minimizedAffinity 12.6573887
REMARK minimizedRMSD -1
REMARK  1 active torsions:
REMARK  status: ('A' for Active; 'I' for Inactive)
REMARK    1  A    between atoms: C1_2  and  C2_3 
ROOT
ATOM      1  C2  UNL d   1       2.641  -2.437   3.430  0.00  0.00    -0.076 A 
ATOM      2  C3  UNL d   1       3.046  -1.485   2.477  0.00  0.00     0.004 A 
ATOM      3  C4  UNL d   1       2.117  -0.864   1.644  0.00  0.00    -0.003 A 
ATOM      4  C5  UNL d   1       0.768  -1.184   1.750  0.00  0.00     0.000 A 
ATOM      5  C6  UNL d   1       0.347  -2.113   2.701  0.00  0.00     0.000 A 
ATOM      6  C7  UNL d   1       1.268  -2.736   3.560  0.00  0.00    -0.073 A 
ATOM      7  C8  UNL d   1       0.759  -3.734   4.564  0.00  0.00     0.078 C 
ENDROOT
BRANCH   1   8
ATOM      8  C1  UNL d   1       3.697  -3.097   4.287  0.00  0.00     0.053 C 
ATOM      9  C   UNL d   1       5.108  -2.819   3.792  0.00  0.00     0.018 C 
ENDBRANCH   1   8
TORSDOF 1
ENDMDL
