MODEL 1
REMARK minimizedAffinity 5.9246273
REMARK minimizedRMSD -1
REMARK  1 active torsions:
REMARK  status: ('A' for Active; 'I' for Inactive)
REMARK    1  A    between atoms: C1_2  and  C2_3 
ROOT
ATOM      1  C2  UNL d   1      -3.659   1.032  -3.205  0.00  0.00    -0.076 A 
ATOM      2  C3  UNL d   1      -3.185   0.703  -1.924  0.00  0.00     0.004 A 
ATOM      3  C4  UNL d   1      -3.016   1.684  -0.948  0.00  0.00    -0.003 A 
ATOM      4  C5  UNL d   1      -3.318   3.009  -1.238  0.00  0.00     0.000 A 
ATOM      5  C6  UNL d   1      -3.807   3.351  -2.499  0.00  0.00     0.000 A 
ATOM      6  C7  UNL d   1      -3.999   2.372  -3.489  0.00  0.00    -0.073 A 
ATOM      7  C8  UNL d   1      -4.522   2.797  -4.833  0.00  0.00     0.078 C 
ENDROOT
BRANCH   1   8
ATOM      8  C1  UNL d   1      -3.797  -0.071  -4.231  0.00  0.00     0.053 C 
ATOM      9  C   UNL d   1      -4.646  -1.229  -3.731  0.00  0.00     0.018 C 
ENDBRANCH   1   8
TORSDOF 1
ENDMDL
