MODEL 1
REMARK minimizedAffinity 2.41249919
REMARK minimizedRMSD -1
REMARK  1 active torsions:
REMARK  status: ('A' for Active; 'I' for Inactive)
REMARK    1  A    between atoms: C1_2  and  C2_3 
ROOT
ATOM      1  C2  UNL d   1       4.300  -5.723  -3.340  0.00  0.00    -0.076 A 
ATOM      2  C3  UNL d   1       4.436  -5.811  -1.943  0.00  0.00     0.004 A 
ATOM      3  C4  UNL d   1       3.319  -5.941  -1.120  0.00  0.00    -0.003 A 
ATOM      4  C5  UNL d   1       2.047  -5.985  -1.681  0.00  0.00     0.000 A 
ATOM      5  C6  UNL d   1       1.895  -5.917  -3.065  0.00  0.00     0.000 A 
ATOM      6  C7  UNL d   1       3.012  -5.802  -3.910  0.00  0.00    -0.073 A 
ATOM      7  C8  UNL d   1       2.789  -5.727  -5.395  0.00  0.00     0.078 C 
ENDROOT
BRANCH   1   8
ATOM      8  C1  UNL d   1       5.546  -5.556  -4.180  0.00  0.00     0.053 C 
ATOM      9  C   UNL d   1       5.336  -5.979  -5.625  0.00  0.00     0.018 C 
ENDBRANCH   1   8
TORSDOF 1
ENDMDL
