MODEL 1
REMARK minimizedAffinity 11.6821337
REMARK minimizedRMSD -1
REMARK  1 active torsions:
REMARK  status: ('A' for Active; 'I' for Inactive)
REMARK    1  A    between atoms: C1_2  and  C2_3 
ROOT
ATOM      1  C2  UNL d   1       0.576  -0.446   1.228  0.00  0.00    -0.076 A 
ATOM      2  C3  UNL d   1       0.171  -1.716   1.674  0.00  0.00     0.004 A 
ATOM      3  C4  UNL d   1       0.964  -2.456   2.549  0.00  0.00    -0.003 A 
ATOM      4  C5  UNL d   1       2.176  -1.937   2.993  0.00  0.00     0.000 A 
ATOM      5  C6  UNL d   1       2.585  -0.672   2.574  0.00  0.00     0.000 A 
ATOM      6  C7  UNL d   1       1.790   0.094   1.705  0.00  0.00    -0.073 A 
ATOM      7  C8  UNL d   1       2.283   1.450   1.280  0.00  0.00     0.078 C 
ENDROOT
BRANCH   1   8
ATOM      8  C1  UNL d   1      -0.313   0.298   0.257  0.00  0.00     0.053 C 
ATOM      9  C   UNL d   1      -1.730   0.473   0.782  0.00  0.00     0.018 C 
ENDBRANCH   1   8
TORSDOF 1
ENDMDL
