MODEL 1
REMARK minimizedAffinity 6.53731346
REMARK minimizedRMSD -1
REMARK  1 active torsions:
REMARK  status: ('A' for Active; 'I' for Inactive)
REMARK    1  A    between atoms: C1_2  and  C2_3 
ROOT
ATOM      1  C2  UNL d   1       3.700  -4.827   2.990  0.00  0.00    -0.076 A 
ATOM      2  C3  UNL d   1       4.992  -4.766   2.440  0.00  0.00     0.004 A 
ATOM      3  C4  UNL d   1       6.000  -4.025   3.055  0.00  0.00    -0.003 A 
ATOM      4  C5  UNL d   1       5.731  -3.333   4.231  0.00  0.00     0.000 A 
ATOM      5  C6  UNL d   1       4.460  -3.396   4.800  0.00  0.00     0.000 A 
ATOM      6  C7  UNL d   1       3.437  -4.152   4.201  0.00  0.00    -0.073 A 
ATOM      7  C8  UNL d   1       2.083  -4.180   4.855  0.00  0.00     0.078 C 
ENDROOT
BRANCH   1   8
ATOM      8  C1  UNL d   1       2.641  -5.624   2.263  0.00  0.00     0.053 C 
ATOM      9  C   UNL d   1       3.061  -6.000   0.850  0.00  0.00     0.018 C 
ENDBRANCH   1   8
TORSDOF 1
ENDMDL
