MODEL 1
REMARK minimizedAffinity 2.78976679
REMARK minimizedRMSD -1
REMARK  1 active torsions:
REMARK  status: ('A' for Active; 'I' for Inactive)
REMARK    1  A    between atoms: C1_2  and  C2_3 
ROOT
ATOM      1  C2  UNL d   1       3.341  -3.226   4.044  0.00  0.00    -0.076 A 
ATOM      2  C3  UNL d   1       4.418  -2.619   3.374  0.00  0.00     0.004 A 
ATOM      3  C4  UNL d   1       5.736  -2.927   3.707  0.00  0.00    -0.003 A 
ATOM      4  C5  UNL d   1       5.999  -3.847   4.716  0.00  0.00     0.000 A 
ATOM      5  C6  UNL d   1       4.943  -4.472   5.380  0.00  0.00     0.000 A 
ATOM      6  C7  UNL d   1       3.609  -4.185   5.045  0.00  0.00    -0.073 A 
ATOM      7  C8  UNL d   1       2.510  -4.884   5.797  0.00  0.00     0.078 C 
ENDROOT
BRANCH   1   8
ATOM      8  C1  UNL d   1       1.933  -2.833   3.658  0.00  0.00     0.053 C 
ATOM      9  C   UNL d   1       1.892  -1.570   2.812  0.00  0.00     0.018 C 
ENDBRANCH   1   8
TORSDOF 1
ENDMDL
