MODEL 1
REMARK minimizedAffinity 3.43875265
REMARK minimizedRMSD -1
REMARK  1 active torsions:
REMARK  status: ('A' for Active; 'I' for Inactive)
REMARK    1  A    between atoms: C1_2  and  C2_3 
ROOT
ATOM      1  C2  UNL d   1       3.589  -2.792   3.601  0.00  0.00    -0.076 A 
ATOM      2  C3  UNL d   1       3.485  -1.818   2.594  0.00  0.00     0.004 A 
ATOM      3  C4  UNL d   1       2.247  -1.294   2.227  0.00  0.00    -0.003 A 
ATOM      4  C5  UNL d   1       1.091  -1.736   2.863  0.00  0.00     0.000 A 
ATOM      5  C6  UNL d   1       1.177  -2.689   3.877  0.00  0.00     0.000 A 
ATOM      6  C7  UNL d   1       2.420  -3.216   4.270  0.00  0.00    -0.073 A 
ATOM      7  C8  UNL d   1       2.453  -4.246   5.365  0.00  0.00     0.078 C 
ENDROOT
BRANCH   1   8
ATOM      8  C1  UNL d   1       4.956  -3.344   3.938  0.00  0.00     0.053 C 
ATOM      9  C   UNL d   1       6.000  -2.992   2.889  0.00  0.00     0.018 C 
ENDBRANCH   1   8
TORSDOF 1
ENDMDL
