MODEL 1
REMARK minimizedAffinity 12.023139
REMARK minimizedRMSD -1
REMARK  0 active torsions:
REMARK  status: ('A' for Active; 'I' for Inactive)
ROOT
ATOM      1  C4' PXY d   1      -4.161  -2.165  -4.159  0.00  0.00     0.077 C 
ATOM      2  C1' PXY d   1      -3.921   2.593  -0.886  0.00  0.00     0.077 C 
ATOM      3  C1  PXY d   1      -3.988   1.339  -1.734  0.00  0.00    -0.082 A 
ATOM      4  C2  PXY d   1      -3.263   1.256  -2.838  0.00  0.00     0.003 A 
ATOM      5  C3  PXY d   1      -3.336   0.141  -3.633  0.00  0.00     0.003 A 
ATOM      6  C4  PXY d   1      -4.118  -0.921  -3.267  0.00  0.00    -0.082 A 
ATOM      7  C5  PXY d   1      -4.852  -0.849  -2.137  0.00  0.00     0.003 A 
ATOM      8  C6  PXY d   1      -4.796   0.308  -1.365  0.00  0.00     0.003 A 
ENDROOT
TORSDOF 0
ENDMDL
