MODEL 1
REMARK minimizedAffinity -0.331892878
REMARK minimizedRMSD -1
REMARK  0 active torsions:
REMARK  status: ('A' for Active; 'I' for Inactive)
ROOT
ATOM      1  C4' PXY d   1       2.965   3.789  -1.598  0.00  0.00     0.077 C 
ATOM      2  C1' PXY d   1       5.996   5.996  -5.998  0.00  0.00     0.077 C 
ATOM      3  C1  PXY d   1       5.191   5.417  -4.852  0.00  0.00    -0.082 A 
ATOM      4  C2  PXY d   1       5.555   5.667  -3.604  0.00  0.00     0.003 A 
ATOM      5  C3  PXY d   1       4.856   5.124  -2.556  0.00  0.00     0.003 A 
ATOM      6  C4  PXY d   1       3.743   4.361  -2.786  0.00  0.00    -0.082 A 
ATOM      7  C5  PXY d   1       3.359   4.111  -4.056  0.00  0.00     0.003 A 
ATOM      8  C6  PXY d   1       4.105   4.637  -5.107  0.00  0.00     0.003 A 
ENDROOT
TORSDOF 0
ENDMDL
