MODEL 1
REMARK minimizedAffinity -2.44990611
REMARK minimizedRMSD -1
REMARK  0 active torsions:
REMARK  status: ('A' for Active; 'I' for Inactive)
ROOT
ATOM      1  C4' PXY d   1       2.899   3.996  -1.544  0.00  0.00     0.077 C 
ATOM      2  C1' PXY d   1       5.994   5.999  -5.996  0.00  0.00     0.077 C 
ATOM      3  C1  PXY d   1       5.192   5.478  -4.820  0.00  0.00    -0.082 A 
ATOM      4  C2  PXY d   1       4.295   4.525  -5.012  0.00  0.00     0.003 A 
ATOM      5  C3  PXY d   1       3.538   4.064  -3.966  0.00  0.00     0.003 A 
ATOM      6  C4  PXY d   1       3.739   4.546  -2.700  0.00  0.00    -0.082 A 
ATOM      7  C5  PXY d   1       4.660   5.511  -2.495  0.00  0.00     0.003 A 
ATOM      8  C6  PXY d   1       5.389   5.995  -3.577  0.00  0.00     0.003 A 
ENDROOT
TORSDOF 0
ENDMDL
