MODEL 1
REMARK minimizedAffinity 16.4765034
REMARK minimizedRMSD -1
REMARK  0 active torsions:
REMARK  status: ('A' for Active; 'I' for Inactive)
ROOT
ATOM      1  C4' PXY d   1      -0.267  -2.988   4.718  0.00  0.00     0.077 C 
ATOM      2  C1' PXY d   1       2.275  -0.859  -0.017  0.00  0.00     0.077 C 
ATOM      3  C1  PXY d   1       1.607  -1.405   1.230  0.00  0.00    -0.082 A 
ATOM      4  C2  PXY d   1       1.829  -2.657   1.596  0.00  0.00     0.003 A 
ATOM      5  C3  PXY d   1       1.208  -3.177   2.702  0.00  0.00     0.003 A 
ATOM      6  C4  PXY d   1       0.393  -2.391   3.472  0.00  0.00    -0.082 A 
ATOM      7  C5  PXY d   1       0.170  -1.110   3.112  0.00  0.00     0.003 A 
ATOM      8  C6  PXY d   1       0.778  -0.613   1.962  0.00  0.00     0.003 A 
ENDROOT
TORSDOF 0
ENDMDL
