MODEL 1
REMARK minimizedAffinity 17.2148495
REMARK minimizedRMSD -1
REMARK  0 active torsions:
REMARK  status: ('A' for Active; 'I' for Inactive)
ROOT
ATOM      1  C4' PXY d   1       0.588  -1.900   4.335  0.00  0.00     0.077 C 
ATOM      2  C1' PXY d   1       3.642  -0.261  -0.292  0.00  0.00     0.077 C 
ATOM      3  C1  PXY d   1       2.838  -0.678   0.923  0.00  0.00    -0.082 A 
ATOM      4  C2  PXY d   1       3.125  -1.814   1.539  0.00  0.00     0.003 A 
ATOM      5  C3  PXY d   1       2.387  -2.222   2.621  0.00  0.00     0.003 A 
ATOM      6  C4  PXY d   1       1.380  -1.434   3.109  0.00  0.00    -0.082 A 
ATOM      7  C5  PXY d   1       1.088  -0.269   2.493  0.00  0.00     0.003 A 
ATOM      8  C6  PXY d   1       1.821   0.107   1.372  0.00  0.00     0.003 A 
ENDROOT
TORSDOF 0
ENDMDL
