MODEL 1
REMARK minimizedAffinity 13.780509
REMARK minimizedRMSD -1
REMARK  0 active torsions:
REMARK  status: ('A' for Active; 'I' for Inactive)
ROOT
ATOM      1  C4' PXY d   1       1.689   0.101   1.260  0.00  0.00     0.077 C 
ATOM      2  C1' PXY d   1      -0.267  -3.288   5.515  0.00  0.00     0.077 C 
ATOM      3  C1  PXY d   1       0.256  -2.407   4.397  0.00  0.00    -0.082 A 
ATOM      4  C2  PXY d   1      -0.057  -1.122   4.376  0.00  0.00     0.003 A 
ATOM      5  C3  PXY d   1       0.381  -0.318   3.355  0.00  0.00     0.003 A 
ATOM      6  C4  PXY d   1       1.191  -0.823   2.374  0.00  0.00    -0.082 A 
ATOM      7  C5  PXY d   1       1.524  -2.132   2.394  0.00  0.00     0.003 A 
ATOM      8  C6  PXY d   1       1.036  -2.940   3.417  0.00  0.00     0.003 A 
ENDROOT
TORSDOF 0
ENDMDL
