MODEL 1
REMARK minimizedAffinity 10.0659094
REMARK minimizedRMSD -1
REMARK  0 active torsions:
REMARK  status: ('A' for Active; 'I' for Inactive)
ROOT
ATOM      1  C4' PXY d   1       0.295  -3.935   5.166  0.00  0.00     0.077 C 
ATOM      2  C1' PXY d   1       2.576  -0.422   1.182  0.00  0.00     0.077 C 
ATOM      3  C1  PXY d   1       1.983  -1.336   2.237  0.00  0.00    -0.082 A 
ATOM      4  C2  PXY d   1       1.708  -2.594   1.932  0.00  0.00     0.003 A 
ATOM      5  C3  PXY d   1       1.142  -3.425   2.864  0.00  0.00     0.003 A 
ATOM      6  C4  PXY d   1       0.903  -2.979   4.136  0.00  0.00    -0.082 A 
ATOM      7  C5  PXY d   1       1.190  -1.700   4.458  0.00  0.00     0.003 A 
ATOM      8  C6  PXY d   1       1.726  -0.860   3.486  0.00  0.00     0.003 A 
ENDROOT
TORSDOF 0
ENDMDL
