MODEL 1
REMARK minimizedAffinity 1.45395339
REMARK minimizedRMSD -1
REMARK  0 active torsions:
REMARK  status: ('A' for Active; 'I' for Inactive)
ROOT
ATOM      1  C4' PXY d   1       3.154   4.054  -1.326  0.00  0.00     0.077 C 
ATOM      2  C1' PXY d   1       6.000   5.947  -5.988  0.00  0.00     0.077 C 
ATOM      3  C1  PXY d   1       5.263   5.455  -4.758  0.00  0.00    -0.082 A 
ATOM      4  C2  PXY d   1       4.356   4.499  -4.877  0.00  0.00     0.003 A 
ATOM      5  C3  PXY d   1       3.658   4.064  -3.780  0.00  0.00     0.003 A 
ATOM      6  C4  PXY d   1       3.929   4.575  -2.539  0.00  0.00    -0.082 A 
ATOM      7  C5  PXY d   1       4.860   5.543  -2.408  0.00  0.00     0.003 A 
ATOM      8  C6  PXY d   1       5.529   6.000  -3.540  0.00  0.00     0.003 A 
ENDROOT
TORSDOF 0
ENDMDL
