MODEL 1
REMARK minimizedAffinity -3.6146524
REMARK minimizedRMSD -1
REMARK  0 active torsions:
REMARK  status: ('A' for Active; 'I' for Inactive)
ROOT
ATOM      1  C1  BNZ d   1      -1.356   1.676   0.587  0.00  0.00     0.000 A 
ATOM      2  C2  BNZ d   1      -0.612   0.711  -0.038  0.00  0.00     0.000 A 
ATOM      3  C3  BNZ d   1       0.452   0.130   0.594  0.00  0.00     0.000 A 
ATOM      4  C4  BNZ d   1       0.795   0.542   1.831  0.00  0.00     0.000 A 
ATOM      5  C5  BNZ d   1       0.061   1.521   2.470  0.00  0.00     0.000 A 
ATOM      6  C6  BNZ d   1      -1.033   2.076   1.847  0.00  0.00     0.000 A 
ENDROOT
TORSDOF 0
ENDMDL
