MODEL 1
REMARK minimizedAffinity -4.5363431
REMARK minimizedRMSD -1
REMARK  0 active torsions:
REMARK  status: ('A' for Active; 'I' for Inactive)
ROOT
ATOM      1  C1  BNZ d   1       0.731   3.781   1.902  0.00  0.00     0.000 A 
ATOM      2  C2  BNZ d   1       0.645   2.510   2.405  0.00  0.00     0.000 A 
ATOM      3  C3  BNZ d   1      -0.170   1.580   1.822  0.00  0.00     0.000 A 
ATOM      4  C4  BNZ d   1      -0.928   1.933   0.764  0.00  0.00     0.000 A 
ATOM      5  C5  BNZ d   1      -0.860   3.213   0.251  0.00  0.00     0.000 A 
ATOM      6  C6  BNZ d   1      -0.009   4.135   0.816  0.00  0.00     0.000 A 
ENDROOT
TORSDOF 0
ENDMDL
