MODEL 1
REMARK minimizedAffinity -3.49385786
REMARK minimizedRMSD -1
REMARK  0 active torsions:
REMARK  status: ('A' for Active; 'I' for Inactive)
ROOT
ATOM      1  C1  BNZ d   1       1.012  -0.839   0.200  0.00  0.00     0.000 A 
ATOM      2  C2  BNZ d   1       1.101  -0.460   1.513  0.00  0.00     0.000 A 
ATOM      3  C3  BNZ d   1       0.273   0.502   2.020  0.00  0.00     0.000 A 
ATOM      4  C4  BNZ d   1      -0.614   1.111   1.207  0.00  0.00     0.000 A 
ATOM      5  C5  BNZ d   1      -0.709   0.746  -0.122  0.00  0.00     0.000 A 
ATOM      6  C6  BNZ d   1       0.100  -0.250  -0.620  0.00  0.00     0.000 A 
ENDROOT
TORSDOF 0
ENDMDL
