MODEL 1
REMARK minimizedAffinity -4.1295495
REMARK minimizedRMSD -1
REMARK  0 active torsions:
REMARK  status: ('A' for Active; 'I' for Inactive)
ROOT
ATOM      1  C1  BNZ d   1      -0.515   1.904   2.122  0.00  0.00     0.000 A 
ATOM      2  C2  BNZ d   1       0.632   1.650   2.824  0.00  0.00     0.000 A 
ATOM      3  C3  BNZ d   1       1.699   2.502   2.755  0.00  0.00     0.000 A 
ATOM      4  C4  BNZ d   1       1.632   3.585   1.954  0.00  0.00     0.000 A 
ATOM      5  C5  BNZ d   1       0.485   3.850   1.232  0.00  0.00     0.000 A 
ATOM      6  C6  BNZ d   1      -0.601   3.011   1.335  0.00  0.00     0.000 A 
ENDROOT
TORSDOF 0
ENDMDL
