MODEL 1
REMARK minimizedAffinity -3.35203147
REMARK minimizedRMSD -1
REMARK  0 active torsions:
REMARK  status: ('A' for Active; 'I' for Inactive)
ROOT
ATOM      1  C1  BNZ d   1       0.682  -0.046   0.394  0.00  0.00     0.000 A 
ATOM      2  C2  BNZ d   1      -0.028   1.086   0.696  0.00  0.00     0.000 A 
ATOM      3  C3  BNZ d   1      -0.346   1.388   1.990  0.00  0.00     0.000 A 
ATOM      4  C4  BNZ d   1       0.012   0.540   2.976  0.00  0.00     0.000 A 
ATOM      5  C5  BNZ d   1       0.721  -0.609   2.687  0.00  0.00     0.000 A 
ATOM      6  C6  BNZ d   1       1.072  -0.890   1.387  0.00  0.00     0.000 A 
ENDROOT
TORSDOF 0
ENDMDL
