MODEL 1
REMARK minimizedAffinity -4.0637393
REMARK minimizedRMSD -1
REMARK  0 active torsions:
REMARK  status: ('A' for Active; 'I' for Inactive)
ROOT
ATOM      1  C1  BNZ d   1       0.304   0.610   1.577  0.00  0.00     0.000 A 
ATOM      2  C2  BNZ d   1      -0.583   1.642   1.728  0.00  0.00     0.000 A 
ATOM      3  C3  BNZ d   1      -1.319   2.094   0.669  0.00  0.00     0.000 A 
ATOM      4  C4  BNZ d   1      -1.137   1.541  -0.548  0.00  0.00     0.000 A 
ATOM      5  C5  BNZ d   1      -0.240   0.506  -0.719  0.00  0.00     0.000 A 
ATOM      6  C6  BNZ d   1       0.470   0.028   0.358  0.00  0.00     0.000 A 
ENDROOT
TORSDOF 0
ENDMDL
