MODEL 1
REMARK minimizedAffinity -2.25325799
REMARK minimizedRMSD -1
REMARK  0 active torsions:
REMARK  status: ('A' for Active; 'I' for Inactive)
ROOT
ATOM      1  C1  BNZ d   1      -1.427   1.591   0.102  0.00  0.00     0.000 A 
ATOM      2  C2  BNZ d   1      -1.267   2.097   1.364  0.00  0.00     0.000 A 
ATOM      3  C3  BNZ d   1      -0.316   1.592   2.206  0.00  0.00     0.000 A 
ATOM      4  C4  BNZ d   1       0.447   0.557   1.799  0.00  0.00     0.000 A 
ATOM      5  C5  BNZ d   1       0.292   0.029   0.533  0.00  0.00     0.000 A 
ATOM      6  C6  BNZ d   1      -0.640   0.566  -0.325  0.00  0.00     0.000 A 
ENDROOT
TORSDOF 0
ENDMDL
