MODEL 1
REMARK minimizedAffinity -3.78418756
REMARK minimizedRMSD -1
REMARK  0 active torsions:
REMARK  status: ('A' for Active; 'I' for Inactive)
ROOT
ATOM      1  C1  BNZ d   1       0.521  -0.007   0.001  0.00  0.00     0.000 A 
ATOM      2  C2  BNZ d   1       0.057   0.486  -1.189  0.00  0.00     0.000 A 
ATOM      3  C3  BNZ d   1      -0.914   1.447  -1.217  0.00  0.00     0.000 A 
ATOM      4  C4  BNZ d   1      -1.447   1.885  -0.058  0.00  0.00     0.000 A 
ATOM      5  C5  BNZ d   1      -0.996   1.392   1.149  0.00  0.00     0.000 A 
ATOM      6  C6  BNZ d   1       0.009   0.452   1.175  0.00  0.00     0.000 A 
ENDROOT
TORSDOF 0
ENDMDL
