MODEL 1
REMARK minimizedAffinity -3.14121056
REMARK minimizedRMSD -1
REMARK  2 active torsions:
REMARK  status: ('A' for Active; 'I' for Inactive)
REMARK    1  A    between atoms: C2'_3  and  C1'_4 
REMARK    2  A    between atoms: C1'_4  and  C1_5 
ROOT
ATOM      1  C1  I4B d   1       0.353   0.082  -0.229  0.00  0.00    -0.075 A 
ATOM      2  C2  I4B d   1      -0.354   1.224  -0.511  0.00  0.00     0.003 A 
ATOM      3  C3  I4B d   1      -1.198   1.801   0.469  0.00  0.00     0.002 A 
ATOM      4  C4  I4B d   1      -1.343   1.179   1.692  0.00  0.00    -0.004 A 
ATOM      5  C5  I4B d   1      -0.607   0.034   1.984  0.00  0.00     0.002 A 
ATOM      6  C6  I4B d   1       0.255  -0.511   1.023  0.00  0.00     0.003 A 
ENDROOT
BRANCH   1   7
ATOM      7  C1' I4B d   1       1.210  -0.518  -1.298  0.00  0.00     0.060 C 
BRANCH   7   8
ATOM      8  C2' I4B d   1       0.481  -1.723  -1.858  0.00  0.00    -0.013 C 
ATOM      9  C4' I4B d   1       0.129  -1.521  -3.309  0.00  0.00     0.013 C 
ATOM     10  C3' I4B d   1       1.362  -2.923  -1.677  0.00  0.00     0.013 C 
ENDBRANCH   7   8
ENDBRANCH   1   7
TORSDOF 2
ENDMDL
