MODEL 1
REMARK minimizedAffinity -1.76278484
REMARK minimizedRMSD -1
REMARK  2 active torsions:
REMARK  status: ('A' for Active; 'I' for Inactive)
REMARK    1  A    between atoms: C2'_3  and  C1'_4 
REMARK    2  A    between atoms: C1'_4  and  C1_5 
ROOT
ATOM      1  C1  I4B d   1       0.351  -0.392  -0.785  0.00  0.00    -0.075 A 
ATOM      2  C2  I4B d   1       0.844   0.750  -1.364  0.00  0.00     0.003 A 
ATOM      3  C3  I4B d   1       0.127   1.967  -1.262  0.00  0.00     0.002 A 
ATOM      4  C4  I4B d   1      -1.094   1.985  -0.620  0.00  0.00    -0.004 A 
ATOM      5  C5  I4B d   1      -1.581   0.831  -0.014  0.00  0.00     0.002 A 
ATOM      6  C6  I4B d   1      -0.848  -0.363  -0.086  0.00  0.00     0.003 A 
ENDROOT
BRANCH   1   7
ATOM      7  C1' I4B d   1       1.118  -1.667  -0.941  0.00  0.00     0.060 C 
BRANCH   7   8
ATOM      8  C2' I4B d   1       0.265  -2.630  -1.742  0.00  0.00    -0.013 C 
ATOM      9  C4' I4B d   1       0.378  -2.359  -3.220  0.00  0.00     0.013 C 
ATOM     10  C3' I4B d   1       0.706  -4.025  -1.413  0.00  0.00     0.013 C 
ENDBRANCH   7   8
ENDBRANCH   1   7
TORSDOF 2
ENDMDL
