MODEL 1
REMARK minimizedAffinity -2.42319393
REMARK minimizedRMSD -1
REMARK  2 active torsions:
REMARK  status: ('A' for Active; 'I' for Inactive)
REMARK    1  A    between atoms: C2'_3  and  C1'_4 
REMARK    2  A    between atoms: C1'_4  and  C1_5 
ROOT
ATOM      1  C1  I4B d   1       0.453  -0.235   0.074  0.00  0.00    -0.075 A 
ATOM      2  C2  I4B d   1      -0.245   0.921  -0.172  0.00  0.00     0.003 A 
ATOM      3  C3  I4B d   1      -1.024   1.515   0.850  0.00  0.00     0.002 A 
ATOM      4  C4  I4B d   1      -1.118   0.896   2.079  0.00  0.00    -0.004 A 
ATOM      5  C5  I4B d   1      -0.391  -0.264   2.334  0.00  0.00     0.002 A 
ATOM      6  C6  I4B d   1       0.409  -0.826   1.330  0.00  0.00     0.003 A 
ENDROOT
BRANCH   1   7
ATOM      7  C1' I4B d   1       1.240  -0.852  -1.038  0.00  0.00     0.060 C 
BRANCH   7   8
ATOM      8  C2' I4B d   1       0.616  -2.195  -1.362  0.00  0.00    -0.013 C 
ATOM      9  C4' I4B d   1       0.114  -2.234  -2.781  0.00  0.00     0.013 C 
ATOM     10  C3' I4B d   1       1.650  -3.255  -1.124  0.00  0.00     0.013 C 
ENDBRANCH   7   8
ENDBRANCH   1   7
TORSDOF 2
ENDMDL
