MODEL 1
REMARK minimizedAffinity 1.59809589
REMARK minimizedRMSD -1
REMARK  2 active torsions:
REMARK  status: ('A' for Active; 'I' for Inactive)
REMARK    1  A    between atoms: C2'_3  and  C1'_4 
REMARK    2  A    between atoms: C1'_4  and  C1_5 
ROOT
ATOM      1  C1  I4B d   1       0.852  -2.039  -1.497  0.00  0.00    -0.075 A 
ATOM      2  C2  I4B d   1       1.787  -2.988  -1.166  0.00  0.00     0.003 A 
ATOM      3  C3  I4B d   1       1.666  -4.310  -1.658  0.00  0.00     0.002 A 
ATOM      4  C4  I4B d   1       0.575  -4.650  -2.431  0.00  0.00    -0.004 A 
ATOM      5  C5  I4B d   1      -0.360  -3.681  -2.784  0.00  0.00     0.002 A 
ATOM      6  C6  I4B d   1      -0.215  -2.364  -2.325  0.00  0.00     0.003 A 
ENDROOT
BRANCH   1   7
ATOM      7  C1' I4B d   1       0.993  -0.661  -0.932  0.00  0.00     0.060 C 
BRANCH   7   8
ATOM      8  C2' I4B d   1      -0.110  -0.458   0.086  0.00  0.00    -0.013 C 
ATOM      9  C4' I4B d   1       0.401  -0.655   1.489  0.00  0.00     0.013 C 
ATOM     10  C3' I4B d   1      -0.665   0.923  -0.100  0.00  0.00     0.013 C 
ENDBRANCH   7   8
ENDBRANCH   1   7
TORSDOF 2
ENDMDL
