MODEL 1
REMARK minimizedAffinity -4.91510105
REMARK minimizedRMSD -1
REMARK  2 active torsions:
REMARK  status: ('A' for Active; 'I' for Inactive)
REMARK    1  A    between atoms: C2'_3  and  C1'_4 
REMARK    2  A    between atoms: C1'_4  and  C1_5 
ROOT
ATOM      1  C1  I4B d   1       0.276  -0.184  -0.553  0.00  0.00    -0.075 A 
ATOM      2  C2  I4B d   1      -0.060   0.920  -1.296  0.00  0.00     0.003 A 
ATOM      3  C3  I4B d   1      -0.978   1.870  -0.786  0.00  0.00     0.002 A 
ATOM      4  C4  I4B d   1      -1.571   1.651   0.441  0.00  0.00    -0.004 A 
ATOM      5  C5  I4B d   1      -1.212   0.542   1.202  0.00  0.00     0.002 A 
ATOM      6  C6  I4B d   1      -0.273  -0.375   0.708  0.00  0.00     0.003 A 
ENDROOT
BRANCH   1   7
ATOM      7  C1' I4B d   1       1.224  -1.183  -1.137  0.00  0.00     0.060 C 
BRANCH   7   8
ATOM      8  C2' I4B d   1       0.435  -2.430  -1.480  0.00  0.00    -0.013 C 
ATOM      9  C4' I4B d   1      -0.183  -2.325  -2.850  0.00  0.00     0.013 C 
ATOM     10  C3' I4B d   1       1.364  -3.605  -1.394  0.00  0.00     0.013 C 
ENDBRANCH   7   8
ENDBRANCH   1   7
TORSDOF 2
ENDMDL
