MODEL 1
REMARK minimizedAffinity -4.22868729
REMARK minimizedRMSD -1
REMARK  2 active torsions:
REMARK  status: ('A' for Active; 'I' for Inactive)
REMARK    1  A    between atoms: C2'_3  and  C1'_4 
REMARK    2  A    between atoms: C1'_4  and  C1_5 
ROOT
ATOM      1  C1  I4B d   1      -0.132  -0.360  -0.253  0.00  0.00    -0.075 A 
ATOM      2  C2  I4B d   1      -0.859   0.701  -0.733  0.00  0.00     0.003 A 
ATOM      3  C3  I4B d   1      -1.659   1.473   0.144  0.00  0.00     0.002 A 
ATOM      4  C4  I4B d   1      -1.741   1.120   1.476  0.00  0.00    -0.004 A 
ATOM      5  C5  I4B d   1      -0.986   0.058   1.965  0.00  0.00     0.002 A 
ATOM      6  C6  I4B d   1      -0.167  -0.679   1.098  0.00  0.00     0.003 A 
ENDROOT
BRANCH   1   7
ATOM      7  C1' I4B d   1       0.676  -1.174  -1.214  0.00  0.00     0.060 C 
BRANCH   7   8
ATOM      8  C2' I4B d   1      -0.277  -2.054  -1.997  0.00  0.00    -0.013 C 
ATOM      9  C4' I4B d   1      -0.363  -1.620  -3.436  0.00  0.00     0.013 C 
ATOM     10  C3' I4B d   1       0.204  -3.470  -1.886  0.00  0.00     0.013 C 
ENDBRANCH   7   8
ENDBRANCH   1   7
TORSDOF 2
ENDMDL
