MODEL 1
REMARK minimizedAffinity -2.79640579
REMARK minimizedRMSD -1
REMARK  2 active torsions:
REMARK  status: ('A' for Active; 'I' for Inactive)
REMARK    1  A    between atoms: C2'_3  and  C1'_4 
REMARK    2  A    between atoms: C1'_4  and  C1_5 
ROOT
ATOM      1  C1  I4B d   1       0.900  -1.749  -1.372  0.00  0.00    -0.075 A 
ATOM      2  C2  I4B d   1       1.085  -2.978  -0.789  0.00  0.00     0.003 A 
ATOM      3  C3  I4B d   1       0.572  -4.144  -1.406  0.00  0.00     0.002 A 
ATOM      4  C4  I4B d   1      -0.158  -4.031  -2.571  0.00  0.00    -0.004 A 
ATOM      5  C5  I4B d   1      -0.325  -2.788  -3.173  0.00  0.00     0.002 A 
ATOM      6  C6  I4B d   1       0.218  -1.640  -2.576  0.00  0.00     0.003 A 
ENDROOT
BRANCH   1   7
ATOM      7  C1' I4B d   1       1.427  -0.534  -0.676  0.00  0.00     0.060 C 
BRANCH   7   8
ATOM      8  C2' I4B d   1       0.266   0.412  -0.445  0.00  0.00    -0.013 C 
ATOM      9  C4' I4B d   1      -0.107   0.471   1.013  0.00  0.00     0.013 C 
ATOM     10  C3' I4B d   1       0.662   1.764  -0.958  0.00  0.00     0.013 C 
ENDBRANCH   7   8
ENDBRANCH   1   7
TORSDOF 2
ENDMDL
