MODEL 1
REMARK minimizedAffinity -5.847013
REMARK minimizedRMSD -1
REMARK  2 active torsions:
REMARK  status: ('A' for Active; 'I' for Inactive)
REMARK    1  A    between atoms: C2'_3  and  C1'_4 
REMARK    2  A    between atoms: C1'_4  and  C1_5 
ROOT
ATOM      1  C1  I4B d   1      -0.355  -0.223   0.232  0.00  0.00    -0.075 A 
ATOM      2  C2  I4B d   1      -1.260   0.521  -0.484  0.00  0.00     0.003 A 
ATOM      3  C3  I4B d   1      -2.014   1.535   0.155  0.00  0.00     0.002 A 
ATOM      4  C4  I4B d   1      -1.868   1.737   1.512  0.00  0.00    -0.004 A 
ATOM      5  C5  I4B d   1      -0.934   0.998   2.232  0.00  0.00     0.002 A 
ATOM      6  C6  I4B d   1      -0.163   0.020   1.586  0.00  0.00     0.003 A 
ENDROOT
BRANCH   1   7
ATOM      7  C1' I4B d   1       0.400  -1.308  -0.468  0.00  0.00     0.060 C 
BRANCH   7   8
ATOM      8  C2' I4B d   1      -0.608  -2.241  -1.106  0.00  0.00    -0.013 C 
ATOM      9  C4' I4B d   1       0.036  -3.101  -2.162  0.00  0.00     0.013 C 
ATOM     10  C3' I4B d   1      -1.215  -3.080  -0.021  0.00  0.00     0.013 C 
ENDBRANCH   7   8
ENDBRANCH   1   7
TORSDOF 2
ENDMDL
