MODEL 1
REMARK minimizedAffinity -2.80727816
REMARK minimizedRMSD -1
REMARK  0 active torsions:
REMARK  status: ('A' for Active; 'I' for Inactive)
ROOT
ATOM      1  C   UNL d   1       1.619  -0.877  -0.764  0.00  0.00     0.023 A 
ATOM      2  C1  UNL d   1       0.360  -0.370  -1.087  0.00  0.00     0.003 A 
ATOM      3  C2  UNL d   1      -0.444   0.192  -0.093  0.00  0.00     0.048 A 
ATOM      4  C3  UNL d   1       0.018   0.245   1.222  0.00  0.00     0.023 A 
ATOM      5  C4  UNL d   1       1.278  -0.259   1.550  0.00  0.00     0.048 A 
ATOM      6  C5  UNL d   1       2.077  -0.821   0.553  0.00  0.00     0.003 A 
ATOM      7  I   UNL d   1      -1.176   1.082   2.703  0.00  0.00    -0.146 I 
ENDROOT
TORSDOF 0
ENDMDL
