MODEL 1
REMARK minimizedAffinity -5.02153397
REMARK minimizedRMSD -1
REMARK  0 active torsions:
REMARK  status: ('A' for Active; 'I' for Inactive)
ROOT
ATOM      1  C   UNL d   1      -0.184   1.357   3.578  0.00  0.00     0.023 A 
ATOM      2  C1  UNL d   1      -1.224   1.288   2.650  0.00  0.00     0.003 A 
ATOM      3  C2  UNL d   1      -1.011   0.695   1.404  0.00  0.00     0.048 A 
ATOM      4  C3  UNL d   1       0.243   0.171   1.093  0.00  0.00     0.023 A 
ATOM      5  C4  UNL d   1       1.286   0.236   2.019  0.00  0.00     0.048 A 
ATOM      6  C5  UNL d   1       1.069   0.831   3.263  0.00  0.00     0.003 A 
ATOM      7  I   UNL d   1       0.562  -0.713  -0.761  0.00  0.00    -0.146 I 
ENDROOT
TORSDOF 0
ENDMDL
