MODEL 1
REMARK minimizedAffinity -2.8773911
REMARK minimizedRMSD -1
REMARK  0 active torsions:
REMARK  status: ('A' for Active; 'I' for Inactive)
ROOT
ATOM      1  C   UNL d   1      -1.451   1.245   2.757  0.00  0.00     0.023 A 
ATOM      2  C1  UNL d   1      -2.236   0.555   1.832  0.00  0.00     0.003 A 
ATOM      3  C2  UNL d   1      -1.657   0.038   0.671  0.00  0.00     0.048 A 
ATOM      4  C3  UNL d   1      -0.293   0.215   0.441  0.00  0.00     0.023 A 
ATOM      5  C4  UNL d   1       0.496   0.903   1.364  0.00  0.00     0.048 A 
ATOM      6  C5  UNL d   1      -0.087   1.419   2.523  0.00  0.00     0.003 A 
ATOM      7  I   UNL d   1       0.571  -0.553  -1.286  0.00  0.00    -0.146 I 
ENDROOT
TORSDOF 0
ENDMDL
