MODEL 1
REMARK minimizedAffinity 5.25224829
REMARK minimizedRMSD -1
REMARK  0 active torsions:
REMARK  status: ('A' for Active; 'I' for Inactive)
ROOT
ATOM      1  C   UNL d   1      -1.378   0.229   2.507  0.00  0.00     0.023 A 
ATOM      2  C1  UNL d   1      -0.121  -0.193   2.072  0.00  0.00     0.003 A 
ATOM      3  C2  UNL d   1       0.129  -0.355   0.708  0.00  0.00     0.048 A 
ATOM      4  C3  UNL d   1      -0.882  -0.093  -0.216  0.00  0.00     0.023 A 
ATOM      5  C4  UNL d   1      -2.141   0.330   0.214  0.00  0.00     0.048 A 
ATOM      6  C5  UNL d   1      -2.386   0.490   1.579  0.00  0.00     0.003 A 
ATOM      7  I   UNL d   1      -0.512  -0.334  -2.247  0.00  0.00    -0.146 I 
ENDROOT
TORSDOF 0
ENDMDL
