MODEL 1
REMARK minimizedAffinity 5.06806755
REMARK minimizedRMSD -1
REMARK  0 active torsions:
REMARK  status: ('A' for Active; 'I' for Inactive)
ROOT
ATOM      1  C   UNL d   1       1.766   0.871  -3.130  0.00  0.00     0.023 A 
ATOM      2  C1  UNL d   1       2.850   0.904  -2.253  0.00  0.00     0.003 A 
ATOM      3  C2  UNL d   1       3.981   0.126  -2.508  0.00  0.00     0.048 A 
ATOM      4  C3  UNL d   1       4.021  -0.684  -3.643  0.00  0.00     0.023 A 
ATOM      5  C4  UNL d   1       2.939  -0.719  -4.524  0.00  0.00     0.048 A 
ATOM      6  C5  UNL d   1       1.811   0.060  -4.264  0.00  0.00     0.003 A 
ATOM      7  I   UNL d   1       5.703  -1.844  -4.025  0.00  0.00    -0.146 I 
ENDROOT
TORSDOF 0
ENDMDL
