MODEL 1
REMARK minimizedAffinity 1.81018841
REMARK minimizedRMSD -1
REMARK  0 active torsions:
REMARK  status: ('A' for Active; 'I' for Inactive)
ROOT
ATOM      1  N1  IND d   1      -0.681   2.743  -3.780  0.00  0.00    -0.196 N 
ATOM      2  C2  IND d   1       0.169   3.715  -3.329  0.00  0.00     0.054 A 
ATOM      3  C3  IND d   1       0.090   3.821  -1.984  0.00  0.00    -0.031 A 
ATOM      4  C4  IND d   1      -1.290   2.434  -0.311  0.00  0.00     0.051 A 
ATOM      5  C5  IND d   1      -2.244   1.457  -0.250  0.00  0.00    -0.031 A 
ATOM      6  C6  IND d   1      -2.733   0.845  -1.386  0.00  0.00     0.015 A 
ATOM      7  C7  IND d   1      -2.277   1.180  -2.629  0.00  0.00    -0.016 A 
ATOM      8  C8  IND d   1      -1.314   2.177  -2.695  0.00  0.00    -0.047 A 
ATOM      9  C9  IND d   1      -0.844   2.832  -1.549  0.00  0.00    -0.096 A 
ATOM     10  HN1 IND d   1      -0.801   2.524  -4.602  0.00  0.00     0.298 HD
ENDROOT
TORSDOF 0
ENDMDL
