MODEL 1
REMARK minimizedAffinity -1.80863464
REMARK minimizedRMSD -1
REMARK  0 active torsions:
REMARK  status: ('A' for Active; 'I' for Inactive)
ROOT
ATOM      1  N1  IND d   1       1.790  -2.838  -0.353  0.00  0.00    -0.196 N 
ATOM      2  C2  IND d   1       0.830  -3.719  -0.769  0.00  0.00     0.054 A 
ATOM      3  C3  IND d   1      -0.392  -3.310  -0.359  0.00  0.00    -0.031 A 
ATOM      4  C4  IND d   1      -1.061  -1.176   0.916  0.00  0.00     0.051 A 
ATOM      5  C5  IND d   1      -0.529  -0.085   1.542  0.00  0.00    -0.031 A 
ATOM      6  C6  IND d   1       0.830   0.151   1.568  0.00  0.00     0.015 A 
ATOM      7  C7  IND d   1       1.711  -0.694   0.954  0.00  0.00    -0.016 A 
ATOM      8  C8  IND d   1       1.175  -1.807   0.323  0.00  0.00    -0.047 A 
ATOM      9  C9  IND d   1      -0.200  -2.074   0.331  0.00  0.00    -0.096 A 
ATOM     10  HN1 IND d   1       2.635  -2.915  -0.491  0.00  0.00     0.298 HD
ENDROOT
TORSDOF 0
ENDMDL
