MODEL 1
REMARK minimizedAffinity 0.602101564
REMARK minimizedRMSD -1
REMARK  0 active torsions:
REMARK  status: ('A' for Active; 'I' for Inactive)
ROOT
ATOM      1  N1  IND d   1       2.231  -3.383  -0.662  0.00  0.00    -0.196 N 
ATOM      2  C2  IND d   1       1.170  -4.126  -1.098  0.00  0.00     0.054 A 
ATOM      3  C3  IND d   1       0.026  -3.700  -0.517  0.00  0.00    -0.031 A 
ATOM      4  C4  IND d   1      -0.351  -1.734   1.102  0.00  0.00     0.051 A 
ATOM      5  C5  IND d   1       0.322  -0.784   1.818  0.00  0.00    -0.031 A 
ATOM      6  C6  IND d   1       1.693  -0.647   1.741  0.00  0.00     0.015 A 
ATOM      7  C7  IND d   1       2.444  -1.452   0.931  0.00  0.00    -0.016 A 
ATOM      8  C8  IND d   1       1.765  -2.422   0.208  0.00  0.00    -0.047 A 
ATOM      9  C9  IND d   1       0.379  -2.594   0.315  0.00  0.00    -0.096 A 
ATOM     10  HN1 IND d   1       3.052  -3.497  -0.893  0.00  0.00     0.298 HD
ENDROOT
TORSDOF 0
ENDMDL
