MODEL 1
REMARK minimizedAffinity 1.99023294
REMARK minimizedRMSD -1
REMARK  0 active torsions:
REMARK  status: ('A' for Active; 'I' for Inactive)
ROOT
ATOM      1  N1  IND d   1       2.091  -2.809  -0.398  0.00  0.00    -0.196 N 
ATOM      2  C2  IND d   1       1.237  -3.709  -0.972  0.00  0.00     0.054 A 
ATOM      3  C3  IND d   1      -0.043  -3.410  -0.657  0.00  0.00    -0.031 A 
ATOM      4  C4  IND d   1      -0.973  -1.431   0.702  0.00  0.00     0.051 A 
ATOM      5  C5  IND d   1      -0.578  -0.364   1.459  0.00  0.00    -0.031 A 
ATOM      6  C6  IND d   1       0.754  -0.049   1.637  0.00  0.00     0.015 A 
ATOM      7  C7  IND d   1       1.744  -0.786   1.052  0.00  0.00    -0.016 A 
ATOM      8  C8  IND d   1       1.347  -1.875   0.289  0.00  0.00    -0.047 A 
ATOM      9  C9  IND d   1      -0.001  -2.225   0.140  0.00  0.00    -0.096 A 
ATOM     10  HN1 IND d   1       2.949  -2.824  -0.457  0.00  0.00     0.298 HD
ENDROOT
TORSDOF 0
ENDMDL
