MODEL 1
REMARK minimizedAffinity 6.7017889
REMARK minimizedRMSD -1
REMARK  0 active torsions:
REMARK  status: ('A' for Active; 'I' for Inactive)
ROOT
ATOM      1  N1  IND d   1       0.706  -0.948  -0.588  0.00  0.00    -0.196 N 
ATOM      2  C2  IND d   1      -0.601  -1.232  -0.308  0.00  0.00     0.054 A 
ATOM      3  C3  IND d   1      -0.818  -1.180   1.026  0.00  0.00    -0.031 A 
ATOM      4  C4  IND d   1       0.803  -0.549   2.923  0.00  0.00     0.051 A 
ATOM      5  C5  IND d   1       2.114  -0.246   3.164  0.00  0.00    -0.031 A 
ATOM      6  C6  IND d   1       3.041  -0.158   2.145  0.00  0.00     0.015 A 
ATOM      7  C7  IND d   1       2.687  -0.358   0.841  0.00  0.00    -0.016 A 
ATOM      8  C8  IND d   1       1.358  -0.673   0.593  0.00  0.00    -0.047 A 
ATOM      9  C9  IND d   1       0.422  -0.806   1.627  0.00  0.00    -0.096 A 
ATOM     10  HN1 IND d   1       1.062  -0.943  -1.371  0.00  0.00     0.298 HD
ENDROOT
TORSDOF 0
ENDMDL
