MODEL 1
REMARK minimizedAffinity 4.39236689
REMARK minimizedRMSD -1
REMARK  0 active torsions:
REMARK  status: ('A' for Active; 'I' for Inactive)
ROOT
ATOM      1  N1  IND d   1       2.077   0.793   2.123  0.00  0.00    -0.196 N 
ATOM      2  C2  IND d   1       3.279   0.479   1.553  0.00  0.00     0.054 A 
ATOM      3  C3  IND d   1       3.125  -0.514   0.648  0.00  0.00    -0.031 A 
ATOM      4  C4  IND d   1       0.976  -1.699  -0.131  0.00  0.00     0.051 A 
ATOM      5  C5  IND d   1      -0.363  -1.779   0.127  0.00  0.00    -0.031 A 
ATOM      6  C6  IND d   1      -0.971  -0.988   1.081  0.00  0.00     0.015 A 
ATOM      7  C7  IND d   1      -0.260  -0.075   1.807  0.00  0.00    -0.016 A 
ATOM      8  C8  IND d   1       1.102   0.004   1.553  0.00  0.00    -0.047 A 
ATOM      9  C9  IND d   1       1.731  -0.826   0.617  0.00  0.00    -0.096 A 
ATOM     10  HN1 IND d   1       1.951   1.385   2.734  0.00  0.00     0.298 HD
ENDROOT
TORSDOF 0
ENDMDL
