MODEL 1
REMARK minimizedAffinity 2.74376512
REMARK minimizedRMSD -1
REMARK  0 active torsions:
REMARK  status: ('A' for Active; 'I' for Inactive)
ROOT
ATOM      1  N1  IND d   1       2.463   0.279   2.610  0.00  0.00    -0.196 N 
ATOM      2  C2  IND d   1       3.623   0.013   1.938  0.00  0.00     0.054 A 
ATOM      3  C3  IND d   1       3.356  -0.596   0.761  0.00  0.00    -0.031 A 
ATOM      4  C4  IND d   1       1.084  -1.164  -0.308  0.00  0.00     0.051 A 
ATOM      5  C5  IND d   1      -0.259  -1.147  -0.057  0.00  0.00    -0.031 A 
ATOM      6  C6  IND d   1      -0.774  -0.642   1.119  0.00  0.00     0.015 A 
ATOM      7  C7  IND d   1       0.038  -0.121   2.087  0.00  0.00    -0.016 A 
ATOM      8  C8  IND d   1       1.403  -0.143   1.838  0.00  0.00    -0.047 A 
ATOM      9  C9  IND d   1       1.934  -0.694   0.665  0.00  0.00    -0.096 A 
ATOM     10  HN1 IND d   1       2.405   0.647   3.385  0.00  0.00     0.298 HD
ENDROOT
TORSDOF 0
ENDMDL
