MODEL 1
REMARK minimizedAffinity 0.573270917
REMARK minimizedRMSD -1
REMARK  0 active torsions:
REMARK  status: ('A' for Active; 'I' for Inactive)
ROOT
ATOM      1  N1  IND d   1       2.019  -2.856   0.296  0.00  0.00    -0.196 N 
ATOM      2  C2  IND d   1       1.284  -3.957  -0.044  0.00  0.00     0.054 A 
ATOM      3  C3  IND d   1      -0.035  -3.660  -0.043  0.00  0.00    -0.031 A 
ATOM      4  C4  IND d   1      -1.205  -1.407   0.384  0.00  0.00     0.051 A 
ATOM      5  C5  IND d   1      -0.955  -0.119   0.767  0.00  0.00    -0.031 A 
ATOM      6  C6  IND d   1       0.326   0.332   1.015  0.00  0.00     0.015 A 
ATOM      7  C7  IND d   1       1.409  -0.488   0.877  0.00  0.00    -0.016 A 
ATOM      8  C8  IND d   1       1.159  -1.798   0.495  0.00  0.00    -0.047 A 
ATOM      9  C9  IND d   1      -0.142  -2.274   0.284  0.00  0.00    -0.096 A 
ATOM     10  HN1 IND d   1       2.875  -2.828   0.372  0.00  0.00     0.298 HD
ENDROOT
TORSDOF 0
ENDMDL
