MODEL 1
REMARK minimizedAffinity 1.94310308
REMARK minimizedRMSD -1
REMARK  0 active torsions:
REMARK  status: ('A' for Active; 'I' for Inactive)
ROOT
ATOM      1  N1  IND d   1       2.298  -2.767  -0.764  0.00  0.00    -0.196 N 
ATOM      2  C2  IND d   1       1.415  -3.738  -1.147  0.00  0.00     0.054 A 
ATOM      3  C3  IND d   1       0.184  -3.475  -0.655  0.00  0.00    -0.031 A 
ATOM      4  C4  IND d   1      -0.631  -1.455   0.717  0.00  0.00     0.051 A 
ATOM      5  C5  IND d   1      -0.183  -0.325   1.341  0.00  0.00    -0.031 A 
ATOM      6  C6  IND d   1       1.142   0.058   1.293  0.00  0.00     0.015 A 
ATOM      7  C7  IND d   1       2.070  -0.673   0.605  0.00  0.00    -0.016 A 
ATOM      8  C8  IND d   1       1.619  -1.824  -0.025  0.00  0.00    -0.047 A 
ATOM      9  C9  IND d   1       0.284  -2.240   0.057  0.00  0.00    -0.096 A 
ATOM     10  HN1 IND d   1       3.137  -2.748  -0.954  0.00  0.00     0.298 HD
ENDROOT
TORSDOF 0
ENDMDL
