MODEL 1
REMARK minimizedAffinity -2.27127838
REMARK minimizedRMSD -1
REMARK  0 active torsions:
REMARK  status: ('A' for Active; 'I' for Inactive)
ROOT
ATOM      1  N1  IND d   1       3.147  -2.369  -0.119  0.00  0.00    -0.196 N 
ATOM      2  C2  IND d   1       2.936  -3.696  -0.369  0.00  0.00     0.054 A 
ATOM      3  C3  IND d   1       1.624  -3.996  -0.237  0.00  0.00    -0.031 A 
ATOM      4  C4  IND d   1      -0.364  -2.446   0.284  0.00  0.00     0.051 A 
ATOM      5  C5  IND d   1      -0.665  -1.158   0.625  0.00  0.00    -0.031 A 
ATOM      6  C6  IND d   1       0.309  -0.187   0.736  0.00  0.00     0.015 A 
ATOM      7  C7  IND d   1       1.625  -0.467   0.497  0.00  0.00    -0.016 A 
ATOM      8  C8  IND d   1       1.935  -1.776   0.157  0.00  0.00    -0.047 A 
ATOM      9  C9  IND d   1       0.956  -2.775   0.084  0.00  0.00    -0.096 A 
ATOM     10  HN1 IND d   1       3.909  -1.971  -0.131  0.00  0.00     0.298 HD
ENDROOT
TORSDOF 0
ENDMDL
