MODEL 1
REMARK minimizedAffinity -1.1468668
REMARK minimizedRMSD -1
REMARK  0 active torsions:
REMARK  status: ('A' for Active; 'I' for Inactive)
ROOT
ATOM      1  N1  IND d   1      -0.053   0.417   1.578  0.00  0.00    -0.196 N 
ATOM      2  C2  IND d   1      -1.399   0.185   1.640  0.00  0.00     0.054 A 
ATOM      3  C3  IND d   1      -1.697  -1.006   1.074  0.00  0.00    -0.031 A 
ATOM      4  C4  IND d   1      -0.125  -2.782   0.074  0.00  0.00     0.051 A 
ATOM      5  C5  IND d   1       1.186  -3.005  -0.241  0.00  0.00    -0.031 A 
ATOM      6  C6  IND d   1       2.172  -2.081   0.042  0.00  0.00     0.015 A 
ATOM      7  C7  IND d   1       1.883  -0.899   0.664  0.00  0.00    -0.016 A 
ATOM      8  C8  IND d   1       0.551  -0.666   0.979  0.00  0.00    -0.047 A 
ATOM      9  C9  IND d   1      -0.459  -1.582   0.656  0.00  0.00    -0.096 A 
ATOM     10  HN1 IND d   1       0.348   1.122   1.864  0.00  0.00     0.298 HD
ENDROOT
TORSDOF 0
ENDMDL
