MODEL 1
REMARK minimizedAffinity 10.8250475
REMARK minimizedRMSD -1
REMARK  0 active torsions:
REMARK  status: ('A' for Active; 'I' for Inactive)
ROOT
ATOM      1  N1  IND d   1       3.000   4.708  -2.261  0.00  0.00    -0.196 N 
ATOM      2  C2  IND d   1       3.997   4.625  -1.330  0.00  0.00     0.054 A 
ATOM      3  C3  IND d   1       4.479   3.363  -1.267  0.00  0.00    -0.031 A 
ATOM      4  C4  IND d   1       3.847   1.300  -2.672  0.00  0.00     0.051 A 
ATOM      5  C5  IND d   1       2.964   0.874  -3.623  0.00  0.00    -0.031 A 
ATOM      6  C6  IND d   1       2.030   1.722  -4.183  0.00  0.00     0.015 A 
ATOM      7  C7  IND d   1       1.952   3.036  -3.818  0.00  0.00    -0.016 A 
ATOM      8  C8  IND d   1       2.843   3.471  -2.847  0.00  0.00    -0.047 A 
ATOM      9  C9  IND d   1       3.765   2.604  -2.245  0.00  0.00    -0.096 A 
ATOM     10  HN1 IND d   1       2.547   5.414  -2.450  0.00  0.00     0.298 HD
ENDROOT
TORSDOF 0
ENDMDL
