MODEL 1
REMARK minimizedAffinity -2.11322451
REMARK minimizedRMSD -1
REMARK  0 active torsions:
REMARK  status: ('A' for Active; 'I' for Inactive)
ROOT
ATOM      1  N1  IND d   1       1.345  -3.742  -0.307  0.00  0.00    -0.196 N 
ATOM      2  C2  IND d   1       2.658  -3.461  -0.563  0.00  0.00     0.054 A 
ATOM      3  C3  IND d   1       2.928  -2.168  -0.273  0.00  0.00    -0.031 A 
ATOM      4  C4  IND d   1       1.391  -0.363   0.731  0.00  0.00     0.051 A 
ATOM      5  C5  IND d   1       0.096  -0.135   1.101  0.00  0.00    -0.031 A 
ATOM      6  C6  IND d   1      -0.869  -1.119   1.022  0.00  0.00     0.015 A 
ATOM      7  C7  IND d   1      -0.569  -2.376   0.578  0.00  0.00    -0.016 A 
ATOM      8  C8  IND d   1       0.744  -2.608   0.195  0.00  0.00    -0.047 A 
ATOM      9  C9  IND d   1       1.717  -1.602   0.233  0.00  0.00    -0.096 A 
ATOM     10  HN1 IND d   1       0.959  -4.499  -0.437  0.00  0.00     0.298 HD
ENDROOT
TORSDOF 0
ENDMDL
