MODEL 1
REMARK minimizedAffinity -3.84189105
REMARK minimizedRMSD -1
REMARK  0 active torsions:
REMARK  status: ('A' for Active; 'I' for Inactive)
ROOT
ATOM      1  N1  IND d   1       1.306  -3.640  -0.145  0.00  0.00    -0.196 N 
ATOM      2  C2  IND d   1       2.550  -3.402  -0.659  0.00  0.00     0.054 A 
ATOM      3  C3  IND d   1       2.868  -2.094  -0.535  0.00  0.00    -0.031 A 
ATOM      4  C4  IND d   1       1.540  -0.186   0.573  0.00  0.00     0.051 A 
ATOM      5  C5  IND d   1       0.334   0.092   1.152  0.00  0.00    -0.031 A 
ATOM      6  C6  IND d   1      -0.628  -0.880   1.335  0.00  0.00     0.015 A 
ATOM      7  C7  IND d   1      -0.415  -2.175   0.953  0.00  0.00    -0.016 A 
ATOM      8  C8  IND d   1       0.806  -2.459   0.359  0.00  0.00    -0.047 A 
ATOM      9  C9  IND d   1       1.770  -1.468   0.132  0.00  0.00    -0.096 A 
ATOM     10  HN1 IND d   1       0.903  -4.400  -0.137  0.00  0.00     0.298 HD
ENDROOT
TORSDOF 0
ENDMDL
