MODEL 1
REMARK minimizedAffinity 2.68763995
REMARK minimizedRMSD -1
REMARK  0 active torsions:
REMARK  status: ('A' for Active; 'I' for Inactive)
ROOT
ATOM      1  N1  IND d   1       1.638  -0.730   3.456  0.00  0.00    -0.196 N 
ATOM      2  C2  IND d   1       1.771  -1.896   4.156  0.00  0.00     0.054 A 
ATOM      3  C3  IND d   1       1.237  -2.925   3.461  0.00  0.00    -0.031 A 
ATOM      4  C4  IND d   1       0.187  -2.941   1.110  0.00  0.00     0.051 A 
ATOM      5  C5  IND d   1      -0.189  -2.110   0.093  0.00  0.00    -0.031 A 
ATOM      6  C6  IND d   1       0.032  -0.749   0.144  0.00  0.00     0.015 A 
ATOM      7  C7  IND d   1       0.650  -0.167   1.215  0.00  0.00    -0.016 A 
ATOM      8  C8  IND d   1       1.027  -1.008   2.253  0.00  0.00    -0.047 A 
ATOM      9  C9  IND d   1       0.767  -2.384   2.225  0.00  0.00    -0.096 A 
ATOM     10  HN1 IND d   1       1.894   0.047   3.722  0.00  0.00     0.298 HD
ENDROOT
TORSDOF 0
ENDMDL
