MODEL 1
REMARK minimizedAffinity 3.2277317
REMARK minimizedRMSD -1
REMARK  0 active torsions:
REMARK  status: ('A' for Active; 'I' for Inactive)
ROOT
ATOM      1  N1  IND d   1       2.653  -2.574  -0.147  0.00  0.00    -0.196 N 
ATOM      2  C2  IND d   1       2.168  -3.846  -0.270  0.00  0.00     0.054 A 
ATOM      3  C3  IND d   1       0.878  -3.899   0.133  0.00  0.00    -0.031 A 
ATOM      4  C4  IND d   1      -0.664  -1.999   0.933  0.00  0.00     0.051 A 
ATOM      5  C5  IND d   1      -0.661  -0.669   1.247  0.00  0.00    -0.031 A 
ATOM      6  C6  IND d   1       0.469   0.110   1.107  0.00  0.00     0.015 A 
ATOM      7  C7  IND d   1       1.640  -0.411   0.635  0.00  0.00    -0.016 A 
ATOM      8  C8  IND d   1       1.643  -1.763   0.322  0.00  0.00    -0.047 A 
ATOM      9  C9  IND d   1       0.511  -2.568   0.502  0.00  0.00    -0.096 A 
ATOM     10  HN1 IND d   1       3.454  -2.322  -0.331  0.00  0.00     0.298 HD
ENDROOT
TORSDOF 0
ENDMDL
