MODEL 1
REMARK minimizedAffinity 9.55305862
REMARK minimizedRMSD -1
REMARK  0 active torsions:
REMARK  status: ('A' for Active; 'I' for Inactive)
ROOT
ATOM      1  C   UNL d   1       0.307   4.174   1.773  0.00  0.00    -0.002 A 
ATOM      2  C1  UNL d   1       1.506   3.530   2.044  0.00  0.00     0.010 A 
ATOM      3  C2  UNL d   1       1.522   2.178   2.391  0.00  0.00     0.041 A 
ATOM      4  C3  UNL d   1       0.303   1.476   2.459  0.00  0.00    -0.075 A 
ATOM      5  S   UNL d   1       0.080  -0.185   2.862  0.00  0.00     0.015 SA
ATOM      6  C4  UNL d   1      -1.612  -0.079   2.683  0.00  0.00     0.022 A 
ATOM      7  C5  UNL d   1      -2.014   1.186   2.326  0.00  0.00     0.026 A 
ATOM      8  C6  UNL d   1      -0.917   2.103   2.190  0.00  0.00    -0.082 A 
ATOM      9  C7  UNL d   1      -0.901   3.475   1.842  0.00  0.00     0.045 A 
ENDROOT
TORSDOF 0
ENDMDL
