MODEL 1
REMARK minimizedAffinity 16.1864529
REMARK minimizedRMSD -1
REMARK  0 active torsions:
REMARK  status: ('A' for Active; 'I' for Inactive)
ROOT
ATOM      1  C   UNL d   1       2.076   5.818   6.000  0.00  0.00    -0.002 A 
ATOM      2  C1  UNL d   1       0.727   6.000   5.733  0.00  0.00     0.010 A 
ATOM      3  C2  UNL d   1       0.108   5.304   4.693  0.00  0.00     0.041 A 
ATOM      4  C3  UNL d   1       0.876   4.413   3.918  0.00  0.00    -0.075 A 
ATOM      5  S   UNL d   1       0.331   3.452   2.594  0.00  0.00     0.015 SA
ATOM      6  C4  UNL d   1       1.877   2.777   2.351  0.00  0.00     0.022 A 
ATOM      7  C5  UNL d   1       2.798   3.261   3.249  0.00  0.00     0.026 A 
ATOM      8  C6  UNL d   1       2.236   4.211   4.168  0.00  0.00    -0.082 A 
ATOM      9  C7  UNL d   1       2.834   4.932   5.229  0.00  0.00     0.045 A 
ENDROOT
TORSDOF 0
ENDMDL
