MODEL 1
REMARK minimizedAffinity 5.48665142
REMARK minimizedRMSD -1
REMARK  0 active torsions:
REMARK  status: ('A' for Active; 'I' for Inactive)
ROOT
ATOM      1  C   UNL d   1       4.010  -3.694   1.545  0.00  0.00    -0.002 A 
ATOM      2  C1  UNL d   1       4.032  -4.977   2.075  0.00  0.00     0.010 A 
ATOM      3  C2  UNL d   1       4.298  -5.180   3.430  0.00  0.00     0.041 A 
ATOM      4  C3  UNL d   1       4.541  -4.063   4.253  0.00  0.00    -0.075 A 
ATOM      5  S   UNL d   1       4.888  -4.070   5.941  0.00  0.00     0.015 SA
ATOM      6  C4  UNL d   1       5.013  -2.372   5.999  0.00  0.00     0.022 A 
ATOM      7  C5  UNL d   1       4.799  -1.797   4.769  0.00  0.00     0.026 A 
ATOM      8  C6  UNL d   1       4.523  -2.762   3.742  0.00  0.00    -0.082 A 
ATOM      9  C7  UNL d   1       4.252  -2.588   2.364  0.00  0.00     0.045 A 
ENDROOT
TORSDOF 0
ENDMDL
