MODEL 1
REMARK minimizedAffinity 5.79451895
REMARK minimizedRMSD -1
REMARK  0 active torsions:
REMARK  status: ('A' for Active; 'I' for Inactive)
ROOT
ATOM      1  C   UNL d   1       4.359  -2.623   4.842  0.00  0.00    -0.002 A 
ATOM      2  C1  UNL d   1       4.789  -3.708   4.091  0.00  0.00     0.010 A 
ATOM      3  C2  UNL d   1       4.177  -4.016   2.874  0.00  0.00     0.041 A 
ATOM      4  C3  UNL d   1       3.118  -3.206   2.419  0.00  0.00    -0.075 A 
ATOM      5  S   UNL d   1       2.221  -3.392   0.958  0.00  0.00     0.015 SA
ATOM      6  C4  UNL d   1       1.247  -2.034   1.296  0.00  0.00     0.022 A 
ATOM      7  C5  UNL d   1       1.585  -1.442   2.490  0.00  0.00     0.026 A 
ATOM      8  C6  UNL d   1       2.669  -2.107   3.156  0.00  0.00    -0.082 A 
ATOM      9  C7  UNL d   1       3.308  -1.822   4.387  0.00  0.00     0.045 A 
ENDROOT
TORSDOF 0
ENDMDL
