MODEL 1
REMARK minimizedAffinity 9.58013344
REMARK minimizedRMSD -1
REMARK  0 active torsions:
REMARK  status: ('A' for Active; 'I' for Inactive)
ROOT
ATOM      1  C   UNL d   1       1.487  -1.951   0.141  0.00  0.00    -0.002 A 
ATOM      2  C1  UNL d   1       1.191  -1.551   1.437  0.00  0.00     0.010 A 
ATOM      3  C2  UNL d   1       2.006  -1.935   2.503  0.00  0.00     0.041 A 
ATOM      4  C3  UNL d   1       3.136  -2.735   2.243  0.00  0.00    -0.075 A 
ATOM      5  S   UNL d   1       4.279  -3.325   3.392  0.00  0.00     0.015 SA
ATOM      6  C4  UNL d   1       5.187  -4.122   2.190  0.00  0.00     0.022 A 
ATOM      7  C5  UNL d   1       4.647  -3.953   0.937  0.00  0.00     0.026 A 
ATOM      8  C6  UNL d   1       3.456  -3.150   0.947  0.00  0.00    -0.082 A 
ATOM      9  C7  UNL d   1       2.609  -2.745  -0.113  0.00  0.00     0.045 A 
ENDROOT
TORSDOF 0
ENDMDL
