MODEL 1
REMARK minimizedAffinity 10.6944628
REMARK minimizedRMSD -1
REMARK  0 active torsions:
REMARK  status: ('A' for Active; 'I' for Inactive)
ROOT
ATOM      1  C   UNL d   1       5.874  -5.059   6.000  0.00  0.00    -0.002 A 
ATOM      2  C1  UNL d   1       6.000  -3.682   5.884  0.00  0.00     0.010 A 
ATOM      3  C2  UNL d   1       5.890  -3.060   4.639  0.00  0.00     0.041 A 
ATOM      4  C3  UNL d   1       5.648  -3.854   3.500  0.00  0.00    -0.075 A 
ATOM      5  S   UNL d   1       5.475  -3.311   1.873  0.00  0.00     0.015 SA
ATOM      6  C4  UNL d   1       5.229  -4.895   1.293  0.00  0.00     0.022 A 
ATOM      7  C5  UNL d   1       5.275  -5.827   2.302  0.00  0.00     0.026 A 
ATOM      8  C6  UNL d   1       5.516  -5.242   3.591  0.00  0.00    -0.082 A 
ATOM      9  C7  UNL d   1       5.634  -5.843   4.868  0.00  0.00     0.045 A 
ENDROOT
TORSDOF 0
ENDMDL
