MODEL 1
REMARK minimizedAffinity 22.1397667
REMARK minimizedRMSD -1
REMARK  0 active torsions:
REMARK  status: ('A' for Active; 'I' for Inactive)
ROOT
ATOM      1  C   UNL d   1      -5.668  -1.946  -4.114  0.00  0.00    -0.002 A 
ATOM      2  C1  UNL d   1      -5.999  -0.606  -4.251  0.00  0.00     0.010 A 
ATOM      3  C2  UNL d   1      -5.332   0.370  -3.507  0.00  0.00     0.041 A 
ATOM      4  C3  UNL d   1      -4.317  -0.029  -2.616  0.00  0.00    -0.075 A 
ATOM      5  S   UNL d   1      -3.365   0.990  -1.602  0.00  0.00     0.015 SA
ATOM      6  C4  UNL d   1      -2.496  -0.330  -0.964  0.00  0.00     0.022 A 
ATOM      7  C5  UNL d   1      -2.910  -1.527  -1.500  0.00  0.00     0.026 A 
ATOM      8  C6  UNL d   1      -3.965  -1.373  -2.461  0.00  0.00    -0.082 A 
ATOM      9  C7  UNL d   1      -4.660  -2.338  -3.229  0.00  0.00     0.045 A 
ENDROOT
TORSDOF 0
ENDMDL
