MODEL 1
REMARK minimizedAffinity 0.806452215
REMARK minimizedRMSD -1
REMARK  0 active torsions:
REMARK  status: ('A' for Active; 'I' for Inactive)
ROOT
ATOM      1  C   UNL d   1       1.260   4.090  -5.997  0.00  0.00    -0.002 A 
ATOM      2  C1  UNL d   1       1.509   5.455  -5.998  0.00  0.00     0.010 A 
ATOM      3  C2  UNL d   1       2.819   5.938  -5.998  0.00  0.00     0.041 A 
ATOM      4  C3  UNL d   1       3.885   5.017  -5.999  0.00  0.00    -0.075 A 
ATOM      5  S   UNL d   1       5.571   5.378  -5.999  0.00  0.00     0.015 SA
ATOM      6  C4  UNL d   1       6.000   3.728  -6.000  0.00  0.00     0.022 A 
ATOM      7  C5  UNL d   1       4.896   2.909  -5.999  0.00  0.00     0.026 A 
ATOM      8  C6  UNL d   1       3.659   3.638  -5.999  0.00  0.00    -0.082 A 
ATOM      9  C7  UNL d   1       2.320   3.179  -5.998  0.00  0.00     0.045 A 
ENDROOT
TORSDOF 0
ENDMDL
