MODEL 1
REMARK minimizedAffinity 15.2703857
REMARK minimizedRMSD -1
REMARK  0 active torsions:
REMARK  status: ('A' for Active; 'I' for Inactive)
ROOT
ATOM      1  C   UNL d   1       6.000  -2.541   0.381  0.00  0.00    -0.002 A 
ATOM      2  C1  UNL d   1       5.999  -3.882   0.027  0.00  0.00     0.010 A 
ATOM      3  C2  UNL d   1       4.814  -4.622   0.048  0.00  0.00     0.041 A 
ATOM      4  C3  UNL d   1       3.619  -3.983   0.434  0.00  0.00    -0.075 A 
ATOM      5  S   UNL d   1       2.049  -4.689   0.534  0.00  0.00     0.015 SA
ATOM      6  C4  UNL d   1       1.343  -3.226   1.049  0.00  0.00     0.022 A 
ATOM      7  C5  UNL d   1       2.268  -2.213   1.148  0.00  0.00     0.026 A 
ATOM      8  C6  UNL d   1       3.595  -2.633   0.795  0.00  0.00    -0.082 A 
ATOM      9  C7  UNL d   1       4.812  -1.911   0.764  0.00  0.00     0.045 A 
ENDROOT
TORSDOF 0
ENDMDL
