MODEL 1
REMARK minimizedAffinity 6.71888924
REMARK minimizedRMSD -1
REMARK  0 active torsions:
REMARK  status: ('A' for Active; 'I' for Inactive)
ROOT
ATOM      1  C   UNL d   1       4.475   1.122  -5.983  0.00  0.00    -0.002 A 
ATOM      2  C1  UNL d   1       5.091   2.365  -5.987  0.00  0.00     0.010 A 
ATOM      3  C2  UNL d   1       4.330   3.535  -5.992  0.00  0.00     0.041 A 
ATOM      4  C3  UNL d   1       2.925   3.434  -5.991  0.00  0.00    -0.075 A 
ATOM      5  S   UNL d   1       1.790   4.732  -5.996  0.00  0.00     0.015 SA
ATOM      6  C4  UNL d   1       0.459   3.667  -5.992  0.00  0.00     0.022 A 
ATOM      7  C5  UNL d   1       0.853   2.350  -5.987  0.00  0.00     0.026 A 
ATOM      8  C6  UNL d   1       2.281   2.194  -5.986  0.00  0.00    -0.082 A 
ATOM      9  C7  UNL d   1       3.081   1.026  -5.982  0.00  0.00     0.045 A 
ENDROOT
TORSDOF 0
ENDMDL
