MODEL 1
REMARK minimizedAffinity 9.03378868
REMARK minimizedRMSD -1
REMARK  1 active torsions:
REMARK  status: ('A' for Active; 'I' for Inactive)
REMARK    1  A    between atoms: C1_2  and  C2_3 
ROOT
ATOM      1  C2  UNL d   1       2.113   2.861   1.648  0.00  0.00    -0.076 A 
ATOM      2  C3  UNL d   1       3.410   3.263   1.286  0.00  0.00     0.004 A 
ATOM      3  C4  UNL d   1       3.613   4.319   0.398  0.00  0.00    -0.003 A 
ATOM      4  C5  UNL d   1       2.521   4.989  -0.142  0.00  0.00     0.000 A 
ATOM      5  C6  UNL d   1       1.227   4.616   0.221  0.00  0.00     0.000 A 
ATOM      6  C7  UNL d   1       1.006   3.565   1.127  0.00  0.00    -0.073 A 
ATOM      7  C8  UNL d   1      -0.410   3.200   1.478  0.00  0.00     0.078 C 
ENDROOT
BRANCH   1   8
ATOM      8  C1  UNL d   1       1.955   1.693   2.595  0.00  0.00     0.053 C 
ATOM      9  C   UNL d   1       1.936   0.355   1.871  0.00  0.00     0.018 C 
ENDBRANCH   1   8
TORSDOF 1
ENDMDL
