MODEL 1
REMARK minimizedAffinity 10.7623844
REMARK minimizedRMSD -1
REMARK  1 active torsions:
REMARK  status: ('A' for Active; 'I' for Inactive)
REMARK    1  A    between atoms: C1_2  and  C2_3 
ROOT
ATOM      1  C2  UNL d   1       3.499  -1.520   2.308  0.00  0.00    -0.076 A 
ATOM      2  C3  UNL d   1       3.489  -0.488   1.354  0.00  0.00     0.004 A 
ATOM      3  C4  UNL d   1       2.456   0.447   1.318  0.00  0.00    -0.003 A 
ATOM      4  C5  UNL d   1       1.416   0.365   2.237  0.00  0.00     0.000 A 
ATOM      5  C6  UNL d   1       1.418  -0.641   3.202  0.00  0.00     0.000 A 
ATOM      6  C7  UNL d   1       2.460  -1.582   3.262  0.00  0.00    -0.073 A 
ATOM      7  C8  UNL d   1       2.409  -2.650   4.320  0.00  0.00     0.078 C 
ENDROOT
BRANCH   1   8
ATOM      8  C1  UNL d   1       4.631  -2.521   2.281  0.00  0.00     0.053 C 
ATOM      9  C   UNL d   1       5.998  -1.855   2.287  0.00  0.00     0.018 C 
ENDBRANCH   1   8
TORSDOF 1
ENDMDL
