MODEL 1
REMARK minimizedAffinity 10.6697369
REMARK minimizedRMSD -1
REMARK  1 active torsions:
REMARK  status: ('A' for Active; 'I' for Inactive)
REMARK    1  A    between atoms: C1_2  and  C2_3 
ROOT
ATOM      1  C2  UNL d   1       2.482  -0.200   3.241  0.00  0.00    -0.076 A 
ATOM      2  C3  UNL d   1       2.814   0.137   1.917  0.00  0.00     0.004 A 
ATOM      3  C4  UNL d   1       3.047   1.462   1.551  0.00  0.00    -0.003 A 
ATOM      4  C5  UNL d   1       2.953   2.471   2.503  0.00  0.00     0.000 A 
ATOM      5  C6  UNL d   1       2.642   2.153   3.825  0.00  0.00     0.000 A 
ATOM      6  C7  UNL d   1       2.420   0.821   4.214  0.00  0.00    -0.073 A 
ATOM      7  C8  UNL d   1       2.082   0.536   5.652  0.00  0.00     0.078 C 
ENDROOT
BRANCH   1   8
ATOM      8  C1  UNL d   1       2.213  -1.650   3.573  0.00  0.00     0.053 C 
ATOM      9  C   UNL d   1       3.483  -2.414   3.917  0.00  0.00     0.018 C 
ENDBRANCH   1   8
TORSDOF 1
ENDMDL
