MODEL 1
REMARK minimizedAffinity 5.54801083
REMARK minimizedRMSD -1
REMARK  1 active torsions:
REMARK  status: ('A' for Active; 'I' for Inactive)
REMARK    1  A    between atoms: C1_2  and  C2_3 
ROOT
ATOM      1  C2  UNL d   1       1.662  -1.494   2.329  0.00  0.00    -0.076 A 
ATOM      2  C3  UNL d   1       1.214  -2.621   3.040  0.00  0.00     0.004 A 
ATOM      3  C4  UNL d   1       2.045  -3.272   3.950  0.00  0.00    -0.003 A 
ATOM      4  C5  UNL d   1       3.337  -2.806   4.164  0.00  0.00     0.000 A 
ATOM      5  C6  UNL d   1       3.792  -1.679   3.480  0.00  0.00     0.000 A 
ATOM      6  C7  UNL d   1       2.962  -1.001   2.572  0.00  0.00    -0.073 A 
ATOM      7  C8  UNL d   1       3.506   0.205   1.857  0.00  0.00     0.078 C 
ENDROOT
BRANCH   1   8
ATOM      8  C1  UNL d   1       0.725  -0.845   1.335  0.00  0.00     0.053 C 
ATOM      9  C   UNL d   1       0.795  -1.493  -0.040  0.00  0.00     0.018 C 
ENDBRANCH   1   8
TORSDOF 1
ENDMDL
