MODEL 1
REMARK minimizedAffinity 12.5245724
REMARK minimizedRMSD -1
REMARK  1 active torsions:
REMARK  status: ('A' for Active; 'I' for Inactive)
REMARK    1  A    between atoms: C1_2  and  C2_3 
ROOT
ATOM      1  C2  UNL d   1       1.396  -1.172   2.074  0.00  0.00    -0.076 A 
ATOM      2  C3  UNL d   1       0.955  -2.002   3.120  0.00  0.00     0.004 A 
ATOM      3  C4  UNL d   1       1.845  -2.473   4.085  0.00  0.00    -0.003 A 
ATOM      4  C5  UNL d   1       3.188  -2.122   4.019  0.00  0.00     0.000 A 
ATOM      5  C6  UNL d   1       3.639  -1.286   2.998  0.00  0.00     0.000 A 
ATOM      6  C7  UNL d   1       2.753  -0.789   2.027  0.00  0.00    -0.073 A 
ATOM      7  C8  UNL d   1       3.295   0.105   0.945  0.00  0.00     0.078 C 
ENDROOT
BRANCH   1   8
ATOM      8  C1  UNL d   1       0.391  -0.714   1.042  0.00  0.00     0.053 C 
ATOM      9  C   UNL d   1       0.410  -1.574  -0.212  0.00  0.00     0.018 C 
ENDBRANCH   1   8
TORSDOF 1
ENDMDL
