MODEL 1
REMARK minimizedAffinity 7.561203
REMARK minimizedRMSD -1
REMARK  1 active torsions:
REMARK  status: ('A' for Active; 'I' for Inactive)
REMARK    1  A    between atoms: C1_2  and  C2_3 
ROOT
ATOM      1  C2  UNL d   1       2.550  -1.767   3.839  0.00  0.00    -0.076 A 
ATOM      2  C3  UNL d   1       1.389  -2.441   4.257  0.00  0.00     0.004 A 
ATOM      3  C4  UNL d   1       1.440  -3.773   4.664  0.00  0.00    -0.003 A 
ATOM      4  C5  UNL d   1       2.652  -4.453   4.659  0.00  0.00     0.000 A 
ATOM      5  C6  UNL d   1       3.817  -3.796   4.264  0.00  0.00     0.000 A 
ATOM      6  C7  UNL d   1       3.786  -2.448   3.867  0.00  0.00    -0.073 A 
ATOM      7  C8  UNL d   1       5.071  -1.790   3.445  0.00  0.00     0.078 C 
ENDROOT
BRANCH   1   8
ATOM      8  C1  UNL d   1       2.429  -0.331   3.383  0.00  0.00     0.053 C 
ATOM      9  C   UNL d   1       2.688  -0.168   1.894  0.00  0.00     0.018 C 
ENDBRANCH   1   8
TORSDOF 1
ENDMDL
