MODEL 1
REMARK minimizedAffinity 10.9100571
REMARK minimizedRMSD -1
REMARK  1 active torsions:
REMARK  status: ('A' for Active; 'I' for Inactive)
REMARK    1  A    between atoms: C1_2  and  C2_3 
ROOT
ATOM      1  C2  UNL d   1      -5.254   2.973   0.533  0.00  0.00    -0.076 A 
ATOM      2  C3  UNL d   1      -6.000   3.344   1.666  0.00  0.00     0.004 A 
ATOM      3  C4  UNL d   1      -5.369   3.662   2.867  0.00  0.00    -0.003 A 
ATOM      4  C5  UNL d   1      -3.982   3.614   2.956  0.00  0.00     0.000 A 
ATOM      5  C6  UNL d   1      -3.226   3.266   1.837  0.00  0.00     0.000 A 
ATOM      6  C7  UNL d   1      -3.845   2.959   0.614  0.00  0.00    -0.073 A 
ATOM      7  C8  UNL d   1      -2.981   2.583  -0.559  0.00  0.00     0.078 C 
ENDROOT
BRANCH   1   8
ATOM      8  C1  UNL d   1      -5.995   2.613  -0.735  0.00  0.00     0.053 C 
ATOM      9  C   UNL d   1      -6.000   1.116  -1.002  0.00  0.00     0.018 C 
ENDBRANCH   1   8
TORSDOF 1
ENDMDL
