MODEL 1
REMARK minimizedAffinity 16.6293602
REMARK minimizedRMSD -1
REMARK  0 active torsions:
REMARK  status: ('A' for Active; 'I' for Inactive)
ROOT
ATOM      1  N1  IND d   1       5.891   2.184   2.707  0.00  0.00    -0.196 N 
ATOM      2  C2  IND d   1       6.000   0.902   2.246  0.00  0.00     0.054 A 
ATOM      3  C3  IND d   1       4.774   0.369   2.043  0.00  0.00    -0.031 A 
ATOM      4  C4  IND d   1       2.455   1.456   2.304  0.00  0.00     0.051 A 
ATOM      5  C5  IND d   1       1.844   2.600   2.733  0.00  0.00    -0.031 A 
ATOM      6  C6  IND d   1       2.565   3.688   3.183  0.00  0.00     0.015 A 
ATOM      7  C7  IND d   1       3.931   3.675   3.209  0.00  0.00    -0.016 A 
ATOM      8  C8  IND d   1       4.555   2.512   2.780  0.00  0.00    -0.047 A 
ATOM      9  C9  IND d   1       3.827   1.390   2.363  0.00  0.00    -0.096 A 
ATOM     10  HN1 IND d   1       6.547   2.700   2.916  0.00  0.00     0.298 HD
ENDROOT
TORSDOF 0
ENDMDL
