MODEL 1
REMARK minimizedAffinity 16.2402916
REMARK minimizedRMSD -1
REMARK  0 active torsions:
REMARK  status: ('A' for Active; 'I' for Inactive)
ROOT
ATOM      1  N1  IND d   1      -4.970  -2.511   0.540  0.00  0.00    -0.196 N 
ATOM      2  C2  IND d   1      -6.000  -2.156  -0.286  0.00  0.00     0.054 A 
ATOM      3  C3  IND d   1      -5.922  -0.843  -0.598  0.00  0.00    -0.031 A 
ATOM      4  C4  IND d   1      -4.132   0.889   0.052  0.00  0.00     0.051 A 
ATOM      5  C5  IND d   1      -3.015   1.046   0.824  0.00  0.00    -0.031 A 
ATOM      6  C6  IND d   1      -2.481   0.004   1.554  0.00  0.00     0.015 A 
ATOM      7  C7  IND d   1      -3.039  -1.243   1.529  0.00  0.00    -0.016 A 
ATOM      8  C8  IND d   1      -4.177  -1.404   0.752  0.00  0.00    -0.047 A 
ATOM      9  C9  IND d   1      -4.749  -0.340   0.043  0.00  0.00    -0.096 A 
ATOM     10  HN1 IND d   1      -4.839  -3.293   0.872  0.00  0.00     0.298 HD
ENDROOT
TORSDOF 0
ENDMDL
