MODEL 1
REMARK minimizedAffinity 2.94903445
REMARK minimizedRMSD -1
REMARK  0 active torsions:
REMARK  status: ('A' for Active; 'I' for Inactive)
ROOT
ATOM      1  N1  IND d   1       0.956   0.654   0.168  0.00  0.00    -0.196 N 
ATOM      2  C2  IND d   1       2.139   0.073   0.531  0.00  0.00     0.054 A 
ATOM      3  C3  IND d   1       2.209  -1.189   0.053  0.00  0.00    -0.031 A 
ATOM      4  C4  IND d   1       0.542  -2.470  -1.433  0.00  0.00     0.051 A 
ATOM      5  C5  IND d   1      -0.700  -2.368  -1.994  0.00  0.00    -0.031 A 
ATOM      6  C6  IND d   1      -1.468  -1.229  -1.863  0.00  0.00     0.015 A 
ATOM      7  C7  IND d   1      -1.015  -0.141  -1.172  0.00  0.00    -0.016 A 
ATOM      8  C8  IND d   1       0.243  -0.244  -0.595  0.00  0.00    -0.047 A 
ATOM      9  C9  IND d   1       1.009  -1.413  -0.689  0.00  0.00    -0.096 A 
ATOM     10  HN1 IND d   1       0.701   1.447   0.381  0.00  0.00     0.298 HD
ENDROOT
TORSDOF 0
ENDMDL
