MODEL 1
REMARK minimizedAffinity 3.32855368
REMARK minimizedRMSD -1
REMARK  0 active torsions:
REMARK  status: ('A' for Active; 'I' for Inactive)
ROOT
ATOM      1  N1  IND d   1       1.046  -5.942   5.999  0.00  0.00    -0.196 N 
ATOM      2  C2  IND d   1       2.410  -5.845   5.979  0.00  0.00     0.054 A 
ATOM      3  C3  IND d   1       2.788  -4.547   5.936  0.00  0.00    -0.031 A 
ATOM      4  C4  IND d   1       1.342  -2.419   5.994  0.00  0.00     0.051 A 
ATOM      5  C5  IND d   1       0.041  -1.999   5.976  0.00  0.00    -0.031 A 
ATOM      6  C6  IND d   1      -1.012  -2.890   5.967  0.00  0.00     0.015 A 
ATOM      7  C7  IND d   1      -0.803  -4.240   5.988  0.00  0.00    -0.016 A 
ATOM      8  C8  IND d   1       0.516  -4.670   5.999  0.00  0.00    -0.047 A 
ATOM      9  C9  IND d   1       1.590  -3.771   5.965  0.00  0.00    -0.096 A 
ATOM     10  HN1 IND d   1       0.596  -6.674   6.010  0.00  0.00     0.298 HD
ENDROOT
TORSDOF 0
ENDMDL
