MODEL 1
REMARK minimizedAffinity -0.853348374
REMARK minimizedRMSD -1
REMARK  0 active torsions:
REMARK  status: ('A' for Active; 'I' for Inactive)
ROOT
ATOM      1  N1  IND d   1       0.816  -5.359   5.999  0.00  0.00    -0.196 N 
ATOM      2  C2  IND d   1       2.180  -5.444   5.990  0.00  0.00     0.054 A 
ATOM      3  C3  IND d   1       2.729  -4.209   5.951  0.00  0.00    -0.031 A 
ATOM      4  C4  IND d   1       1.579  -1.906   6.000  0.00  0.00     0.051 A 
ATOM      5  C5  IND d   1       0.346  -1.317   5.972  0.00  0.00    -0.031 A 
ATOM      6  C6  IND d   1      -0.817  -2.060   5.954  0.00  0.00     0.015 A 
ATOM      7  C7  IND d   1      -0.790  -3.426   5.975  0.00  0.00    -0.016 A 
ATOM      8  C8  IND d   1       0.460  -4.028   5.996  0.00  0.00    -0.047 A 
ATOM      9  C9  IND d   1       1.644  -3.280   5.972  0.00  0.00    -0.096 A 
ATOM     10  HN1 IND d   1       0.271  -6.024   6.006  0.00  0.00     0.298 HD
ENDROOT
TORSDOF 0
ENDMDL
