MODEL 1
REMARK minimizedAffinity 3.98473787
REMARK minimizedRMSD -1
REMARK  0 active torsions:
REMARK  status: ('A' for Active; 'I' for Inactive)
ROOT
ATOM      1  N1  IND d   1       0.432  -2.224  -1.672  0.00  0.00    -0.196 N 
ATOM      2  C2  IND d   1      -0.888  -2.013  -1.957  0.00  0.00     0.054 A 
ATOM      3  C3  IND d   1      -1.363  -0.970  -1.241  0.00  0.00    -0.031 A 
ATOM      4  C4  IND d   1      -0.125   0.599   0.383  0.00  0.00     0.051 A 
ATOM      5  C5  IND d   1       1.084   0.781   0.992  0.00  0.00    -0.031 A 
ATOM      6  C6  IND d   1       2.161  -0.043   0.737  0.00  0.00     0.015 A 
ATOM      7  C7  IND d   1       2.071  -1.079  -0.149  0.00  0.00    -0.016 A 
ATOM      8  C8  IND d   1       0.842  -1.272  -0.764  0.00  0.00    -0.047 A 
ATOM      9  C9  IND d   1      -0.266  -0.464  -0.478  0.00  0.00    -0.096 A 
ATOM     10  HN1 IND d   1       0.924  -2.846  -2.004  0.00  0.00     0.298 HD
ENDROOT
TORSDOF 0
ENDMDL
