MODEL 1
REMARK minimizedAffinity 2.72546315
REMARK minimizedRMSD -1
REMARK  0 active torsions:
REMARK  status: ('A' for Active; 'I' for Inactive)
ROOT
ATOM      1  N1  IND d   1       0.697  -0.504  -1.496  0.00  0.00    -0.196 N 
ATOM      2  C2  IND d   1      -0.234   0.487  -1.358  0.00  0.00     0.054 A 
ATOM      3  C3  IND d   1      -0.076   1.120  -0.173  0.00  0.00    -0.031 A 
ATOM      4  C4  IND d   1       1.711   0.762   1.646  0.00  0.00     0.051 A 
ATOM      5  C5  IND d   1       2.754  -0.053   1.985  0.00  0.00    -0.031 A 
ATOM      6  C6  IND d   1       3.175  -1.078   1.164  0.00  0.00     0.015 A 
ATOM      7  C7  IND d   1       2.574  -1.321  -0.038  0.00  0.00    -0.016 A 
ATOM      8  C8  IND d   1       1.509  -0.501  -0.383  0.00  0.00    -0.047 A 
ATOM      9  C9  IND d   1       1.050   0.515   0.465  0.00  0.00    -0.096 A 
ATOM     10  HN1 IND d   1       0.765  -1.039  -2.166  0.00  0.00     0.298 HD
ENDROOT
TORSDOF 0
ENDMDL
