MODEL 1
REMARK minimizedAffinity 7.73733187
REMARK minimizedRMSD -1
REMARK  0 active torsions:
REMARK  status: ('A' for Active; 'I' for Inactive)
ROOT
ATOM      1  N1  IND d   1      -5.433   2.168   0.814  0.00  0.00    -0.196 N 
ATOM      2  C2  IND d   1      -4.506   2.265   1.814  0.00  0.00     0.054 A 
ATOM      3  C3  IND d   1      -3.777   1.129   1.891  0.00  0.00    -0.031 A 
ATOM      4  C4  IND d   1      -3.866  -0.975   0.410  0.00  0.00     0.051 A 
ATOM      5  C5  IND d   1      -4.574  -1.544  -0.611  0.00  0.00    -0.031 A 
ATOM      6  C6  IND d   1      -5.625  -0.891  -1.222  0.00  0.00     0.015 A 
ATOM      7  C7  IND d   1      -6.000   0.366  -0.842  0.00  0.00    -0.016 A 
ATOM      8  C8  IND d   1      -5.287   0.945   0.198  0.00  0.00    -0.047 A 
ATOM      9  C9  IND d   1      -4.248   0.270   0.851  0.00  0.00    -0.096 A 
ATOM     10  HN1 IND d   1      -6.010   2.771   0.605  0.00  0.00     0.298 HD
ENDROOT
TORSDOF 0
ENDMDL
