MODEL 1
REMARK minimizedAffinity 5.74812555
REMARK minimizedRMSD -1
REMARK  1 active torsions:
REMARK  status: ('A' for Active; 'I' for Inactive)
REMARK    1  A    between atoms: C1_2  and  C2_3 
ROOT
ATOM      1  C2  UNL d   1      -0.803   0.581   1.962  0.00  0.00    -0.081 A 
ATOM      2  C3  UNL d   1      -1.128  -0.312   0.933  0.00  0.00     0.006 A 
ATOM      3  C4  UNL d   1      -2.258  -0.099   0.141  0.00  0.00     0.002 A 
ATOM      4  C5  UNL d   1      -3.078   1.014   0.358  0.00  0.00    -0.080 A 
ATOM      5  C6  UNL d   1      -4.277   1.271  -0.506  0.00  0.00     0.076 C 
ATOM      6  C7  UNL d   1      -2.763   1.897   1.397  0.00  0.00     0.002 A 
ATOM      7  C8  UNL d   1      -1.634   1.684   2.190  0.00  0.00     0.006 A 
ENDROOT
BRANCH   1   8
ATOM      8  C1  UNL d   1       0.450   0.389   2.776  0.00  0.00     0.054 C 
ATOM      9  C   UNL d   1       1.660   0.156   1.883  0.00  0.00     0.018 C 
ENDBRANCH   1   8
TORSDOF 1
ENDMDL
