MODEL 1
REMARK minimizedAffinity 1.04082787
REMARK minimizedRMSD -1
REMARK  1 active torsions:
REMARK  status: ('A' for Active; 'I' for Inactive)
REMARK    1  A    between atoms: C1_2  and  C2_3 
ROOT
ATOM      1  C2  UNL d   1      -0.108   0.963   2.323  0.00  0.00    -0.081 A 
ATOM      2  C3  UNL d   1       0.905   0.041   2.031  0.00  0.00     0.006 A 
ATOM      3  C4  UNL d   1       2.210   0.257   2.480  0.00  0.00     0.002 A 
ATOM      4  C5  UNL d   1       2.522   1.393   3.235  0.00  0.00    -0.080 A 
ATOM      5  C6  UNL d   1       3.912   1.622   3.749  0.00  0.00     0.076 C 
ATOM      6  C7  UNL d   1       1.514   2.323   3.512  0.00  0.00     0.002 A 
ATOM      7  C8  UNL d   1       0.209   2.108   3.063  0.00  0.00     0.006 A 
ENDROOT
BRANCH   1   8
ATOM      8  C1  UNL d   1      -1.530   0.700   1.896  0.00  0.00     0.054 C 
ATOM      9  C   UNL d   1      -2.069  -0.577   2.522  0.00  0.00     0.018 C 
ENDBRANCH   1   8
TORSDOF 1
ENDMDL
