MODEL 1
REMARK minimizedAffinity 13.516942
REMARK minimizedRMSD -1
REMARK  1 active torsions:
REMARK  status: ('A' for Active; 'I' for Inactive)
REMARK    1  A    between atoms: C1_2  and  C2_3 
ROOT
ATOM      1  C2  UNL d   1      -3.218   1.150   0.774  0.00  0.00    -0.081 A 
ATOM      2  C3  UNL d   1      -2.286   1.856   1.545  0.00  0.00     0.006 A 
ATOM      3  C4  UNL d   1      -1.225   1.187   2.160  0.00  0.00     0.002 A 
ATOM      4  C5  UNL d   1      -1.073  -0.195   2.008  0.00  0.00    -0.080 A 
ATOM      5  C6  UNL d   1       0.079  -0.921   2.637  0.00  0.00     0.076 C 
ATOM      6  C7  UNL d   1      -2.014  -0.903   1.252  0.00  0.00     0.002 A 
ATOM      7  C8  UNL d   1      -3.076  -0.235   0.638  0.00  0.00     0.006 A 
ENDROOT
BRANCH   1   8
ATOM      8  C1  UNL d   1      -4.327   1.878   0.058  0.00  0.00     0.054 C 
ATOM      9  C   UNL d   1      -4.855   1.063  -1.115  0.00  0.00     0.018 C 
ENDBRANCH   1   8
TORSDOF 1
ENDMDL
