MODEL 1
REMARK minimizedAffinity 9.6956892
REMARK minimizedRMSD -1
REMARK  1 active torsions:
REMARK  status: ('A' for Active; 'I' for Inactive)
REMARK    1  A    between atoms: C1_2  and  C2_3 
ROOT
ATOM      1  C2  UNL d   1      -1.037   0.256   2.369  0.00  0.00    -0.081 A 
ATOM      2  C3  UNL d   1      -1.499  -0.707   1.464  0.00  0.00     0.006 A 
ATOM      3  C4  UNL d   1      -2.544  -0.409   0.586  0.00  0.00     0.002 A 
ATOM      4  C5  UNL d   1      -3.139   0.857   0.594  0.00  0.00    -0.080 A 
ATOM      5  C6  UNL d   1      -4.242   1.199  -0.363  0.00  0.00     0.076 C 
ATOM      6  C7  UNL d   1      -2.689   1.813   1.511  0.00  0.00     0.002 A 
ATOM      7  C8  UNL d   1      -1.644   1.516   2.389  0.00  0.00     0.006 A 
ENDROOT
BRANCH   1   8
ATOM      8  C1  UNL d   1       0.134  -0.040   3.272  0.00  0.00     0.054 C 
ATOM      9  C   UNL d   1       1.454   0.301   2.597  0.00  0.00     0.018 C 
ENDBRANCH   1   8
TORSDOF 1
ENDMDL
