MODEL 1
REMARK minimizedAffinity 2.92556
REMARK minimizedRMSD -1
REMARK  1 active torsions:
REMARK  status: ('A' for Active; 'I' for Inactive)
REMARK    1  A    between atoms: C1_2  and  C2_3 
ROOT
ATOM      1  C2  UNL d   1      -0.118  -2.050  -0.802  0.00  0.00    -0.081 A 
ATOM      2  C3  UNL d   1       1.142  -1.698  -0.303  0.00  0.00     0.006 A 
ATOM      3  C4  UNL d   1       1.256  -0.952   0.872  0.00  0.00     0.002 A 
ATOM      4  C5  UNL d   1       0.112  -0.551   1.572  0.00  0.00    -0.080 A 
ATOM      5  C6  UNL d   1       0.221   0.225   2.851  0.00  0.00     0.076 C 
ATOM      6  C7  UNL d   1      -1.147  -0.888   1.064  0.00  0.00     0.002 A 
ATOM      7  C8  UNL d   1      -1.261  -1.633  -0.111  0.00  0.00     0.006 A 
ENDROOT
BRANCH   1   8
ATOM      8  C1  UNL d   1      -0.242  -2.910  -2.034  0.00  0.00     0.054 C 
ATOM      9  C   UNL d   1      -0.415  -4.377  -1.669  0.00  0.00     0.018 C 
ENDBRANCH   1   8
TORSDOF 1
ENDMDL
