MODEL 1
REMARK minimizedAffinity 6.23062134
REMARK minimizedRMSD -1
REMARK  1 active torsions:
REMARK  status: ('A' for Active; 'I' for Inactive)
REMARK    1  A    between atoms: C1_2  and  C2_3 
ROOT
ATOM      1  C2  UNL d   1      -0.586   0.056   2.213  0.00  0.00    -0.081 A 
ATOM      2  C3  UNL d   1      -0.308  -0.398   0.918  0.00  0.00     0.006 A 
ATOM      3  C4  UNL d   1       0.994  -0.753   0.556  0.00  0.00     0.002 A 
ATOM      4  C5  UNL d   1       2.037  -0.668   1.484  0.00  0.00    -0.080 A 
ATOM      5  C6  UNL d   1       3.433  -1.075   1.117  0.00  0.00     0.076 C 
ATOM      6  C7  UNL d   1       1.763  -0.198   2.773  0.00  0.00     0.002 A 
ATOM      7  C8  UNL d   1       0.462   0.158   3.136  0.00  0.00     0.006 A 
ENDROOT
BRANCH   1   8
ATOM      8  C1  UNL d   1      -1.999   0.378   2.626  0.00  0.00     0.054 C 
ATOM      9  C   UNL d   1      -2.569   1.524   1.802  0.00  0.00     0.018 C 
ENDBRANCH   1   8
TORSDOF 1
ENDMDL
