MODEL 1
REMARK minimizedAffinity -4.30288887
REMARK minimizedRMSD -1
REMARK  3 active torsions:
REMARK  status: ('A' for Active; 'I' for Inactive)
REMARK    1  A    between atoms: C3'_2  and  C2'_3 
REMARK    2  A    between atoms: C2'_3  and  C1'_4 
REMARK    3  A    between atoms: C1'_4  and  C1_5 
ROOT
ATOM      1  C1  N4B d   1      -0.237  -0.150   0.422  0.00  0.00    -0.075 A 
ATOM      2  C2  N4B d   1       0.440  -1.346   0.744  0.00  0.00     0.002 A 
ATOM      3  C3  N4B d   1       1.798  -1.332   0.953  0.00  0.00     0.002 A 
ATOM      4  C4  N4B d   1       2.499  -0.142   0.828  0.00  0.00    -0.004 A 
ATOM      5  C5  N4B d   1       1.833   1.014   0.541  0.00  0.00     0.002 A 
ATOM      6  C6  N4B d   1       0.469   1.015   0.333  0.00  0.00     0.002 A 
ENDROOT
BRANCH   1   7
ATOM      7  C1' N4B d   1      -1.706  -0.131   0.101  0.00  0.00     0.057 C 
BRANCH   7   8
ATOM      8  C2' N4B d   1      -1.913   0.528  -1.260  0.00  0.00     0.009 C 
BRANCH   8   9
ATOM      9  C3' N4B d   1      -3.033  -0.130  -2.046  0.00  0.00     0.004 C 
ATOM     10  C4' N4B d   1      -2.529  -1.084  -3.088  0.00  0.00     0.003 C 
ENDBRANCH   8   9
ENDBRANCH   7   8
ENDBRANCH   1   7
TORSDOF 3
ENDMDL
