MODEL 1
REMARK minimizedAffinity -3.39168358
REMARK minimizedRMSD -1
REMARK  3 active torsions:
REMARK  status: ('A' for Active; 'I' for Inactive)
REMARK    1  A    between atoms: C3'_2  and  C2'_3 
REMARK    2  A    between atoms: C2'_3  and  C1'_4 
REMARK    3  A    between atoms: C1'_4  and  C1_5 
ROOT
ATOM      1  C1  N4B d   1      -0.743   0.164  -0.765  0.00  0.00    -0.075 A 
ATOM      2  C2  N4B d   1      -0.313  -0.087  -2.087  0.00  0.00     0.002 A 
ATOM      3  C3  N4B d   1      -1.206  -0.002  -3.127  0.00  0.00     0.002 A 
ATOM      4  C4  N4B d   1      -2.532   0.311  -2.869  0.00  0.00    -0.004 A 
ATOM      5  C5  N4B d   1      -2.933   0.577  -1.592  0.00  0.00     0.002 A 
ATOM      6  C6  N4B d   1      -2.046   0.500  -0.538  0.00  0.00     0.002 A 
ENDROOT
BRANCH   1   7
ATOM      7  C1' N4B d   1       0.177  -0.001   0.414  0.00  0.00     0.057 C 
BRANCH   7   8
ATOM      8  C2' N4B d   1       1.315   1.010   0.306  0.00  0.00     0.009 C 
BRANCH   8   9
ATOM      9  C3' N4B d   1       2.362   0.804   1.387  0.00  0.00     0.004 C 
ATOM     10  C4' N4B d   1       3.454  -0.135   0.966  0.00  0.00     0.003 C 
ENDBRANCH   8   9
ENDBRANCH   7   8
ENDBRANCH   1   7
TORSDOF 3
ENDMDL
