MODEL 1
REMARK minimizedAffinity -5.27917767
REMARK minimizedRMSD -1
REMARK  3 active torsions:
REMARK  status: ('A' for Active; 'I' for Inactive)
REMARK    1  A    between atoms: C3'_2  and  C2'_3 
REMARK    2  A    between atoms: C2'_3  and  C1'_4 
REMARK    3  A    between atoms: C1'_4  and  C1_5 
ROOT
ATOM      1  C1  N4B d   1       0.076  -0.398  -0.192  0.00  0.00    -0.075 A 
ATOM      2  C2  N4B d   1       0.597   0.915  -0.171  0.00  0.00     0.002 A 
ATOM      3  C3  N4B d   1       1.918   1.124   0.138  0.00  0.00     0.002 A 
ATOM      4  C4  N4B d   1       2.730   0.043   0.448  0.00  0.00    -0.004 A 
ATOM      5  C5  N4B d   1       2.225  -1.223   0.402  0.00  0.00     0.002 A 
ATOM      6  C6  N4B d   1       0.900  -1.449   0.088  0.00  0.00     0.002 A 
ENDROOT
BRANCH   1   7
ATOM      7  C1' N4B d   1      -1.383  -0.669  -0.441  0.00  0.00     0.057 C 
BRANCH   7   8
ATOM      8  C2' N4B d   1      -2.013   0.551  -1.106  0.00  0.00     0.009 C 
BRANCH   8   9
ATOM      9  C3' N4B d   1      -2.649   0.205  -2.441  0.00  0.00     0.004 C 
ATOM     10  C4' N4B d   1      -2.450  -1.231  -2.825  0.00  0.00     0.003 C 
ENDBRANCH   8   9
ENDBRANCH   7   8
ENDBRANCH   1   7
TORSDOF 3
ENDMDL
