MODEL 1
REMARK minimizedAffinity 13.7467413
REMARK minimizedRMSD -1
REMARK  3 active torsions:
REMARK  status: ('A' for Active; 'I' for Inactive)
REMARK    1  A    between atoms: C3'_2  and  C2'_3 
REMARK    2  A    between atoms: C2'_3  and  C1'_4 
REMARK    3  A    between atoms: C1'_4  and  C1_5 
ROOT
ATOM      1  C1  N4B d   1      -2.799   1.243  -3.383  0.00  0.00    -0.075 A 
ATOM      2  C2  N4B d   1      -2.122   0.729  -2.255  0.00  0.00     0.002 A 
ATOM      3  C3  N4B d   1      -1.691  -0.575  -2.249  0.00  0.00     0.002 A 
ATOM      4  C4  N4B d   1      -1.942  -1.386  -3.345  0.00  0.00    -0.004 A 
ATOM      5  C5  N4B d   1      -2.574  -0.875  -4.441  0.00  0.00     0.002 A 
ATOM      6  C6  N4B d   1      -3.009   0.435  -4.463  0.00  0.00     0.002 A 
ENDROOT
BRANCH   1   7
ATOM      7  C1' N4B d   1      -3.364   2.637  -3.402  0.00  0.00     0.057 C 
BRANCH   7   8
ATOM      8  C2' N4B d   1      -4.058   2.915  -2.072  0.00  0.00     0.009 C 
BRANCH   8   9
ATOM      9  C3' N4B d   1      -4.528   4.355  -1.967  0.00  0.00     0.004 C 
ATOM     10  C4' N4B d   1      -5.934   4.471  -1.458  0.00  0.00     0.003 C 
ENDBRANCH   8   9
ENDBRANCH   7   8
ENDBRANCH   1   7
TORSDOF 3
ENDMDL
