MODEL 1
REMARK minimizedAffinity -3.48032928
REMARK minimizedRMSD -1
REMARK  3 active torsions:
REMARK  status: ('A' for Active; 'I' for Inactive)
REMARK    1  A    between atoms: C3'_2  and  C2'_3 
REMARK    2  A    between atoms: C2'_3  and  C1'_4 
REMARK    3  A    between atoms: C1'_4  and  C1_5 
ROOT
ATOM      1  C1  N4B d   1       0.473   0.361   0.078  0.00  0.00    -0.075 A 
ATOM      2  C2  N4B d   1       0.482  -0.972   0.546  0.00  0.00     0.002 A 
ATOM      3  C3  N4B d   1       1.676  -1.615   0.761  0.00  0.00     0.002 A 
ATOM      4  C4  N4B d   1       2.868  -0.956   0.499  0.00  0.00    -0.004 A 
ATOM      5  C5  N4B d   1       2.850   0.340   0.071  0.00  0.00     0.002 A 
ATOM      6  C6  N4B d   1       1.658   1.000  -0.146  0.00  0.00     0.002 A 
ENDROOT
BRANCH   1   7
ATOM      7  C1' N4B d   1      -0.808   1.077  -0.254  0.00  0.00     0.057 C 
BRANCH   7   8
ATOM      8  C2' N4B d   1      -1.219   0.732  -1.683  0.00  0.00     0.009 C 
BRANCH   8   9
ATOM      9  C3' N4B d   1      -2.705   0.943  -1.913  0.00  0.00     0.004 C 
ATOM     10  C4' N4B d   1      -3.002   2.195  -2.682  0.00  0.00     0.003 C 
ENDBRANCH   8   9
ENDBRANCH   7   8
ENDBRANCH   1   7
TORSDOF 3
ENDMDL
