MODEL 1
REMARK minimizedAffinity -3.03309536
REMARK minimizedRMSD -1
REMARK  3 active torsions:
REMARK  status: ('A' for Active; 'I' for Inactive)
REMARK    1  A    between atoms: C3'_2  and  C2'_3 
REMARK    2  A    between atoms: C2'_3  and  C1'_4 
REMARK    3  A    between atoms: C1'_4  and  C1_5 
ROOT
ATOM      1  C1  N4B d   1      -1.655  -0.415  -1.156  0.00  0.00    -0.075 A 
ATOM      2  C2  N4B d   1      -2.281   0.807  -1.487  0.00  0.00     0.002 A 
ATOM      3  C3  N4B d   1      -3.139   0.871  -2.557  0.00  0.00     0.002 A 
ATOM      4  C4  N4B d   1      -3.371  -0.265  -3.319  0.00  0.00    -0.004 A 
ATOM      5  C5  N4B d   1      -2.783  -1.447  -2.977  0.00  0.00     0.002 A 
ATOM      6  C6  N4B d   1      -1.921  -1.527  -1.902  0.00  0.00     0.002 A 
ENDROOT
BRANCH   1   7
ATOM      7  C1' N4B d   1      -0.643  -0.514  -0.047  0.00  0.00     0.057 C 
BRANCH   7   8
ATOM      8  C2' N4B d   1       0.739  -0.748  -0.651  0.00  0.00     0.009 C 
BRANCH   8   9
ATOM      9  C3' N4B d   1       1.593  -1.655   0.220  0.00  0.00     0.004 C 
ATOM     10  C4' N4B d   1       2.996  -1.152   0.380  0.00  0.00     0.003 C 
ENDBRANCH   8   9
ENDBRANCH   7   8
ENDBRANCH   1   7
TORSDOF 3
ENDMDL
