MODEL 1
REMARK minimizedAffinity 5.50802755
REMARK minimizedRMSD -1
REMARK  0 active torsions:
REMARK  status: ('A' for Active; 'I' for Inactive)
ROOT
ATOM      1  O1  BZF d   1       2.775   2.210  -3.095  0.00  0.00    -0.204 OA
ATOM      2  C2  BZF d   1       3.246   1.489  -2.015  0.00  0.00     0.174 A 
ATOM      3  C3  BZF d   1       4.496   1.038  -2.248  0.00  0.00    -0.012 A 
ATOM      4  C3A BZF d   1       4.862   1.586  -3.518  0.00  0.00    -0.107 A 
ATOM      5  C4  BZF d   1       5.991   1.510  -4.283  0.00  0.00     0.055 A 
ATOM      6  C5  BZF d   1       6.000   2.100  -5.507  0.00  0.00    -0.016 A 
ATOM      7  C6  BZF d   1       4.898   2.767  -6.000  0.00  0.00     0.022 A 
ATOM      8  C7  BZF d   1       3.757   2.873  -5.276  0.00  0.00     0.029 A 
ATOM      9  C7A BZF d   1       3.756   2.307  -4.025  0.00  0.00     0.058 A 
ENDROOT
TORSDOF 0
ENDMDL
