MODEL 1
REMARK minimizedAffinity 10.5554075
REMARK minimizedRMSD -1
REMARK  0 active torsions:
REMARK  status: ('A' for Active; 'I' for Inactive)
ROOT
ATOM      1  O1  BZF d   1      -6.000   1.704   1.839  0.00  0.00    -0.204 OA
ATOM      2  C2  BZF d   1      -5.008   2.381   1.156  0.00  0.00     0.174 A 
ATOM      3  C3  BZF d   1      -3.793   1.875   1.450  0.00  0.00    -0.012 A 
ATOM      4  C3A BZF d   1      -4.049   0.755   2.304  0.00  0.00    -0.107 A 
ATOM      5  C4  BZF d   1      -3.244  -0.163   2.915  0.00  0.00     0.055 A 
ATOM      6  C5  BZF d   1      -3.802  -1.086   3.741  0.00  0.00    -0.016 A 
ATOM      7  C6  BZF d   1      -5.160  -1.116   3.983  0.00  0.00     0.022 A 
ATOM      8  C7  BZF d   1      -6.000  -0.229   3.396  0.00  0.00     0.029 A 
ATOM      9  C7A BZF d   1      -5.442   0.684   2.535  0.00  0.00     0.058 A 
ENDROOT
TORSDOF 0
ENDMDL
