MODEL 1
REMARK minimizedAffinity 9.88711166
REMARK minimizedRMSD -1
REMARK  0 active torsions:
REMARK  status: ('A' for Active; 'I' for Inactive)
ROOT
ATOM      1  O1  BZF d   1       2.715  -0.298  -3.244  0.00  0.00    -0.204 OA
ATOM      2  C2  BZF d   1       1.769   0.388  -3.980  0.00  0.00     0.174 A 
ATOM      3  C3  BZF d   1       0.809   0.889  -3.176  0.00  0.00    -0.012 A 
ATOM      4  C3A BZF d   1       1.227   0.570  -1.846  0.00  0.00    -0.107 A 
ATOM      5  C4  BZF d   1       0.697   0.815  -0.611  0.00  0.00     0.055 A 
ATOM      6  C5  BZF d   1       1.315   0.303   0.486  0.00  0.00    -0.016 A 
ATOM      7  C6  BZF d   1       2.460  -0.461   0.384  0.00  0.00     0.022 A 
ATOM      8  C7  BZF d   1       3.024  -0.727  -0.818  0.00  0.00     0.029 A 
ATOM      9  C7A BZF d   1       2.421  -0.184  -1.926  0.00  0.00     0.058 A 
ENDROOT
TORSDOF 0
ENDMDL
