MODEL 1
REMARK minimizedAffinity 11.5115814
REMARK minimizedRMSD -1
REMARK  0 active torsions:
REMARK  status: ('A' for Active; 'I' for Inactive)
ROOT
ATOM      1  O1  BZF d   1       4.377  -5.956  -5.773  0.00  0.00    -0.204 OA
ATOM      2  C2  BZF d   1       5.475  -5.914  -4.936  0.00  0.00     0.174 A 
ATOM      3  C3  BZF d   1       5.091  -5.848  -3.645  0.00  0.00    -0.012 A 
ATOM      4  C3A BZF d   1       3.663  -5.943  -3.673  0.00  0.00    -0.107 A 
ATOM      5  C4  BZF d   1       2.704  -5.952  -2.701  0.00  0.00     0.055 A 
ATOM      6  C5  BZF d   1       1.395  -5.982  -3.065  0.00  0.00    -0.016 A 
ATOM      7  C6  BZF d   1       1.010  -5.999  -4.390  0.00  0.00     0.022 A 
ATOM      8  C7  BZF d   1       1.925  -5.996  -5.389  0.00  0.00     0.029 A 
ATOM      9  C7A BZF d   1       3.249  -5.999  -5.024  0.00  0.00     0.058 A 
ENDROOT
TORSDOF 0
ENDMDL
