MODEL 1
REMARK minimizedAffinity 4.91033459
REMARK minimizedRMSD -1
REMARK  0 active torsions:
REMARK  status: ('A' for Active; 'I' for Inactive)
ROOT
ATOM      1  O1  BZF d   1      -2.705   2.376  -5.981  0.00  0.00    -0.204 OA
ATOM      2  C2  BZF d   1      -3.809   1.545  -5.996  0.00  0.00     0.174 A 
ATOM      3  C3  BZF d   1      -4.949   2.263  -5.940  0.00  0.00    -0.012 A 
ATOM      4  C3A BZF d   1      -4.534   3.631  -5.981  0.00  0.00    -0.107 A 
ATOM      5  C4  BZF d   1      -5.210   4.818  -5.973  0.00  0.00     0.055 A 
ATOM      6  C5  BZF d   1      -4.505   5.980  -5.947  0.00  0.00    -0.016 A 
ATOM      7  C6  BZF d   1      -3.126   5.991  -5.924  0.00  0.00     0.022 A 
ATOM      8  C7  BZF d   1      -2.411   4.840  -5.937  0.00  0.00     0.029 A 
ATOM      9  C7A BZF d   1      -3.120   3.665  -5.996  0.00  0.00     0.058 A 
ENDROOT
TORSDOF 0
ENDMDL
