MODEL 1
REMARK minimizedAffinity 5.19634008
REMARK minimizedRMSD -1
REMARK  0 active torsions:
REMARK  status: ('A' for Active; 'I' for Inactive)
ROOT
ATOM      1  O1  BZF d   1       1.856  -5.912  -5.982  0.00  0.00    -0.204 OA
ATOM      2  C2  BZF d   1       0.907  -5.911  -4.978  0.00  0.00     0.174 A 
ATOM      3  C3  BZF d   1       1.495  -5.949  -3.765  0.00  0.00    -0.012 A 
ATOM      4  C3A BZF d   1       2.900  -5.884  -4.024  0.00  0.00    -0.107 A 
ATOM      5  C4  BZF d   1       4.004  -5.868  -3.220  0.00  0.00     0.055 A 
ATOM      6  C5  BZF d   1       5.237  -5.873  -3.791  0.00  0.00    -0.016 A 
ATOM      7  C6  BZF d   1       5.403  -5.899  -5.161  0.00  0.00     0.022 A 
ATOM      8  C7  BZF d   1       4.338  -5.910  -5.999  0.00  0.00     0.029 A 
ATOM      9  C7A BZF d   1       3.091  -5.872  -5.426  0.00  0.00     0.058 A 
ENDROOT
TORSDOF 0
ENDMDL
