MODEL 1
REMARK minimizedAffinity 0.57010448
REMARK minimizedRMSD -1
REMARK  0 active torsions:
REMARK  status: ('A' for Active; 'I' for Inactive)
ROOT
ATOM      1  O1  BZF d   1       2.003   4.972   4.366  0.00  0.00    -0.204 OA
ATOM      2  C2  BZF d   1       2.253   5.998   5.256  0.00  0.00     0.174 A 
ATOM      3  C3  BZF d   1       3.528   5.952   5.693  0.00  0.00    -0.012 A 
ATOM      4  C3A BZF d   1       4.138   4.882   4.964  0.00  0.00    -0.107 A 
ATOM      5  C4  BZF d   1       5.398   4.357   4.946  0.00  0.00     0.055 A 
ATOM      6  C5  BZF d   1       5.648   3.266   4.175  0.00  0.00    -0.016 A 
ATOM      7  C6  BZF d   1       4.662   2.673   3.414  0.00  0.00     0.022 A 
ATOM      8  C7  BZF d   1       3.398   3.162   3.396  0.00  0.00     0.029 A 
ATOM      9  C7A BZF d   1       3.150   4.283   4.149  0.00  0.00     0.058 A 
ENDROOT
TORSDOF 0
ENDMDL
