MODEL 1
REMARK minimizedAffinity 15.361618
REMARK minimizedRMSD -1
REMARK  0 active torsions:
REMARK  status: ('A' for Active; 'I' for Inactive)
ROOT
ATOM      1  O1  BZF d   1       5.071   2.431   4.134  0.00  0.00    -0.204 OA
ATOM      2  C2  BZF d   1       5.992   2.229   5.144  0.00  0.00     0.174 A 
ATOM      3  C3  BZF d   1       5.999   3.271   6.000  0.00  0.00    -0.012 A 
ATOM      4  C3A BZF d   1       4.956   4.139   5.545  0.00  0.00    -0.107 A 
ATOM      5  C4  BZF d   1       4.465   5.331   5.994  0.00  0.00     0.055 A 
ATOM      6  C5  BZF d   1       3.490   5.954   5.280  0.00  0.00    -0.016 A 
ATOM      7  C6  BZF d   1       2.988   5.417   4.113  0.00  0.00     0.022 A 
ATOM      8  C7  BZF d   1       3.441   4.234   3.631  0.00  0.00     0.029 A 
ATOM      9  C7A BZF d   1       4.402   3.585   4.368  0.00  0.00     0.058 A 
ENDROOT
TORSDOF 0
ENDMDL
