MODEL 1
REMARK minimizedAffinity 7.22629023
REMARK minimizedRMSD -1
REMARK  0 active torsions:
REMARK  status: ('A' for Active; 'I' for Inactive)
ROOT
ATOM      1  O1  BZF d   1       1.512   2.407   0.989  0.00  0.00    -0.204 OA
ATOM      2  C2  BZF d   1       2.087   1.416   1.761  0.00  0.00     0.174 A 
ATOM      3  C3  BZF d   1       2.835   0.591   1.000  0.00  0.00    -0.012 A 
ATOM      4  C3A BZF d   1       2.794   1.151  -0.316  0.00  0.00    -0.107 A 
ATOM      5  C4  BZF d   1       3.357   0.792  -1.507  0.00  0.00     0.055 A 
ATOM      6  C5  BZF d   1       3.061   1.512  -2.621  0.00  0.00    -0.016 A 
ATOM      7  C6  BZF d   1       2.203   2.591  -2.581  0.00  0.00     0.022 A 
ATOM      8  C7  BZF d   1       1.624   2.989  -1.422  0.00  0.00     0.029 A 
ATOM      9  C7A BZF d   1       1.948   2.284  -0.288  0.00  0.00     0.058 A 
ENDROOT
TORSDOF 0
ENDMDL
