MODEL 1
REMARK minimizedAffinity 11.6149321
REMARK minimizedRMSD -1
REMARK  0 active torsions:
REMARK  status: ('A' for Active; 'I' for Inactive)
ROOT
ATOM      1  O1  BZF d   1       3.751   4.438  -0.901  0.00  0.00    -0.204 OA
ATOM      2  C2  BZF d   1       2.578   3.942  -0.365  0.00  0.00     0.174 A 
ATOM      3  C3  BZF d   1       2.426   2.637  -0.673  0.00  0.00    -0.012 A 
ATOM      4  C3A BZF d   1       3.620   2.274  -1.371  0.00  0.00    -0.107 A 
ATOM      5  C4  BZF d   1       4.069   1.106  -1.919  0.00  0.00     0.055 A 
ATOM      6  C5  BZF d   1       5.248   1.104  -2.596  0.00  0.00    -0.016 A 
ATOM      7  C6  BZF d   1       6.000   2.250  -2.747  0.00  0.00     0.022 A 
ATOM      8  C7  BZF d   1       5.598   3.431  -2.217  0.00  0.00     0.029 A 
ATOM      9  C7A BZF d   1       4.424   3.430  -1.505  0.00  0.00     0.058 A 
ENDROOT
TORSDOF 0
ENDMDL
