MODEL 1
REMARK minimizedAffinity 5.96597672
REMARK minimizedRMSD -1
REMARK  0 active torsions:
REMARK  status: ('A' for Active; 'I' for Inactive)
ROOT
ATOM      1  O1  BZF d   1       0.221   4.193  -5.998  0.00  0.00    -0.204 OA
ATOM      2  C2  BZF d   1      -1.084   3.740  -5.998  0.00  0.00     0.174 A 
ATOM      3  C3  BZF d   1      -1.123   2.392  -5.999  0.00  0.00    -0.012 A 
ATOM      4  C3A BZF d   1       0.243   1.977  -5.906  0.00  0.00    -0.107 A 
ATOM      5  C4  BZF d   1       0.851   0.755  -5.849  0.00  0.00     0.055 A 
ATOM      6  C5  BZF d   1       2.209   0.693  -5.837  0.00  0.00    -0.016 A 
ATOM      7  C6  BZF d   1       2.988   1.831  -5.887  0.00  0.00     0.022 A 
ATOM      8  C7  BZF d   1       2.430   3.065  -5.939  0.00  0.00     0.029 A 
ATOM      9  C7A BZF d   1       1.059   3.132  -5.918  0.00  0.00     0.058 A 
ENDROOT
TORSDOF 0
ENDMDL
