MODEL 1
REMARK minimizedAffinity 15.1716404
REMARK minimizedRMSD -1
REMARK  0 active torsions:
REMARK  status: ('A' for Active; 'I' for Inactive)
ROOT
ATOM      1  O1  BZF d   1       2.728   0.571   2.252  0.00  0.00    -0.204 OA
ATOM      2  C2  BZF d   1       3.968   0.983   2.699  0.00  0.00     0.174 A 
ATOM      3  C3  BZF d   1       4.469   1.946   1.899  0.00  0.00    -0.012 A 
ATOM      4  C3A BZF d   1       3.440   2.213   0.942  0.00  0.00    -0.107 A 
ATOM      5  C4  BZF d   1       3.335   3.082  -0.107  0.00  0.00     0.055 A 
ATOM      6  C5  BZF d   1       2.226   3.042  -0.890  0.00  0.00    -0.016 A 
ATOM      7  C6  BZF d   1       1.205   2.143  -0.657  0.00  0.00     0.022 A 
ATOM      8  C7  BZF d   1       1.261   1.265   0.374  0.00  0.00     0.029 A 
ATOM      9  C7A BZF d   1       2.367   1.326   1.187  0.00  0.00     0.058 A 
ENDROOT
TORSDOF 0
ENDMDL
