MODEL 1
REMARK minimizedAffinity 0.959466934
REMARK minimizedRMSD -1
REMARK  0 active torsions:
REMARK  status: ('A' for Active; 'I' for Inactive)
ROOT
ATOM      1  O1  BZF d   1       2.062  -5.812  -5.897  0.00  0.00    -0.204 OA
ATOM      2  C2  BZF d   1       1.143  -5.866  -4.866  0.00  0.00     0.174 A 
ATOM      3  C3  BZF d   1       1.766  -5.999  -3.677  0.00  0.00    -0.012 A 
ATOM      4  C3A BZF d   1       3.164  -5.937  -3.975  0.00  0.00    -0.107 A 
ATOM      5  C4  BZF d   1       4.291  -5.994  -3.207  0.00  0.00     0.055 A 
ATOM      6  C5  BZF d   1       5.507  -5.978  -3.814  0.00  0.00    -0.016 A 
ATOM      7  C6  BZF d   1       5.631  -5.910  -5.187  0.00  0.00     0.022 A 
ATOM      8  C7  BZF d   1       4.542  -5.847  -5.990  0.00  0.00     0.029 A 
ATOM      9  C7A BZF d   1       3.313  -5.829  -5.377  0.00  0.00     0.058 A 
ENDROOT
TORSDOF 0
ENDMDL
