MODEL 1
REMARK minimizedAffinity 4.06921101
REMARK minimizedRMSD -1
REMARK  0 active torsions:
REMARK  status: ('A' for Active; 'I' for Inactive)
ROOT
ATOM      1  O1  BZF d   1       2.021   5.692   2.631  0.00  0.00    -0.204 OA
ATOM      2  C2  BZF d   1       2.578   4.950   1.607  0.00  0.00     0.174 A 
ATOM      3  C3  BZF d   1       3.651   4.261   2.043  0.00  0.00    -0.012 A 
ATOM      4  C3A BZF d   1       3.719   4.520   3.449  0.00  0.00    -0.107 A 
ATOM      5  C4  BZF d   1       4.560   4.104   4.441  0.00  0.00     0.055 A 
ATOM      6  C5  BZF d   1       4.396   4.599   5.696  0.00  0.00    -0.016 A 
ATOM      7  C6  BZF d   1       3.407   5.514   5.993  0.00  0.00     0.022 A 
ATOM      8  C7  BZF d   1       2.546   5.953   5.043  0.00  0.00     0.029 A 
ATOM      9  C7A BZF d   1       2.688   5.429   3.781  0.00  0.00     0.058 A 
ENDROOT
TORSDOF 0
ENDMDL
