MODEL 1
REMARK minimizedAffinity 9.03901577
REMARK minimizedRMSD -1
REMARK  0 active torsions:
REMARK  status: ('A' for Active; 'I' for Inactive)
ROOT
ATOM      1  O1  BZF d   1       0.593   0.759   1.078  0.00  0.00    -0.204 OA
ATOM      2  C2  BZF d   1       0.162   0.930  -0.223  0.00  0.00     0.174 A 
ATOM      3  C3  BZF d   1       0.946   1.813  -0.875  0.00  0.00    -0.012 A 
ATOM      4  C3A BZF d   1       1.983   2.150   0.052  0.00  0.00    -0.107 A 
ATOM      5  C4  BZF d   1       3.074   2.969  -0.017  0.00  0.00     0.055 A 
ATOM      6  C5  BZF d   1       3.847   3.134   1.088  0.00  0.00    -0.016 A 
ATOM      7  C6  BZF d   1       3.557   2.500   2.278  0.00  0.00     0.022 A 
ATOM      8  C7  BZF d   1       2.489   1.673   2.394  0.00  0.00     0.029 A 
ATOM      9  C7A BZF d   1       1.724   1.479   1.269  0.00  0.00     0.058 A 
ENDROOT
TORSDOF 0
ENDMDL
