MODEL 1
REMARK minimizedAffinity 13.6517897
REMARK minimizedRMSD -1
REMARK  0 active torsions:
REMARK  status: ('A' for Active; 'I' for Inactive)
ROOT
ATOM      1  O1  BZF d   1       3.356   6.000   5.093  0.00  0.00    -0.204 OA
ATOM      2  C2  BZF d   1       4.534   5.998   5.816  0.00  0.00     0.174 A 
ATOM      3  C3  BZF d   1       5.260   4.895   5.542  0.00  0.00    -0.012 A 
ATOM      4  C3A BZF d   1       4.532   4.208   4.521  0.00  0.00    -0.107 A 
ATOM      5  C4  BZF d   1       4.753   3.054   3.824  0.00  0.00     0.055 A 
ATOM      6  C5  BZF d   1       3.810   2.621   2.946  0.00  0.00    -0.016 A 
ATOM      7  C6  BZF d   1       2.634   3.314   2.744  0.00  0.00     0.022 A 
ATOM      8  C7  BZF d   1       2.373   4.467   3.407  0.00  0.00     0.029 A 
ATOM      9  C7A BZF d   1       3.338   4.924   4.271  0.00  0.00     0.058 A 
ENDROOT
TORSDOF 0
ENDMDL
