MODEL 1
REMARK minimizedAffinity 22.8002834
REMARK minimizedRMSD -1
REMARK  0 active torsions:
REMARK  status: ('A' for Active; 'I' for Inactive)
ROOT
ATOM      1  O1  BZF d   1       2.752   3.630  -5.999  0.00  0.00    -0.204 OA
ATOM      2  C2  BZF d   1       4.093   3.296  -5.999  0.00  0.00     0.174 A 
ATOM      3  C3  BZF d   1       4.278   2.061  -5.488  0.00  0.00    -0.012 A 
ATOM      4  C3A BZF d   1       2.962   1.558  -5.233  0.00  0.00    -0.107 A 
ATOM      5  C4  BZF d   1       2.488   0.377  -4.739  0.00  0.00     0.055 A 
ATOM      6  C5  BZF d   1       1.151   0.231  -4.546  0.00  0.00    -0.016 A 
ATOM      7  C6  BZF d   1       0.261   1.245  -4.832  0.00  0.00     0.022 A 
ATOM      8  C7  BZF d   1       0.684   2.433  -5.330  0.00  0.00     0.029 A 
ATOM      9  C7A BZF d   1       2.031   2.572  -5.556  0.00  0.00     0.058 A 
ENDROOT
TORSDOF 0
ENDMDL
