MODEL 1
REMARK minimizedAffinity 19.475378
REMARK minimizedRMSD -1
REMARK  0 active torsions:
REMARK  status: ('A' for Active; 'I' for Inactive)
ROOT
ATOM      1  O1  BZF d   1      -3.379  -3.760   5.381  0.00  0.00    -0.204 OA
ATOM      2  C2  BZF d   1      -4.439  -4.415   5.976  0.00  0.00     0.174 A 
ATOM      3  C3  BZF d   1      -5.615  -3.929   5.527  0.00  0.00    -0.012 A 
ATOM      4  C3A BZF d   1      -5.267  -2.970   4.524  0.00  0.00    -0.107 A 
ATOM      5  C4  BZF d   1      -6.000  -2.161   3.703  0.00  0.00     0.055 A 
ATOM      6  C5  BZF d   1      -5.354  -1.286   2.889  0.00  0.00    -0.016 A 
ATOM      7  C6  BZF d   1      -3.978  -1.189   2.873  0.00  0.00     0.022 A 
ATOM      8  C7  BZF d   1      -3.208  -1.973   3.666  0.00  0.00     0.029 A 
ATOM      9  C7A BZF d   1      -3.856  -2.882   4.466  0.00  0.00     0.058 A 
ENDROOT
TORSDOF 0
ENDMDL
