MODEL 1
REMARK minimizedAffinity -5.54721689
REMARK minimizedRMSD -1
REMARK  0 active torsions:
REMARK  status: ('A' for Active; 'I' for Inactive)
ROOT
ATOM      1  C   UNL d   1      -3.042   1.161   1.509  0.00  0.00     0.077 C 
ATOM      2  C1  UNL d   1      -1.614   0.770   1.268  0.00  0.00    -0.074 A 
ATOM      3  C2  UNL d   1      -0.724   0.605   2.334  0.00  0.00    -0.005 A 
ATOM      4  C3  UNL d   1       0.598   0.231   2.095  0.00  0.00     0.006 A 
ATOM      5  C4  UNL d   1       1.043   0.019   0.790  0.00  0.00    -0.005 A 
ATOM      6  C5  UNL d   1       0.168   0.179  -0.289  0.00  0.00    -0.074 A 
ATOM      7  C6  UNL d   1       0.627  -0.054  -1.697  0.00  0.00     0.077 C 
ATOM      8  C7  UNL d   1      -1.162   0.548  -0.040  0.00  0.00    -0.001 A 
ENDROOT
TORSDOF 0
ENDMDL
