MODEL 1
REMARK minimizedAffinity -2.3325088
REMARK minimizedRMSD -1
REMARK  0 active torsions:
REMARK  status: ('A' for Active; 'I' for Inactive)
ROOT
ATOM      1  C   UNL d   1       0.917   0.300  -1.320  0.00  0.00     0.077 C 
ATOM      2  C1  UNL d   1       0.179   0.361  -0.016  0.00  0.00    -0.074 A 
ATOM      3  C2  UNL d   1       0.867   0.350   1.201  0.00  0.00    -0.005 A 
ATOM      4  C3  UNL d   1       0.166   0.416   2.405  0.00  0.00     0.006 A 
ATOM      5  C4  UNL d   1      -1.227   0.494   2.405  0.00  0.00    -0.005 A 
ATOM      6  C5  UNL d   1      -1.932   0.508   1.197  0.00  0.00    -0.074 A 
ATOM      7  C6  UNL d   1      -3.429   0.601   1.178  0.00  0.00     0.077 C 
ATOM      8  C7  UNL d   1      -1.221   0.448  -0.009  0.00  0.00    -0.001 A 
ENDROOT
TORSDOF 0
ENDMDL
