MODEL 1
REMARK minimizedAffinity -2.87666655
REMARK minimizedRMSD -1
REMARK  0 active torsions:
REMARK  status: ('A' for Active; 'I' for Inactive)
ROOT
ATOM      1  C   UNL d   1      -0.223   0.557   2.820  0.00  0.00     0.077 C 
ATOM      2  C1  UNL d   1      -0.553   0.535   1.357  0.00  0.00    -0.074 A 
ATOM      3  C2  UNL d   1      -1.854   0.787   0.910  0.00  0.00    -0.005 A 
ATOM      4  C3  UNL d   1      -2.145   0.773  -0.454  0.00  0.00     0.006 A 
ATOM      5  C4  UNL d   1      -1.138   0.508  -1.384  0.00  0.00    -0.005 A 
ATOM      6  C5  UNL d   1       0.169   0.255  -0.956  0.00  0.00    -0.074 A 
ATOM      7  C6  UNL d   1       1.264  -0.022  -1.942  0.00  0.00     0.077 C 
ATOM      8  C7  UNL d   1       0.454   0.278   0.416  0.00  0.00    -0.001 A 
ENDROOT
TORSDOF 0
ENDMDL
