MODEL 1
REMARK minimizedAffinity -2.99646616
REMARK minimizedRMSD -1
REMARK  0 active torsions:
REMARK  status: ('A' for Active; 'I' for Inactive)
ROOT
ATOM      1  C   UNL d   1       0.001   0.360  -1.313  0.00  0.00     0.077 C 
ATOM      2  C1  UNL d   1      -0.162   0.371   0.178  0.00  0.00    -0.074 A 
ATOM      3  C2  UNL d   1       0.918   0.089   1.021  0.00  0.00    -0.005 A 
ATOM      4  C3  UNL d   1       0.754   0.112   2.406  0.00  0.00     0.006 A 
ATOM      5  C4  UNL d   1      -0.490   0.418   2.961  0.00  0.00    -0.005 A 
ATOM      6  C5  UNL d   1      -1.580   0.704   2.134  0.00  0.00    -0.074 A 
ATOM      7  C6  UNL d   1      -2.921   1.044   2.714  0.00  0.00     0.077 C 
ATOM      8  C7  UNL d   1      -1.406   0.685   0.743  0.00  0.00    -0.001 A 
ENDROOT
TORSDOF 0
ENDMDL
