MODEL 1
REMARK minimizedAffinity -2.1210618
REMARK minimizedRMSD -1
REMARK  0 active torsions:
REMARK  status: ('A' for Active; 'I' for Inactive)
ROOT
ATOM      1  C   UNL d   1       1.259  -0.303  -3.177  0.00  0.00     0.077 C 
ATOM      2  C1  UNL d   1       0.740  -0.044  -1.794  0.00  0.00    -0.074 A 
ATOM      3  C2  UNL d   1       1.596  -0.074  -0.688  0.00  0.00    -0.005 A 
ATOM      4  C3  UNL d   1       1.101   0.178   0.591  0.00  0.00     0.006 A 
ATOM      5  C4  UNL d   1      -0.252   0.462   0.777  0.00  0.00    -0.005 A 
ATOM      6  C5  UNL d   1      -1.123   0.497  -0.316  0.00  0.00    -0.074 A 
ATOM      7  C6  UNL d   1      -2.578   0.810  -0.135  0.00  0.00     0.077 C 
ATOM      8  C7  UNL d   1      -0.617   0.250  -1.600  0.00  0.00    -0.001 A 
ENDROOT
TORSDOF 0
ENDMDL
