MODEL 1
REMARK minimizedAffinity -0.533038437
REMARK minimizedRMSD -1
REMARK  0 active torsions:
REMARK  status: ('A' for Active; 'I' for Inactive)
ROOT
ATOM      1  C   UNL d   1       3.874  -0.631  -3.817  0.00  0.00     0.077 C 
ATOM      2  C1  UNL d   1       2.434  -0.832  -3.451  0.00  0.00    -0.074 A 
ATOM      3  C2  UNL d   1       1.685  -1.865  -4.024  0.00  0.00    -0.005 A 
ATOM      4  C3  UNL d   1       0.349  -2.046  -3.666  0.00  0.00     0.006 A 
ATOM      5  C4  UNL d   1      -0.251  -1.198  -2.734  0.00  0.00    -0.005 A 
ATOM      6  C5  UNL d   1       0.483  -0.161  -2.150  0.00  0.00    -0.074 A 
ATOM      7  C6  UNL d   1      -0.143   0.754  -1.140  0.00  0.00     0.077 C 
ATOM      8  C7  UNL d   1       1.827   0.011  -2.509  0.00  0.00    -0.001 A 
ENDROOT
TORSDOF 0
ENDMDL
