MODEL 1
REMARK minimizedAffinity -0.192738295
REMARK minimizedRMSD -1
REMARK  0 active torsions:
REMARK  status: ('A' for Active; 'I' for Inactive)
ROOT
ATOM      1  C   UNL d   1      -3.110   0.686   1.993  0.00  0.00     0.077 C 
ATOM      2  C1  UNL d   1      -1.623   0.719   2.182  0.00  0.00    -0.074 A 
ATOM      3  C2  UNL d   1      -0.792  -0.180   1.505  0.00  0.00    -0.005 A 
ATOM      4  C3  UNL d   1       0.590  -0.131   1.684  0.00  0.00     0.006 A 
ATOM      5  C4  UNL d   1       1.155   0.815   2.540  0.00  0.00    -0.005 A 
ATOM      6  C5  UNL d   1       0.341   1.722   3.225  0.00  0.00    -0.074 A 
ATOM      7  C6  UNL d   1       0.932   2.751   4.142  0.00  0.00     0.077 C 
ATOM      8  C7  UNL d   1      -1.047   1.671   3.035  0.00  0.00    -0.001 A 
ENDROOT
TORSDOF 0
ENDMDL
