MODEL 1
REMARK minimizedAffinity -3.43942332
REMARK minimizedRMSD -1
REMARK  0 active torsions:
REMARK  status: ('A' for Active; 'I' for Inactive)
ROOT
ATOM      1  C   UNL d   1      -0.002   0.433  -1.362  0.00  0.00     0.077 C 
ATOM      2  C1  UNL d   1       0.189   0.272   0.117  0.00  0.00    -0.074 A 
ATOM      3  C2  UNL d   1       1.444  -0.039   0.651  0.00  0.00    -0.005 A 
ATOM      4  C3  UNL d   1       1.608  -0.175   2.029  0.00  0.00     0.006 A 
ATOM      5  C4  UNL d   1       0.521  -0.002   2.887  0.00  0.00    -0.005 A 
ATOM      6  C5  UNL d   1      -0.741   0.310   2.372  0.00  0.00    -0.074 A 
ATOM      7  C6  UNL d   1      -1.918   0.508   3.280  0.00  0.00     0.077 C 
ATOM      8  C7  UNL d   1      -0.897   0.452   0.986  0.00  0.00    -0.001 A 
ENDROOT
TORSDOF 0
ENDMDL
