MODEL 1
REMARK minimizedAffinity -1.43157661
REMARK minimizedRMSD -1
REMARK  0 active torsions:
REMARK  status: ('A' for Active; 'I' for Inactive)
ROOT
ATOM      1  C   UNL d   1       0.072   0.095   0.076  0.00  0.00     0.077 C 
ATOM      2  C1  UNL d   1       0.649  -0.337  -1.239  0.00  0.00    -0.074 A 
ATOM      3  C2  UNL d   1       1.212   0.594  -2.118  0.00  0.00    -0.005 A 
ATOM      4  C3  UNL d   1       1.753   0.176  -3.333  0.00  0.00     0.006 A 
ATOM      5  C4  UNL d   1       1.737  -1.175  -3.683  0.00  0.00    -0.005 A 
ATOM      6  C5  UNL d   1       1.179  -2.120  -2.817  0.00  0.00    -0.074 A 
ATOM      7  C6  UNL d   1       1.162  -3.577  -3.172  0.00  0.00     0.077 C 
ATOM      8  C7  UNL d   1       0.643  -1.693  -1.594  0.00  0.00    -0.001 A 
ENDROOT
TORSDOF 0
ENDMDL
