MODEL 1
REMARK minimizedAffinity -1.23073876
REMARK minimizedRMSD -1
REMARK  0 active torsions:
REMARK  status: ('A' for Active; 'I' for Inactive)
ROOT
ATOM      1  C   UNL d   1       0.406   0.041  -1.389  0.00  0.00     0.077 C 
ATOM      2  C1  UNL d   1       0.177   0.204   0.084  0.00  0.00    -0.074 A 
ATOM      3  C2  UNL d   1       1.240   0.126   0.990  0.00  0.00    -0.005 A 
ATOM      4  C3  UNL d   1       1.012   0.289   2.357  0.00  0.00     0.006 A 
ATOM      5  C4  UNL d   1      -0.278   0.531   2.831  0.00  0.00    -0.005 A 
ATOM      6  C5  UNL d   1      -1.353   0.613   1.940  0.00  0.00    -0.074 A 
ATOM      7  C6  UNL d   1      -2.744   0.883   2.431  0.00  0.00     0.077 C 
ATOM      8  C7  UNL d   1      -1.115   0.456   0.567  0.00  0.00    -0.001 A 
ENDROOT
TORSDOF 0
ENDMDL
