MODEL 1
REMARK minimizedAffinity -3.67494464
REMARK minimizedRMSD -1
REMARK  0 active torsions:
REMARK  status: ('A' for Active; 'I' for Inactive)
ROOT
ATOM      1  C   UNL d   1       0.335  -0.185  -1.442  0.00  0.00     0.077 C 
ATOM      2  C1  UNL d   1      -0.111   0.126  -0.044  0.00  0.00    -0.074 A 
ATOM      3  C2  UNL d   1       0.810   0.195   1.006  0.00  0.00    -0.005 A 
ATOM      4  C3  UNL d   1       0.381   0.495   2.299  0.00  0.00     0.006 A 
ATOM      5  C4  UNL d   1      -0.970   0.729   2.554  0.00  0.00    -0.005 A 
ATOM      6  C5  UNL d   1      -1.906   0.665   1.517  0.00  0.00    -0.074 A 
ATOM      7  C6  UNL d   1      -3.361   0.923   1.773  0.00  0.00     0.077 C 
ATOM      8  C7  UNL d   1      -1.467   0.370   0.219  0.00  0.00    -0.001 A 
ENDROOT
TORSDOF 0
ENDMDL
