MODEL 1
REMARK minimizedAffinity -3.5852499
REMARK minimizedRMSD -1
REMARK  0 active torsions:
REMARK  status: ('A' for Active; 'I' for Inactive)
ROOT
ATOM      1  C   UNL d   1       0.155   0.285  -1.542  0.00  0.00     0.077 C 
ATOM      2  C1  UNL d   1      -0.090   0.240  -0.063  0.00  0.00    -0.074 A 
ATOM      3  C2  UNL d   1       0.945  -0.061   0.828  0.00  0.00    -0.005 A 
ATOM      4  C3  UNL d   1       0.704  -0.089   2.202  0.00  0.00     0.006 A 
ATOM      5  C4  UNL d   1      -0.572   0.182   2.698  0.00  0.00    -0.005 A 
ATOM      6  C5  UNL d   1      -1.619   0.486   1.822  0.00  0.00    -0.074 A 
ATOM      7  C6  UNL d   1      -2.994   0.790   2.338  0.00  0.00     0.077 C 
ATOM      8  C7  UNL d   1      -1.367   0.520   0.443  0.00  0.00    -0.001 A 
ENDROOT
TORSDOF 0
ENDMDL
