MODEL 1
REMARK minimizedAffinity -2.09905601
REMARK minimizedRMSD -1
REMARK  0 active torsions:
REMARK  status: ('A' for Active; 'I' for Inactive)
ROOT
ATOM      1  C   UNL d   1      -2.462   0.252   0.050  0.00  0.00     0.077 C 
ATOM      2  C1  UNL d   1      -0.987   0.048  -0.129  0.00  0.00    -0.074 A 
ATOM      3  C2  UNL d   1      -0.104   0.212   0.943  0.00  0.00    -0.005 A 
ATOM      4  C3  UNL d   1       1.265   0.009   0.764  0.00  0.00     0.006 A 
ATOM      5  C4  UNL d   1       1.763  -0.359  -0.487  0.00  0.00    -0.005 A 
ATOM      6  C5  UNL d   1       0.894  -0.529  -1.570  0.00  0.00    -0.074 A 
ATOM      7  C6  UNL d   1       1.412  -0.934  -2.918  0.00  0.00     0.077 C 
ATOM      8  C7  UNL d   1      -0.480  -0.330  -1.380  0.00  0.00    -0.001 A 
ENDROOT
TORSDOF 0
ENDMDL
