MODEL 1
REMARK minimizedAffinity -4.31888008
REMARK minimizedRMSD -1
REMARK  0 active torsions:
REMARK  status: ('A' for Active; 'I' for Inactive)
ROOT
ATOM      1  C   UNL d   1      -3.055   0.895   1.490  0.00  0.00     0.077 C 
ATOM      2  C1  UNL d   1      -1.593   0.656   1.255  0.00  0.00    -0.074 A 
ATOM      3  C2  UNL d   1      -0.708   0.503   2.328  0.00  0.00    -0.005 A 
ATOM      4  C3  UNL d   1       0.647   0.272   2.094  0.00  0.00     0.006 A 
ATOM      5  C4  UNL d   1       1.132   0.192   0.788  0.00  0.00    -0.005 A 
ATOM      6  C5  UNL d   1       0.262   0.342  -0.297  0.00  0.00    -0.074 A 
ATOM      7  C6  UNL d   1       0.765   0.249  -1.707  0.00  0.00     0.077 C 
ATOM      8  C7  UNL d   1      -1.100   0.567  -0.054  0.00  0.00    -0.001 A 
ENDROOT
TORSDOF 0
ENDMDL
