MODEL 1
REMARK minimizedAffinity -1.63752377
REMARK minimizedRMSD -1
REMARK  0 active torsions:
REMARK  status: ('A' for Active; 'I' for Inactive)
ROOT
ATOM      1  C   UNL d   1      -0.149  -0.508   2.209  0.00  0.00     0.077 C 
ATOM      2  C1  UNL d   1       0.281  -0.159   0.815  0.00  0.00    -0.074 A 
ATOM      3  C2  UNL d   1       1.031   0.995   0.561  0.00  0.00    -0.005 A 
ATOM      4  C3  UNL d   1       1.432   1.301  -0.739  0.00  0.00     0.006 A 
ATOM      5  C4  UNL d   1       1.088   0.459  -1.797  0.00  0.00    -0.005 A 
ATOM      6  C5  UNL d   1       0.340  -0.699  -1.563  0.00  0.00    -0.074 A 
ATOM      7  C6  UNL d   1      -0.030  -1.620  -2.687  0.00  0.00     0.077 C 
ATOM      8  C7  UNL d   1      -0.053  -1.004  -0.252  0.00  0.00    -0.001 A 
ENDROOT
TORSDOF 0
ENDMDL
