MODEL 1
REMARK minimizedAffinity 0.15749526
REMARK minimizedRMSD -1
REMARK  0 active torsions:
REMARK  status: ('A' for Active; 'I' for Inactive)
ROOT
ATOM      1  C2' OXE d   1       3.413   0.778   1.146  0.00  0.00     0.078 C 
ATOM      2  C1' OXE d   1       2.129   2.006   3.319  0.00  0.00     0.078 C 
ATOM      3  C1  OXE d   1       1.944   0.520   3.142  0.00  0.00    -0.078 A 
ATOM      4  C2  OXE d   1       2.538  -0.065   2.049  0.00  0.00    -0.078 A 
ATOM      5  C3  OXE d   1       2.445  -1.442   1.868  0.00  0.00     0.003 A 
ATOM      6  C4  OXE d   1       1.626  -2.212   2.702  0.00  0.00    -0.002 A 
ATOM      7  C5  OXE d   1       0.980  -1.630   3.798  0.00  0.00    -0.002 A 
ATOM      8  C6  OXE d   1       1.163  -0.276   4.056  0.00  0.00     0.003 A 
ENDROOT
TORSDOF 0
ENDMDL
