MODEL 1
REMARK minimizedAffinity 4.80958414
REMARK minimizedRMSD -1
REMARK  0 active torsions:
REMARK  status: ('A' for Active; 'I' for Inactive)
ROOT
ATOM      1  C2' OXE d   1       4.009  -5.937  -5.536  0.00  0.00     0.078 C 
ATOM      2  C1' OXE d   1       1.405  -5.998  -4.489  0.00  0.00     0.078 C 
ATOM      3  C1  OXE d   1       2.555  -5.964  -3.513  0.00  0.00    -0.078 A 
ATOM      4  C2  OXE d   1       3.826  -5.982  -4.034  0.00  0.00    -0.078 A 
ATOM      5  C3  OXE d   1       4.922  -5.896  -3.180  0.00  0.00     0.003 A 
ATOM      6  C4  OXE d   1       4.745  -5.947  -1.792  0.00  0.00    -0.002 A 
ATOM      7  C5  OXE d   1       3.459  -5.970  -1.241  0.00  0.00    -0.002 A 
ATOM      8  C6  OXE d   1       2.355  -5.936  -2.085  0.00  0.00     0.003 A 
ENDROOT
TORSDOF 0
ENDMDL
