MODEL 1
REMARK minimizedAffinity -0.496490389
REMARK minimizedRMSD -1
REMARK  0 active torsions:
REMARK  status: ('A' for Active; 'I' for Inactive)
ROOT
ATOM      1  C2' OXE d   1       5.924  -5.934  -5.522  0.00  0.00     0.078 C 
ATOM      2  C1' OXE d   1       3.124  -6.000  -5.715  0.00  0.00     0.078 C 
ATOM      3  C1  OXE d   1       3.734  -5.975  -4.336  0.00  0.00    -0.078 A 
ATOM      4  C2  OXE d   1       5.105  -5.990  -4.250  0.00  0.00    -0.078 A 
ATOM      5  C3  OXE d   1       5.719  -5.913  -3.004  0.00  0.00     0.003 A 
ATOM      6  C4  OXE d   1       4.955  -5.975  -1.832  0.00  0.00    -0.002 A 
ATOM      7  C5  OXE d   1       3.558  -6.000  -1.896  0.00  0.00    -0.002 A 
ATOM      8  C6  OXE d   1       2.932  -5.957  -3.137  0.00  0.00     0.003 A 
ENDROOT
TORSDOF 0
ENDMDL
