MODEL 1
REMARK minimizedAffinity -0.601604939
REMARK minimizedRMSD -1
REMARK  0 active torsions:
REMARK  status: ('A' for Active; 'I' for Inactive)
ROOT
ATOM      1  C2' OXE d   1       3.683  -5.999  -1.196  0.00  0.00     0.078 C 
ATOM      2  C1' OXE d   1       1.126  -5.999  -2.353  0.00  0.00     0.078 C 
ATOM      3  C1  OXE d   1       2.317  -5.986  -3.279  0.00  0.00    -0.078 A 
ATOM      4  C2  OXE d   1       3.564  -5.938  -2.704  0.00  0.00    -0.078 A 
ATOM      5  C3  OXE d   1       4.697  -5.979  -3.511  0.00  0.00     0.003 A 
ATOM      6  C4  OXE d   1       4.578  -5.913  -4.904  0.00  0.00    -0.002 A 
ATOM      7  C5  OXE d   1       3.317  -5.920  -5.510  0.00  0.00    -0.002 A 
ATOM      8  C6  OXE d   1       2.179  -5.999  -4.714  0.00  0.00     0.003 A 
ENDROOT
TORSDOF 0
ENDMDL
