MODEL 1
REMARK minimizedAffinity 4.5991497
REMARK minimizedRMSD -1
REMARK  0 active torsions:
REMARK  status: ('A' for Active; 'I' for Inactive)
ROOT
ATOM      1  C2' OXE d   1       5.435  -5.625   0.660  0.00  0.00     0.078 C 
ATOM      2  C1' OXE d   1       2.687  -5.970   1.119  0.00  0.00     0.078 C 
ATOM      3  C1  OXE d   1       3.156  -5.885  -0.312  0.00  0.00    -0.078 A 
ATOM      4  C2  OXE d   1       4.496  -5.669  -0.527  0.00  0.00    -0.078 A 
ATOM      5  C3  OXE d   1       4.990  -5.637  -1.828  0.00  0.00     0.003 A 
ATOM      6  C4  OXE d   1       4.114  -5.668  -2.919  0.00  0.00    -0.002 A 
ATOM      7  C5  OXE d   1       2.740  -5.847  -2.722  0.00  0.00    -0.002 A 
ATOM      8  C6  OXE d   1       2.251  -6.000  -1.430  0.00  0.00     0.003 A 
ENDROOT
TORSDOF 0
ENDMDL
