MODEL 1
REMARK minimizedAffinity 1.78453076
REMARK minimizedRMSD -1
REMARK  0 active torsions:
REMARK  status: ('A' for Active; 'I' for Inactive)
ROOT
ATOM      1  C2' OXE d   1       1.911   0.145   4.209  0.00  0.00     0.078 C 
ATOM      2  C1' OXE d   1       1.893  -0.658   1.520  0.00  0.00     0.078 C 
ATOM      3  C1  OXE d   1       1.955  -1.734   2.574  0.00  0.00    -0.078 A 
ATOM      4  C2  OXE d   1       2.010  -1.331   3.887  0.00  0.00    -0.078 A 
ATOM      5  C3  OXE d   1       2.013  -2.283   4.902  0.00  0.00     0.003 A 
ATOM      6  C4  OXE d   1       2.115  -3.646   4.594  0.00  0.00    -0.002 A 
ATOM      7  C5  OXE d   1       2.100  -4.076   3.264  0.00  0.00    -0.002 A 
ATOM      8  C6  OXE d   1       1.978  -3.138   2.245  0.00  0.00     0.003 A 
ENDROOT
TORSDOF 0
ENDMDL
