MODEL 1
REMARK minimizedAffinity 3.43268561
REMARK minimizedRMSD -1
REMARK  0 active torsions:
REMARK  status: ('A' for Active; 'I' for Inactive)
ROOT
ATOM      1  C2' OXE d   1       5.916  -2.377   3.831  0.00  0.00     0.078 C 
ATOM      2  C1' OXE d   1       3.735  -3.689   5.016  0.00  0.00     0.078 C 
ATOM      3  C1  OXE d   1       3.446  -2.690   3.923  0.00  0.00    -0.078 A 
ATOM      4  C2  OXE d   1       4.516  -2.019   3.381  0.00  0.00    -0.078 A 
ATOM      5  C3  OXE d   1       4.311  -1.126   2.333  0.00  0.00     0.003 A 
ATOM      6  C4  OXE d   1       3.012  -0.793   1.930  0.00  0.00    -0.002 A 
ATOM      7  C5  OXE d   1       1.906  -1.435   2.496  0.00  0.00    -0.002 A 
ATOM      8  C6  OXE d   1       2.108  -2.415   3.462  0.00  0.00     0.003 A 
ENDROOT
TORSDOF 0
ENDMDL
