MODEL 1
REMARK minimizedAffinity 2.69637299
REMARK minimizedRMSD -1
REMARK  0 active torsions:
REMARK  status: ('A' for Active; 'I' for Inactive)
ROOT
ATOM      1  C2' OXE d   1       1.465  -5.998  -5.467  0.00  0.00     0.078 C 
ATOM      2  C1' OXE d   1       4.222  -5.978  -5.997  0.00  0.00     0.078 C 
ATOM      3  C1  OXE d   1       3.783  -5.981  -4.554  0.00  0.00    -0.078 A 
ATOM      4  C2  OXE d   1       2.432  -5.943  -4.304  0.00  0.00    -0.078 A 
ATOM      5  C3  OXE d   1       1.972  -6.000  -2.991  0.00  0.00     0.003 A 
ATOM      6  C4  OXE d   1       2.873  -5.939  -1.921  0.00  0.00    -0.002 A 
ATOM      7  C5  OXE d   1       4.253  -5.936  -2.154  0.00  0.00    -0.002 A 
ATOM      8  C6  OXE d   1       4.723  -6.000  -3.461  0.00  0.00     0.003 A 
ENDROOT
TORSDOF 0
ENDMDL
