MODEL 1
REMARK minimizedAffinity 8.67648411
REMARK minimizedRMSD -1
REMARK  0 active torsions:
REMARK  status: ('A' for Active; 'I' for Inactive)
ROOT
ATOM      1  C2' OXE d   1       2.676  -1.052   2.561  0.00  0.00     0.078 C 
ATOM      2  C1' OXE d   1       4.552  -2.575   3.989  0.00  0.00     0.078 C 
ATOM      3  C1  OXE d   1       3.165  -3.142   3.825  0.00  0.00    -0.078 A 
ATOM      4  C2  OXE d   1       2.240  -2.369   3.165  0.00  0.00    -0.078 A 
ATOM      5  C3  OXE d   1       0.960  -2.868   2.938  0.00  0.00     0.003 A 
ATOM      6  C4  OXE d   1       0.562  -4.083   3.509  0.00  0.00    -0.002 A 
ATOM      7  C5  OXE d   1       1.477  -4.868   4.218  0.00  0.00    -0.002 A 
ATOM      8  C6  OXE d   1       2.791  -4.433   4.349  0.00  0.00     0.003 A 
ENDROOT
TORSDOF 0
ENDMDL
