MODEL 1
REMARK minimizedAffinity 6.38589048
REMARK minimizedRMSD -1
REMARK  0 active torsions:
REMARK  status: ('A' for Active; 'I' for Inactive)
ROOT
ATOM      1  C2' OXE d   1       5.298  -5.946  -4.423  0.00  0.00     0.078 C 
ATOM      2  C1' OXE d   1       3.680  -5.998  -2.130  0.00  0.00     0.078 C 
ATOM      3  C1  OXE d   1       2.995  -5.972  -3.474  0.00  0.00    -0.078 A 
ATOM      4  C2  OXE d   1       3.795  -5.900  -4.589  0.00  0.00    -0.078 A 
ATOM      5  C3  OXE d   1       3.216  -5.929  -5.855  0.00  0.00     0.003 A 
ATOM      6  C4  OXE d   1       1.824  -5.876  -5.999  0.00  0.00    -0.002 A 
ATOM      7  C5  OXE d   1       0.992  -5.909  -4.876  0.00  0.00    -0.002 A 
ATOM      8  C6  OXE d   1       1.560  -6.000  -3.610  0.00  0.00     0.003 A 
ENDROOT
TORSDOF 0
ENDMDL
