MODEL 1
REMARK minimizedAffinity 5.45933294
REMARK minimizedRMSD -1
REMARK  0 active torsions:
REMARK  status: ('A' for Active; 'I' for Inactive)
ROOT
ATOM      1  C2' OXE d   1       0.232  -0.996   1.434  0.00  0.00     0.078 C 
ATOM      2  C1' OXE d   1       2.292   0.815   2.030  0.00  0.00     0.078 C 
ATOM      3  C1  OXE d   1       2.520  -0.641   2.353  0.00  0.00    -0.078 A 
ATOM      4  C2  OXE d   1       1.488  -1.513   2.101  0.00  0.00    -0.078 A 
ATOM      5  C3  OXE d   1       1.666  -2.875   2.330  0.00  0.00     0.003 A 
ATOM      6  C4  OXE d   1       2.827  -3.343   2.956  0.00  0.00    -0.002 A 
ATOM      7  C5  OXE d   1       3.874  -2.465   3.258  0.00  0.00    -0.002 A 
ATOM      8  C6  OXE d   1       3.754  -1.121   2.925  0.00  0.00     0.003 A 
ENDROOT
TORSDOF 0
ENDMDL
