MODEL 1
REMARK minimizedAffinity -3.44994283
REMARK minimizedRMSD -1
REMARK  0 active torsions:
REMARK  status: ('A' for Active; 'I' for Inactive)
ROOT
ATOM      1  C2' OXE d   1       1.278   0.205   0.412  0.00  0.00     0.078 C 
ATOM      2  C1' OXE d   1       0.359   0.314  -2.238  0.00  0.00     0.078 C 
ATOM      3  C1  OXE d   1      -0.627  -0.081  -1.167  0.00  0.00    -0.078 A 
ATOM      4  C2  OXE d   1      -0.158  -0.177   0.121  0.00  0.00    -0.078 A 
ATOM      5  C3  OXE d   1      -1.038  -0.483   1.154  0.00  0.00     0.003 A 
ATOM      6  C4  OXE d   1      -2.361  -0.845   0.875  0.00  0.00    -0.002 A 
ATOM      7  C5  OXE d   1      -2.850  -0.792  -0.435  0.00  0.00    -0.002 A 
ATOM      8  C6  OXE d   1      -2.009  -0.372  -1.460  0.00  0.00     0.003 A 
ENDROOT
TORSDOF 0
ENDMDL
