MODEL 1
REMARK minimizedAffinity -3.18008375
REMARK minimizedRMSD -1
REMARK  0 active torsions:
REMARK  status: ('A' for Active; 'I' for Inactive)
ROOT
ATOM      1  C2' OXE d   1      -0.198   0.511  -1.689  0.00  0.00     0.078 C 
ATOM      2  C1' OXE d   1      -1.095  -0.237   0.863  0.00  0.00     0.078 C 
ATOM      3  C1  OXE d   1       0.124   0.647   0.777  0.00  0.00    -0.078 A 
ATOM      4  C2  OXE d   1       0.583   0.970  -0.477  0.00  0.00    -0.078 A 
ATOM      5  C3  OXE d   1       1.672   1.827  -0.612  0.00  0.00     0.003 A 
ATOM      6  C4  OXE d   1       2.394   2.239   0.514  0.00  0.00    -0.002 A 
ATOM      7  C5  OXE d   1       1.966   1.889   1.799  0.00  0.00    -0.002 A 
ATOM      8  C6  OXE d   1       0.811   1.130   1.949  0.00  0.00     0.003 A 
ENDROOT
TORSDOF 0
ENDMDL
