MODEL 1
REMARK minimizedAffinity -1.46614301
REMARK minimizedRMSD -1
REMARK  0 active torsions:
REMARK  status: ('A' for Active; 'I' for Inactive)
ROOT
ATOM      1  C2' OXE d   1      -0.486   0.898  -2.380  0.00  0.00     0.078 C 
ATOM      2  C1' OXE d   1      -2.338  -0.929  -1.327  0.00  0.00     0.078 C 
ATOM      3  C1  OXE d   1      -1.084  -0.662  -0.533  0.00  0.00    -0.078 A 
ATOM      4  C2  OXE d   1      -0.162   0.198  -1.078  0.00  0.00    -0.078 A 
ATOM      5  C3  OXE d   1       0.987   0.522  -0.361  0.00  0.00     0.003 A 
ATOM      6  C4  OXE d   1       1.284  -0.138   0.837  0.00  0.00    -0.002 A 
ATOM      7  C5  OXE d   1       0.376  -1.047   1.391  0.00  0.00    -0.002 A 
ATOM      8  C6  OXE d   1      -0.829  -1.288   0.741  0.00  0.00     0.003 A 
ENDROOT
TORSDOF 0
ENDMDL
