MODEL 1
REMARK minimizedAffinity -0.225381956
REMARK minimizedRMSD -1
REMARK  0 active torsions:
REMARK  status: ('A' for Active; 'I' for Inactive)
ROOT
ATOM      1  C2' OXE d   1       0.987   0.522   0.759  0.00  0.00     0.078 C 
ATOM      2  C1' OXE d   1      -0.431  -1.595   1.938  0.00  0.00     0.078 C 
ATOM      3  C1  OXE d   1      -1.000  -0.978   0.685  0.00  0.00    -0.078 A 
ATOM      4  C2  OXE d   1      -0.324   0.087   0.141  0.00  0.00    -0.078 A 
ATOM      5  C3  OXE d   1      -0.776   0.658  -1.045  0.00  0.00     0.003 A 
ATOM      6  C4  OXE d   1      -1.995   0.257  -1.605  0.00  0.00    -0.002 A 
ATOM      7  C5  OXE d   1      -2.720  -0.800  -1.044  0.00  0.00    -0.002 A 
ATOM      8  C6  OXE d   1      -2.216  -1.455   0.074  0.00  0.00     0.003 A 
ENDROOT
TORSDOF 0
ENDMDL
