MODEL 1
REMARK minimizedAffinity -1.40748441
REMARK minimizedRMSD -1
REMARK  0 active torsions:
REMARK  status: ('A' for Active; 'I' for Inactive)
ROOT
ATOM      1  C2' OXE d   1      -1.420   1.094  -2.040  0.00  0.00     0.078 C 
ATOM      2  C1' OXE d   1      -2.903  -0.791  -0.581  0.00  0.00     0.078 C 
ATOM      3  C1  OXE d   1      -1.472  -0.549  -0.169  0.00  0.00    -0.078 A 
ATOM      4  C2  OXE d   1      -0.740   0.341  -0.918  0.00  0.00    -0.078 A 
ATOM      5  C3  OXE d   1       0.568   0.641  -0.548  0.00  0.00     0.003 A 
ATOM      6  C4  OXE d   1       1.193  -0.068   0.485  0.00  0.00    -0.002 A 
ATOM      7  C5  OXE d   1       0.477  -1.007   1.235  0.00  0.00    -0.002 A 
ATOM      8  C6  OXE d   1      -0.865  -1.228   0.949  0.00  0.00     0.003 A 
ENDROOT
TORSDOF 0
ENDMDL
