MODEL 1
REMARK minimizedAffinity 1.13850772
REMARK minimizedRMSD -1
REMARK  0 active torsions:
REMARK  status: ('A' for Active; 'I' for Inactive)
ROOT
ATOM      1  C2' OXE d   1       1.832   0.772  -1.915  0.00  0.00     0.078 C 
ATOM      2  C1' OXE d   1       1.971   2.211   0.492  0.00  0.00     0.078 C 
ATOM      3  C1  OXE d   1       0.926   1.130   0.378  0.00  0.00    -0.078 A 
ATOM      4  C2  OXE d   1       0.834   0.463  -0.820  0.00  0.00    -0.078 A 
ATOM      5  C3  OXE d   1      -0.077  -0.581  -0.959  0.00  0.00     0.003 A 
ATOM      6  C4  OXE d   1      -1.003  -0.854   0.055  0.00  0.00    -0.002 A 
ATOM      7  C5  OXE d   1      -0.952  -0.160   1.268  0.00  0.00    -0.002 A 
ATOM      8  C6  OXE d   1       0.031   0.804   1.461  0.00  0.00     0.003 A 
ENDROOT
TORSDOF 0
ENDMDL
