MODEL 1
REMARK minimizedAffinity -3.07507491
REMARK minimizedRMSD -1
REMARK  0 active torsions:
REMARK  status: ('A' for Active; 'I' for Inactive)
ROOT
ATOM      1  C2' OXE d   1       0.198   0.261  -2.380  0.00  0.00     0.078 C 
ATOM      2  C1' OXE d   1       1.237   0.569   0.210  0.00  0.00     0.078 C 
ATOM      3  C1  OXE d   1      -0.207   0.155   0.076  0.00  0.00    -0.078 A 
ATOM      4  C2  OXE d   1      -0.720   0.052  -1.195  0.00  0.00    -0.078 A 
ATOM      5  C3  OXE d   1      -2.031  -0.380  -1.376  0.00  0.00     0.003 A 
ATOM      6  C4  OXE d   1      -2.876  -0.562  -0.275  0.00  0.00    -0.002 A 
ATOM      7  C5  OXE d   1      -2.385  -0.424   1.027  0.00  0.00    -0.002 A 
ATOM      8  C6  OXE d   1      -1.045  -0.108   1.220  0.00  0.00     0.003 A 
ENDROOT
TORSDOF 0
ENDMDL
