MODEL 1
REMARK minimizedAffinity -4.01180887
REMARK minimizedRMSD -1
REMARK  0 active torsions:
REMARK  status: ('A' for Active; 'I' for Inactive)
ROOT
ATOM      1  C2' OXE d   1      -2.876  -0.529  -0.010  0.00  0.00     0.078 C 
ATOM      2  C1' OXE d   1      -1.099  -1.458   1.955  0.00  0.00     0.078 C 
ATOM      3  C1  OXE d   1      -0.518  -0.733   0.767  0.00  0.00    -0.078 A 
ATOM      4  C2  OXE d   1      -1.391  -0.322  -0.212  0.00  0.00    -0.078 A 
ATOM      5  C3  OXE d   1      -0.913   0.399  -1.303  0.00  0.00     0.003 A 
ATOM      6  C4  OXE d   1       0.463   0.577  -1.487  0.00  0.00    -0.002 A 
ATOM      7  C5  OXE d   1       1.372   0.133  -0.522  0.00  0.00    -0.002 A 
ATOM      8  C6  OXE d   1       0.896  -0.485   0.629  0.00  0.00     0.003 A 
ENDROOT
TORSDOF 0
ENDMDL
