MODEL 1
REMARK minimizedAffinity -4.5601263
REMARK minimizedRMSD -1
REMARK  0 active torsions:
REMARK  status: ('A' for Active; 'I' for Inactive)
ROOT
ATOM      1  C2' OXE d   1      -0.583   0.260  -2.361  0.00  0.00     0.078 C 
ATOM      2  C1' OXE d   1       0.633   0.553   0.152  0.00  0.00     0.078 C 
ATOM      3  C1  OXE d   1      -0.707  -0.136   0.095  0.00  0.00    -0.078 A 
ATOM      4  C2  OXE d   1      -1.316  -0.233  -1.133  0.00  0.00    -0.078 A 
ATOM      5  C3  OXE d   1      -2.528  -0.908  -1.250  0.00  0.00     0.003 A 
ATOM      6  C4  OXE d   1      -3.205  -1.352  -0.107  0.00  0.00    -0.002 A 
ATOM      7  C5  OXE d   1      -2.621  -1.228   1.157  0.00  0.00    -0.002 A 
ATOM      8  C6  OXE d   1      -1.356  -0.662   1.271  0.00  0.00     0.003 A 
ENDROOT
TORSDOF 0
ENDMDL
