MODEL 1
REMARK minimizedAffinity -4.76879883
REMARK minimizedRMSD -1
REMARK  0 active torsions:
REMARK  status: ('A' for Active; 'I' for Inactive)
ROOT
ATOM      1  C2' OXE d   1       1.201  -0.168   0.032  0.00  0.00     0.078 C 
ATOM      2  C1' OXE d   1      -0.278  -1.894   1.679  0.00  0.00     0.078 C 
ATOM      3  C1  OXE d   1      -1.029  -1.095   0.642  0.00  0.00    -0.078 A 
ATOM      4  C2  OXE d   1      -0.303  -0.219  -0.128  0.00  0.00    -0.078 A 
ATOM      5  C3  OXE d   1      -0.937   0.501  -1.136  0.00  0.00     0.003 A 
ATOM      6  C4  OXE d   1      -2.330   0.456  -1.271  0.00  0.00    -0.002 A 
ATOM      7  C5  OXE d   1      -3.093  -0.401  -0.470  0.00  0.00    -0.002 A 
ATOM      8  C6  OXE d   1      -2.454  -1.213   0.461  0.00  0.00     0.003 A 
ENDROOT
TORSDOF 0
ENDMDL
