MODEL 1
REMARK minimizedAffinity -4.12042046
REMARK minimizedRMSD -1
REMARK  0 active torsions:
REMARK  status: ('A' for Active; 'I' for Inactive)
ROOT
ATOM      1  C2' OXE d   1      -0.809   0.586  -1.864  0.00  0.00     0.078 C 
ATOM      2  C1' OXE d   1      -2.673  -0.863  -0.345  0.00  0.00     0.078 C 
ATOM      3  C1  OXE d   1      -1.228  -0.907   0.086  0.00  0.00    -0.078 A 
ATOM      4  C2  OXE d   1      -0.316  -0.233  -0.690  0.00  0.00    -0.078 A 
ATOM      5  C3  OXE d   1       1.021  -0.195  -0.306  0.00  0.00     0.003 A 
ATOM      6  C4  OXE d   1       1.470  -0.963   0.774  0.00  0.00    -0.002 A 
ATOM      7  C5  OXE d   1       0.564  -1.690   1.554  0.00  0.00    -0.002 A 
ATOM      8  C6  OXE d   1      -0.791  -1.638   1.250  0.00  0.00     0.003 A 
ENDROOT
TORSDOF 0
ENDMDL
