MODEL 1
REMARK minimizedAffinity -1.58692443
REMARK minimizedRMSD -1
REMARK  0 active torsions:
REMARK  status: ('A' for Active; 'I' for Inactive)
ROOT
ATOM      1  C2' OXE d   1      -2.707  -1.182   0.730  0.00  0.00     0.078 C 
ATOM      2  C1' OXE d   1      -0.935  -2.614   2.370  0.00  0.00     0.078 C 
ATOM      3  C1  OXE d   1      -0.364  -1.518   1.506  0.00  0.00    -0.078 A 
ATOM      4  C2  OXE d   1      -1.231  -0.854   0.672  0.00  0.00    -0.078 A 
ATOM      5  C3  OXE d   1      -0.765   0.202  -0.106  0.00  0.00     0.003 A 
ATOM      6  C4  OXE d   1       0.603   0.493  -0.162  0.00  0.00    -0.002 A 
ATOM      7  C5  OXE d   1       1.509  -0.198   0.650  0.00  0.00    -0.002 A 
ATOM      8  C6  OXE d   1       1.037  -1.176   1.519  0.00  0.00     0.003 A 
ENDROOT
TORSDOF 0
ENDMDL
