MODEL 1
REMARK minimizedAffinity -5.40084887
REMARK minimizedRMSD -1
REMARK  0 active torsions:
REMARK  status: ('A' for Active; 'I' for Inactive)
ROOT
ATOM      1  C2' OXE d   1       1.016  -0.034   0.220  0.00  0.00     0.078 C 
ATOM      2  C1' OXE d   1      -0.047  -2.089   1.810  0.00  0.00     0.078 C 
ATOM      3  C1  OXE d   1      -0.998  -1.320   0.926  0.00  0.00    -0.078 A 
ATOM      4  C2  OXE d   1      -0.476  -0.285   0.187  0.00  0.00    -0.078 A 
ATOM      5  C3  OXE d   1      -1.299   0.421  -0.686  0.00  0.00     0.003 A 
ATOM      6  C4  OXE d   1      -2.680   0.188  -0.704  0.00  0.00    -0.002 A 
ATOM      7  C5  OXE d   1      -3.237  -0.835   0.071  0.00  0.00    -0.002 A 
ATOM      8  C6  OXE d   1      -2.405  -1.624   0.858  0.00  0.00     0.003 A 
ENDROOT
TORSDOF 0
ENDMDL
