MODEL 1
REMARK minimizedAffinity -5.79539061
REMARK minimizedRMSD -1
REMARK  0 active torsions:
REMARK  status: ('A' for Active; 'I' for Inactive)
ROOT
ATOM      1  C2' OXE d   1      -2.884  -0.917  -0.793  0.00  0.00     0.078 C 
ATOM      2  C1' OXE d   1      -0.699   0.502  -1.837  0.00  0.00     0.078 C 
ATOM      3  C1  OXE d   1      -0.485  -0.285  -0.568  0.00  0.00    -0.078 A 
ATOM      4  C2  OXE d   1      -1.572  -0.939  -0.039  0.00  0.00    -0.078 A 
ATOM      5  C3  OXE d   1      -1.417  -1.724   1.100  0.00  0.00     0.003 A 
ATOM      6  C4  OXE d   1      -0.203  -1.730   1.796  0.00  0.00    -0.002 A 
ATOM      7  C5  OXE d   1       0.906  -1.039   1.296  0.00  0.00    -0.002 A 
ATOM      8  C6  OXE d   1       0.793  -0.348   0.095  0.00  0.00     0.003 A 
ENDROOT
TORSDOF 0
ENDMDL
