MODEL 1
REMARK minimizedAffinity -1.78277111
REMARK minimizedRMSD -1
REMARK  0 active torsions:
REMARK  status: ('A' for Active; 'I' for Inactive)
ROOT
ATOM      1  C2' OXE d   1      -1.092  -1.937   2.297  0.00  0.00     0.078 C 
ATOM      2  C1' OXE d   1      -2.894  -0.890   0.417  0.00  0.00     0.078 C 
ATOM      3  C1  OXE d   1      -1.433  -0.552   0.255  0.00  0.00    -0.078 A 
ATOM      4  C2  OXE d   1      -0.564  -1.030   1.206  0.00  0.00    -0.078 A 
ATOM      5  C3  OXE d   1       0.801  -0.794   1.074  0.00  0.00     0.003 A 
ATOM      6  C4  OXE d   1       1.280   0.054   0.068  0.00  0.00    -0.002 A 
ATOM      7  C5  OXE d   1       0.407   0.585  -0.888  0.00  0.00    -0.002 A 
ATOM      8  C6  OXE d   1      -0.943   0.257  -0.834  0.00  0.00     0.003 A 
ENDROOT
TORSDOF 0
ENDMDL
