MODEL 1
REMARK minimizedAffinity -2.5611167
REMARK minimizedRMSD -1
REMARK  0 active torsions:
REMARK  status: ('A' for Active; 'I' for Inactive)
ROOT
ATOM      1  C2' OXE d   1      -2.756  -0.286   0.368  0.00  0.00     0.078 C 
ATOM      2  C1' OXE d   1      -0.980  -1.369   2.253  0.00  0.00     0.078 C 
ATOM      3  C1  OXE d   1      -0.395  -0.762   1.003  0.00  0.00    -0.078 A 
ATOM      4  C2  OXE d   1      -1.273  -0.276   0.064  0.00  0.00    -0.078 A 
ATOM      5  C3  OXE d   1      -0.784   0.344  -1.082  0.00  0.00     0.003 A 
ATOM      6  C4  OXE d   1       0.588   0.340  -1.360  0.00  0.00    -0.002 A 
ATOM      7  C5  OXE d   1       1.498  -0.185  -0.436  0.00  0.00    -0.002 A 
ATOM      8  C6  OXE d   1       1.027  -0.700   0.767  0.00  0.00     0.003 A 
ENDROOT
TORSDOF 0
ENDMDL
