MODEL 1
REMARK minimizedAffinity 3.38841128
REMARK minimizedRMSD -1
REMARK  0 active torsions:
REMARK  status: ('A' for Active; 'I' for Inactive)
ROOT
ATOM      1  C2' OXE d   1      -1.115  -2.377   2.449  0.00  0.00     0.078 C 
ATOM      2  C1' OXE d   1      -2.778  -0.700   0.930  0.00  0.00     0.078 C 
ATOM      3  C1  OXE d   1      -1.290  -0.615   0.697  0.00  0.00    -0.078 A 
ATOM      4  C2  OXE d   1      -0.481  -1.405   1.478  0.00  0.00    -0.078 A 
ATOM      5  C3  OXE d   1       0.895  -1.405   1.266  0.00  0.00     0.003 A 
ATOM      6  C4  OXE d   1       1.474  -0.496   0.373  0.00  0.00    -0.002 A 
ATOM      7  C5  OXE d   1       0.671   0.346  -0.404  0.00  0.00    -0.002 A 
ATOM      8  C6  OXE d   1      -0.712   0.269  -0.285  0.00  0.00     0.003 A 
ENDROOT
TORSDOF 0
ENDMDL
