MODEL 1
REMARK minimizedAffinity -0.629157901
REMARK minimizedRMSD -1
REMARK  0 active torsions:
REMARK  status: ('A' for Active; 'I' for Inactive)
ROOT
ATOM      1  C2' OXE d   1      -1.419  -2.108   2.014  0.00  0.00     0.078 C 
ATOM      2  C1' OXE d   1      -3.043  -0.948   0.039  0.00  0.00     0.078 C 
ATOM      3  C1  OXE d   1      -1.550  -0.769  -0.083  0.00  0.00    -0.078 A 
ATOM      4  C2  OXE d   1      -0.766  -1.300   0.913  0.00  0.00    -0.078 A 
ATOM      5  C3  OXE d   1       0.620  -1.211   0.821  0.00  0.00     0.003 A 
ATOM      6  C4  OXE d   1       1.215  -0.454  -0.195  0.00  0.00    -0.002 A 
ATOM      7  C5  OXE d   1       0.433   0.129  -1.198  0.00  0.00    -0.002 A 
ATOM      8  C6  OXE d   1      -0.945  -0.055  -1.180  0.00  0.00     0.003 A 
ENDROOT
TORSDOF 0
ENDMDL
