MODEL 1
REMARK minimizedAffinity 11.0083914
REMARK minimizedRMSD -1
REMARK  0 active torsions:
REMARK  status: ('A' for Active; 'I' for Inactive)
ROOT
ATOM      1  C   UNL d   1       2.150   2.345   0.693  0.00  0.00     0.124 A 
ATOM      2  C1  UNL d   1       3.370   1.834   1.116  0.00  0.00     0.062 A 
ATOM      3  C2  UNL d   1       4.376   2.694   1.548  0.00  0.00     0.162 A 
ATOM      4  C3  UNL d   1       4.166   4.073   1.561  0.00  0.00    -0.034 A 
ATOM      5  C4  UNL d   1       2.938   4.578   1.133  0.00  0.00     0.162 A 
ATOM      6  C5  UNL d   1       1.935   3.716   0.702  0.00  0.00     0.062 A 
ATOM      7  F   UNL d   1       0.757   4.210   0.294  0.00  0.00    -0.097 F 
ATOM      8  F1  UNL d   1       2.703   5.899   1.132  0.00  0.00    -0.096 F 
ATOM      9  I   UNL d   1       5.668   5.361   2.206  0.00  0.00    -0.060 I 
ATOM     10  F2  UNL d   1       5.544   2.173   1.951  0.00  0.00    -0.096 F 
ATOM     11  F3  UNL d   1       3.580   0.510   1.108  0.00  0.00    -0.097 F 
ATOM     12  F4  UNL d   1       1.184   1.516   0.277  0.00  0.00    -0.092 F 
ENDROOT
TORSDOF 0
ENDMDL
