MODEL 1
REMARK minimizedAffinity 11.7119169
REMARK minimizedRMSD -1
REMARK  0 active torsions:
REMARK  status: ('A' for Active; 'I' for Inactive)
ROOT
ATOM      1  C   UNL d   1       3.817   3.742   1.335  0.00  0.00     0.124 A 
ATOM      2  C1  UNL d   1       3.119   4.785   0.743  0.00  0.00     0.062 A 
ATOM      3  C2  UNL d   1       1.838   4.576   0.242  0.00  0.00     0.162 A 
ATOM      4  C3  UNL d   1       1.244   3.317   0.332  0.00  0.00    -0.034 A 
ATOM      5  C4  UNL d   1       1.952   2.271   0.928  0.00  0.00     0.162 A 
ATOM      6  C5  UNL d   1       3.233   2.486   1.427  0.00  0.00     0.062 A 
ATOM      7  F   UNL d   1       3.905   1.476   1.999  0.00  0.00    -0.097 F 
ATOM      8  F1  UNL d   1       1.412   1.048   1.031  0.00  0.00    -0.096 F 
ATOM      9  I   UNL d   1      -0.672   2.999  -0.415  0.00  0.00    -0.060 I 
ATOM     10  F2  UNL d   1       1.187   5.603  -0.325  0.00  0.00    -0.096 F 
ATOM     11  F3  UNL d   1       3.681   5.999   0.652  0.00  0.00    -0.097 F 
ATOM     12  F4  UNL d   1       5.050   3.946   1.815  0.00  0.00    -0.092 F 
ENDROOT
TORSDOF 0
ENDMDL
