MODEL 1
REMARK minimizedAffinity 16.5231495
REMARK minimizedRMSD -1
REMARK  0 active torsions:
REMARK  status: ('A' for Active; 'I' for Inactive)
ROOT
ATOM      1  C   UNL d   1       4.259  -4.686  -2.404  0.00  0.00     0.124 A 
ATOM      2  C1  UNL d   1       2.937  -4.999  -2.121  0.00  0.00     0.062 A 
ATOM      3  C2  UNL d   1       2.071  -5.370  -3.146  0.00  0.00     0.162 A 
ATOM      4  C3  UNL d   1       2.525  -5.431  -4.463  0.00  0.00    -0.034 A 
ATOM      5  C4  UNL d   1       3.856  -5.114  -4.740  0.00  0.00     0.162 A 
ATOM      6  C5  UNL d   1       4.718  -4.744  -3.712  0.00  0.00     0.062 A 
ATOM      7  F   UNL d   1       5.995  -4.442  -3.987  0.00  0.00    -0.097 F 
ATOM      8  F1  UNL d   1       4.326  -5.163  -5.995  0.00  0.00    -0.096 F 
ATOM      9  I   UNL d   1       1.233  -5.985  -5.998  0.00  0.00    -0.060 I 
ATOM     10  F2  UNL d   1       0.798  -5.667  -2.844  0.00  0.00    -0.096 F 
ATOM     11  F3  UNL d   1       2.491  -4.943  -0.858  0.00  0.00    -0.097 F 
ATOM     12  F4  UNL d   1       5.090  -4.328  -1.416  0.00  0.00    -0.092 F 
ENDROOT
TORSDOF 0
ENDMDL
