MODEL 1
REMARK minimizedAffinity 15.8713284
REMARK minimizedRMSD -1
REMARK  0 active torsions:
REMARK  status: ('A' for Active; 'I' for Inactive)
ROOT
ATOM      1  C   UNL d   1       1.693  -5.956  -2.584  0.00  0.00     0.124 A 
ATOM      2  C1  UNL d   1       2.890  -5.933  -1.881  0.00  0.00     0.062 A 
ATOM      3  C2  UNL d   1       4.102  -5.888  -2.564  0.00  0.00     0.162 A 
ATOM      4  C3  UNL d   1       4.123  -5.864  -3.959  0.00  0.00    -0.034 A 
ATOM      5  C4  UNL d   1       2.915  -5.888  -4.658  0.00  0.00     0.162 A 
ATOM      6  C5  UNL d   1       1.706  -5.933  -3.971  0.00  0.00     0.062 A 
ATOM      7  F   UNL d   1       0.551  -5.955  -4.651  0.00  0.00    -0.097 F 
ATOM      8  F1  UNL d   1       2.899  -5.866  -5.999  0.00  0.00    -0.096 F 
ATOM      9  I   UNL d   1       5.933  -5.797  -4.984  0.00  0.00    -0.060 I 
ATOM     10  F2  UNL d   1       5.243  -5.867  -1.860  0.00  0.00    -0.096 F 
ATOM     11  F3  UNL d   1       2.879  -5.956  -0.541  0.00  0.00    -0.097 F 
ATOM     12  F4  UNL d   1       0.528  -6.000  -1.924  0.00  0.00    -0.092 F 
ENDROOT
TORSDOF 0
ENDMDL
