MODEL 1
REMARK minimizedAffinity 3.22515988
REMARK minimizedRMSD -1
REMARK  0 active torsions:
REMARK  status: ('A' for Active; 'I' for Inactive)
ROOT
ATOM      1  C   UNL d   1       2.892   2.267   2.002  0.00  0.00     0.124 A 
ATOM      2  C1  UNL d   1       2.452   1.902   0.737  0.00  0.00     0.062 A 
ATOM      3  C2  UNL d   1       1.104   2.011   0.406  0.00  0.00     0.162 A 
ATOM      4  C3  UNL d   1       0.186   2.489   1.342  0.00  0.00    -0.034 A 
ATOM      5  C4  UNL d   1       0.636   2.853   2.612  0.00  0.00     0.162 A 
ATOM      6  C5  UNL d   1       1.984   2.742   2.938  0.00  0.00     0.062 A 
ATOM      7  F   UNL d   1       2.407   3.095   4.161  0.00  0.00    -0.097 F 
ATOM      8  F1  UNL d   1      -0.220   3.316   3.535  0.00  0.00    -0.096 F 
ATOM      9  I   UNL d   1      -1.829   2.654   0.850  0.00  0.00    -0.060 I 
ATOM     10  F2  UNL d   1       0.708   1.652  -0.823  0.00  0.00    -0.096 F 
ATOM     11  F3  UNL d   1       3.327   1.442  -0.168  0.00  0.00    -0.097 F 
ATOM     12  F4  UNL d   1       4.188   2.160   2.319  0.00  0.00    -0.092 F 
ENDROOT
TORSDOF 0
ENDMDL
