MODEL 1
REMARK minimizedAffinity 9.81939697
REMARK minimizedRMSD -1
REMARK  0 active torsions:
REMARK  status: ('A' for Active; 'I' for Inactive)
ROOT
ATOM      1  C   UNL d   1       2.068   1.663  -0.051  0.00  0.00     0.124 A 
ATOM      2  C1  UNL d   1       2.495   1.973   1.233  0.00  0.00     0.062 A 
ATOM      3  C2  UNL d   1       1.579   2.394   2.193  0.00  0.00     0.162 A 
ATOM      4  C3  UNL d   1       0.226   2.505   1.873  0.00  0.00    -0.034 A 
ATOM      5  C4  UNL d   1      -0.196   2.192   0.579  0.00  0.00     0.162 A 
ATOM      6  C5  UNL d   1       0.724   1.773  -0.377  0.00  0.00     0.062 A 
ATOM      7  F   UNL d   1       0.310   1.473  -1.616  0.00  0.00    -0.097 F 
ATOM      8  F1  UNL d   1      -1.489   2.288   0.238  0.00  0.00    -0.096 F 
ATOM      9  I   UNL d   1      -1.147   3.133   3.306  0.00  0.00    -0.060 I 
ATOM     10  F2  UNL d   1       2.020   2.687   3.425  0.00  0.00    -0.096 F 
ATOM     11  F3  UNL d   1       3.794   1.869   1.549  0.00  0.00    -0.097 F 
ATOM     12  F4  UNL d   1       2.952   1.260  -0.973  0.00  0.00    -0.092 F 
ENDROOT
TORSDOF 0
ENDMDL
