MODEL 1
REMARK minimizedAffinity 17.9262333
REMARK minimizedRMSD -1
REMARK  0 active torsions:
REMARK  status: ('A' for Active; 'I' for Inactive)
ROOT
ATOM      1  C   UNL d   1       4.666  -5.470  -3.649  0.00  0.00     0.124 A 
ATOM      2  C1  UNL d   1       3.969  -5.653  -4.835  0.00  0.00     0.062 A 
ATOM      3  C2  UNL d   1       2.583  -5.779  -4.821  0.00  0.00     0.162 A 
ATOM      4  C3  UNL d   1       1.884  -5.723  -3.615  0.00  0.00    -0.034 A 
ATOM      5  C4  UNL d   1       2.592  -5.540  -2.426  0.00  0.00     0.162 A 
ATOM      6  C5  UNL d   1       3.977  -5.414  -2.445  0.00  0.00     0.062 A 
ATOM      7  F   UNL d   1       4.649  -5.238  -1.298  0.00  0.00    -0.097 F 
ATOM      8  F1  UNL d   1       1.951  -5.482  -1.249  0.00  0.00    -0.096 F 
ATOM      9  I   UNL d   1      -0.188  -5.912  -3.589  0.00  0.00    -0.060 I 
ATOM     10  F2  UNL d   1       1.936  -5.955  -5.982  0.00  0.00    -0.096 F 
ATOM     11  F3  UNL d   1       4.633  -5.708  -5.999  0.00  0.00    -0.097 F 
ATOM     12  F4  UNL d   1       6.000  -5.350  -3.665  0.00  0.00    -0.092 F 
ENDROOT
TORSDOF 0
ENDMDL
