MODEL 1
REMARK minimizedAffinity 22.4600925
REMARK minimizedRMSD -1
REMARK  0 active torsions:
REMARK  status: ('A' for Active; 'I' for Inactive)
ROOT
ATOM      1  C   UNL d   1       4.100   3.336   1.196  0.00  0.00     0.124 A 
ATOM      2  C1  UNL d   1       3.499   2.746   2.299  0.00  0.00     0.062 A 
ATOM      3  C2  UNL d   1       3.730   3.251   3.575  0.00  0.00     0.162 A 
ATOM      4  C3  UNL d   1       4.567   4.352   3.756  0.00  0.00    -0.034 A 
ATOM      5  C4  UNL d   1       5.169   4.939   2.642  0.00  0.00     0.162 A 
ATOM      6  C5  UNL d   1       4.934   4.432   1.368  0.00  0.00     0.062 A 
ATOM      7  F   UNL d   1       5.516   5.003   0.303  0.00  0.00    -0.097 F 
ATOM      8  F1  UNL d   1       5.979   5.999   2.779  0.00  0.00    -0.096 F 
ATOM      9  I   UNL d   1       4.916   5.109   5.663  0.00  0.00    -0.060 I 
ATOM     10  F2  UNL d   1       3.136   2.661   4.623  0.00  0.00    -0.096 F 
ATOM     11  F3  UNL d   1       2.693   1.687   2.135  0.00  0.00    -0.097 F 
ATOM     12  F4  UNL d   1       3.876   2.848  -0.031  0.00  0.00    -0.092 F 
ENDROOT
TORSDOF 0
ENDMDL
