MODEL 1
REMARK minimizedAffinity 19.6927319
REMARK minimizedRMSD -1
REMARK  0 active torsions:
REMARK  status: ('A' for Active; 'I' for Inactive)
ROOT
ATOM      1  C   UNL d   1       1.804   2.243   0.386  0.00  0.00     0.124 A 
ATOM      2  C1  UNL d   1       1.918   3.619   0.249  0.00  0.00     0.062 A 
ATOM      3  C2  UNL d   1       2.990   4.294   0.827  0.00  0.00     0.162 A 
ATOM      4  C3  UNL d   1       3.956   3.592   1.548  0.00  0.00    -0.034 A 
ATOM      5  C4  UNL d   1       3.833   2.208   1.683  0.00  0.00     0.162 A 
ATOM      6  C5  UNL d   1       2.761   1.539   1.103  0.00  0.00     0.062 A 
ATOM      7  F   UNL d   1       2.652   0.209   1.237  0.00  0.00    -0.097 F 
ATOM      8  F1  UNL d   1       4.745   1.503   2.370  0.00  0.00    -0.096 F 
ATOM      9  I   UNL d   1       5.559   4.597   2.415  0.00  0.00    -0.060 I 
ATOM     10  F2  UNL d   1       3.075   5.624   0.678  0.00  0.00    -0.096 F 
ATOM     11  F3  UNL d   1       0.994   4.302  -0.443  0.00  0.00    -0.097 F 
ATOM     12  F4  UNL d   1       0.771   1.597  -0.171  0.00  0.00    -0.092 F 
ENDROOT
TORSDOF 0
ENDMDL
