MODEL 1
REMARK minimizedAffinity 2.90180445
REMARK minimizedRMSD -1
REMARK  0 active torsions:
REMARK  status: ('A' for Active; 'I' for Inactive)
ROOT
ATOM      1  C   UNL d   1       4.106   2.080   1.177  0.00  0.00     0.124 A 
ATOM      2  C1  UNL d   1       3.094   1.222   0.770  0.00  0.00     0.062 A 
ATOM      3  C2  UNL d   1       1.761   1.605   0.892  0.00  0.00     0.162 A 
ATOM      4  C3  UNL d   1       1.433   2.852   1.421  0.00  0.00    -0.034 A 
ATOM      5  C4  UNL d   1       2.456   3.710   1.829  0.00  0.00     0.162 A 
ATOM      6  C5  UNL d   1       3.787   3.323   1.706  0.00  0.00     0.062 A 
ATOM      7  F   UNL d   1       4.764   4.153   2.099  0.00  0.00    -0.097 F 
ATOM      8  F1  UNL d   1       2.176   4.916   2.343  0.00  0.00    -0.096 F 
ATOM      9  I   UNL d   1      -0.559   3.428   1.605  0.00  0.00    -0.060 I 
ATOM     10  F2  UNL d   1       0.804   0.755   0.491  0.00  0.00    -0.096 F 
ATOM     11  F3  UNL d   1       3.400   0.021   0.260  0.00  0.00    -0.097 F 
ATOM     12  F4  UNL d   1       5.388   1.709   1.060  0.00  0.00    -0.092 F 
ENDROOT
TORSDOF 0
ENDMDL
