MODEL 1
REMARK minimizedAffinity 11.0043116
REMARK minimizedRMSD -1
REMARK  0 active torsions:
REMARK  status: ('A' for Active; 'I' for Inactive)
ROOT
ATOM      1  C   UNL d   1       2.429   1.856   1.316  0.00  0.00     0.124 A 
ATOM      2  C1  UNL d   1       1.290   2.058   0.550  0.00  0.00     0.062 A 
ATOM      3  C2  UNL d   1       1.359   1.987  -0.839  0.00  0.00     0.162 A 
ATOM      4  C3  UNL d   1       2.572   1.711  -1.470  0.00  0.00    -0.034 A 
ATOM      5  C4  UNL d   1       3.714   1.511  -0.692  0.00  0.00     0.162 A 
ATOM      6  C5  UNL d   1       3.640   1.583   0.695  0.00  0.00     0.062 A 
ATOM      7  F   UNL d   1       4.741   1.387   1.434  0.00  0.00    -0.097 F 
ATOM      8  F1  UNL d   1       4.896   1.244  -1.266  0.00  0.00    -0.096 F 
ATOM      9  I   UNL d   1       2.679   1.604  -3.546  0.00  0.00    -0.060 I 
ATOM     10  F2  UNL d   1       0.242   2.186  -1.554  0.00  0.00    -0.096 F 
ATOM     11  F3  UNL d   1       0.119   2.323   1.148  0.00  0.00    -0.097 F 
ATOM     12  F4  UNL d   1       2.360   1.926   2.652  0.00  0.00    -0.092 F 
ENDROOT
TORSDOF 0
ENDMDL
