MODEL 1
REMARK minimizedAffinity 13.9031506
REMARK minimizedRMSD -1
REMARK  0 active torsions:
REMARK  status: ('A' for Active; 'I' for Inactive)
ROOT
ATOM      1  C   UNL d   1       2.397  -5.110  -2.332  0.00  0.00     0.124 A 
ATOM      2  C1  UNL d   1       2.111  -5.508  -3.631  0.00  0.00     0.062 A 
ATOM      3  C2  UNL d   1       3.131  -5.613  -4.572  0.00  0.00     0.162 A 
ATOM      4  C3  UNL d   1       4.448  -5.321  -4.217  0.00  0.00    -0.034 A 
ATOM      5  C4  UNL d   1       4.728  -4.921  -2.909  0.00  0.00     0.162 A 
ATOM      6  C5  UNL d   1       3.705  -4.818  -1.972  0.00  0.00     0.062 A 
ATOM      7  F   UNL d   1       3.983  -4.434  -0.718  0.00  0.00    -0.097 F 
ATOM      8  F1  UNL d   1       5.983  -4.633  -2.533  0.00  0.00    -0.096 F 
ATOM      9  I   UNL d   1       5.977  -5.477  -5.620  0.00  0.00    -0.060 I 
ATOM     10  F2  UNL d   1       2.826  -5.999  -5.819  0.00  0.00    -0.096 F 
ATOM     11  F3  UNL d   1       0.848  -5.790  -3.981  0.00  0.00    -0.097 F 
ATOM     12  F4  UNL d   1       1.413  -5.009  -1.429  0.00  0.00    -0.092 F 
ENDROOT
TORSDOF 0
ENDMDL
