MODEL 1
REMARK minimizedAffinity 17.6152287
REMARK minimizedRMSD -1
REMARK  0 active torsions:
REMARK  status: ('A' for Active; 'I' for Inactive)
ROOT
ATOM      1  C   UNL d   1       2.429  -5.183  -2.287  0.00  0.00     0.124 A 
ATOM      2  C1  UNL d   1       1.938  -5.446  -3.559  0.00  0.00     0.062 A 
ATOM      3  C2  UNL d   1       2.815  -5.648  -4.620  0.00  0.00     0.162 A 
ATOM      4  C3  UNL d   1       4.194  -5.588  -4.414  0.00  0.00    -0.034 A 
ATOM      5  C4  UNL d   1       4.680  -5.321  -3.133  0.00  0.00     0.162 A 
ATOM      6  C5  UNL d   1       3.799  -5.121  -2.076  0.00  0.00     0.062 A 
ATOM      7  F   UNL d   1       4.275  -4.866  -0.848  0.00  0.00    -0.097 F 
ATOM      8  F1  UNL d   1       5.999  -5.257  -2.900  0.00  0.00    -0.096 F 
ATOM      9  I   UNL d   1       5.510  -5.888  -5.998  0.00  0.00    -0.060 I 
ATOM     10  F2  UNL d   1       2.313  -5.900  -5.838  0.00  0.00    -0.096 F 
ATOM     11  F3  UNL d   1       0.614  -5.506  -3.766  0.00  0.00    -0.097 F 
ATOM     12  F4  UNL d   1       1.582  -4.988  -1.268  0.00  0.00    -0.092 F 
ENDROOT
TORSDOF 0
ENDMDL
