MODEL 1
REMARK minimizedAffinity 9.79114151
REMARK minimizedRMSD -1
REMARK  0 active torsions:
REMARK  status: ('A' for Active; 'I' for Inactive)
ROOT
ATOM      1  C   UNL d   1       4.366   1.695  -0.493  0.00  0.00     0.124 A 
ATOM      2  C1  UNL d   1       3.317   1.574  -1.394  0.00  0.00     0.062 A 
ATOM      3  C2  UNL d   1       2.001   1.693  -0.957  0.00  0.00     0.162 A 
ATOM      4  C3  UNL d   1       1.726   1.936   0.389  0.00  0.00    -0.034 A 
ATOM      5  C4  UNL d   1       2.786   2.056   1.289  0.00  0.00     0.162 A 
ATOM      6  C5  UNL d   1       4.100   1.936   0.847  0.00  0.00     0.062 A 
ATOM      7  F   UNL d   1       5.112   2.054   1.719  0.00  0.00    -0.097 F 
ATOM      8  F1  UNL d   1       2.557   2.290   2.590  0.00  0.00    -0.096 F 
ATOM      9  I   UNL d   1      -0.240   2.115   1.047  0.00  0.00    -0.060 I 
ATOM     10  F2  UNL d   1       1.008   1.571  -1.850  0.00  0.00    -0.096 F 
ATOM     11  F3  UNL d   1       3.572   1.340  -2.690  0.00  0.00    -0.097 F 
ATOM     12  F4  UNL d   1       5.631   1.579  -0.917  0.00  0.00    -0.092 F 
ENDROOT
TORSDOF 0
ENDMDL
