MODEL 1
REMARK minimizedAffinity 17.6635265
REMARK minimizedRMSD -1
REMARK  0 active torsions:
REMARK  status: ('A' for Active; 'I' for Inactive)
ROOT
ATOM      1  C   UNL d   1       3.807   2.342   0.288  0.00  0.00     0.124 A 
ATOM      2  C1  UNL d   1       3.416   3.641   0.585  0.00  0.00     0.062 A 
ATOM      3  C2  UNL d   1       2.081   3.925   0.859  0.00  0.00     0.162 A 
ATOM      4  C3  UNL d   1       1.127   2.908   0.839  0.00  0.00    -0.034 A 
ATOM      5  C4  UNL d   1       1.527   1.604   0.539  0.00  0.00     0.162 A 
ATOM      6  C5  UNL d   1       2.862   1.326   0.265  0.00  0.00     0.062 A 
ATOM      7  F   UNL d   1       3.238   0.071  -0.021  0.00  0.00    -0.097 F 
ATOM      8  F1  UNL d   1       0.635   0.603   0.510  0.00  0.00    -0.096 F 
ATOM      9  I   UNL d   1      -0.870   3.328   1.248  0.00  0.00    -0.060 I 
ATOM     10  F2  UNL d   1       1.732   5.188   1.143  0.00  0.00    -0.096 F 
ATOM     11  F3  UNL d   1       4.326   4.625   0.607  0.00  0.00    -0.097 F 
ATOM     12  F4  UNL d   1       5.091   2.072   0.024  0.00  0.00    -0.092 F 
ENDROOT
TORSDOF 0
ENDMDL
