MODEL 1
REMARK minimizedAffinity 14.3566608
REMARK minimizedRMSD -1
REMARK  0 active torsions:
REMARK  status: ('A' for Active; 'I' for Inactive)
ROOT
ATOM      1  C   UNL d   1       0.120   3.646  -0.037  0.00  0.00     0.124 A 
ATOM      2  C1  UNL d   1       1.293   4.339  -0.304  0.00  0.00     0.062 A 
ATOM      3  C2  UNL d   1       2.522   3.805   0.072  0.00  0.00     0.162 A 
ATOM      4  C3  UNL d   1       2.585   2.571   0.718  0.00  0.00    -0.034 A 
ATOM      5  C4  UNL d   1       1.401   1.880   0.984  0.00  0.00     0.162 A 
ATOM      6  C5  UNL d   1       0.175   2.418   0.606  0.00  0.00     0.062 A 
ATOM      7  F   UNL d   1      -0.957   1.747   0.865  0.00  0.00    -0.097 F 
ATOM      8  F1  UNL d   1       1.426   0.691   1.603  0.00  0.00    -0.096 F 
ATOM      9  I   UNL d   1       4.421   1.769   1.282  0.00  0.00    -0.060 I 
ATOM     10  F2  UNL d   1       3.639   4.497  -0.198  0.00  0.00    -0.096 F 
ATOM     11  F3  UNL d   1       1.242   5.526  -0.925  0.00  0.00    -0.097 F 
ATOM     12  F4  UNL d   1      -1.062   4.162  -0.399  0.00  0.00    -0.092 F 
ENDROOT
TORSDOF 0
ENDMDL
