MODEL 1
REMARK minimizedAffinity 16.0842724
REMARK minimizedRMSD -1
REMARK  0 active torsions:
REMARK  status: ('A' for Active; 'I' for Inactive)
ROOT
ATOM      1  C   UNL d   1       4.024  -4.542  -1.937  0.00  0.00     0.124 A 
ATOM      2  C1  UNL d   1       4.705  -4.592  -3.145  0.00  0.00     0.062 A 
ATOM      3  C2  UNL d   1       4.051  -5.007  -4.301  0.00  0.00     0.162 A 
ATOM      4  C3  UNL d   1       2.706  -5.376  -4.255  0.00  0.00    -0.034 A 
ATOM      5  C4  UNL d   1       2.028  -5.324  -3.037  0.00  0.00     0.162 A 
ATOM      6  C5  UNL d   1       2.686  -4.907  -1.884  0.00  0.00     0.062 A 
ATOM      7  F   UNL d   1       2.026  -4.860  -0.718  0.00  0.00    -0.097 F 
ATOM      8  F1  UNL d   1       0.735  -5.671  -2.957  0.00  0.00    -0.096 F 
ATOM      9  I   UNL d   1       1.725  -5.998  -5.982  0.00  0.00    -0.060 I 
ATOM     10  F2  UNL d   1       4.734  -5.046  -5.455  0.00  0.00    -0.096 F 
ATOM     11  F3  UNL d   1       5.998  -4.240  -3.199  0.00  0.00    -0.097 F 
ATOM     12  F4  UNL d   1       4.656  -4.142  -0.826  0.00  0.00    -0.092 F 
ENDROOT
TORSDOF 0
ENDMDL
