MODEL 1
REMARK minimizedAffinity 9.32913589
REMARK minimizedRMSD -1
REMARK  0 active torsions:
REMARK  status: ('A' for Active; 'I' for Inactive)
ROOT
ATOM      1  C   UNL d   1      -1.217   3.191   1.284  0.00  0.00     0.077 C 
ATOM      2  C1  UNL d   1      -0.315   1.998   1.161  0.00  0.00    -0.074 A 
ATOM      3  C2  UNL d   1       0.114   1.548  -0.092  0.00  0.00    -0.005 A 
ATOM      4  C3  UNL d   1       0.960   0.443  -0.190  0.00  0.00     0.006 A 
ATOM      5  C4  UNL d   1       1.385  -0.221   0.961  0.00  0.00    -0.005 A 
ATOM      6  C5  UNL d   1       0.967   0.216   2.222  0.00  0.00    -0.074 A 
ATOM      7  C6  UNL d   1       1.423  -0.480   3.470  0.00  0.00     0.077 C 
ATOM      8  C7  UNL d   1       0.123   1.331   2.313  0.00  0.00    -0.001 A 
ENDROOT
TORSDOF 0
ENDMDL
