MODEL 1
REMARK minimizedAffinity 12.0340967
REMARK minimizedRMSD -1
REMARK  0 active torsions:
REMARK  status: ('A' for Active; 'I' for Inactive)
ROOT
ATOM      1  C   UNL d   1      -5.999   0.005  -5.230  0.00  0.00     0.077 C 
ATOM      2  C1  UNL d   1      -5.331   1.186  -4.591  0.00  0.00    -0.074 A 
ATOM      3  C2  UNL d   1      -4.117   1.678  -5.082  0.00  0.00    -0.005 A 
ATOM      4  C3  UNL d   1      -3.513   2.783  -4.483  0.00  0.00     0.006 A 
ATOM      5  C4  UNL d   1      -4.115   3.407  -3.390  0.00  0.00    -0.005 A 
ATOM      6  C5  UNL d   1      -5.329   2.930  -2.886  0.00  0.00    -0.074 A 
ATOM      7  C6  UNL d   1      -5.995   3.596  -1.719  0.00  0.00     0.077 C 
ATOM      8  C7  UNL d   1      -5.934   1.823  -3.498  0.00  0.00    -0.001 A 
ENDROOT
TORSDOF 0
ENDMDL
