MODEL 1
REMARK minimizedAffinity 4.35969067
REMARK minimizedRMSD -1
REMARK  0 active torsions:
REMARK  status: ('A' for Active; 'I' for Inactive)
ROOT
ATOM      1  C   UNL d   1      -2.253  -5.998   5.997  0.00  0.00     0.077 C 
ATOM      2  C1  UNL d   1      -1.257  -5.029   5.432  0.00  0.00    -0.074 A 
ATOM      3  C2  UNL d   1      -0.409  -5.400   4.383  0.00  0.00    -0.005 A 
ATOM      4  C3  UNL d   1       0.506  -4.485   3.862  0.00  0.00     0.006 A 
ATOM      5  C4  UNL d   1       0.581  -3.192   4.382  0.00  0.00    -0.005 A 
ATOM      6  C5  UNL d   1      -0.260  -2.803   5.430  0.00  0.00    -0.074 A 
ATOM      7  C6  UNL d   1      -0.199  -1.415   5.994  0.00  0.00     0.077 C 
ATOM      8  C7  UNL d   1      -1.181  -3.726   5.944  0.00  0.00    -0.001 A 
ENDROOT
TORSDOF 0
ENDMDL
