MODEL 1
REMARK minimizedAffinity 2.84084463
REMARK minimizedRMSD -1
REMARK  0 active torsions:
REMARK  status: ('A' for Active; 'I' for Inactive)
ROOT
ATOM      1  C   UNL d   1      -6.000  -1.062  -5.253  0.00  0.00     0.077 C 
ATOM      2  C1  UNL d   1      -4.734  -0.405  -4.789  0.00  0.00    -0.074 A 
ATOM      3  C2  UNL d   1      -4.115  -0.797  -3.598  0.00  0.00    -0.005 A 
ATOM      4  C3  UNL d   1      -2.933  -0.183  -3.184  0.00  0.00     0.006 A 
ATOM      5  C4  UNL d   1      -2.359   0.828  -3.955  0.00  0.00    -0.005 A 
ATOM      6  C5  UNL d   1      -2.963   1.233  -5.150  0.00  0.00    -0.074 A 
ATOM      7  C6  UNL d   1      -2.354   2.311  -5.996  0.00  0.00     0.077 C 
ATOM      8  C7  UNL d   1      -4.147   0.606  -5.563  0.00  0.00    -0.001 A 
ENDROOT
TORSDOF 0
ENDMDL
