MODEL 1
REMARK minimizedAffinity 6.21187782
REMARK minimizedRMSD -1
REMARK  0 active torsions:
REMARK  status: ('A' for Active; 'I' for Inactive)
ROOT
ATOM      1  C   UNL d   1       3.685  -0.758  -0.330  0.00  0.00     0.077 C 
ATOM      2  C1  UNL d   1       4.441   0.525  -0.506  0.00  0.00    -0.074 A 
ATOM      3  C2  UNL d   1       4.755   1.006  -1.781  0.00  0.00    -0.005 A 
ATOM      4  C3  UNL d   1       5.451   2.206  -1.929  0.00  0.00     0.006 A 
ATOM      5  C4  UNL d   1       5.840   2.935  -0.805  0.00  0.00    -0.005 A 
ATOM      6  C5  UNL d   1       5.535   2.470   0.479  0.00  0.00    -0.074 A 
ATOM      7  C6  UNL d   1       5.938   3.247   1.697  0.00  0.00     0.077 C 
ATOM      8  C7  UNL d   1       4.829   1.268   0.619  0.00  0.00    -0.001 A 
ENDROOT
TORSDOF 0
ENDMDL
