MODEL 1
REMARK minimizedAffinity 8.85785103
REMARK minimizedRMSD -1
REMARK  0 active torsions:
REMARK  status: ('A' for Active; 'I' for Inactive)
ROOT
ATOM      1  C   UNL d   1       1.557  -2.656   3.701  0.00  0.00     0.077 C 
ATOM      2  C1  UNL d   1       1.055  -3.828   4.491  0.00  0.00    -0.074 A 
ATOM      3  C2  UNL d   1       1.919  -4.856   4.880  0.00  0.00    -0.005 A 
ATOM      4  C3  UNL d   1       1.440  -5.935   5.622  0.00  0.00     0.006 A 
ATOM      5  C4  UNL d   1       0.093  -5.996   5.983  0.00  0.00    -0.005 A 
ATOM      6  C5  UNL d   1      -0.786  -4.977   5.604  0.00  0.00    -0.074 A 
ATOM      7  C6  UNL d   1      -2.234  -5.022   5.992  0.00  0.00     0.077 C 
ATOM      8  C7  UNL d   1      -0.295  -3.893   4.864  0.00  0.00    -0.001 A 
ENDROOT
TORSDOF 0
ENDMDL
