MODEL 1
REMARK minimizedAffinity 6.53201675
REMARK minimizedRMSD -1
REMARK  0 active torsions:
REMARK  status: ('A' for Active; 'I' for Inactive)
ROOT
ATOM      1  C   UNL d   1       3.079  -0.508  -0.290  0.00  0.00     0.077 C 
ATOM      2  C1  UNL d   1       4.103   0.549  -0.579  0.00  0.00    -0.074 A 
ATOM      3  C2  UNL d   1       4.720   0.627  -1.832  0.00  0.00    -0.005 A 
ATOM      4  C3  UNL d   1       5.664   1.621  -2.090  0.00  0.00     0.006 A 
ATOM      5  C4  UNL d   1       6.000   2.545  -1.099  0.00  0.00    -0.005 A 
ATOM      6  C5  UNL d   1       5.393   2.483   0.159  0.00  0.00    -0.074 A 
ATOM      7  C6  UNL d   1       5.735   3.474   1.231  0.00  0.00     0.077 C 
ATOM      8  C7  UNL d   1       4.440   1.485   0.408  0.00  0.00    -0.001 A 
ENDROOT
TORSDOF 0
ENDMDL
