MODEL 1
REMARK minimizedAffinity 6.73560095
REMARK minimizedRMSD -1
REMARK  0 active torsions:
REMARK  status: ('A' for Active; 'I' for Inactive)
ROOT
ATOM      1  C   UNL d   1       6.000   2.630   1.785  0.00  0.00     0.077 C 
ATOM      2  C1  UNL d   1       5.432   2.032   0.533  0.00  0.00    -0.074 A 
ATOM      3  C2  UNL d   1       5.832   2.487  -0.727  0.00  0.00    -0.005 A 
ATOM      4  C3  UNL d   1       5.302   1.914  -1.883  0.00  0.00     0.006 A 
ATOM      5  C4  UNL d   1       4.367   0.882  -1.791  0.00  0.00    -0.005 A 
ATOM      6  C5  UNL d   1       3.956   0.413  -0.539  0.00  0.00    -0.074 A 
ATOM      7  C6  UNL d   1       2.960  -0.703  -0.422  0.00  0.00     0.077 C 
ATOM      8  C7  UNL d   1       4.499   0.989   0.618  0.00  0.00    -0.001 A 
ENDROOT
TORSDOF 0
ENDMDL
