MODEL 1
REMARK minimizedAffinity 3.65327263
REMARK minimizedRMSD -1
REMARK  0 active torsions:
REMARK  status: ('A' for Active; 'I' for Inactive)
ROOT
ATOM      1  C   UNL d   1       4.356   0.299  -0.989  0.00  0.00     0.077 C 
ATOM      2  C1  UNL d   1       3.784  -0.957  -1.576  0.00  0.00    -0.074 A 
ATOM      3  C2  UNL d   1       4.127  -1.368  -2.868  0.00  0.00    -0.005 A 
ATOM      4  C3  UNL d   1       3.593  -2.543  -3.397  0.00  0.00     0.006 A 
ATOM      5  C4  UNL d   1       2.713  -3.317  -2.641  0.00  0.00    -0.005 A 
ATOM      6  C5  UNL d   1       2.358  -2.923  -1.347  0.00  0.00    -0.074 A 
ATOM      7  C6  UNL d   1       1.421  -3.749  -0.518  0.00  0.00     0.077 C 
ATOM      8  C7  UNL d   1       2.904  -1.744  -0.820  0.00  0.00    -0.001 A 
ENDROOT
TORSDOF 0
ENDMDL
