MODEL 1
REMARK minimizedAffinity 12.0048199
REMARK minimizedRMSD -1
REMARK  0 active torsions:
REMARK  status: ('A' for Active; 'I' for Inactive)
ROOT
ATOM      1  C   UNL d   1       5.997   1.612  -2.710  0.00  0.00     0.077 C 
ATOM      2  C1  UNL d   1       5.163   0.981  -1.634  0.00  0.00    -0.074 A 
ATOM      3  C2  UNL d   1       5.732   0.594  -0.417  0.00  0.00    -0.005 A 
ATOM      4  C3  UNL d   1       4.942   0.017   0.577  0.00  0.00     0.006 A 
ATOM      5  C4  UNL d   1       3.577  -0.179   0.364  0.00  0.00    -0.005 A 
ATOM      6  C5  UNL d   1       2.990   0.202  -0.846  0.00  0.00    -0.074 A 
ATOM      7  C6  UNL d   1       1.522   0.008  -1.087  0.00  0.00     0.077 C 
ATOM      8  C7  UNL d   1       3.789   0.788  -1.837  0.00  0.00    -0.001 A 
ENDROOT
TORSDOF 0
ENDMDL
