MODEL 1
REMARK minimizedAffinity -1.49948311
REMARK minimizedRMSD -1
REMARK  0 active torsions:
REMARK  status: ('A' for Active; 'I' for Inactive)
ROOT
ATOM      1  C   UNL d   1      -2.120  -2.254  -6.000  0.00  0.00     0.078 C 
ATOM      2  C1  UNL d   1      -1.127  -1.343  -5.343  0.00  0.00    -0.077 A 
ATOM      3  C2  UNL d   1      -0.512  -1.696  -4.136  0.00  0.00    -0.001 A 
ATOM      4  C3  UNL d   1       0.403  -0.834  -3.531  0.00  0.00     0.003 A 
ATOM      5  C4  UNL d   1       0.711   0.389  -4.125  0.00  0.00    -0.005 A 
ATOM      6  C5  UNL d   1       0.102   0.750  -5.325  0.00  0.00     0.003 A 
ATOM      7  C6  UNL d   1      -0.813  -0.111  -5.932  0.00  0.00    -0.001 A 
ENDROOT
TORSDOF 0
ENDMDL
