MODEL 1
REMARK minimizedAffinity -3.31006455
REMARK minimizedRMSD -1
REMARK  0 active torsions:
REMARK  status: ('A' for Active; 'I' for Inactive)
ROOT
ATOM      1  C   UNL d   1      -0.207   1.883   2.071  0.00  0.00     0.078 C 
ATOM      2  C1  UNL d   1       0.234   0.856   1.071  0.00  0.00    -0.077 A 
ATOM      3  C2  UNL d   1       1.433   0.153   1.241  0.00  0.00    -0.001 A 
ATOM      4  C3  UNL d   1       1.836  -0.793   0.297  0.00  0.00     0.003 A 
ATOM      5  C4  UNL d   1       1.046  -1.044  -0.824  0.00  0.00    -0.005 A 
ATOM      6  C5  UNL d   1      -0.147  -0.347  -1.002  0.00  0.00     0.003 A 
ATOM      7  C6  UNL d   1      -0.552   0.599  -0.059  0.00  0.00    -0.001 A 
ENDROOT
TORSDOF 0
ENDMDL
