MODEL 1
REMARK minimizedAffinity -4.52706051
REMARK minimizedRMSD -1
REMARK  0 active torsions:
REMARK  status: ('A' for Active; 'I' for Inactive)
ROOT
ATOM      1  C   UNL d   1      -0.059  -0.593  -0.535  0.00  0.00     0.078 C 
ATOM      2  C1  UNL d   1       0.411  -0.149  -1.887  0.00  0.00    -0.077 A 
ATOM      3  C2  UNL d   1      -0.344   0.746  -2.655  0.00  0.00    -0.001 A 
ATOM      4  C3  UNL d   1       0.101   1.143  -3.917  0.00  0.00     0.003 A 
ATOM      5  C4  UNL d   1       1.302   0.650  -4.423  0.00  0.00    -0.005 A 
ATOM      6  C5  UNL d   1       2.059  -0.243  -3.667  0.00  0.00     0.003 A 
ATOM      7  C6  UNL d   1       1.616  -0.641  -2.405  0.00  0.00    -0.001 A 
ENDROOT
TORSDOF 0
ENDMDL
