MODEL 1
REMARK minimizedAffinity -3.45364046
REMARK minimizedRMSD -1
REMARK  0 active torsions:
REMARK  status: ('A' for Active; 'I' for Inactive)
ROOT
ATOM      1  C   UNL d   1      -0.431   1.757   3.225  0.00  0.00     0.078 C 
ATOM      2  C1  UNL d   1      -0.774   1.099   1.922  0.00  0.00    -0.077 A 
ATOM      3  C2  UNL d   1       0.224   0.558   1.103  0.00  0.00    -0.001 A 
ATOM      4  C3  UNL d   1      -0.109  -0.044  -0.112  0.00  0.00     0.003 A 
ATOM      5  C4  UNL d   1      -1.440  -0.110  -0.519  0.00  0.00    -0.005 A 
ATOM      6  C5  UNL d   1      -2.440   0.428   0.289  0.00  0.00     0.003 A 
ATOM      7  C6  UNL d   1      -2.109   1.030   1.504  0.00  0.00    -0.001 A 
ENDROOT
TORSDOF 0
ENDMDL
