MODEL 1
REMARK minimizedAffinity -3.09896302
REMARK minimizedRMSD -1
REMARK  0 active torsions:
REMARK  status: ('A' for Active; 'I' for Inactive)
ROOT
ATOM      1  C   UNL d   1       0.375  -0.228  -0.792  0.00  0.00     0.078 C 
ATOM      2  C1  UNL d   1       0.055   0.020   0.652  0.00  0.00    -0.077 A 
ATOM      3  C2  UNL d   1       0.973  -0.301   1.659  0.00  0.00    -0.001 A 
ATOM      4  C3  UNL d   1       0.659  -0.074   3.000  0.00  0.00     0.003 A 
ATOM      5  C4  UNL d   1      -0.575   0.474   3.346  0.00  0.00    -0.005 A 
ATOM      6  C5  UNL d   1      -1.496   0.795   2.351  0.00  0.00     0.003 A 
ATOM      7  C6  UNL d   1      -1.183   0.569   1.010  0.00  0.00    -0.001 A 
ENDROOT
TORSDOF 0
ENDMDL
