MODEL 1
REMARK minimizedAffinity -3.79399109
REMARK minimizedRMSD -1
REMARK  0 active torsions:
REMARK  status: ('A' for Active; 'I' for Inactive)
ROOT
ATOM      1  C   UNL d   1      -0.890   1.357   2.963  0.00  0.00     0.078 C 
ATOM      2  C1  UNL d   1      -0.441   0.679   1.703  0.00  0.00    -0.077 A 
ATOM      3  C2  UNL d   1       0.901   0.330   1.511  0.00  0.00    -0.001 A 
ATOM      4  C3  UNL d   1       1.307  -0.293   0.330  0.00  0.00     0.003 A 
ATOM      5  C4  UNL d   1       0.377  -0.571  -0.669  0.00  0.00    -0.005 A 
ATOM      6  C5  UNL d   1      -0.961  -0.226  -0.488  0.00  0.00     0.003 A 
ATOM      7  C6  UNL d   1      -1.369   0.397   0.692  0.00  0.00    -0.001 A 
ENDROOT
TORSDOF 0
ENDMDL
