MODEL 1
REMARK minimizedAffinity -5.50933218
REMARK minimizedRMSD -1
REMARK  0 active torsions:
REMARK  status: ('A' for Active; 'I' for Inactive)
ROOT
ATOM      1  C   UNL d   1      -0.744   1.760   2.634  0.00  0.00     0.078 C 
ATOM      2  C1  UNL d   1      -0.461   0.788   1.528  0.00  0.00    -0.077 A 
ATOM      3  C2  UNL d   1       0.842   0.342   1.275  0.00  0.00    -0.001 A 
ATOM      4  C3  UNL d   1       1.091  -0.555   0.235  0.00  0.00     0.003 A 
ATOM      5  C4  UNL d   1       0.043  -1.013  -0.560  0.00  0.00    -0.005 A 
ATOM      6  C5  UNL d   1      -1.257  -0.573  -0.318  0.00  0.00     0.003 A 
ATOM      7  C6  UNL d   1      -1.508   0.324   0.722  0.00  0.00    -0.001 A 
ENDROOT
TORSDOF 0
ENDMDL
