MODEL 1
REMARK minimizedAffinity -5.74391603
REMARK minimizedRMSD -1
REMARK  0 active torsions:
REMARK  status: ('A' for Active; 'I' for Inactive)
ROOT
ATOM      1  C   UNL d   1       0.016  -0.357  -0.474  0.00  0.00     0.078 C 
ATOM      2  C1  UNL d   1       0.227   0.050   0.953  0.00  0.00    -0.077 A 
ATOM      3  C2  UNL d   1       1.288  -0.473   1.703  0.00  0.00    -0.001 A 
ATOM      4  C3  UNL d   1       1.467  -0.093   3.034  0.00  0.00     0.003 A 
ATOM      5  C4  UNL d   1       0.587   0.810   3.628  0.00  0.00    -0.005 A 
ATOM      6  C5  UNL d   1      -0.473   1.333   2.891  0.00  0.00     0.003 A 
ATOM      7  C6  UNL d   1      -0.653   0.955   1.560  0.00  0.00    -0.001 A 
ENDROOT
TORSDOF 0
ENDMDL
