MODEL 1
REMARK minimizedAffinity -5.23759127
REMARK minimizedRMSD -1
REMARK  0 active torsions:
REMARK  status: ('A' for Active; 'I' for Inactive)
ROOT
ATOM      1  C   UNL d   1       0.759  -0.377  -0.645  0.00  0.00     0.078 C 
ATOM      2  C1  UNL d   1       0.329   0.110   0.706  0.00  0.00    -0.077 A 
ATOM      3  C2  UNL d   1       1.254   0.258   1.747  0.00  0.00    -0.001 A 
ATOM      4  C3  UNL d   1       0.838   0.703   3.003  0.00  0.00     0.003 A 
ATOM      5  C4  UNL d   1      -0.504   1.004   3.229  0.00  0.00    -0.005 A 
ATOM      6  C5  UNL d   1      -1.432   0.858   2.200  0.00  0.00     0.003 A 
ATOM      7  C6  UNL d   1      -1.017   0.412   0.944  0.00  0.00    -0.001 A 
ENDROOT
TORSDOF 0
ENDMDL
