MODEL 1
REMARK minimizedAffinity -1.16799712
REMARK minimizedRMSD -1
REMARK  3 active torsions:
REMARK  status: ('A' for Active; 'I' for Inactive)
REMARK    1  A    between atoms: C3'_2  and  C2'_3 
REMARK    2  A    between atoms: C2'_3  and  C1'_4 
REMARK    3  A    between atoms: C1'_4  and  C1_5 
ROOT
ATOM      1  C1  N4B d   1       2.822  -0.775  -0.744  0.00  0.00    -0.075 A 
ATOM      2  C2  N4B d   1       2.533  -1.577   0.382  0.00  0.00     0.002 A 
ATOM      3  C3  N4B d   1       1.531  -1.210   1.247  0.00  0.00     0.002 A 
ATOM      4  C4  N4B d   1       0.820  -0.042   1.017  0.00  0.00    -0.004 A 
ATOM      5  C5  N4B d   1       1.089   0.714  -0.087  0.00  0.00     0.002 A 
ATOM      6  C6  N4B d   1       2.090   0.355  -0.966  0.00  0.00     0.002 A 
ENDROOT
BRANCH   1   7
ATOM      7  C1' N4B d   1       3.965  -1.089  -1.670  0.00  0.00     0.057 C 
BRANCH   7   8
ATOM      8  C2' N4B d   1       4.291   0.148  -2.501  0.00  0.00     0.009 C 
BRANCH   8   9
ATOM      9  C3' N4B d   1       5.729   0.141  -2.990  0.00  0.00     0.004 C 
ATOM     10  C4' N4B d   1       5.989  -0.923  -4.015  0.00  0.00     0.003 C 
ENDBRANCH   8   9
ENDBRANCH   7   8
ENDBRANCH   1   7
TORSDOF 3
ENDMDL
