MODEL 1
REMARK minimizedAffinity -0.798701584
REMARK minimizedRMSD -1
REMARK  3 active torsions:
REMARK  status: ('A' for Active; 'I' for Inactive)
REMARK    1  A    between atoms: C3'_2  and  C2'_3 
REMARK    2  A    between atoms: C2'_3  and  C1'_4 
REMARK    3  A    between atoms: C1'_4  and  C1_5 
ROOT
ATOM      1  C1  N4B d   1       2.233  -0.851  -0.451  0.00  0.00    -0.075 A 
ATOM      2  C2  N4B d   1       2.242   0.546  -0.661  0.00  0.00     0.002 A 
ATOM      3  C3  N4B d   1       1.297   1.337  -0.057  0.00  0.00     0.002 A 
ATOM      4  C4  N4B d   1       0.325   0.755   0.743  0.00  0.00    -0.004 A 
ATOM      5  C5  N4B d   1       0.338  -0.591   0.962  0.00  0.00     0.002 A 
ATOM      6  C6  N4B d   1       1.285  -1.399   0.364  0.00  0.00     0.002 A 
ENDROOT
BRANCH   1   7
ATOM      7  C1' N4B d   1       3.194  -1.767  -1.159  0.00  0.00     0.057 C 
BRANCH   7   8
ATOM      8  C2' N4B d   1       4.560  -1.092  -1.241  0.00  0.00     0.009 C 
BRANCH   8   9
ATOM      9  C3' N4B d   1       4.632  -0.090  -2.380  0.00  0.00     0.004 C 
ATOM     10  C4' N4B d   1       5.998  -0.001  -2.990  0.00  0.00     0.003 C 
ENDBRANCH   8   9
ENDBRANCH   7   8
ENDBRANCH   1   7
TORSDOF 3
ENDMDL
