MODEL 1
REMARK minimizedAffinity -2.88673019
REMARK minimizedRMSD -1
REMARK  3 active torsions:
REMARK  status: ('A' for Active; 'I' for Inactive)
REMARK    1  A    between atoms: C3'_2  and  C2'_3 
REMARK    2  A    between atoms: C2'_3  and  C1'_4 
REMARK    3  A    between atoms: C1'_4  and  C1_5 
ROOT
ATOM      1  C1  N4B d   1       1.587  -0.604  -0.106  0.00  0.00    -0.075 A 
ATOM      2  C2  N4B d   1       1.936   0.760  -0.214  0.00  0.00     0.002 A 
ATOM      3  C3  N4B d   1       3.060   1.128  -0.912  0.00  0.00     0.002 A 
ATOM      4  C4  N4B d   1       3.857   0.152  -1.492  0.00  0.00    -0.004 A 
ATOM      5  C5  N4B d   1       3.498  -1.161  -1.405  0.00  0.00     0.002 A 
ATOM      6  C6  N4B d   1       2.369  -1.545  -0.710  0.00  0.00     0.002 A 
ENDROOT
BRANCH   1   7
ATOM      7  C1' N4B d   1       0.415  -1.060   0.719  0.00  0.00     0.057 C 
BRANCH   7   8
ATOM      8  C2' N4B d   1       0.172  -0.057   1.843  0.00  0.00     0.009 C 
BRANCH   8   9
ATOM      9  C3' N4B d   1      -0.973  -0.481   2.747  0.00  0.00     0.004 C 
ATOM     10  C4' N4B d   1      -0.790  -0.032   4.166  0.00  0.00     0.003 C 
ENDBRANCH   8   9
ENDBRANCH   7   8
ENDBRANCH   1   7
TORSDOF 3
ENDMDL
