MODEL 1
REMARK minimizedAffinity 0.498747796
REMARK minimizedRMSD -1
REMARK  3 active torsions:
REMARK  status: ('A' for Active; 'I' for Inactive)
REMARK    1  A    between atoms: C3'_2  and  C2'_3 
REMARK    2  A    between atoms: C2'_3  and  C1'_4 
REMARK    3  A    between atoms: C1'_4  and  C1_5 
ROOT
ATOM      1  C1  N4B d   1       2.877  -0.197  -0.747  0.00  0.00    -0.075 A 
ATOM      2  C2  N4B d   1       1.928   0.774  -0.357  0.00  0.00     0.002 A 
ATOM      3  C3  N4B d   1       0.830   0.404   0.380  0.00  0.00     0.002 A 
ATOM      4  C4  N4B d   1       0.650  -0.928   0.721  0.00  0.00    -0.004 A 
ATOM      5  C5  N4B d   1       1.583  -1.856   0.362  0.00  0.00     0.002 A 
ATOM      6  C6  N4B d   1       2.694  -1.498  -0.375  0.00  0.00     0.002 A 
ENDROOT
BRANCH   1   7
ATOM      7  C1' N4B d   1       4.048   0.145  -1.626  0.00  0.00     0.057 C 
BRANCH   7   8
ATOM      8  C2' N4B d   1       4.881  -1.112  -1.863  0.00  0.00     0.009 C 
BRANCH   8   9
ATOM      9  C3' N4B d   1       6.000  -0.872  -2.861  0.00  0.00     0.004 C 
ATOM     10  C4' N4B d   1       6.000   0.523  -3.410  0.00  0.00     0.003 C 
ENDBRANCH   8   9
ENDBRANCH   7   8
ENDBRANCH   1   7
TORSDOF 3
ENDMDL
