MODEL 1
REMARK minimizedAffinity 3.33841705
REMARK minimizedRMSD -1
REMARK  3 active torsions:
REMARK  status: ('A' for Active; 'I' for Inactive)
REMARK    1  A    between atoms: C3'_2  and  C2'_3 
REMARK    2  A    between atoms: C2'_3  and  C1'_4 
REMARK    3  A    between atoms: C1'_4  and  C1_5 
ROOT
ATOM      1  C1  N4B d   1       2.292   0.450  -0.356  0.00  0.00    -0.075 A 
ATOM      2  C2  N4B d   1       1.155  -0.160   0.218  0.00  0.00     0.002 A 
ATOM      3  C3  N4B d   1       0.960  -1.513   0.085  0.00  0.00     0.002 A 
ATOM      4  C4  N4B d   1       1.875  -2.270  -0.630  0.00  0.00    -0.004 A 
ATOM      5  C5  N4B d   1       2.984  -1.678  -1.160  0.00  0.00     0.002 A 
ATOM      6  C6  N4B d   1       3.195  -0.320  -1.030  0.00  0.00     0.002 A 
ENDROOT
BRANCH   1   7
ATOM      7  C1' N4B d   1       2.503   1.938  -0.310  0.00  0.00     0.057 C 
BRANCH   7   8
ATOM      8  C2' N4B d   1       3.208   2.384  -1.588  0.00  0.00     0.009 C 
BRANCH   8   9
ATOM      9  C3' N4B d   1       4.359   3.332  -1.301  0.00  0.00     0.004 C 
ATOM     10  C4' N4B d   1       4.502   4.403  -2.341  0.00  0.00     0.003 C 
ENDBRANCH   8   9
ENDBRANCH   7   8
ENDBRANCH   1   7
TORSDOF 3
ENDMDL
