MODEL 1
REMARK minimizedAffinity -2.77826834
REMARK minimizedRMSD -1
REMARK  3 active torsions:
REMARK  status: ('A' for Active; 'I' for Inactive)
REMARK    1  A    between atoms: C3'_2  and  C2'_3 
REMARK    2  A    between atoms: C2'_3  and  C1'_4 
REMARK    3  A    between atoms: C1'_4  and  C1_5 
ROOT
ATOM      1  C1  N4B d   1       2.062  -1.880  -0.040  0.00  0.00    -0.075 A 
ATOM      2  C2  N4B d   1       3.098  -1.217  -0.735  0.00  0.00     0.002 A 
ATOM      3  C3  N4B d   1       3.198   0.151  -0.675  0.00  0.00     0.002 A 
ATOM      4  C4  N4B d   1       2.268   0.876   0.054  0.00  0.00    -0.004 A 
ATOM      5  C5  N4B d   1       1.286   0.227   0.743  0.00  0.00     0.002 A 
ATOM      6  C6  N4B d   1       1.175  -1.148   0.695  0.00  0.00     0.002 A 
ENDROOT
BRANCH   1   7
ATOM      7  C1' N4B d   1       1.860  -3.366  -0.145  0.00  0.00     0.057 C 
BRANCH   7   8
ATOM      8  C2' N4B d   1       0.870  -3.814   0.926  0.00  0.00     0.009 C 
BRANCH   8   9
ATOM      9  C3' N4B d   1       1.455  -4.887   1.828  0.00  0.00     0.004 C 
ATOM     10  C4' N4B d   1       0.489  -5.999   2.110  0.00  0.00     0.003 C 
ENDBRANCH   8   9
ENDBRANCH   7   8
ENDBRANCH   1   7
TORSDOF 3
ENDMDL
