MODEL 1
REMARK minimizedAffinity -3.49415374
REMARK minimizedRMSD -1
REMARK  3 active torsions:
REMARK  status: ('A' for Active; 'I' for Inactive)
REMARK    1  A    between atoms: C3'_2  and  C2'_3 
REMARK    2  A    between atoms: C2'_3  and  C1'_4 
REMARK    3  A    between atoms: C1'_4  and  C1_5 
ROOT
ATOM      1  C1  N4B d   1       2.657  -0.239  -0.793  0.00  0.00    -0.075 A 
ATOM      2  C2  N4B d   1       1.553   0.536  -0.372  0.00  0.00     0.002 A 
ATOM      3  C3  N4B d   1       0.499  -0.064   0.272  0.00  0.00     0.002 A 
ATOM      4  C4  N4B d   1       0.517  -1.434   0.488  0.00  0.00    -0.004 A 
ATOM      5  C5  N4B d   1       1.598  -2.171   0.101  0.00  0.00     0.002 A 
ATOM      6  C6  N4B d   1       2.666  -1.580  -0.544  0.00  0.00     0.002 A 
ENDROOT
BRANCH   1   7
ATOM      7  C1' N4B d   1       3.793   0.359  -1.577  0.00  0.00     0.057 C 
BRANCH   7   8
ATOM      8  C2' N4B d   1       4.757  -0.751  -1.986  0.00  0.00     0.009 C 
BRANCH   8   9
ATOM      9  C3' N4B d   1       5.986  -0.205  -2.693  0.00  0.00     0.004 C 
ATOM     10  C4' N4B d   1       5.998   1.293  -2.762  0.00  0.00     0.003 C 
ENDBRANCH   8   9
ENDBRANCH   7   8
ENDBRANCH   1   7
TORSDOF 3
ENDMDL
