MODEL 1
REMARK minimizedAffinity -3.42983532
REMARK minimizedRMSD -1
REMARK  3 active torsions:
REMARK  status: ('A' for Active; 'I' for Inactive)
REMARK    1  A    between atoms: C3'_2  and  C2'_3 
REMARK    2  A    between atoms: C2'_3  and  C1'_4 
REMARK    3  A    between atoms: C1'_4  and  C1_5 
ROOT
ATOM      1  C1  N4B d   1       2.391  -0.379  -0.939  0.00  0.00    -0.075 A 
ATOM      2  C2  N4B d   1       1.560  -1.078  -0.038  0.00  0.00     0.002 A 
ATOM      3  C3  N4B d   1       0.712  -0.386   0.792  0.00  0.00     0.002 A 
ATOM      4  C4  N4B d   1       0.692   1.000   0.751  0.00  0.00    -0.004 A 
ATOM      5  C5  N4B d   1       1.480   1.667  -0.141  0.00  0.00     0.002 A 
ATOM      6  C6  N4B d   1       2.334   0.984  -0.983  0.00  0.00     0.002 A 
ENDROOT
BRANCH   1   7
ATOM      7  C1' N4B d   1       3.397  -1.088  -1.805  0.00  0.00     0.057 C 
BRANCH   7   8
ATOM      8  C2' N4B d   1       4.743  -1.116  -1.089  0.00  0.00     0.009 C 
BRANCH   8   9
ATOM      9  C3' N4B d   1       5.815  -0.369  -1.864  0.00  0.00     0.004 C 
ATOM     10  C4' N4B d   1       5.283   0.294  -3.099  0.00  0.00     0.003 C 
ENDBRANCH   8   9
ENDBRANCH   7   8
ENDBRANCH   1   7
TORSDOF 3
ENDMDL
