MODEL 1
REMARK minimizedAffinity 6.46552801
REMARK minimizedRMSD -1
REMARK  0 active torsions:
REMARK  status: ('A' for Active; 'I' for Inactive)
ROOT
ATOM      1  C1  BNZ d   1       2.787   0.039  -1.510  0.00  0.00     0.000 A 
ATOM      2  C2  BNZ d   1       2.654  -0.065  -0.151  0.00  0.00     0.000 A 
ATOM      3  C3  BNZ d   1       3.442   0.671   0.688  0.00  0.00     0.000 A 
ATOM      4  C4  BNZ d   1       4.389   1.480   0.169  0.00  0.00     0.000 A 
ATOM      5  C5  BNZ d   1       4.542   1.589  -1.199  0.00  0.00     0.000 A 
ATOM      6  C6  BNZ d   1       3.720   0.876  -2.041  0.00  0.00     0.000 A 
ENDROOT
TORSDOF 0
ENDMDL
