MODEL 1
REMARK minimizedAffinity 5.78318644
REMARK minimizedRMSD -1
REMARK  0 active torsions:
REMARK  status: ('A' for Active; 'I' for Inactive)
ROOT
ATOM      1  C1  BNZ d   1       5.065   1.752  -0.189  0.00  0.00     0.000 A 
ATOM      2  C2  BNZ d   1       4.152   0.994   0.494  0.00  0.00     0.000 A 
ATOM      3  C3  BNZ d   1       3.245   0.219  -0.174  0.00  0.00     0.000 A 
ATOM      4  C4  BNZ d   1       3.226   0.234  -1.522  0.00  0.00     0.000 A 
ATOM      5  C5  BNZ d   1       4.135   1.000  -2.225  0.00  0.00     0.000 A 
ATOM      6  C6  BNZ d   1       5.071   1.748  -1.550  0.00  0.00     0.000 A 
ENDROOT
TORSDOF 0
ENDMDL
