MODEL 1
REMARK minimizedAffinity 6.32782555
REMARK minimizedRMSD -1
REMARK  0 active torsions:
REMARK  status: ('A' for Active; 'I' for Inactive)
ROOT
ATOM      1  C1  BNZ d   1       2.068   4.098   2.075  0.00  0.00     0.000 A 
ATOM      2  C2  BNZ d   1       2.762   3.518   3.104  0.00  0.00     0.000 A 
ATOM      3  C3  BNZ d   1       2.108   3.026   4.199  0.00  0.00     0.000 A 
ATOM      4  C4  BNZ d   1       0.768   3.151   4.282  0.00  0.00     0.000 A 
ATOM      5  C5  BNZ d   1       0.055   3.741   3.258  0.00  0.00     0.000 A 
ATOM      6  C6  BNZ d   1       0.713   4.200   2.139  0.00  0.00     0.000 A 
ENDROOT
TORSDOF 0
ENDMDL
