MODEL 1
REMARK minimizedAffinity 4.43192434
REMARK minimizedRMSD -1
REMARK  0 active torsions:
REMARK  status: ('A' for Active; 'I' for Inactive)
ROOT
ATOM      1  C1  BNZ d   1       3.765   0.827  -1.804  0.00  0.00     0.000 A 
ATOM      2  C2  BNZ d   1       4.652   1.584  -2.522  0.00  0.00     0.000 A 
ATOM      3  C3  BNZ d   1       5.666   2.255  -1.897  0.00  0.00     0.000 A 
ATOM      4  C4  BNZ d   1       5.768   2.200  -0.553  0.00  0.00     0.000 A 
ATOM      5  C5  BNZ d   1       4.876   1.448   0.185  0.00  0.00     0.000 A 
ATOM      6  C6  BNZ d   1       3.880   0.743  -0.451  0.00  0.00     0.000 A 
ENDROOT
TORSDOF 0
ENDMDL
