MODEL 1
REMARK minimizedAffinity 1.93619978
REMARK minimizedRMSD -1
REMARK  0 active torsions:
REMARK  status: ('A' for Active; 'I' for Inactive)
ROOT
ATOM      1  C1  BNZ d   1       4.119   1.432   0.531  0.00  0.00     0.000 A 
ATOM      2  C2  BNZ d   1       5.016   1.932  -0.375  0.00  0.00     0.000 A 
ATOM      3  C3  BNZ d   1       4.913   1.625  -1.704  0.00  0.00     0.000 A 
ATOM      4  C4  BNZ d   1       3.939   0.789  -2.117  0.00  0.00     0.000 A 
ATOM      5  C5  BNZ d   1       3.033   0.269  -1.214  0.00  0.00     0.000 A 
ATOM      6  C6  BNZ d   1       3.116   0.611   0.116  0.00  0.00     0.000 A 
ENDROOT
TORSDOF 0
ENDMDL
