MODEL 1
REMARK minimizedAffinity 5.75875902
REMARK minimizedRMSD -1
REMARK  0 active torsions:
REMARK  status: ('A' for Active; 'I' for Inactive)
ROOT
ATOM      1  C1  BNZ d   1       4.710   1.918   0.738  0.00  0.00     0.000 A 
ATOM      2  C2  BNZ d   1       3.712   1.204   1.346  0.00  0.00     0.000 A 
ATOM      3  C3  BNZ d   1       2.846   0.446   0.609  0.00  0.00     0.000 A 
ATOM      4  C4  BNZ d   1       2.952   0.434  -0.735  0.00  0.00     0.000 A 
ATOM      5  C5  BNZ d   1       3.947   1.156  -1.364  0.00  0.00     0.000 A 
ATOM      6  C6  BNZ d   1       4.842   1.887  -0.616  0.00  0.00     0.000 A 
ENDROOT
TORSDOF 0
ENDMDL
