MODEL 1
REMARK minimizedAffinity 7.11811686
REMARK minimizedRMSD -1
REMARK  0 active torsions:
REMARK  status: ('A' for Active; 'I' for Inactive)
ROOT
ATOM      1  C1  BNZ d   1      -0.883  -3.373  -0.094  0.00  0.00     0.000 A 
ATOM      2  C2  BNZ d   1      -1.044  -4.373  -1.015  0.00  0.00     0.000 A 
ATOM      3  C3  BNZ d   1      -0.977  -5.687  -0.642  0.00  0.00     0.000 A 
ATOM      4  C4  BNZ d   1      -0.709  -5.998   0.642  0.00  0.00     0.000 A 
ATOM      5  C5  BNZ d   1      -0.534  -5.001   1.581  0.00  0.00     0.000 A 
ATOM      6  C6  BNZ d   1      -0.641  -3.681   1.210  0.00  0.00     0.000 A 
ENDROOT
TORSDOF 0
ENDMDL
