MODEL 1
REMARK minimizedAffinity 1.52034771
REMARK minimizedRMSD -1
REMARK  0 active torsions:
REMARK  status: ('A' for Active; 'I' for Inactive)
ROOT
ATOM      1  C1  BNZ d   1      -1.452  -1.974   0.506  0.00  0.00     0.000 A 
ATOM      2  C2  BNZ d   1      -1.018  -3.123  -0.100  0.00  0.00     0.000 A 
ATOM      3  C3  BNZ d   1      -0.993  -4.307   0.583  0.00  0.00     0.000 A 
ATOM      4  C4  BNZ d   1      -1.363  -4.333   1.879  0.00  0.00     0.000 A 
ATOM      5  C5  BNZ d   1      -1.794  -3.181   2.507  0.00  0.00     0.000 A 
ATOM      6  C6  BNZ d   1      -1.855  -1.999   1.805  0.00  0.00     0.000 A 
ENDROOT
TORSDOF 0
ENDMDL
