MODEL 1
REMARK minimizedAffinity 6.5029664
REMARK minimizedRMSD -1
REMARK  0 active torsions:
REMARK  status: ('A' for Active; 'I' for Inactive)
ROOT
ATOM      1  C1  BNZ d   1       2.256   2.212   1.218  0.00  0.00     0.000 A 
ATOM      2  C2  BNZ d   1       1.442   1.450   0.423  0.00  0.00     0.000 A 
ATOM      3  C3  BNZ d   1       1.969   0.602  -0.510  0.00  0.00     0.000 A 
ATOM      4  C4  BNZ d   1       3.306   0.546  -0.675  0.00  0.00     0.000 A 
ATOM      5  C5  BNZ d   1       4.140   1.314   0.113  0.00  0.00     0.000 A 
ATOM      6  C6  BNZ d   1       3.608   2.138   1.077  0.00  0.00     0.000 A 
ENDROOT
TORSDOF 0
ENDMDL
