MODEL 1
REMARK minimizedAffinity 1.38307309
REMARK minimizedRMSD -1
REMARK  0 active torsions:
REMARK  status: ('A' for Active; 'I' for Inactive)
ROOT
ATOM      1  C1  BNZ d   1      -0.544  -3.833   0.811  0.00  0.00     0.000 A 
ATOM      2  C2  BNZ d   1      -0.995  -3.696  -0.475  0.00  0.00     0.000 A 
ATOM      3  C3  BNZ d   1      -1.895  -2.720  -0.800  0.00  0.00     0.000 A 
ATOM      4  C4  BNZ d   1      -2.372  -1.909   0.167  0.00  0.00     0.000 A 
ATOM      5  C5  BNZ d   1      -1.933  -2.041   1.469  0.00  0.00     0.000 A 
ATOM      6  C6  BNZ d   1      -0.998  -2.999   1.786  0.00  0.00     0.000 A 
ENDROOT
TORSDOF 0
ENDMDL
