MODEL 1
REMARK minimizedAffinity 3.65365767
REMARK minimizedRMSD -1
REMARK  0 active torsions:
REMARK  status: ('A' for Active; 'I' for Inactive)
ROOT
ATOM      1  C1  BNZ d   1       2.786   2.186   1.810  0.00  0.00     0.000 A 
ATOM      2  C2  BNZ d   1       1.917   1.393   1.109  0.00  0.00     0.000 A 
ATOM      3  C3  BNZ d   1       2.204   0.998  -0.167  0.00  0.00     0.000 A 
ATOM      4  C4  BNZ d   1       3.339   1.427  -0.755  0.00  0.00     0.000 A 
ATOM      5  C5  BNZ d   1       4.221   2.234  -0.065  0.00  0.00     0.000 A 
ATOM      6  C6  BNZ d   1       3.948   2.599   1.234  0.00  0.00     0.000 A 
ENDROOT
TORSDOF 0
ENDMDL
