MODEL 1
REMARK minimizedAffinity 5.42978239
REMARK minimizedRMSD -1
REMARK  0 active torsions:
REMARK  status: ('A' for Active; 'I' for Inactive)
ROOT
ATOM      1  C1  BNZ d   1      -1.846  -1.891   0.154  0.00  0.00     0.000 A 
ATOM      2  C2  BNZ d   1      -1.367  -2.867  -0.679  0.00  0.00     0.000 A 
ATOM      3  C3  BNZ d   1      -0.906  -4.052  -0.177  0.00  0.00     0.000 A 
ATOM      4  C4  BNZ d   1      -0.886  -4.244   1.158  0.00  0.00     0.000 A 
ATOM      5  C5  BNZ d   1      -1.357  -3.266   2.012  0.00  0.00     0.000 A 
ATOM      6  C6  BNZ d   1      -1.857  -2.090   1.501  0.00  0.00     0.000 A 
ENDROOT
TORSDOF 0
ENDMDL
