MODEL 1
REMARK minimizedAffinity 7.61128283
REMARK minimizedRMSD -1
REMARK  0 active torsions:
REMARK  status: ('A' for Active; 'I' for Inactive)
ROOT
ATOM      1  C1  BNZ d   1      -2.173  -1.195   0.729  0.00  0.00     0.000 A 
ATOM      2  C2  BNZ d   1      -1.431  -1.771  -0.268  0.00  0.00     0.000 A 
ATOM      3  C3  BNZ d   1      -0.651  -2.864  -0.017  0.00  0.00     0.000 A 
ATOM      4  C4  BNZ d   1      -0.582  -3.356   1.237  0.00  0.00     0.000 A 
ATOM      5  C5  BNZ d   1      -1.317  -2.781   2.254  0.00  0.00     0.000 A 
ATOM      6  C6  BNZ d   1      -2.131  -1.704   1.990  0.00  0.00     0.000 A 
ENDROOT
TORSDOF 0
ENDMDL
