MODEL 1
REMARK minimizedAffinity 12.746851
REMARK minimizedRMSD -1
REMARK  0 active torsions:
REMARK  status: ('A' for Active; 'I' for Inactive)
ROOT
ATOM      1  C1  BNZ d   1       4.123   3.016   4.511  0.00  0.00     0.000 A 
ATOM      2  C2  BNZ d   1       2.980   3.000   5.265  0.00  0.00     0.000 A 
ATOM      3  C3  BNZ d   1       2.606   4.094   5.994  0.00  0.00     0.000 A 
ATOM      4  C4  BNZ d   1       3.396   5.188   6.000  0.00  0.00     0.000 A 
ATOM      5  C5  BNZ d   1       4.556   5.216   5.253  0.00  0.00     0.000 A 
ATOM      6  C6  BNZ d   1       4.909   4.127   4.490  0.00  0.00     0.000 A 
ENDROOT
TORSDOF 0
ENDMDL
