MODEL 1
REMARK minimizedAffinity 8.43168068
REMARK minimizedRMSD -1
REMARK  0 active torsions:
REMARK  status: ('A' for Active; 'I' for Inactive)
ROOT
ATOM      1  C1  BNZ d   1      -1.789  -2.316   0.390  0.00  0.00     0.000 A 
ATOM      2  C2  BNZ d   1      -0.906  -3.026  -0.379  0.00  0.00     0.000 A 
ATOM      3  C3  BNZ d   1      -0.414  -4.227   0.050  0.00  0.00     0.000 A 
ATOM      4  C4  BNZ d   1      -0.774  -4.697   1.262  0.00  0.00     0.000 A 
ATOM      5  C5  BNZ d   1      -1.656  -3.987   2.053  0.00  0.00     0.000 A 
ATOM      6  C6  BNZ d   1      -2.180  -2.798   1.601  0.00  0.00     0.000 A 
ENDROOT
TORSDOF 0
ENDMDL
