MODEL 1
REMARK minimizedAffinity 10.20222
REMARK minimizedRMSD -1
REMARK  0 active torsions:
REMARK  status: ('A' for Active; 'I' for Inactive)
ROOT
ATOM      1  C1  BNZ d   1       4.493   2.647   4.532  0.00  0.00     0.000 A 
ATOM      2  C2  BNZ d   1       3.369   2.438   5.286  0.00  0.00     0.000 A 
ATOM      3  C3  BNZ d   1       2.803   3.460   5.997  0.00  0.00     0.000 A 
ATOM      4  C4  BNZ d   1       3.384   4.677   5.984  0.00  0.00     0.000 A 
ATOM      5  C5  BNZ d   1       4.523   4.901   5.237  0.00  0.00     0.000 A 
ATOM      6  C6  BNZ d   1       5.067   3.880   4.492  0.00  0.00     0.000 A 
ENDROOT
TORSDOF 0
ENDMDL
