MODEL 1
REMARK minimizedAffinity 7.54401541
REMARK minimizedRMSD -1
REMARK  0 active torsions:
REMARK  status: ('A' for Active; 'I' for Inactive)
ROOT
ATOM      1  C1  BNZ d   1      -2.943   4.436  -4.050  0.00  0.00     0.000 A 
ATOM      2  C2  BNZ d   1      -1.654   3.973  -4.058  0.00  0.00     0.000 A 
ATOM      3  C3  BNZ d   1      -1.218   3.135  -5.046  0.00  0.00     0.000 A 
ATOM      4  C4  BNZ d   1      -2.081   2.729  -6.000  0.00  0.00     0.000 A 
ATOM      5  C5  BNZ d   1      -3.386   3.179  -6.000  0.00  0.00     0.000 A 
ATOM      6  C6  BNZ d   1      -3.811   4.054  -5.026  0.00  0.00     0.000 A 
ENDROOT
TORSDOF 0
ENDMDL
