MODEL 1
REMARK minimizedAffinity 4.56460381
REMARK minimizedRMSD -1
REMARK  0 active torsions:
REMARK  status: ('A' for Active; 'I' for Inactive)
ROOT
ATOM      1  C1  BNZ d   1       5.992   2.793  -0.495  0.00  0.00     0.000 A 
ATOM      2  C2  BNZ d   1       4.906   2.150   0.036  0.00  0.00     0.000 A 
ATOM      3  C3  BNZ d   1       3.815   2.855   0.463  0.00  0.00     0.000 A 
ATOM      4  C4  BNZ d   1       3.828   4.202   0.396  0.00  0.00     0.000 A 
ATOM      5  C5  BNZ d   1       4.920   4.865  -0.128  0.00  0.00     0.000 A 
ATOM      6  C6  BNZ d   1       6.000   4.151  -0.593  0.00  0.00     0.000 A 
ENDROOT
TORSDOF 0
ENDMDL
