MODEL 1
REMARK minimizedAffinity 11.4770155
REMARK minimizedRMSD -1
REMARK  0 active torsions:
REMARK  status: ('A' for Active; 'I' for Inactive)
ROOT
ATOM      1  C1  BNZ d   1       5.061   5.065   0.006  0.00  0.00     0.000 A 
ATOM      2  C2  BNZ d   1       4.159   4.337   0.735  0.00  0.00     0.000 A 
ATOM      3  C3  BNZ d   1       4.187   2.971   0.720  0.00  0.00     0.000 A 
ATOM      4  C4  BNZ d   1       5.090   2.335  -0.054  0.00  0.00     0.000 A 
ATOM      5  C5  BNZ d   1       6.000   3.054  -0.802  0.00  0.00     0.000 A 
ATOM      6  C6  BNZ d   1       5.994   4.429  -0.754  0.00  0.00     0.000 A 
ENDROOT
TORSDOF 0
ENDMDL
