MODEL 1
REMARK minimizedAffinity 3.60075092
REMARK minimizedRMSD -1
REMARK  0 active torsions:
REMARK  status: ('A' for Active; 'I' for Inactive)
ROOT
ATOM      1  C1  BNZ d   1      -3.948   1.835   5.983  0.00  0.00     0.000 A 
ATOM      2  C2  BNZ d   1      -3.037   0.812   5.989  0.00  0.00     0.000 A 
ATOM      3  C3  BNZ d   1      -3.447  -0.491   5.948  0.00  0.00     0.000 A 
ATOM      4  C4  BNZ d   1      -4.766  -0.771   5.941  0.00  0.00     0.000 A 
ATOM      5  C5  BNZ d   1      -5.697   0.249   5.943  0.00  0.00     0.000 A 
ATOM      6  C6  BNZ d   1      -5.280   1.560   5.946  0.00  0.00     0.000 A 
ENDROOT
TORSDOF 0
ENDMDL
