MODEL 1
REMARK minimizedAffinity 5.7769618
REMARK minimizedRMSD -1
REMARK  0 active torsions:
REMARK  status: ('A' for Active; 'I' for Inactive)
ROOT
ATOM      1  C1  BNZ d   1       2.648   1.550   1.682  0.00  0.00     0.000 A 
ATOM      2  C2  BNZ d   1       3.675   2.391   2.020  0.00  0.00     0.000 A 
ATOM      3  C3  BNZ d   1       4.382   3.055   1.057  0.00  0.00     0.000 A 
ATOM      4  C4  BNZ d   1       4.089   2.847  -0.242  0.00  0.00     0.000 A 
ATOM      5  C5  BNZ d   1       3.062   1.995  -0.600  0.00  0.00     0.000 A 
ATOM      6  C6  BNZ d   1       2.327   1.358   0.373  0.00  0.00     0.000 A 
ENDROOT
TORSDOF 0
ENDMDL
