MODEL 1
REMARK minimizedAffinity 4.3635416
REMARK minimizedRMSD -1
REMARK  0 active torsions:
REMARK  status: ('A' for Active; 'I' for Inactive)
ROOT
ATOM      1  C1  BNZ d   1      -0.550  -2.165  -0.634  0.00  0.00     0.000 A 
ATOM      2  C2  BNZ d   1      -1.527  -1.289  -0.242  0.00  0.00     0.000 A 
ATOM      3  C3  BNZ d   1      -2.623  -1.727   0.448  0.00  0.00     0.000 A 
ATOM      4  C4  BNZ d   1      -2.760  -3.043   0.710  0.00  0.00     0.000 A 
ATOM      5  C5  BNZ d   1      -1.787  -3.939   0.313  0.00  0.00     0.000 A 
ATOM      6  C6  BNZ d   1      -0.667  -3.490  -0.348  0.00  0.00     0.000 A 
ENDROOT
TORSDOF 0
ENDMDL
