MODEL 1
REMARK minimizedAffinity -3.86782146
REMARK minimizedRMSD -1
REMARK  1 active torsions:
REMARK  status: ('A' for Active; 'I' for Inactive)
REMARK    1  A    between atoms: C1_2  and  C2_3 
ROOT
ATOM      1  C2  UNL d   1      -1.785  -5.740  -4.924  0.00  0.00    -0.077 A 
ATOM      2  C3  UNL d   1      -3.113  -5.882  -5.349  0.00  0.00     0.002 A 
ATOM      3  C4  UNL d   1      -4.144  -5.999  -4.415  0.00  0.00     0.002 A 
ATOM      4  C5  UNL d   1      -3.859  -5.972  -3.052  0.00  0.00    -0.004 A 
ATOM      5  C6  UNL d   1      -2.541  -5.833  -2.619  0.00  0.00     0.002 A 
ATOM      6  C7  UNL d   1      -1.508  -5.717  -3.551  0.00  0.00     0.002 A 
ENDROOT
BRANCH   1   7
ATOM      7  C1  UNL d   1      -0.676  -5.564  -5.929  0.00  0.00     0.055 C 
ATOM      8  C   UNL d   1       0.690  -5.623  -5.262  0.00  0.00     0.019 C 
ENDBRANCH   1   7
TORSDOF 1
ENDMDL
