MODEL 1
REMARK minimizedAffinity 1.08040309
REMARK minimizedRMSD -1
REMARK  1 active torsions:
REMARK  status: ('A' for Active; 'I' for Inactive)
REMARK    1  A    between atoms: C1_2  and  C2_3 
ROOT
ATOM      1  C2  UNL d   1       1.099  -0.005   1.213  0.00  0.00    -0.077 A 
ATOM      2  C3  UNL d   1       1.094  -0.815   2.357  0.00  0.00     0.002 A 
ATOM      3  C4  UNL d   1       2.085  -1.782   2.543  0.00  0.00     0.002 A 
ATOM      4  C5  UNL d   1       3.089  -1.944   1.591  0.00  0.00    -0.004 A 
ATOM      5  C6  UNL d   1       3.102  -1.145   0.449  0.00  0.00     0.002 A 
ATOM      6  C7  UNL d   1       2.112  -0.179   0.261  0.00  0.00     0.002 A 
ENDROOT
BRANCH   1   7
ATOM      7  C1  UNL d   1       0.060   1.070   1.035  0.00  0.00     0.055 C 
ATOM      8  C   UNL d   1       0.659   2.320   0.407  0.00  0.00     0.019 C 
ENDBRANCH   1   7
TORSDOF 1
ENDMDL
