MODEL 1
REMARK minimizedAffinity -3.09447503
REMARK minimizedRMSD -1
REMARK  1 active torsions:
REMARK  status: ('A' for Active; 'I' for Inactive)
REMARK    1  A    between atoms: C1_2  and  C2_3 
ROOT
ATOM      1  C2  UNL d   1       2.508  -1.454   2.909  0.00  0.00    -0.077 A 
ATOM      2  C3  UNL d   1       2.966  -1.481   4.234  0.00  0.00     0.002 A 
ATOM      3  C4  UNL d   1       4.290  -1.152   4.530  0.00  0.00     0.002 A 
ATOM      4  C5  UNL d   1       5.165  -0.789   3.509  0.00  0.00    -0.004 A 
ATOM      5  C6  UNL d   1       4.720  -0.761   2.188  0.00  0.00     0.002 A 
ATOM      6  C7  UNL d   1       3.397  -1.091   1.889  0.00  0.00     0.002 A 
ENDROOT
BRANCH   1   7
ATOM      7  C1  UNL d   1       1.068  -1.761   2.593  0.00  0.00     0.055 C 
ATOM      8  C   UNL d   1       0.567  -0.924   1.424  0.00  0.00     0.019 C 
ENDBRANCH   1   7
TORSDOF 1
ENDMDL
