MODEL 1
REMARK minimizedAffinity -1.44915926
REMARK minimizedRMSD -1
REMARK  1 active torsions:
REMARK  status: ('A' for Active; 'I' for Inactive)
REMARK    1  A    between atoms: C1_2  and  C2_3 
ROOT
ATOM      1  C2  UNL d   1       2.008  -0.662   0.998  0.00  0.00    -0.077 A 
ATOM      2  C3  UNL d   1       1.374  -0.962   2.212  0.00  0.00     0.002 A 
ATOM      3  C4  UNL d   1       2.129  -1.238   3.354  0.00  0.00     0.002 A 
ATOM      4  C5  UNL d   1       3.521  -1.211   3.293  0.00  0.00    -0.004 A 
ATOM      5  C6  UNL d   1       4.161  -0.916   2.090  0.00  0.00     0.002 A 
ATOM      6  C7  UNL d   1       3.407  -0.642   0.948  0.00  0.00     0.002 A 
ENDROOT
BRANCH   1   7
ATOM      7  C1  UNL d   1       1.195  -0.317  -0.222  0.00  0.00     0.055 C 
ATOM      8  C   UNL d   1      -0.023   0.520   0.142  0.00  0.00     0.019 C 
ENDBRANCH   1   7
TORSDOF 1
ENDMDL
