MODEL 1
REMARK minimizedAffinity 2.71148872
REMARK minimizedRMSD -1
REMARK  1 active torsions:
REMARK  status: ('A' for Active; 'I' for Inactive)
REMARK    1  A    between atoms: C1_2  and  C2_3 
ROOT
ATOM      1  C2  UNL d   1       2.512  -0.849   1.289  0.00  0.00    -0.077 A 
ATOM      2  C3  UNL d   1       2.592  -0.171   0.065  0.00  0.00     0.002 A 
ATOM      3  C4  UNL d   1       1.460   0.437  -0.481  0.00  0.00     0.002 A 
ATOM      4  C5  UNL d   1       0.242   0.377   0.192  0.00  0.00    -0.004 A 
ATOM      5  C6  UNL d   1       0.152  -0.296   1.410  0.00  0.00     0.002 A 
ATOM      6  C7  UNL d   1       1.282  -0.906   1.956  0.00  0.00     0.002 A 
ENDROOT
BRANCH   1   7
ATOM      7  C1  UNL d   1       3.743  -1.463   1.904  0.00  0.00     0.055 C 
ATOM      8  C   UNL d   1       4.325  -0.569   2.990  0.00  0.00     0.019 C 
ENDBRANCH   1   7
TORSDOF 1
ENDMDL
