MODEL 1
REMARK minimizedAffinity 2.67831802
REMARK minimizedRMSD -1
REMARK  1 active torsions:
REMARK  status: ('A' for Active; 'I' for Inactive)
REMARK    1  A    between atoms: C1_2  and  C2_3 
ROOT
ATOM      1  C2  UNL d   1       0.902  -5.808  -4.697  0.00  0.00    -0.077 A 
ATOM      2  C3  UNL d   1       0.256  -5.997  -5.927  0.00  0.00     0.002 A 
ATOM      3  C4  UNL d   1      -1.138  -5.999  -6.000  0.00  0.00     0.002 A 
ATOM      4  C5  UNL d   1      -1.898  -5.809  -4.847  0.00  0.00    -0.004 A 
ATOM      5  C6  UNL d   1      -1.265  -5.623  -3.619  0.00  0.00     0.002 A 
ATOM      6  C7  UNL d   1       0.129  -5.621  -3.545  0.00  0.00     0.002 A 
ENDROOT
BRANCH   1   7
ATOM      7  C1  UNL d   1       2.406  -5.756  -4.625  0.00  0.00     0.055 C 
ATOM      8  C   UNL d   1       2.947  -4.489  -5.270  0.00  0.00     0.019 C 
ENDBRANCH   1   7
TORSDOF 1
ENDMDL
