MODEL 1
REMARK minimizedAffinity -0.311157227
REMARK minimizedRMSD -1
REMARK  1 active torsions:
REMARK  status: ('A' for Active; 'I' for Inactive)
REMARK    1  A    between atoms: C1_2  and  C2_3 
ROOT
ATOM      1  C2  UNL d   1      -0.012  -5.774  -4.938  0.00  0.00    -0.077 A 
ATOM      2  C3  UNL d   1       0.504  -5.402  -3.689  0.00  0.00     0.002 A 
ATOM      3  C4  UNL d   1       1.881  -5.259  -3.507  0.00  0.00     0.002 A 
ATOM      4  C5  UNL d   1       2.753  -5.483  -4.571  0.00  0.00    -0.004 A 
ATOM      5  C6  UNL d   1       2.250  -5.856  -5.817  0.00  0.00     0.002 A 
ATOM      6  C7  UNL d   1       0.874  -6.000  -6.000  0.00  0.00     0.002 A 
ENDROOT
BRANCH   1   7
ATOM      7  C1  UNL d   1      -1.500  -5.881  -5.149  0.00  0.00     0.055 C 
ATOM      8  C   UNL d   1      -2.261  -5.646  -3.852  0.00  0.00     0.019 C 
ENDBRANCH   1   7
TORSDOF 1
ENDMDL
