MODEL 1
REMARK minimizedAffinity 8.39204979
REMARK minimizedRMSD -1
REMARK  1 active torsions:
REMARK  status: ('A' for Active; 'I' for Inactive)
REMARK    1  A    between atoms: C1_2  and  C2_3 
ROOT
ATOM      1  C2  UNL d   1       2.976   3.014  -0.186  0.00  0.00    -0.077 A 
ATOM      2  C3  UNL d   1       1.793   3.767  -0.206  0.00  0.00     0.002 A 
ATOM      3  C4  UNL d   1       0.554   3.133  -0.320  0.00  0.00     0.002 A 
ATOM      4  C5  UNL d   1       0.486   1.744  -0.410  0.00  0.00    -0.004 A 
ATOM      5  C6  UNL d   1       1.657   0.987  -0.393  0.00  0.00     0.002 A 
ATOM      6  C7  UNL d   1       2.896   1.619  -0.281  0.00  0.00     0.002 A 
ENDROOT
BRANCH   1   7
ATOM      7  C1  UNL d   1       4.309   3.693  -0.014  0.00  0.00     0.055 C 
ATOM      8  C   UNL d   1       4.892   4.118  -1.354  0.00  0.00     0.019 C 
ENDBRANCH   1   7
TORSDOF 1
ENDMDL
