MODEL 1
REMARK minimizedAffinity 4.32715464
REMARK minimizedRMSD -1
REMARK  1 active torsions:
REMARK  status: ('A' for Active; 'I' for Inactive)
REMARK    1  A    between atoms: C1_2  and  C2_3 
ROOT
ATOM      1  C2  UNL d   1      -2.865  -1.295  -0.034  0.00  0.00    -0.077 A 
ATOM      2  C3  UNL d   1      -1.678  -0.553   0.042  0.00  0.00     0.002 A 
ATOM      3  C4  UNL d   1      -0.441  -1.201   0.066  0.00  0.00     0.002 A 
ATOM      4  C5  UNL d   1      -0.380  -2.592   0.011  0.00  0.00    -0.004 A 
ATOM      5  C6  UNL d   1      -1.555  -3.338  -0.063  0.00  0.00     0.002 A 
ATOM      6  C7  UNL d   1      -2.792  -2.693  -0.086  0.00  0.00     0.002 A 
ENDROOT
BRANCH   1   7
ATOM      7  C1  UNL d   1      -4.198  -0.597  -0.110  0.00  0.00     0.055 C 
ATOM      8  C   UNL d   1      -4.439  -0.012  -1.494  0.00  0.00     0.019 C 
ENDBRANCH   1   7
TORSDOF 1
ENDMDL
