MODEL 1
REMARK minimizedAffinity 2.21977258
REMARK minimizedRMSD -1
REMARK  1 active torsions:
REMARK  status: ('A' for Active; 'I' for Inactive)
REMARK    1  A    between atoms: C1_2  and  C2_3 
ROOT
ATOM      1  C2  UNL d   1       0.756  -5.070  -4.995  0.00  0.00    -0.077 A 
ATOM      2  C3  UNL d   1       0.116  -5.813  -5.997  0.00  0.00     0.002 A 
ATOM      3  C4  UNL d   1      -1.274  -5.945  -6.000  0.00  0.00     0.002 A 
ATOM      4  C5  UNL d   1      -2.035  -5.335  -5.005  0.00  0.00    -0.004 A 
ATOM      5  C6  UNL d   1      -1.408  -4.596  -4.003  0.00  0.00     0.002 A 
ATOM      6  C7  UNL d   1      -0.019  -4.463  -3.998  0.00  0.00     0.002 A 
ENDROOT
BRANCH   1   7
ATOM      7  C1  UNL d   1       2.251  -4.885  -5.018  0.00  0.00     0.055 C 
ATOM      8  C   UNL d   1       2.928  -5.956  -5.862  0.00  0.00     0.019 C 
ENDBRANCH   1   7
TORSDOF 1
ENDMDL
