MODEL 1
REMARK minimizedAffinity 1.16167712
REMARK minimizedRMSD -1
REMARK  1 active torsions:
REMARK  status: ('A' for Active; 'I' for Inactive)
REMARK    1  A    between atoms: C1_2  and  C2_3 
ROOT
ATOM      1  C2  UNL d   1      -1.639   2.779  -3.858  0.00  0.00    -0.077 A 
ATOM      2  C3  UNL d   1      -3.008   2.959  -4.104  0.00  0.00     0.002 A 
ATOM      3  C4  UNL d   1      -3.933   2.000  -3.687  0.00  0.00     0.002 A 
ATOM      4  C5  UNL d   1      -3.501   0.857  -3.018  0.00  0.00    -0.004 A 
ATOM      5  C6  UNL d   1      -2.142   0.667  -2.771  0.00  0.00     0.002 A 
ATOM      6  C7  UNL d   1      -1.215   1.624  -3.188  0.00  0.00     0.002 A 
ENDROOT
BRANCH   1   7
ATOM      7  C1  UNL d   1      -0.645   3.835  -4.263  0.00  0.00     0.055 C 
ATOM      8  C   UNL d   1      -1.224   5.233  -4.098  0.00  0.00     0.019 C 
ENDBRANCH   1   7
TORSDOF 1
ENDMDL
