MODEL 1
REMARK minimizedAffinity 5.03248501
REMARK minimizedRMSD -1
REMARK  1 active torsions:
REMARK  status: ('A' for Active; 'I' for Inactive)
REMARK    1  A    between atoms: C1_2  and  C2_3 
ROOT
ATOM      1  C2  UNL d   1       3.295  -0.945   1.481  0.00  0.00    -0.077 A 
ATOM      2  C3  UNL d   1       2.942  -1.387   2.764  0.00  0.00     0.002 A 
ATOM      3  C4  UNL d   1       3.851  -1.292   3.819  0.00  0.00     0.002 A 
ATOM      4  C5  UNL d   1       5.117  -0.752   3.604  0.00  0.00    -0.004 A 
ATOM      5  C6  UNL d   1       5.479  -0.312   2.331  0.00  0.00     0.002 A 
ATOM      6  C7  UNL d   1       4.572  -0.407   1.275  0.00  0.00     0.002 A 
ENDROOT
BRANCH   1   7
ATOM      7  C1  UNL d   1       2.299  -1.001   0.353  0.00  0.00     0.055 C 
ATOM      8  C   UNL d   1       2.386   0.239  -0.525  0.00  0.00     0.019 C 
ENDBRANCH   1   7
TORSDOF 1
ENDMDL
