MODEL 1
REMARK minimizedAffinity -1.33979726
REMARK minimizedRMSD -1
REMARK  1 active torsions:
REMARK  status: ('A' for Active; 'I' for Inactive)
REMARK    1  A    between atoms: C1_2  and  C2_3 
ROOT
ATOM      1  C2  UNL d   1       1.806  -1.281   2.779  0.00  0.00    -0.077 A 
ATOM      2  C3  UNL d   1       3.188  -1.331   2.551  0.00  0.00     0.002 A 
ATOM      3  C4  UNL d   1       3.707  -1.027   1.290  0.00  0.00     0.002 A 
ATOM      4  C5  UNL d   1       2.852  -0.666   0.251  0.00  0.00    -0.004 A 
ATOM      5  C6  UNL d   1       1.475  -0.616   0.468  0.00  0.00     0.002 A 
ATOM      6  C7  UNL d   1       0.955  -0.920   1.727  0.00  0.00     0.002 A 
ENDROOT
BRANCH   1   7
ATOM      7  C1  UNL d   1       1.249  -1.560   4.151  0.00  0.00     0.055 C 
ATOM      8  C   UNL d   1       2.105  -2.569   4.901  0.00  0.00     0.019 C 
ENDBRANCH   1   7
TORSDOF 1
ENDMDL
