MODEL 1
REMARK minimizedAffinity -3.70599103
REMARK minimizedRMSD -1
REMARK  1 active torsions:
REMARK  status: ('A' for Active; 'I' for Inactive)
REMARK    1  A    between atoms: C1_2  and  C2_3 
ROOT
ATOM      1  C2  UNL d   1      -3.106  -5.983  -0.229  0.00  0.00    -0.077 A 
ATOM      2  C3  UNL d   1      -1.945  -5.988  -1.015  0.00  0.00     0.002 A 
ATOM      3  C4  UNL d   1      -2.035  -5.998  -2.409  0.00  0.00     0.002 A 
ATOM      4  C5  UNL d   1      -3.284  -5.999  -3.027  0.00  0.00    -0.004 A 
ATOM      5  C6  UNL d   1      -4.444  -5.996  -2.254  0.00  0.00     0.002 A 
ATOM      6  C7  UNL d   1      -4.356  -5.987  -0.862  0.00  0.00     0.002 A 
ENDROOT
BRANCH   1   7
ATOM      7  C1  UNL d   1      -3.010  -5.922   1.273  0.00  0.00     0.055 C 
ATOM      8  C   UNL d   1      -2.970  -4.483   1.767  0.00  0.00     0.019 C 
ENDBRANCH   1   7
TORSDOF 1
ENDMDL
