MODEL 1
REMARK minimizedAffinity -3.40097189
REMARK minimizedRMSD -1
REMARK  0 active torsions:
REMARK  status: ('A' for Active; 'I' for Inactive)
ROOT
ATOM      1  C   UNL d   1       2.663  -0.044   0.791  0.00  0.00     0.172 C 
ATOM      2  N   UNL d   1       1.282   0.004   0.372  0.00  0.00    -0.070 N 
ATOM      3  C1  UNL d   1       0.601   1.132  -0.003  0.00  0.00    -0.004 A 
ATOM      4  C2  UNL d   1      -0.685   0.759  -0.330  0.00  0.00    -0.047 A 
ATOM      5  C3  UNL d   1      -0.780  -0.641  -0.144  0.00  0.00    -0.047 A 
ATOM      6  C4  UNL d   1       0.452  -1.082   0.291  0.00  0.00    -0.004 A 
ENDROOT
TORSDOF 0
ENDMDL
