MODEL 1
REMARK minimizedAffinity -3.94345713
REMARK minimizedRMSD -1
REMARK  0 active torsions:
REMARK  status: ('A' for Active; 'I' for Inactive)
ROOT
ATOM      1  C   UNL d   1      -0.864  -0.242   0.365  0.00  0.00     0.172 C 
ATOM      2  N   UNL d   1       0.537  -0.079   0.672  0.00  0.00    -0.070 N 
ATOM      3  C1  UNL d   1       1.438  -1.093   0.856  0.00  0.00    -0.004 A 
ATOM      4  C2  UNL d   1       2.664  -0.526   1.129  0.00  0.00    -0.047 A 
ATOM      5  C3  UNL d   1       2.494   0.879   1.110  0.00  0.00    -0.047 A 
ATOM      6  C4  UNL d   1       1.168   1.128   0.825  0.00  0.00    -0.004 A 
ENDROOT
TORSDOF 0
ENDMDL
