MODEL 1
REMARK minimizedAffinity -4.3197732
REMARK minimizedRMSD -1
REMARK  0 active torsions:
REMARK  status: ('A' for Active; 'I' for Inactive)
ROOT
ATOM      1  C   UNL d   1      -0.496  -0.674   0.397  0.00  0.00     0.172 C 
ATOM      2  N   UNL d   1       0.876  -0.922   0.774  0.00  0.00    -0.070 N 
ATOM      3  C1  UNL d   1       1.311  -1.947   1.571  0.00  0.00    -0.004 A 
ATOM      4  C2  UNL d   1       2.680  -1.837   1.690  0.00  0.00    -0.047 A 
ATOM      5  C3  UNL d   1       3.080  -0.706   0.939  0.00  0.00    -0.047 A 
ATOM      6  C4  UNL d   1       1.944  -0.158   0.383  0.00  0.00    -0.004 A 
ENDROOT
TORSDOF 0
ENDMDL
