MODEL 1
REMARK minimizedAffinity -3.10771585
REMARK minimizedRMSD -1
REMARK  0 active torsions:
REMARK  status: ('A' for Active; 'I' for Inactive)
ROOT
ATOM      1  C   UNL d   1      -1.503  -1.128   0.746  0.00  0.00     0.172 C 
ATOM      2  N   UNL d   1      -0.105  -0.795   0.610  0.00  0.00    -0.070 N 
ATOM      3  C1  UNL d   1       0.434   0.457   0.735  0.00  0.00    -0.004 A 
ATOM      4  C2  UNL d   1       1.794   0.354   0.536  0.00  0.00    -0.047 A 
ATOM      5  C3  UNL d   1       2.082  -1.008   0.282  0.00  0.00    -0.047 A 
ATOM      6  C4  UNL d   1       0.889  -1.697   0.334  0.00  0.00    -0.004 A 
ENDROOT
TORSDOF 0
ENDMDL
