MODEL 1
REMARK minimizedAffinity -3.15216327
REMARK minimizedRMSD -1
REMARK  0 active torsions:
REMARK  status: ('A' for Active; 'I' for Inactive)
ROOT
ATOM      1  C   UNL d   1       0.025   0.230   0.075  0.00  0.00     0.172 C 
ATOM      2  N   UNL d   1       0.840  -0.532   0.992  0.00  0.00    -0.070 N 
ATOM      3  C1  UNL d   1       2.096  -0.191   1.416  0.00  0.00    -0.004 A 
ATOM      4  C2  UNL d   1       2.530  -1.173   2.281  0.00  0.00    -0.047 A 
ATOM      5  C3  UNL d   1       1.499  -2.137   2.379  0.00  0.00    -0.047 A 
ATOM      6  C4  UNL d   1       0.464  -1.715   1.571  0.00  0.00    -0.004 A 
ENDROOT
TORSDOF 0
ENDMDL
