MODEL 1
REMARK minimizedAffinity -4.30015326
REMARK minimizedRMSD -1
REMARK  0 active torsions:
REMARK  status: ('A' for Active; 'I' for Inactive)
ROOT
ATOM      1  C4' PXY d   1      -0.802   1.441  -2.066  0.00  0.00     0.077 C 
ATOM      2  C1' PXY d   1       0.450  -1.568   2.708  0.00  0.00     0.077 C 
ATOM      3  C1  PXY d   1       0.134  -0.775   1.456  0.00  0.00    -0.082 A 
ATOM      4  C2  PXY d   1      -1.111  -0.397   1.218  0.00  0.00     0.003 A 
ATOM      5  C3  PXY d   1      -1.420   0.293   0.074  0.00  0.00     0.003 A 
ATOM      6  C4  PXY d   1      -0.435   0.647  -0.809  0.00  0.00    -0.082 A 
ATOM      7  C5  PXY d   1       0.840   0.274  -0.568  0.00  0.00     0.003 A 
ATOM      8  C6  PXY d   1       1.126  -0.462   0.578  0.00  0.00     0.003 A 
ENDROOT
TORSDOF 0
ENDMDL
