MODEL 1
REMARK minimizedAffinity -3.74126911
REMARK minimizedRMSD -1
REMARK  0 active torsions:
REMARK  status: ('A' for Active; 'I' for Inactive)
ROOT
ATOM      1  C4' PXY d   1       0.886  -1.368   2.545  0.00  0.00     0.077 C 
ATOM      2  C1' PXY d   1      -0.930   1.086  -2.364  0.00  0.00     0.077 C 
ATOM      3  C1  PXY d   1      -0.446   0.434  -1.083  0.00  0.00    -0.082 A 
ATOM      4  C2  PXY d   1      -1.201   0.485   0.002  0.00  0.00     0.003 A 
ATOM      5  C3  PXY d   1      -0.765  -0.072   1.177  0.00  0.00     0.003 A 
ATOM      6  C4  PXY d   1       0.433  -0.733   1.228  0.00  0.00    -0.082 A 
ATOM      7  C5  PXY d   1       1.204  -0.798   0.122  0.00  0.00     0.003 A 
ATOM      8  C6  PXY d   1       0.762  -0.191  -1.050  0.00  0.00     0.003 A 
ENDROOT
TORSDOF 0
ENDMDL
