MODEL 1
REMARK minimizedAffinity 0.220162019
REMARK minimizedRMSD -1
REMARK  0 active torsions:
REMARK  status: ('A' for Active; 'I' for Inactive)
ROOT
ATOM      1  C4' PXY d   1      -1.723   2.553  -2.322  0.00  0.00     0.077 C 
ATOM      2  C1' PXY d   1       1.119  -1.059   1.184  0.00  0.00     0.077 C 
ATOM      3  C1  PXY d   1       0.368  -0.122   0.258  0.00  0.00    -0.082 A 
ATOM      4  C2  PXY d   1       0.839   1.095   0.037  0.00  0.00     0.003 A 
ATOM      5  C3  PXY d   1       0.156   1.966  -0.772  0.00  0.00     0.003 A 
ATOM      6  C4  PXY d   1      -0.993   1.570  -1.403  0.00  0.00    -0.082 A 
ATOM      7  C5  PXY d   1      -1.474   0.326  -1.191  0.00  0.00     0.003 A 
ATOM      8  C6  PXY d   1      -0.787  -0.529  -0.334  0.00  0.00     0.003 A 
ENDROOT
TORSDOF 0
ENDMDL
