MODEL 1
REMARK minimizedAffinity -5.3480196
REMARK minimizedRMSD -1
REMARK  0 active torsions:
REMARK  status: ('A' for Active; 'I' for Inactive)
ROOT
ATOM      1  C4' PXY d   1       3.477  -1.944   0.643  0.00  0.00     0.077 C 
ATOM      2  C1' PXY d   1      -1.903   0.033   1.396  0.00  0.00     0.077 C 
ATOM      3  C1  PXY d   1      -0.489  -0.483   1.211  0.00  0.00    -0.082 A 
ATOM      4  C2  PXY d   1       0.055  -0.482   0.005  0.00  0.00     0.003 A 
ATOM      5  C3  PXY d   1       1.321  -0.974  -0.185  0.00  0.00     0.003 A 
ATOM      6  C4  PXY d   1       2.056  -1.423   0.878  0.00  0.00    -0.082 A 
ATOM      7  C5  PXY d   1       1.512  -1.418   2.114  0.00  0.00     0.003 A 
ATOM      8  C6  PXY d   1       0.211  -0.952   2.279  0.00  0.00     0.003 A 
ENDROOT
TORSDOF 0
ENDMDL
