MODEL 1
REMARK minimizedAffinity -4.43421364
REMARK minimizedRMSD -1
REMARK  0 active torsions:
REMARK  status: ('A' for Active; 'I' for Inactive)
ROOT
ATOM      1  C4' PXY d   1      -0.006   0.394  -1.856  0.00  0.00     0.077 C 
ATOM      2  C1' PXY d   1       1.555  -1.468   3.389  0.00  0.00     0.077 C 
ATOM      3  C1  PXY d   1       1.158  -0.980   2.010  0.00  0.00    -0.082 A 
ATOM      4  C2  PXY d   1       0.030  -0.306   1.854  0.00  0.00     0.003 A 
ATOM      5  C3  PXY d   1      -0.360   0.115   0.609  0.00  0.00     0.003 A 
ATOM      6  C4  PXY d   1       0.439  -0.110  -0.480  0.00  0.00    -0.082 A 
ATOM      7  C5  PXY d   1       1.597  -0.787  -0.328  0.00  0.00     0.003 A 
ATOM      8  C6  PXY d   1       1.955  -1.241   0.938  0.00  0.00     0.003 A 
ENDROOT
TORSDOF 0
ENDMDL
