MODEL 1
REMARK minimizedAffinity -0.773656011
REMARK minimizedRMSD -1
REMARK  0 active torsions:
REMARK  status: ('A' for Active; 'I' for Inactive)
ROOT
ATOM      1  C4' PXY d   1      -0.426   2.193  -2.400  0.00  0.00     0.077 C 
ATOM      2  C1' PXY d   1      -0.356  -1.222   2.263  0.00  0.00     0.077 C 
ATOM      3  C1  PXY d   1      -0.364  -0.332   1.036  0.00  0.00    -0.082 A 
ATOM      4  C2  PXY d   1      -0.969   0.843   1.084  0.00  0.00     0.003 A 
ATOM      5  C3  PXY d   1      -1.013   1.647  -0.027  0.00  0.00     0.003 A 
ATOM      6  C4  PXY d   1      -0.385   1.266  -1.182  0.00  0.00    -0.082 A 
ATOM      7  C5  PXY d   1       0.244   0.073  -1.236  0.00  0.00     0.003 A 
ATOM      8  C6  PXY d   1       0.242  -0.745  -0.110  0.00  0.00     0.003 A 
ENDROOT
TORSDOF 0
ENDMDL
