MODEL 1
REMARK minimizedAffinity -6.06318521
REMARK minimizedRMSD -1
REMARK  0 active torsions:
REMARK  status: ('A' for Active; 'I' for Inactive)
ROOT
ATOM      1  C4' PXY d   1       3.529  -1.992   0.664  0.00  0.00     0.077 C 
ATOM      2  C1' PXY d   1      -1.768   0.070   1.710  0.00  0.00     0.077 C 
ATOM      3  C1  PXY d   1      -0.375  -0.468   1.448  0.00  0.00    -0.082 A 
ATOM      4  C2  PXY d   1       0.093  -0.496   0.211  0.00  0.00     0.003 A 
ATOM      5  C3  PXY d   1       1.338  -1.009  -0.048  0.00  0.00     0.003 A 
ATOM      6  C4  PXY d   1       2.133  -1.449   0.977  0.00  0.00    -0.082 A 
ATOM      7  C5  PXY d   1       1.666  -1.413   2.243  0.00  0.00     0.003 A 
ATOM      8  C6  PXY d   1       0.384  -0.927   2.480  0.00  0.00     0.003 A 
ENDROOT
TORSDOF 0
ENDMDL
