MODEL 1
REMARK minimizedAffinity -4.80738878
REMARK minimizedRMSD -1
REMARK  0 active torsions:
REMARK  status: ('A' for Active; 'I' for Inactive)
ROOT
ATOM      1  C4' PXY d   1      -0.039  -1.048   2.395  0.00  0.00     0.077 C 
ATOM      2  C1' PXY d   1      -1.672   1.443  -2.559  0.00  0.00     0.077 C 
ATOM      3  C1  PXY d   1      -1.254   0.794  -1.254  0.00  0.00    -0.082 A 
ATOM      4  C2  PXY d   1       0.023   0.524  -1.037  0.00  0.00     0.003 A 
ATOM      5  C3  PXY d   1       0.414  -0.092   0.124  0.00  0.00     0.003 A 
ATOM      6  C4  PXY d   1      -0.505  -0.385   1.096  0.00  0.00    -0.082 A 
ATOM      7  C5  PXY d   1      -1.809  -0.103   0.887  0.00  0.00     0.003 A 
ATOM      8  C6  PXY d   1      -2.190   0.485  -0.316  0.00  0.00     0.003 A 
ENDROOT
TORSDOF 0
ENDMDL
