MODEL 1
REMARK minimizedAffinity -4.59560585
REMARK minimizedRMSD -1
REMARK  0 active torsions:
REMARK  status: ('A' for Active; 'I' for Inactive)
ROOT
ATOM      1  C4' PXY d   1       0.278   2.433  -2.067  0.00  0.00     0.077 C 
ATOM      2  C1' PXY d   1       0.355  -1.551   2.121  0.00  0.00     0.077 C 
ATOM      3  C1  PXY d   1       0.337  -0.516   1.014  0.00  0.00    -0.082 A 
ATOM      4  C2  PXY d   1       0.616   0.747   1.295  0.00  0.00     0.003 A 
ATOM      5  C3  PXY d   1       0.573   1.702   0.312  0.00  0.00     0.003 A 
ATOM      6  C4  PXY d   1       0.293   1.352  -0.982  0.00  0.00    -0.082 A 
ATOM      7  C5  PXY d   1       0.017   0.064  -1.278  0.00  0.00     0.003 A 
ATOM      8  C6  PXY d   1       0.026  -0.883  -0.259  0.00  0.00     0.003 A 
ENDROOT
TORSDOF 0
ENDMDL
