MODEL 1
REMARK minimizedAffinity -2.49375582
REMARK minimizedRMSD -1
REMARK  0 active torsions:
REMARK  status: ('A' for Active; 'I' for Inactive)
ROOT
ATOM      1  C4' PXY d   1       2.719  -2.262  -0.092  0.00  0.00     0.077 C 
ATOM      2  C1' PXY d   1      -2.000   0.272   2.080  0.00  0.00     0.077 C 
ATOM      3  C1  PXY d   1      -0.768  -0.392   1.498  0.00  0.00    -0.082 A 
ATOM      4  C2  PXY d   1       0.003  -1.136   2.275  0.00  0.00     0.003 A 
ATOM      5  C3  PXY d   1       1.139  -1.717   1.774  0.00  0.00     0.003 A 
ATOM      6  C4  PXY d   1       1.460  -1.580   0.450  0.00  0.00    -0.082 A 
ATOM      7  C5  PXY d   1       0.673  -0.832  -0.352  0.00  0.00     0.003 A 
ATOM      8  C6  PXY d   1      -0.453  -0.216   0.186  0.00  0.00     0.003 A 
ENDROOT
TORSDOF 0
ENDMDL
