MODEL 1
REMARK minimizedAffinity -2.93509316
REMARK minimizedRMSD -1
REMARK  0 active torsions:
REMARK  status: ('A' for Active; 'I' for Inactive)
ROOT
ATOM      1  C4' PXY d   1      -0.863   3.294  -3.013  0.00  0.00     0.077 C 
ATOM      2  C1' PXY d   1      -1.184  -0.626   1.223  0.00  0.00     0.077 C 
ATOM      3  C1  PXY d   1      -1.113   0.404   0.113  0.00  0.00    -0.082 A 
ATOM      4  C2  PXY d   1      -0.112   0.365  -0.752  0.00  0.00     0.003 A 
ATOM      5  C3  PXY d   1      -0.015   1.308  -1.743  0.00  0.00     0.003 A 
ATOM      6  C4  PXY d   1      -0.980   2.269  -1.882  0.00  0.00    -0.082 A 
ATOM      7  C5  PXY d   1      -2.010   2.309  -1.010  0.00  0.00     0.003 A 
ATOM      8  C6  PXY d   1      -2.068   1.368   0.014  0.00  0.00     0.003 A 
ENDROOT
TORSDOF 0
ENDMDL
