MODEL 1
REMARK minimizedAffinity -4.93485117
REMARK minimizedRMSD -1
REMARK  1 active torsions:
REMARK  status: ('A' for Active; 'I' for Inactive)
REMARK    1  A    between atoms: N_2  and  C1_3 
ROOT
ATOM      1  C1  UNL d   1      -0.095   0.176   0.187  0.00  0.00     0.143 A 
ATOM      2  C2  UNL d   1       0.907   0.837   0.907  0.00  0.00    -0.057 A 
ATOM      3  C3  UNL d   1       2.090   0.184   1.271  0.00  0.00     0.033 A 
ATOM      4  C4  UNL d   1       2.282  -1.155   0.946  0.00  0.00    -0.042 A 
ATOM      5  C5  UNL d   1       1.289  -1.839   0.253  0.00  0.00     0.033 A 
ATOM      6  C6  UNL d   1       0.112  -1.179  -0.114  0.00  0.00    -0.057 A 
ENDROOT
BRANCH   1   7
ATOM      7  N   UNL d   1      -1.335   0.741  -0.119  0.00  0.00    -0.732 N 
ATOM      8  C   UNL d   1      -2.417   0.709   0.842  0.00  0.00     0.284 C 
ATOM      9  H3  UNL d   1      -1.247   1.625  -0.616  0.00  0.00     0.395 HD
ENDBRANCH   1   7
TORSDOF 1
ENDMDL
