MODEL 1
REMARK minimizedAffinity -4.69760275
REMARK minimizedRMSD -1
REMARK  1 active torsions:
REMARK  status: ('A' for Active; 'I' for Inactive)
REMARK    1  A    between atoms: N_2  and  C1_3 
ROOT
ATOM      1  C1  UNL d   1       0.335   0.302  -0.149  0.00  0.00     0.143 A 
ATOM      2  C2  UNL d   1       1.650   0.658   0.170  0.00  0.00    -0.057 A 
ATOM      3  C3  UNL d   1       2.671  -0.299   0.214  0.00  0.00     0.033 A 
ATOM      4  C4  UNL d   1       2.388  -1.639  -0.033  0.00  0.00    -0.042 A 
ATOM      5  C5  UNL d   1       1.083  -2.019  -0.327  0.00  0.00     0.033 A 
ATOM      6  C6  UNL d   1       0.069  -1.057  -0.376  0.00  0.00    -0.057 A 
ENDROOT
BRANCH   1   7
ATOM      7  N   UNL d   1      -0.742   1.191  -0.112  0.00  0.00    -0.732 N 
ATOM      8  C   UNL d   1      -2.043   0.755   0.348  0.00  0.00     0.284 C 
ATOM      9  H3  UNL d   1      -0.472   2.115   0.219  0.00  0.00     0.395 HD
ENDBRANCH   1   7
TORSDOF 1
ENDMDL
