MODEL 1
REMARK minimizedAffinity 0.1163636
REMARK minimizedRMSD -1
REMARK  1 active torsions:
REMARK  status: ('A' for Active; 'I' for Inactive)
REMARK    1  A    between atoms: N_2  and  C1_3 
ROOT
ATOM      1  C1  UNL d   1      -1.266   1.048  -0.163  0.00  0.00     0.143 A 
ATOM      2  C2  UNL d   1      -0.281   2.034  -0.033  0.00  0.00    -0.057 A 
ATOM      3  C3  UNL d   1       1.078   1.701   0.017  0.00  0.00     0.033 A 
ATOM      4  C4  UNL d   1       1.476   0.369  -0.033  0.00  0.00    -0.042 A 
ATOM      5  C5  UNL d   1       0.513  -0.629  -0.137  0.00  0.00     0.033 A 
ATOM      6  C6  UNL d   1      -0.842  -0.290  -0.194  0.00  0.00    -0.057 A 
ENDROOT
BRANCH   1   7
ATOM      7  N   UNL d   1      -2.637   1.309  -0.120  0.00  0.00    -0.732 N 
ATOM      8  C   UNL d   1      -3.358   1.256   1.134  0.00  0.00     0.284 C 
ATOM      9  H3  UNL d   1      -2.905   2.085  -0.721  0.00  0.00     0.395 HD
ENDBRANCH   1   7
TORSDOF 1
ENDMDL
