MODEL 1
REMARK minimizedAffinity 1.33027768
REMARK minimizedRMSD -1
REMARK  1 active torsions:
REMARK  status: ('A' for Active; 'I' for Inactive)
REMARK    1  A    between atoms: C1_2  and  C2_3 
ROOT
ATOM      1  C2  UNL d   1      -3.263   2.042   0.024  0.00  0.00    -0.073 A 
ATOM      2  C3  UNL d   1      -2.476   0.928   0.338  0.00  0.00    -0.002 A 
ATOM      3  C4  UNL d   1      -2.103   0.025  -0.659  0.00  0.00     0.004 A 
ATOM      4  C5  UNL d   1      -2.507   0.230  -1.978  0.00  0.00    -0.004 A 
ATOM      5  C6  UNL d   1      -3.284   1.343  -2.313  0.00  0.00    -0.075 A 
ATOM      6  C7  UNL d   1      -3.728   1.576  -3.728  0.00  0.00     0.076 C 
ATOM      7  C8  UNL d   1      -3.657   2.244  -1.307  0.00  0.00     0.001 A 
ENDROOT
BRANCH   1   8
ATOM      8  C1  UNL d   1      -3.663   3.023   1.096  0.00  0.00     0.053 C 
ATOM      9  C   UNL d   1      -5.152   3.329   1.061  0.00  0.00     0.018 C 
ENDBRANCH   1   8
TORSDOF 1
ENDMDL
