MODEL 1
REMARK minimizedAffinity 8.8013401
REMARK minimizedRMSD -1
REMARK  1 active torsions:
REMARK  status: ('A' for Active; 'I' for Inactive)
REMARK    1  A    between atoms: C1_2  and  C2_3 
ROOT
ATOM      1  C2  UNL d   1       1.282  -4.851   4.984  0.00  0.00    -0.073 A 
ATOM      2  C3  UNL d   1       2.222  -5.228   4.019  0.00  0.00    -0.002 A 
ATOM      3  C4  UNL d   1       2.716  -4.290   3.112  0.00  0.00     0.004 A 
ATOM      4  C5  UNL d   1       2.282  -2.966   3.164  0.00  0.00    -0.004 A 
ATOM      5  C6  UNL d   1       1.351  -2.566   4.129  0.00  0.00    -0.075 A 
ATOM      6  C7  UNL d   1       0.872  -1.146   4.198  0.00  0.00     0.076 C 
ATOM      7  C8  UNL d   1       0.858  -3.515   5.035  0.00  0.00     0.001 A 
ENDROOT
BRANCH   1   8
ATOM      8  C1  UNL d   1       0.750  -5.858   5.970  0.00  0.00     0.053 C 
ATOM      9  C   UNL d   1      -0.770  -5.880   6.000  0.00  0.00     0.018 C 
ENDBRANCH   1   8
TORSDOF 1
ENDMDL
