MODEL 1
REMARK minimizedAffinity 10.0805521
REMARK minimizedRMSD -1
REMARK  1 active torsions:
REMARK  status: ('A' for Active; 'I' for Inactive)
REMARK    1  A    between atoms: C1_2  and  C2_3 
ROOT
ATOM      1  C2  UNL d   1      -2.160   1.169  -1.306  0.00  0.00    -0.073 A 
ATOM      2  C3  UNL d   1      -1.744  -0.077  -1.790  0.00  0.00    -0.002 A 
ATOM      3  C4  UNL d   1      -2.283  -0.590  -2.970  0.00  0.00     0.004 A 
ATOM      4  C5  UNL d   1      -3.237   0.137  -3.681  0.00  0.00    -0.004 A 
ATOM      5  C6  UNL d   1      -3.657   1.389  -3.220  0.00  0.00    -0.075 A 
ATOM      6  C7  UNL d   1      -4.684   2.184  -3.972  0.00  0.00     0.076 C 
ATOM      7  C8  UNL d   1      -3.113   1.897  -2.032  0.00  0.00     0.001 A 
ENDROOT
BRANCH   1   8
ATOM      8  C1  UNL d   1      -1.575   1.731  -0.036  0.00  0.00     0.053 C 
ATOM      9  C   UNL d   1      -2.627   2.422   0.818  0.00  0.00     0.018 C 
ENDBRANCH   1   8
TORSDOF 1
ENDMDL
