MODEL 1
REMARK minimizedAffinity 7.44524431
REMARK minimizedRMSD -1
REMARK  1 active torsions:
REMARK  status: ('A' for Active; 'I' for Inactive)
REMARK    1  A    between atoms: C1_2  and  C2_3 
ROOT
ATOM      1  C2  UNL d   1       1.873  -2.523   3.745  0.00  0.00    -0.073 A 
ATOM      2  C3  UNL d   1       1.866  -3.120   2.479  0.00  0.00    -0.002 A 
ATOM      3  C4  UNL d   1       1.934  -4.509   2.354  0.00  0.00     0.004 A 
ATOM      4  C5  UNL d   1       2.003  -5.313   3.492  0.00  0.00    -0.004 A 
ATOM      5  C6  UNL d   1       1.999  -4.736   4.765  0.00  0.00    -0.075 A 
ATOM      6  C7  UNL d   1       2.075  -5.587   5.999  0.00  0.00     0.076 C 
ATOM      7  C8  UNL d   1       1.933  -3.341   4.882  0.00  0.00     0.001 A 
ENDROOT
BRANCH   1   8
ATOM      8  C1  UNL d   1       1.793  -1.025   3.885  0.00  0.00     0.053 C 
ATOM      9  C   UNL d   1       1.724  -0.329   2.534  0.00  0.00     0.018 C 
ENDBRANCH   1   8
TORSDOF 1
ENDMDL
