MODEL 1
REMARK minimizedAffinity 7.44129801
REMARK minimizedRMSD -1
REMARK  1 active torsions:
REMARK  status: ('A' for Active; 'I' for Inactive)
REMARK    1  A    between atoms: C1_2  and  C2_3 
ROOT
ATOM      1  C2  UNL d   1       0.999  -4.043   4.469  0.00  0.00    -0.073 A 
ATOM      2  C3  UNL d   1       2.194  -4.647   4.064  0.00  0.00    -0.002 A 
ATOM      3  C4  UNL d   1       3.118  -3.936   3.297  0.00  0.00     0.004 A 
ATOM      4  C5  UNL d   1       2.860  -2.614   2.934  0.00  0.00    -0.004 A 
ATOM      5  C6  UNL d   1       1.676  -1.989   3.339  0.00  0.00    -0.075 A 
ATOM      6  C7  UNL d   1       1.383  -0.569   2.955  0.00  0.00     0.076 C 
ATOM      7  C8  UNL d   1       0.752  -2.711   4.107  0.00  0.00     0.001 A 
ENDROOT
BRANCH   1   8
ATOM      8  C1  UNL d   1       0.001  -4.805   5.303  0.00  0.00     0.053 C 
ATOM      9  C   UNL d   1       0.633  -5.999   5.999  0.00  0.00     0.018 C 
ENDBRANCH   1   8
TORSDOF 1
ENDMDL
