MODEL 1
REMARK minimizedAffinity 8.98136425
REMARK minimizedRMSD -1
REMARK  1 active torsions:
REMARK  status: ('A' for Active; 'I' for Inactive)
REMARK    1  A    between atoms: C1_2  and  C2_3 
ROOT
ATOM      1  C2  UNL d   1       2.974  -2.270   3.594  0.00  0.00    -0.073 A 
ATOM      2  C3  UNL d   1       1.851  -3.042   3.276  0.00  0.00    -0.002 A 
ATOM      3  C4  UNL d   1       0.953  -2.612   2.298  0.00  0.00     0.004 A 
ATOM      4  C5  UNL d   1       1.172  -1.410   1.624  0.00  0.00    -0.004 A 
ATOM      5  C6  UNL d   1       2.295  -0.631   1.919  0.00  0.00    -0.075 A 
ATOM      6  C7  UNL d   1       2.545   0.665   1.204  0.00  0.00     0.076 C 
ATOM      7  C8  UNL d   1       3.191  -1.069   2.904  0.00  0.00     0.001 A 
ENDROOT
BRANCH   1   8
ATOM      8  C1  UNL d   1       3.950  -2.734   4.644  0.00  0.00     0.053 C 
ATOM      9  C   UNL d   1       5.392  -2.579   4.191  0.00  0.00     0.018 C 
ENDBRANCH   1   8
TORSDOF 1
ENDMDL
