MODEL 1
REMARK minimizedAffinity 1.20954847
REMARK minimizedRMSD -1
REMARK  1 active torsions:
REMARK  status: ('A' for Active; 'I' for Inactive)
REMARK    1  A    between atoms: C1_2  and  C2_3 
ROOT
ATOM      1  C2  UNL d   1       2.110  -1.392   3.642  0.00  0.00    -0.073 A 
ATOM      2  C3  UNL d   1       1.373  -1.943   2.587  0.00  0.00    -0.002 A 
ATOM      3  C4  UNL d   1       1.183  -3.323   2.505  0.00  0.00     0.004 A 
ATOM      4  C5  UNL d   1       1.722  -4.165   3.478  0.00  0.00    -0.004 A 
ATOM      5  C6  UNL d   1       2.451  -3.633   4.546  0.00  0.00    -0.075 A 
ATOM      6  C7  UNL d   1       3.039  -4.525   5.599  0.00  0.00     0.076 C 
ATOM      7  C8  UNL d   1       2.640  -2.246   4.620  0.00  0.00     0.001 A 
ENDROOT
BRANCH   1   8
ATOM      8  C1  UNL d   1       2.312   0.098   3.738  0.00  0.00     0.053 C 
ATOM      9  C   UNL d   1       2.701   0.708   2.401  0.00  0.00     0.018 C 
ENDBRANCH   1   8
TORSDOF 1
ENDMDL
