MODEL 1
REMARK minimizedAffinity 12.0833035
REMARK minimizedRMSD -1
REMARK  0 active torsions:
REMARK  status: ('A' for Active; 'I' for Inactive)
ROOT
ATOM      1  C   UNL d   1      -4.887  -5.999  -0.445  0.00  0.00     0.020 A 
ATOM      2  C1  UNL d   1      -5.996  -5.186  -0.213  0.00  0.00     0.020 A 
ATOM      3  C2  UNL d   1      -5.999  -4.301   0.868  0.00  0.00     0.034 A 
ATOM      4  C3  UNL d   1      -4.892  -4.227   1.720  0.00  0.00     0.017 A 
ATOM      5  C4  UNL d   1      -3.779  -5.043   1.486  0.00  0.00     0.017 A 
ATOM      6  C5  UNL d   1      -3.781  -5.927   0.403  0.00  0.00     0.034 A 
ATOM      7 Cl   UNL d   1      -2.375  -5.008   2.494  0.00  0.00    -0.070 Cl
ATOM      8 Cl1  UNL d   1      -4.964  -3.110   3.036  0.00  0.00    -0.070 Cl
ENDROOT
TORSDOF 0
ENDMDL
