MODEL 1
REMARK minimizedAffinity 6.9081955
REMARK minimizedRMSD -1
REMARK  0 active torsions:
REMARK  status: ('A' for Active; 'I' for Inactive)
ROOT
ATOM      1  C   UNL d   1      -4.285   3.076   4.445  0.00  0.00     0.020 A 
ATOM      2  C1  UNL d   1      -4.129   2.627   5.755  0.00  0.00     0.020 A 
ATOM      3  C2  UNL d   1      -3.640   1.342   6.000  0.00  0.00     0.034 A 
ATOM      4  C3  UNL d   1      -3.307   0.500   4.932  0.00  0.00     0.017 A 
ATOM      5  C4  UNL d   1      -3.463   0.952   3.617  0.00  0.00     0.017 A 
ATOM      6  C5  UNL d   1      -3.953   2.240   3.378  0.00  0.00     0.034 A 
ATOM      7 Cl   UNL d   1      -3.073  -0.028   2.248  0.00  0.00    -0.070 Cl
ATOM      8 Cl1  UNL d   1      -2.708  -1.076   5.308  0.00  0.00    -0.070 Cl
ENDROOT
TORSDOF 0
ENDMDL
