MODEL 1
REMARK minimizedAffinity 20.0852509
REMARK minimizedRMSD -1
REMARK  0 active torsions:
REMARK  status: ('A' for Active; 'I' for Inactive)
ROOT
ATOM      1  C   UNL d   1       2.242   0.486  -1.761  0.00  0.00     0.020 A 
ATOM      2  C1  UNL d   1       2.880   0.183  -0.559  0.00  0.00     0.020 A 
ATOM      3  C2  UNL d   1       2.852  -1.122  -0.064  0.00  0.00     0.034 A 
ATOM      4  C3  UNL d   1       2.186  -2.130  -0.771  0.00  0.00     0.017 A 
ATOM      5  C4  UNL d   1       1.545  -1.824  -1.977  0.00  0.00     0.017 A 
ATOM      6  C5  UNL d   1       1.576  -0.516  -2.468  0.00  0.00     0.034 A 
ATOM      7 Cl   UNL d   1       0.702  -3.014  -2.906  0.00  0.00    -0.070 Cl
ATOM      8 Cl1  UNL d   1       2.192  -3.722  -0.099  0.00  0.00    -0.070 Cl
ENDROOT
TORSDOF 0
ENDMDL
