MODEL 1
REMARK minimizedAffinity 9.13655281
REMARK minimizedRMSD -1
REMARK  0 active torsions:
REMARK  status: ('A' for Active; 'I' for Inactive)
ROOT
ATOM      1  C   UNL d   1       2.391   0.441  -2.151  0.00  0.00     0.020 A 
ATOM      2  C1  UNL d   1       2.002  -0.542  -1.242  0.00  0.00     0.020 A 
ATOM      3  C2  UNL d   1       1.574  -0.181   0.037  0.00  0.00     0.034 A 
ATOM      4  C3  UNL d   1       1.535   1.167   0.412  0.00  0.00     0.017 A 
ATOM      5  C4  UNL d   1       1.926   2.153  -0.501  0.00  0.00     0.017 A 
ATOM      6  C5  UNL d   1       2.353   1.786  -1.781  0.00  0.00     0.034 A 
ATOM      7 Cl   UNL d   1       1.905   3.837  -0.111  0.00  0.00    -0.070 Cl
ATOM      8 Cl1  UNL d   1       0.995   1.541   2.010  0.00  0.00    -0.070 Cl
ENDROOT
TORSDOF 0
ENDMDL
