MODEL 1
REMARK minimizedAffinity 16.2864647
REMARK minimizedRMSD -1
REMARK  0 active torsions:
REMARK  status: ('A' for Active; 'I' for Inactive)
ROOT
ATOM      1  C   UNL d   1       1.488   1.150   5.657  0.00  0.00     0.020 A 
ATOM      2  C1  UNL d   1       0.227   1.640   5.999  0.00  0.00     0.020 A 
ATOM      3  C2  UNL d   1      -0.782   1.700   5.036  0.00  0.00     0.034 A 
ATOM      4  C3  UNL d   1      -0.534   1.271   3.727  0.00  0.00     0.017 A 
ATOM      5  C4  UNL d   1       0.731   0.780   3.386  0.00  0.00     0.017 A 
ATOM      6  C5  UNL d   1       1.739   0.721   4.353  0.00  0.00     0.034 A 
ATOM      7 Cl   UNL d   1       1.114   0.232   1.791  0.00  0.00    -0.070 Cl
ATOM      8 Cl1  UNL d   1      -1.829   1.374   2.588  0.00  0.00    -0.070 Cl
ENDROOT
TORSDOF 0
ENDMDL
