MODEL 1
REMARK minimizedAffinity 7.29137754
REMARK minimizedRMSD -1
REMARK  0 active torsions:
REMARK  status: ('A' for Active; 'I' for Inactive)
ROOT
ATOM      1  C   UNL d   1       5.376   1.574  -0.772  0.00  0.00     0.020 A 
ATOM      2  C1  UNL d   1       4.384   2.039  -1.636  0.00  0.00     0.020 A 
ATOM      3  C2  UNL d   1       3.359   1.184  -2.046  0.00  0.00     0.034 A 
ATOM      4  C3  UNL d   1       3.322  -0.140  -1.593  0.00  0.00     0.017 A 
ATOM      5  C4  UNL d   1       4.318  -0.605  -0.726  0.00  0.00     0.017 A 
ATOM      6  C5  UNL d   1       5.343   0.255  -0.319  0.00  0.00     0.034 A 
ATOM      7 Cl   UNL d   1       4.340  -2.226  -0.125  0.00  0.00    -0.070 Cl
ATOM      8 Cl1  UNL d   1       2.025  -1.141  -2.140  0.00  0.00    -0.070 Cl
ENDROOT
TORSDOF 0
ENDMDL
