MODEL 1
REMARK minimizedAffinity 21.7380924
REMARK minimizedRMSD -1
REMARK  0 active torsions:
REMARK  status: ('A' for Active; 'I' for Inactive)
ROOT
ATOM      1  C   UNL d   1      -5.276   3.723   4.122  0.00  0.00     0.020 A 
ATOM      2  C1  UNL d   1      -4.869   3.923   5.441  0.00  0.00     0.020 A 
ATOM      3  C2  UNL d   1      -3.885   3.105   5.999  0.00  0.00     0.034 A 
ATOM      4  C3  UNL d   1      -3.304   2.082   5.239  0.00  0.00     0.017 A 
ATOM      5  C4  UNL d   1      -3.714   1.882   3.916  0.00  0.00     0.017 A 
ATOM      6  C5  UNL d   1      -4.699   2.705   3.362  0.00  0.00     0.034 A 
ATOM      7 Cl   UNL d   1      -3.044   0.642   2.916  0.00  0.00    -0.070 Cl
ATOM      8 Cl1  UNL d   1      -2.093   1.109   5.994  0.00  0.00    -0.070 Cl
ENDROOT
TORSDOF 0
ENDMDL
