MODEL 1
REMARK minimizedAffinity 17.6186523
REMARK minimizedRMSD -1
REMARK  0 active torsions:
REMARK  status: ('A' for Active; 'I' for Inactive)
ROOT
ATOM      1  C   UNL d   1       4.226   1.993   0.099  0.00  0.00     0.020 A 
ATOM      2  C1  UNL d   1       3.777   2.576  -1.086  0.00  0.00     0.020 A 
ATOM      3  C2  UNL d   1       3.014   1.830  -1.986  0.00  0.00     0.034 A 
ATOM      4  C3  UNL d   1       2.697   0.496  -1.704  0.00  0.00     0.017 A 
ATOM      5  C4  UNL d   1       3.148  -0.089  -0.514  0.00  0.00     0.017 A 
ATOM      6  C5  UNL d   1       3.912   0.663   0.384  0.00  0.00     0.034 A 
ATOM      7 Cl   UNL d   1       2.797  -1.729  -0.097  0.00  0.00    -0.070 Cl
ATOM      8 Cl1  UNL d   1       1.749  -0.367  -2.862  0.00  0.00    -0.070 Cl
ENDROOT
TORSDOF 0
ENDMDL
