MODEL 1
REMARK minimizedAffinity 17.7913876
REMARK minimizedRMSD -1
REMARK  0 active torsions:
REMARK  status: ('A' for Active; 'I' for Inactive)
ROOT
ATOM      1  C   UNL d   1      -0.883   1.985   2.615  0.00  0.00     0.020 A 
ATOM      2  C1  UNL d   1       0.138   1.213   3.168  0.00  0.00     0.020 A 
ATOM      3  C2  UNL d   1       1.473   1.552   2.936  0.00  0.00     0.034 A 
ATOM      4  C3  UNL d   1       1.790   2.667   2.151  0.00  0.00     0.017 A 
ATOM      5  C4  UNL d   1       0.764   3.441   1.597  0.00  0.00     0.017 A 
ATOM      6  C5  UNL d   1      -0.570   3.097   1.832  0.00  0.00     0.034 A 
ATOM      7 Cl   UNL d   1       1.077   4.830   0.618  0.00  0.00    -0.070 Cl
ATOM      8 Cl1  UNL d   1       3.462   3.028   1.907  0.00  0.00    -0.070 Cl
ENDROOT
TORSDOF 0
ENDMDL
