MODEL 1
REMARK minimizedAffinity 19.0797215
REMARK minimizedRMSD -1
REMARK  0 active torsions:
REMARK  status: ('A' for Active; 'I' for Inactive)
ROOT
ATOM      1  C   UNL d   1      -4.720   2.845   6.000  0.00  0.00     0.020 A 
ATOM      2  C1  UNL d   1      -5.456   3.293   4.904  0.00  0.00     0.020 A 
ATOM      3  C2  UNL d   1      -5.291   2.687   3.657  0.00  0.00     0.034 A 
ATOM      4  C3  UNL d   1      -4.387   1.630   3.502  0.00  0.00     0.017 A 
ATOM      5  C4  UNL d   1      -3.648   1.181   4.603  0.00  0.00     0.017 A 
ATOM      6  C5  UNL d   1      -3.818   1.791   5.849  0.00  0.00     0.034 A 
ATOM      7 Cl   UNL d   1      -2.514  -0.118   4.490  0.00  0.00    -0.070 Cl
ATOM      8 Cl1  UNL d   1      -4.234   0.927   1.931  0.00  0.00    -0.070 Cl
ENDROOT
TORSDOF 0
ENDMDL
