MODEL 1
REMARK minimizedAffinity 6.97399187
REMARK minimizedRMSD -1
REMARK  0 active torsions:
REMARK  status: ('A' for Active; 'I' for Inactive)
ROOT
ATOM      1  C   UNL d   1      -4.141   5.511  -5.399  0.00  0.00     0.020 A 
ATOM      2  C1  UNL d   1      -4.064   4.254  -5.997  0.00  0.00     0.020 A 
ATOM      3  C2  UNL d   1      -2.925   3.465  -5.821  0.00  0.00     0.034 A 
ATOM      4  C3  UNL d   1      -1.858   3.933  -5.044  0.00  0.00     0.017 A 
ATOM      5  C4  UNL d   1      -1.937   5.195  -4.444  0.00  0.00     0.017 A 
ATOM      6  C5  UNL d   1      -3.080   5.980  -4.625  0.00  0.00     0.034 A 
ATOM      7 Cl   UNL d   1      -0.661   5.840  -3.472  0.00  0.00    -0.070 Cl
ATOM      8 Cl1  UNL d   1      -0.481   2.905  -4.868  0.00  0.00    -0.070 Cl
ENDROOT
TORSDOF 0
ENDMDL
