MODEL 1
REMARK minimizedAffinity 9.28178883
REMARK minimizedRMSD -1
REMARK  0 active torsions:
REMARK  status: ('A' for Active; 'I' for Inactive)
ROOT
ATOM      1  C   UNL d   1       4.799   3.019   0.718  0.00  0.00     0.020 A 
ATOM      2  C1  UNL d   1       5.024   2.329  -0.473  0.00  0.00     0.020 A 
ATOM      3  C2  UNL d   1       4.106   1.370  -0.908  0.00  0.00     0.034 A 
ATOM      4  C3  UNL d   1       2.960   1.099  -0.152  0.00  0.00     0.017 A 
ATOM      5  C4  UNL d   1       2.735   1.792   1.043  0.00  0.00     0.017 A 
ATOM      6  C5  UNL d   1       3.657   2.751   1.474  0.00  0.00     0.034 A 
ATOM      7 Cl   UNL d   1       1.344   1.512   2.030  0.00  0.00    -0.070 Cl
ATOM      8 Cl1  UNL d   1       1.868  -0.099  -0.750  0.00  0.00    -0.070 Cl
ENDROOT
TORSDOF 0
ENDMDL
