MODEL 1
REMARK minimizedAffinity 6.37908077
REMARK minimizedRMSD -1
REMARK  0 active torsions:
REMARK  status: ('A' for Active; 'I' for Inactive)
ROOT
ATOM      1  C   UNL d   1       1.382  -0.979  -1.737  0.00  0.00     0.020 A 
ATOM      2  C1  UNL d   1       2.185  -0.849  -0.605  0.00  0.00     0.020 A 
ATOM      3  C2  UNL d   1       2.890  -1.952  -0.118  0.00  0.00     0.034 A 
ATOM      4  C3  UNL d   1       2.794  -3.190  -0.764  0.00  0.00     0.017 A 
ATOM      5  C4  UNL d   1       1.988  -3.319  -1.901  0.00  0.00     0.017 A 
ATOM      6  C5  UNL d   1       1.284  -2.212  -2.384  0.00  0.00     0.034 A 
ATOM      7 Cl   UNL d   1       1.819  -4.814  -2.751  0.00  0.00    -0.070 Cl
ATOM      8 Cl1  UNL d   1       3.694  -4.510  -0.107  0.00  0.00    -0.070 Cl
ENDROOT
TORSDOF 0
ENDMDL
