MODEL 1
REMARK minimizedAffinity 11.2463045
REMARK minimizedRMSD -1
REMARK  0 active torsions:
REMARK  status: ('A' for Active; 'I' for Inactive)
ROOT
ATOM      1  C   UNL d   1       2.227  -3.112  -0.340  0.00  0.00     0.020 A 
ATOM      2  C1  UNL d   1       1.717  -3.281  -1.626  0.00  0.00     0.020 A 
ATOM      3  C2  UNL d   1       1.336  -2.168  -2.379  0.00  0.00     0.034 A 
ATOM      4  C3  UNL d   1       1.465  -0.881  -1.845  0.00  0.00     0.017 A 
ATOM      5  C4  UNL d   1       1.978  -0.711  -0.554  0.00  0.00     0.017 A 
ATOM      6  C5  UNL d   1       2.358  -1.830   0.195  0.00  0.00     0.034 A 
ATOM      7 Cl   UNL d   1       2.167   0.846   0.172  0.00  0.00    -0.070 Cl
ATOM      8 Cl1  UNL d   1       0.975   0.451  -2.832  0.00  0.00    -0.070 Cl
ENDROOT
TORSDOF 0
ENDMDL
