MODEL 1
REMARK minimizedAffinity 4.64553738
REMARK minimizedRMSD -1
REMARK  0 active torsions:
REMARK  status: ('A' for Active; 'I' for Inactive)
ROOT
ATOM      1  C   UNL d   1      -1.888  -5.450  -4.857  0.00  0.00     0.020 A 
ATOM      2  C1  UNL d   1      -2.922  -5.999  -5.614  0.00  0.00     0.020 A 
ATOM      3  C2  UNL d   1      -4.035  -5.223  -5.942  0.00  0.00     0.034 A 
ATOM      4  C3  UNL d   1      -4.118  -3.893  -5.513  0.00  0.00     0.017 A 
ATOM      5  C4  UNL d   1      -3.079  -3.343  -4.753  0.00  0.00     0.017 A 
ATOM      6  C5  UNL d   1      -1.967  -4.125  -4.427  0.00  0.00     0.034 A 
ATOM      7 Cl   UNL d   1      -3.109  -1.710  -4.187  0.00  0.00    -0.070 Cl
ATOM      8 Cl1  UNL d   1      -5.523  -2.991  -5.956  0.00  0.00    -0.070 Cl
ENDROOT
TORSDOF 0
ENDMDL
