MODEL 1
REMARK minimizedAffinity 11.2266073
REMARK minimizedRMSD -1
REMARK  0 active torsions:
REMARK  status: ('A' for Active; 'I' for Inactive)
ROOT
ATOM      1  C   UNL d   1      -3.213  -5.250  -5.544  0.00  0.00     0.020 A 
ATOM      2  C1  UNL d   1      -3.413  -3.947  -6.000  0.00  0.00     0.020 A 
ATOM      3  C2  UNL d   1      -2.988  -2.864  -5.227  0.00  0.00     0.034 A 
ATOM      4  C3  UNL d   1      -2.361  -3.082  -3.994  0.00  0.00     0.017 A 
ATOM      5  C4  UNL d   1      -2.161  -4.390  -3.538  0.00  0.00     0.017 A 
ATOM      6  C5  UNL d   1      -2.588  -5.470  -4.316  0.00  0.00     0.034 A 
ATOM      7 Cl   UNL d   1      -1.395  -4.738  -2.028  0.00  0.00    -0.070 Cl
ATOM      8 Cl1  UNL d   1      -1.861  -1.696  -3.092  0.00  0.00    -0.070 Cl
ENDROOT
TORSDOF 0
ENDMDL
