MODEL 1
REMARK minimizedAffinity 13.7797728
REMARK minimizedRMSD -1
REMARK  0 active torsions:
REMARK  status: ('A' for Active; 'I' for Inactive)
ROOT
ATOM      1  C   UNL d   1      -4.131   1.603   4.160  0.00  0.00     0.020 A 
ATOM      2  C1  UNL d   1      -3.258   1.027   5.082  0.00  0.00     0.020 A 
ATOM      3  C2  UNL d   1      -3.090  -0.359   5.113  0.00  0.00     0.034 A 
ATOM      4  C3  UNL d   1      -3.797  -1.174   4.221  0.00  0.00     0.017 A 
ATOM      5  C4  UNL d   1      -4.673  -0.595   3.296  0.00  0.00     0.017 A 
ATOM      6  C5  UNL d   1      -4.837   0.794   3.269  0.00  0.00     0.034 A 
ATOM      7 Cl   UNL d   1      -5.579  -1.535   2.164  0.00  0.00    -0.070 Cl
ATOM      8 Cl1  UNL d   1      -3.540  -2.880   4.315  0.00  0.00    -0.070 Cl
ENDROOT
TORSDOF 0
ENDMDL
