MODEL 1
REMARK minimizedAffinity 0.684286118
REMARK minimizedRMSD -1
REMARK  0 active torsions:
REMARK  status: ('A' for Active; 'I' for Inactive)
ROOT
ATOM      1  C   UNL d   1      -4.894   3.945  -6.000  0.00  0.00     0.020 A 
ATOM      2  C1  UNL d   1      -5.024   5.252  -5.531  0.00  0.00     0.020 A 
ATOM      3  C2  UNL d   1      -3.956   5.867  -4.874  0.00  0.00     0.034 A 
ATOM      4  C3  UNL d   1      -2.753   5.176  -4.685  0.00  0.00     0.017 A 
ATOM      5  C4  UNL d   1      -2.624   3.865  -5.156  0.00  0.00     0.017 A 
ATOM      6  C5  UNL d   1      -3.696   3.253  -5.813  0.00  0.00     0.034 A 
ATOM      7 Cl   UNL d   1      -1.171   2.949  -4.960  0.00  0.00    -0.070 Cl
ATOM      8 Cl1  UNL d   1      -1.474   5.999  -3.865  0.00  0.00    -0.070 Cl
ENDROOT
TORSDOF 0
ENDMDL
