MODEL 1
REMARK minimizedAffinity -0.158165172
REMARK minimizedRMSD -1
REMARK  1 active torsions:
REMARK  status: ('A' for Active; 'I' for Inactive)
REMARK    1  A    between atoms: C1_2  and  C2_3 
ROOT
ATOM      1  C2  UNL d   1      -0.792   2.581  -2.425  0.00  0.00    -0.077 A 
ATOM      2  C3  UNL d   1      -0.790   2.680  -1.027  0.00  0.00     0.002 A 
ATOM      3  C4  UNL d   1      -1.693   1.936  -0.265  0.00  0.00     0.002 A 
ATOM      4  C5  UNL d   1      -2.601   1.085  -0.892  0.00  0.00    -0.004 A 
ATOM      5  C6  UNL d   1      -2.612   0.981  -2.283  0.00  0.00     0.002 A 
ATOM      6  C7  UNL d   1      -1.711   1.725  -3.046  0.00  0.00     0.002 A 
ENDROOT
BRANCH   1   7
ATOM      7  C1  UNL d   1       0.214   3.345  -3.246  0.00  0.00     0.055 C 
ATOM      8  C   UNL d   1       1.630   2.855  -2.983  0.00  0.00     0.019 C 
ENDBRANCH   1   7
TORSDOF 1
ENDMDL
