MODEL 1
REMARK minimizedAffinity -0.0399033539
REMARK minimizedRMSD -1
REMARK  1 active torsions:
REMARK  status: ('A' for Active; 'I' for Inactive)
REMARK    1  A    between atoms: C1_2  and  C2_3 
ROOT
ATOM      1  C2  UNL d   1       1.363  -1.149   0.611  0.00  0.00    -0.077 A 
ATOM      2  C3  UNL d   1       1.063  -2.259  -0.191  0.00  0.00     0.002 A 
ATOM      3  C4  UNL d   1      -0.244  -2.745  -0.264  0.00  0.00     0.002 A 
ATOM      4  C5  UNL d   1      -1.261  -2.124   0.458  0.00  0.00    -0.004 A 
ATOM      5  C6  UNL d   1      -0.972  -1.021   1.260  0.00  0.00     0.002 A 
ATOM      6  C7  UNL d   1       0.334  -0.535   1.335  0.00  0.00     0.002 A 
ENDROOT
BRANCH   1   7
ATOM      7  C1  UNL d   1       2.763  -0.594   0.653  0.00  0.00     0.055 C 
ATOM      8  C   UNL d   1       3.715  -1.430  -0.189  0.00  0.00     0.019 C 
ENDBRANCH   1   7
TORSDOF 1
ENDMDL
