MODEL 1
REMARK minimizedAffinity 1.9779197
REMARK minimizedRMSD -1
REMARK  1 active torsions:
REMARK  status: ('A' for Active; 'I' for Inactive)
REMARK    1  A    between atoms: C1_2  and  C2_3 
ROOT
ATOM      1  C2  UNL d   1       0.384  -2.221   0.128  0.00  0.00    -0.077 A 
ATOM      2  C3  UNL d   1       1.513  -1.392   0.206  0.00  0.00     0.002 A 
ATOM      3  C4  UNL d   1       1.446  -0.170   0.878  0.00  0.00     0.002 A 
ATOM      4  C5  UNL d   1       0.255   0.232   1.479  0.00  0.00    -0.004 A 
ATOM      5  C6  UNL d   1      -0.873  -0.584   1.405  0.00  0.00     0.002 A 
ATOM      6  C7  UNL d   1      -0.809  -1.805   0.733  0.00  0.00     0.002 A 
ENDROOT
BRANCH   1   7
ATOM      7  C1  UNL d   1       0.468  -3.562  -0.553  0.00  0.00     0.055 C 
ATOM      8  C   UNL d   1       1.914  -3.997  -0.744  0.00  0.00     0.019 C 
ENDBRANCH   1   7
TORSDOF 1
ENDMDL
