MODEL 1
REMARK minimizedAffinity -3.81242061
REMARK minimizedRMSD -1
REMARK  1 active torsions:
REMARK  status: ('A' for Active; 'I' for Inactive)
REMARK    1  A    between atoms: C1_2  and  C2_3 
ROOT
ATOM      1  C2  UNL d   1      -5.240  -3.721   4.687  0.00  0.00    -0.077 A 
ATOM      2  C3  UNL d   1      -5.024  -2.984   3.514  0.00  0.00     0.002 A 
ATOM      3  C4  UNL d   1      -4.848  -3.636   2.293  0.00  0.00     0.002 A 
ATOM      4  C5  UNL d   1      -4.890  -5.027   2.231  0.00  0.00    -0.004 A 
ATOM      5  C6  UNL d   1      -5.103  -5.770   3.392  0.00  0.00     0.002 A 
ATOM      6  C7  UNL d   1      -5.278  -5.120   4.614  0.00  0.00     0.002 A 
ENDROOT
BRANCH   1   7
ATOM      7  C1  UNL d   1      -5.480  -3.018   5.998  0.00  0.00     0.055 C 
ATOM      8  C   UNL d   1      -4.876  -1.622   5.995  0.00  0.00     0.019 C 
ENDBRANCH   1   7
TORSDOF 1
ENDMDL
