MODEL 1
REMARK minimizedAffinity -3.46812797
REMARK minimizedRMSD -1
REMARK  1 active torsions:
REMARK  status: ('A' for Active; 'I' for Inactive)
REMARK    1  A    between atoms: C1_2  and  C2_3 
ROOT
ATOM      1  C2  UNL d   1       0.129  -1.742   0.707  0.00  0.00    -0.077 A 
ATOM      2  C3  UNL d   1       0.499  -2.964   0.128  0.00  0.00     0.002 A 
ATOM      3  C4  UNL d   1       1.818  -3.185  -0.273  0.00  0.00     0.002 A 
ATOM      4  C5  UNL d   1       2.778  -2.191  -0.095  0.00  0.00    -0.004 A 
ATOM      5  C6  UNL d   1       2.420  -0.972   0.478  0.00  0.00     0.002 A 
ATOM      6  C7  UNL d   1       1.102  -0.748   0.878  0.00  0.00     0.002 A 
ENDROOT
BRANCH   1   7
ATOM      7  C1  UNL d   1      -1.282  -1.520   1.185  0.00  0.00     0.055 C 
ATOM      8  C   UNL d   1      -1.585  -0.037   1.344  0.00  0.00     0.019 C 
ENDBRANCH   1   7
TORSDOF 1
ENDMDL
