MODEL 1
REMARK minimizedAffinity -0.269086212
REMARK minimizedRMSD -1
REMARK  1 active torsions:
REMARK  status: ('A' for Active; 'I' for Inactive)
REMARK    1  A    between atoms: C1_2  and  C2_3 
ROOT
ATOM      1  C2  UNL d   1       0.501  -1.652   0.042  0.00  0.00    -0.077 A 
ATOM      2  C3  UNL d   1      -0.828  -1.243   0.216  0.00  0.00     0.002 A 
ATOM      3  C4  UNL d   1      -1.164  -0.346   1.232  0.00  0.00     0.002 A 
ATOM      4  C5  UNL d   1      -0.176   0.153   2.078  0.00  0.00    -0.004 A 
ATOM      5  C6  UNL d   1       1.149  -0.249   1.914  0.00  0.00     0.002 A 
ATOM      6  C7  UNL d   1       1.486  -1.147   0.900  0.00  0.00     0.002 A 
ENDROOT
BRANCH   1   7
ATOM      7  C1  UNL d   1       0.873  -2.581  -1.084  0.00  0.00     0.055 C 
ATOM      8  C   UNL d   1       0.865  -4.033  -0.628  0.00  0.00     0.019 C 
ENDBRANCH   1   7
TORSDOF 1
ENDMDL
