MODEL 1
REMARK minimizedAffinity 1.65570462
REMARK minimizedRMSD -1
REMARK  1 active torsions:
REMARK  status: ('A' for Active; 'I' for Inactive)
REMARK    1  A    between atoms: C1_2  and  C2_3 
ROOT
ATOM      1  C2  UNL d   1       1.356  -0.596   1.080  0.00  0.00    -0.077 A 
ATOM      2  C3  UNL d   1       1.025  -1.734   0.330  0.00  0.00     0.002 A 
ATOM      3  C4  UNL d   1      -0.312  -2.087   0.137  0.00  0.00     0.002 A 
ATOM      4  C5  UNL d   1      -1.328  -1.307   0.686  0.00  0.00    -0.004 A 
ATOM      5  C6  UNL d   1      -1.009  -0.175   1.434  0.00  0.00     0.002 A 
ATOM      6  C7  UNL d   1       0.327   0.179   1.630  0.00  0.00     0.002 A 
ENDROOT
BRANCH   1   7
ATOM      7  C1  UNL d   1       2.795  -0.185   1.249  0.00  0.00     0.055 C 
ATOM      8  C   UNL d   1       2.908   1.161   1.949  0.00  0.00     0.019 C 
ENDBRANCH   1   7
TORSDOF 1
ENDMDL
