MODEL 1
REMARK minimizedAffinity 1.23245156
REMARK minimizedRMSD -1
REMARK  1 active torsions:
REMARK  status: ('A' for Active; 'I' for Inactive)
REMARK    1  A    between atoms: C1_2  and  C2_3 
ROOT
ATOM      1  C2  UNL d   1       1.876  -0.066   1.258  0.00  0.00    -0.077 A 
ATOM      2  C3  UNL d   1       0.623   0.138   1.854  0.00  0.00     0.002 A 
ATOM      3  C4  UNL d   1      -0.525  -0.430   1.297  0.00  0.00     0.002 A 
ATOM      4  C5  UNL d   1      -0.431  -1.209   0.146  0.00  0.00    -0.004 A 
ATOM      5  C6  UNL d   1       0.810  -1.417  -0.455  0.00  0.00     0.002 A 
ATOM      6  C7  UNL d   1       1.958  -0.849   0.100  0.00  0.00     0.002 A 
ENDROOT
BRANCH   1   7
ATOM      7  C1  UNL d   1       3.121   0.504   1.885  0.00  0.00     0.055 C 
ATOM      8  C   UNL d   1       3.977  -0.588   2.509  0.00  0.00     0.019 C 
ENDBRANCH   1   7
TORSDOF 1
ENDMDL
