MODEL 1
REMARK minimizedAffinity 0.384539336
REMARK minimizedRMSD -1
REMARK  1 active torsions:
REMARK  status: ('A' for Active; 'I' for Inactive)
REMARK    1  A    between atoms: C1_2  and  C2_3 
ROOT
ATOM      1  C2  UNL d   1       1.085  -2.313  -0.373  0.00  0.00    -0.077 A 
ATOM      2  C3  UNL d   1       2.038  -1.332  -0.064  0.00  0.00     0.002 A 
ATOM      3  C4  UNL d   1       1.708  -0.266   0.776  0.00  0.00     0.002 A 
ATOM      4  C5  UNL d   1       0.427  -0.174   1.316  0.00  0.00    -0.004 A 
ATOM      5  C6  UNL d   1      -0.529  -1.143   1.012  0.00  0.00     0.002 A 
ATOM      6  C7  UNL d   1      -0.201  -2.208   0.172  0.00  0.00     0.002 A 
ENDROOT
BRANCH   1   7
ATOM      7  C1  UNL d   1       1.453  -3.489  -1.239  0.00  0.00     0.055 C 
ATOM      8  C   UNL d   1       2.794  -4.080  -0.828  0.00  0.00     0.019 C 
ENDBRANCH   1   7
TORSDOF 1
ENDMDL
