MODEL 1
REMARK minimizedAffinity -3.28290486
REMARK minimizedRMSD -1
REMARK  1 active torsions:
REMARK  status: ('A' for Active; 'I' for Inactive)
REMARK    1  A    between atoms: C1_2  and  C2_3 
ROOT
ATOM      1  C2  UNL d   1       1.314  -2.783  -0.014  0.00  0.00    -0.077 A 
ATOM      2  C3  UNL d   1      -0.048  -2.758   0.320  0.00  0.00     0.002 A 
ATOM      3  C4  UNL d   1      -0.662  -1.560   0.690  0.00  0.00     0.002 A 
ATOM      4  C5  UNL d   1       0.075  -0.379   0.727  0.00  0.00    -0.004 A 
ATOM      5  C6  UNL d   1       1.430  -0.393   0.398  0.00  0.00     0.002 A 
ATOM      6  C7  UNL d   1       2.046  -1.590   0.029  0.00  0.00     0.002 A 
ENDROOT
BRANCH   1   7
ATOM      7  C1  UNL d   1       1.967  -4.064  -0.461  0.00  0.00     0.055 C 
ATOM      8  C   UNL d   1       3.484  -3.964  -0.396  0.00  0.00     0.019 C 
ENDBRANCH   1   7
TORSDOF 1
ENDMDL
