MODEL 1
REMARK minimizedAffinity -3.42576838
REMARK minimizedRMSD -1
REMARK  1 active torsions:
REMARK  status: ('A' for Active; 'I' for Inactive)
REMARK    1  A    between atoms: C1_2  and  C2_3 
ROOT
ATOM      1  C2  UNL d   1      -0.209  -0.698   1.181  0.00  0.00    -0.077 A 
ATOM      2  C3  UNL d   1       1.150  -0.425   0.972  0.00  0.00     0.002 A 
ATOM      3  C4  UNL d   1       1.958  -1.339   0.293  0.00  0.00     0.002 A 
ATOM      4  C5  UNL d   1       1.416  -2.530  -0.185  0.00  0.00    -0.004 A 
ATOM      5  C6  UNL d   1       0.066  -2.812   0.020  0.00  0.00     0.002 A 
ATOM      6  C7  UNL d   1      -0.743  -1.900   0.699  0.00  0.00     0.002 A 
ENDROOT
BRANCH   1   7
ATOM      7  C1  UNL d   1      -1.093   0.308   1.870  0.00  0.00     0.055 C 
ATOM      8  C   UNL d   1      -2.291   0.675   1.006  0.00  0.00     0.019 C 
ENDBRANCH   1   7
TORSDOF 1
ENDMDL
