MODEL 1
REMARK minimizedAffinity -3.86732531
REMARK minimizedRMSD -1
REMARK  1 active torsions:
REMARK  status: ('A' for Active; 'I' for Inactive)
REMARK    1  A    between atoms: C1_2  and  C2_3 
ROOT
ATOM      1  C2  UNL d   1       1.085  -2.464  -0.106  0.00  0.00    -0.077 A 
ATOM      2  C3  UNL d   1       1.826  -1.283   0.040  0.00  0.00     0.002 A 
ATOM      3  C4  UNL d   1       1.273  -0.177   0.689  0.00  0.00     0.002 A 
ATOM      4  C5  UNL d   1      -0.021  -0.242   1.200  0.00  0.00    -0.004 A 
ATOM      5  C6  UNL d   1      -0.767  -1.411   1.058  0.00  0.00     0.002 A 
ATOM      6  C7  UNL d   1      -0.217  -2.517   0.409  0.00  0.00     0.002 A 
ENDROOT
BRANCH   1   7
ATOM      7  C1  UNL d   1       1.697  -3.674  -0.762  0.00  0.00     0.055 C 
ATOM      8  C   UNL d   1       3.182  -3.781  -0.448  0.00  0.00     0.019 C 
ENDBRANCH   1   7
TORSDOF 1
ENDMDL
