MODEL 1
REMARK minimizedAffinity -0.202532917
REMARK minimizedRMSD -1
REMARK  1 active torsions:
REMARK  status: ('A' for Active; 'I' for Inactive)
REMARK    1  A    between atoms: C1_2  and  C2_3 
ROOT
ATOM      1  C2  UNL d   1       0.845  -1.210   1.767  0.00  0.00    -0.077 A 
ATOM      2  C3  UNL d   1      -0.152  -2.174   1.559  0.00  0.00     0.002 A 
ATOM      3  C4  UNL d   1      -0.437  -2.629   0.270  0.00  0.00     0.002 A 
ATOM      4  C5  UNL d   1       0.273  -2.129  -0.820  0.00  0.00    -0.004 A 
ATOM      5  C6  UNL d   1       1.265  -1.169  -0.624  0.00  0.00     0.002 A 
ATOM      6  C7  UNL d   1       1.550  -0.712   0.664  0.00  0.00     0.002 A 
ENDROOT
BRANCH   1   7
ATOM      7  C1  UNL d   1       1.187  -0.755   3.161  0.00  0.00     0.055 C 
ATOM      8  C   UNL d   1       1.723  -1.903   4.003  0.00  0.00     0.019 C 
ENDBRANCH   1   7
TORSDOF 1
ENDMDL
