MODEL 1
REMARK minimizedAffinity 1.29603565
REMARK minimizedRMSD -1
REMARK  1 active torsions:
REMARK  status: ('A' for Active; 'I' for Inactive)
REMARK    1  A    between atoms: C1_2  and  C2_3 
ROOT
ATOM      1  C2  UNL d   1       1.884  -1.128   0.146  0.00  0.00    -0.077 A 
ATOM      2  C3  UNL d   1       1.721  -0.473   1.374  0.00  0.00     0.002 A 
ATOM      3  C4  UNL d   1       0.446  -0.120   1.822  0.00  0.00     0.002 A 
ATOM      4  C5  UNL d   1      -0.674  -0.421   1.050  0.00  0.00    -0.004 A 
ATOM      5  C6  UNL d   1      -0.521  -1.071  -0.174  0.00  0.00     0.002 A 
ATOM      6  C7  UNL d   1       0.752  -1.423  -0.624  0.00  0.00     0.002 A 
ENDROOT
BRANCH   1   7
ATOM      7  C1  UNL d   1       3.254  -1.553  -0.316  0.00  0.00     0.055 C 
ATOM      8  C   UNL d   1       3.372  -3.070  -0.373  0.00  0.00     0.019 C 
ENDBRANCH   1   7
TORSDOF 1
ENDMDL
