MODEL 1
REMARK minimizedAffinity 0.414507478
REMARK minimizedRMSD -1
REMARK  1 active torsions:
REMARK  status: ('A' for Active; 'I' for Inactive)
REMARK    1  A    between atoms: C1_2  and  C2_3 
ROOT
ATOM      1  C2  UNL d   1       1.017  -2.651   0.275  0.00  0.00    -0.077 A 
ATOM      2  C3  UNL d   1      -0.243  -2.359   0.818  0.00  0.00     0.002 A 
ATOM      3  C4  UNL d   1      -0.553  -1.060   1.224  0.00  0.00     0.002 A 
ATOM      4  C5  UNL d   1       0.389  -0.042   1.088  0.00  0.00    -0.004 A 
ATOM      5  C6  UNL d   1       1.645  -0.323   0.551  0.00  0.00     0.002 A 
ATOM      6  C7  UNL d   1       1.957  -1.621   0.145  0.00  0.00     0.002 A 
ENDROOT
BRANCH   1   7
ATOM      7  C1  UNL d   1       1.336  -4.041  -0.209  0.00  0.00     0.055 C 
ATOM      8  C   UNL d   1       2.838  -4.266  -0.295  0.00  0.00     0.019 C 
ENDBRANCH   1   7
TORSDOF 1
ENDMDL
