MODEL 1
REMARK minimizedAffinity -4.888587
REMARK minimizedRMSD -1
REMARK  1 active torsions:
REMARK  status: ('A' for Active; 'I' for Inactive)
REMARK    1  A    between atoms: C1_2  and  C2_3 
ROOT
ATOM      1  C2  UNL d   1       0.734   0.764  -0.360  0.00  0.00    -0.081 A 
ATOM      2  C3  UNL d   1       1.394  -0.414   0.009  0.00  0.00     0.006 A 
ATOM      3  C4  UNL d   1       0.682  -1.478   0.569  0.00  0.00     0.002 A 
ATOM      4  C5  UNL d   1      -0.700  -1.384   0.763  0.00  0.00    -0.080 A 
ATOM      5  C6  UNL d   1      -1.480  -2.530   1.336  0.00  0.00     0.076 C 
ATOM      6  C7  UNL d   1      -1.356  -0.200   0.411  0.00  0.00     0.002 A 
ATOM      7  C8  UNL d   1      -0.646   0.864  -0.149  0.00  0.00     0.006 A 
ENDROOT
BRANCH   1   8
ATOM      8  C1  UNL d   1       1.487   1.888  -1.025  0.00  0.00     0.054 C 
ATOM      9  C   UNL d   1       0.858   2.264  -2.358  0.00  0.00     0.018 C 
ENDBRANCH   1   8
TORSDOF 1
ENDMDL
