MODEL 1
REMARK minimizedAffinity -4.43481207
REMARK minimizedRMSD -1
REMARK  1 active torsions:
REMARK  status: ('A' for Active; 'I' for Inactive)
REMARK    1  A    between atoms: C1_2  and  C2_3 
ROOT
ATOM      1  C2  UNL d   1       0.561   1.094  -0.839  0.00  0.00    -0.081 A 
ATOM      2  C3  UNL d   1       1.540   0.374  -0.143  0.00  0.00     0.006 A 
ATOM      3  C4  UNL d   1       1.204  -0.794   0.546  0.00  0.00     0.002 A 
ATOM      4  C5  UNL d   1      -0.113  -1.265   0.544  0.00  0.00    -0.080 A 
ATOM      5  C6  UNL d   1      -0.481  -2.534   1.255  0.00  0.00     0.076 C 
ATOM      6  C7  UNL d   1      -1.094  -0.536  -0.136  0.00  0.00     0.002 A 
ATOM      7  C8  UNL d   1      -0.759   0.632  -0.824  0.00  0.00     0.006 A 
ENDROOT
BRANCH   1   8
ATOM      8  C1  UNL d   1       0.932   2.318  -1.636  0.00  0.00     0.054 C 
ATOM      9  C   UNL d   1       0.112   2.415  -2.915  0.00  0.00     0.018 C 
ENDBRANCH   1   8
TORSDOF 1
ENDMDL
