MODEL 1
REMARK minimizedAffinity -3.49834681
REMARK minimizedRMSD -1
REMARK  1 active torsions:
REMARK  status: ('A' for Active; 'I' for Inactive)
REMARK    1  A    between atoms: C1_2  and  C2_3 
ROOT
ATOM      1  C2  UNL d   1       0.825   0.576  -0.321  0.00  0.00    -0.081 A 
ATOM      2  C3  UNL d   1       1.370  -0.627   0.144  0.00  0.00     0.006 A 
ATOM      3  C4  UNL d   1       0.540  -1.637   0.636  0.00  0.00     0.002 A 
ATOM      4  C5  UNL d   1      -0.848  -1.465   0.663  0.00  0.00    -0.080 A 
ATOM      5  C6  UNL d   1      -1.752  -2.553   1.160  0.00  0.00     0.076 C 
ATOM      6  C7  UNL d   1      -1.392  -0.256   0.214  0.00  0.00     0.002 A 
ATOM      7  C8  UNL d   1      -0.562   0.754  -0.277  0.00  0.00     0.006 A 
ENDROOT
BRANCH   1   8
ATOM      8  C1  UNL d   1       1.712   1.642  -0.912  0.00  0.00     0.054 C 
ATOM      9  C   UNL d   1       1.645   1.637  -2.433  0.00  0.00     0.018 C 
ENDBRANCH   1   8
TORSDOF 1
ENDMDL
