MODEL 1
REMARK minimizedAffinity -5.38682508
REMARK minimizedRMSD -1
REMARK  1 active torsions:
REMARK  status: ('A' for Active; 'I' for Inactive)
REMARK    1  A    between atoms: C1_2  and  C2_3 
ROOT
ATOM      1  C2  UNL d   1      -0.274  -0.543   0.408  0.00  0.00    -0.081 A 
ATOM      2  C3  UNL d   1      -1.352   0.170   0.947  0.00  0.00     0.006 A 
ATOM      3  C4  UNL d   1      -2.413  -0.503   1.556  0.00  0.00     0.002 A 
ATOM      4  C5  UNL d   1      -2.412  -1.900   1.643  0.00  0.00    -0.080 A 
ATOM      5  C6  UNL d   1      -3.531  -2.633   2.321  0.00  0.00     0.076 C 
ATOM      6  C7  UNL d   1      -1.344  -2.613   1.089  0.00  0.00     0.002 A 
ATOM      7  C8  UNL d   1      -0.282  -1.941   0.480  0.00  0.00     0.006 A 
ENDROOT
BRANCH   1   8
ATOM      8  C1  UNL d   1       0.903   0.183  -0.191  0.00  0.00     0.054 C 
ATOM      9  C   UNL d   1       0.452   1.372  -1.028  0.00  0.00     0.018 C 
ENDBRANCH   1   8
TORSDOF 1
ENDMDL
