MODEL 1
REMARK minimizedAffinity -2.29409981
REMARK minimizedRMSD -1
REMARK  1 active torsions:
REMARK  status: ('A' for Active; 'I' for Inactive)
REMARK    1  A    between atoms: C1_2  and  C2_3 
ROOT
ATOM      1  C2  UNL d   1       0.754   0.670   0.005  0.00  0.00    -0.081 A 
ATOM      2  C3  UNL d   1       1.294  -0.577   0.342  0.00  0.00     0.006 A 
ATOM      3  C4  UNL d   1       0.458  -1.641   0.690  0.00  0.00     0.002 A 
ATOM      4  C5  UNL d   1      -0.932  -1.477   0.698  0.00  0.00    -0.080 A 
ATOM      5  C6  UNL d   1      -1.842  -2.619   1.040  0.00  0.00     0.076 C 
ATOM      6  C7  UNL d   1      -1.471  -0.226   0.378  0.00  0.00     0.002 A 
ATOM      7  C8  UNL d   1      -0.635   0.837   0.031  0.00  0.00     0.006 A 
ENDROOT
BRANCH   1   8
ATOM      8  C1  UNL d   1       1.651   1.800  -0.433  0.00  0.00     0.054 C 
ATOM      9  C   UNL d   1       1.882   1.771  -1.937  0.00  0.00     0.018 C 
ENDBRANCH   1   8
TORSDOF 1
ENDMDL
