MODEL 1
REMARK minimizedAffinity -0.401057601
REMARK minimizedRMSD -1
REMARK  1 active torsions:
REMARK  status: ('A' for Active; 'I' for Inactive)
REMARK    1  A    between atoms: C1_2  and  C2_3 
ROOT
ATOM      1  C2  UNL d   1      -0.294  -1.396   0.496  0.00  0.00    -0.081 A 
ATOM      2  C3  UNL d   1       1.001  -1.324  -0.034  0.00  0.00     0.006 A 
ATOM      3  C4  UNL d   1       1.430  -0.175  -0.703  0.00  0.00     0.002 A 
ATOM      4  C5  UNL d   1       0.575   0.923  -0.847  0.00  0.00    -0.080 A 
ATOM      5  C6  UNL d   1       1.033   2.174  -1.536  0.00  0.00     0.076 C 
ATOM      6  C7  UNL d   1      -0.724   0.845  -0.333  0.00  0.00     0.002 A 
ATOM      7  C8  UNL d   1      -1.154  -0.304   0.335  0.00  0.00     0.006 A 
ENDROOT
BRANCH   1   8
ATOM      8  C1  UNL d   1      -0.737  -2.608   1.274  0.00  0.00     0.054 C 
ATOM      9  C   UNL d   1      -1.547  -2.212   2.500  0.00  0.00     0.018 C 
ENDBRANCH   1   8
TORSDOF 1
ENDMDL
