MODEL 1
REMARK minimizedAffinity -3.74107599
REMARK minimizedRMSD -1
REMARK  1 active torsions:
REMARK  status: ('A' for Active; 'I' for Inactive)
REMARK    1  A    between atoms: C1_2  and  C2_3 
ROOT
ATOM      1  C2  UNL d   1       1.376   0.508   0.636  0.00  0.00    -0.081 A 
ATOM      2  C3  UNL d   1       2.020  -0.624   1.150  0.00  0.00     0.006 A 
ATOM      3  C4  UNL d   1       1.284  -1.760   1.498  0.00  0.00     0.002 A 
ATOM      4  C5  UNL d   1      -0.105  -1.784   1.330  0.00  0.00    -0.080 A 
ATOM      5  C6  UNL d   1      -0.903  -3.008   1.671  0.00  0.00     0.076 C 
ATOM      6  C7  UNL d   1      -0.750  -0.647   0.833  0.00  0.00     0.002 A 
ATOM      7  C8  UNL d   1      -0.015   0.489   0.486  0.00  0.00     0.006 A 
ENDROOT
BRANCH   1   8
ATOM      8  C1  UNL d   1       2.174   1.711   0.199  0.00  0.00     0.054 C 
ATOM      9  C   UNL d   1       3.305   1.313  -0.738  0.00  0.00     0.018 C 
ENDBRANCH   1   8
TORSDOF 1
ENDMDL
