MODEL 1
REMARK minimizedAffinity -4.22629738
REMARK minimizedRMSD -1
REMARK  1 active torsions:
REMARK  status: ('A' for Active; 'I' for Inactive)
REMARK    1  A    between atoms: C1_2  and  C2_3 
ROOT
ATOM      1  C2  UNL d   1      -1.763  -0.742   1.375  0.00  0.00    -0.081 A 
ATOM      2  C3  UNL d   1      -1.134  -1.984   1.526  0.00  0.00     0.006 A 
ATOM      3  C4  UNL d   1       0.206  -2.147   1.167  0.00  0.00     0.002 A 
ATOM      4  C5  UNL d   1       0.941  -1.071   0.660  0.00  0.00    -0.080 A 
ATOM      5  C6  UNL d   1       2.389  -1.225   0.300  0.00  0.00     0.076 C 
ATOM      6  C7  UNL d   1       0.308   0.166   0.493  0.00  0.00     0.002 A 
ATOM      7  C8  UNL d   1      -1.032   0.330   0.850  0.00  0.00     0.006 A 
ENDROOT
BRANCH   1   8
ATOM      8  C1  UNL d   1      -3.190  -0.546   1.820  0.00  0.00     0.054 C 
ATOM      9  C   UNL d   1      -3.559   0.930   1.860  0.00  0.00     0.018 C 
ENDBRANCH   1   8
TORSDOF 1
ENDMDL
