MODEL 1
REMARK minimizedAffinity -3.65537691
REMARK minimizedRMSD -1
REMARK  1 active torsions:
REMARK  status: ('A' for Active; 'I' for Inactive)
REMARK    1  A    between atoms: C1_2  and  C2_3 
ROOT
ATOM      1  C2  UNL d   1       0.180   0.483  -0.981  0.00  0.00    -0.081 A 
ATOM      2  C3  UNL d   1      -1.063  -0.152  -0.869  0.00  0.00     0.006 A 
ATOM      3  C4  UNL d   1      -1.277  -1.122   0.113  0.00  0.00     0.002 A 
ATOM      4  C5  UNL d   1      -0.255  -1.467   1.005  0.00  0.00    -0.080 A 
ATOM      5  C6  UNL d   1      -0.482  -2.484   2.083  0.00  0.00     0.076 C 
ATOM      6  C7  UNL d   1       0.992  -0.845   0.882  0.00  0.00     0.002 A 
ATOM      7  C8  UNL d   1       1.207   0.124  -0.100  0.00  0.00     0.006 A 
ENDROOT
BRANCH   1   8
ATOM      8  C1  UNL d   1       0.395   1.575  -1.998  0.00  0.00     0.054 C 
ATOM      9  C   UNL d   1       1.705   1.383  -2.748  0.00  0.00     0.018 C 
ENDBRANCH   1   8
TORSDOF 1
ENDMDL
