MODEL 1
REMARK minimizedAffinity -2.23371148
REMARK minimizedRMSD -1
REMARK  0 active torsions:
REMARK  status: ('A' for Active; 'I' for Inactive)
ROOT
ATOM      1  C2' OXE d   1      -0.044  -0.327  -2.664  0.00  0.00     0.078 C 
ATOM      2  C1' OXE d   1       1.253   1.905  -3.768  0.00  0.00     0.078 C 
ATOM      3  C1  OXE d   1      -0.047   2.136  -3.039  0.00  0.00    -0.078 A 
ATOM      4  C2  OXE d   1      -0.698   1.032  -2.543  0.00  0.00    -0.078 A 
ATOM      5  C3  OXE d   1      -1.874   1.195  -1.815  0.00  0.00     0.003 A 
ATOM      6  C4  OXE d   1      -2.478   2.454  -1.717  0.00  0.00    -0.002 A 
ATOM      7  C5  OXE d   1      -1.851   3.586  -2.249  0.00  0.00    -0.002 A 
ATOM      8  C6  OXE d   1      -0.617   3.450  -2.875  0.00  0.00     0.003 A 
ENDROOT
TORSDOF 0
ENDMDL
