MODEL 1
REMARK minimizedAffinity -4.2747736
REMARK minimizedRMSD -1
REMARK  0 active torsions:
REMARK  status: ('A' for Active; 'I' for Inactive)
ROOT
ATOM      1  C2' OXE d   1      -1.549   0.474   1.776  0.00  0.00     0.078 C 
ATOM      2  C1' OXE d   1      -0.861   0.998  -0.895  0.00  0.00     0.078 C 
ATOM      3  C1  OXE d   1      -0.090  -0.075  -0.167  0.00  0.00    -0.078 A 
ATOM      4  C2  OXE d   1      -0.402  -0.293   1.153  0.00  0.00    -0.078 A 
ATOM      5  C3  OXE d   1       0.241  -1.308   1.855  0.00  0.00     0.003 A 
ATOM      6  C4  OXE d   1       1.308  -2.005   1.276  0.00  0.00    -0.002 A 
ATOM      7  C5  OXE d   1       1.668  -1.772  -0.056  0.00  0.00    -0.002 A 
ATOM      8  C6  OXE d   1       0.953  -0.842  -0.803  0.00  0.00     0.003 A 
ENDROOT
TORSDOF 0
ENDMDL
