MODEL 1
REMARK minimizedAffinity -3.92976403
REMARK minimizedRMSD -1
REMARK  0 active torsions:
REMARK  status: ('A' for Active; 'I' for Inactive)
ROOT
ATOM      1  C2' OXE d   1      -0.790   1.633  -2.379  0.00  0.00     0.078 C 
ATOM      2  C1' OXE d   1       0.187  -0.968  -1.979  0.00  0.00     0.078 C 
ATOM      3  C1  OXE d   1      -0.337  -0.221  -0.778  0.00  0.00    -0.078 A 
ATOM      4  C2  OXE d   1      -0.771   1.068  -0.975  0.00  0.00    -0.078 A 
ATOM      5  C3  OXE d   1      -1.315   1.782   0.088  0.00  0.00     0.003 A 
ATOM      6  C4  OXE d   1      -1.284   1.256   1.385  0.00  0.00    -0.002 A 
ATOM      7  C5  OXE d   1      -0.810  -0.040   1.615  0.00  0.00    -0.002 A 
ATOM      8  C6  OXE d   1      -0.374  -0.806   0.539  0.00  0.00     0.003 A 
ENDROOT
TORSDOF 0
ENDMDL
