MODEL 1
REMARK minimizedAffinity -4.5159812
REMARK minimizedRMSD -1
REMARK  0 active torsions:
REMARK  status: ('A' for Active; 'I' for Inactive)
ROOT
ATOM      1  C2' OXE d   1      -0.883   3.207  -2.925  0.00  0.00     0.078 C 
ATOM      2  C1' OXE d   1       1.541   3.717  -1.604  0.00  0.00     0.078 C 
ATOM      3  C1  OXE d   1       0.908   2.361  -1.415  0.00  0.00    -0.078 A 
ATOM      4  C2  OXE d   1      -0.301   2.137  -2.027  0.00  0.00    -0.078 A 
ATOM      5  C3  OXE d   1      -0.901   0.884  -1.930  0.00  0.00     0.003 A 
ATOM      6  C4  OXE d   1      -0.361  -0.097  -1.090  0.00  0.00    -0.002 A 
ATOM      7  C5  OXE d   1       0.849   0.125  -0.425  0.00  0.00    -0.002 A 
ATOM      8  C6  OXE d   1       1.517   1.331  -0.610  0.00  0.00     0.003 A 
ENDROOT
TORSDOF 0
ENDMDL
