MODEL 1
REMARK minimizedAffinity -1.63762927
REMARK minimizedRMSD -1
REMARK  0 active torsions:
REMARK  status: ('A' for Active; 'I' for Inactive)
ROOT
ATOM      1  C2' OXE d   1       0.599  -1.644   2.540  0.00  0.00     0.078 C 
ATOM      2  C1' OXE d   1       2.304  -2.222   0.386  0.00  0.00     0.078 C 
ATOM      3  C1  OXE d   1       1.189  -1.233   0.154  0.00  0.00    -0.078 A 
ATOM      4  C2  OXE d   1       0.332  -0.991   1.201  0.00  0.00    -0.078 A 
ATOM      5  C3  OXE d   1      -0.681  -0.046   1.058  0.00  0.00     0.003 A 
ATOM      6  C4  OXE d   1      -0.928   0.546  -0.187  0.00  0.00    -0.002 A 
ATOM      7  C5  OXE d   1      -0.090   0.283  -1.276  0.00  0.00    -0.002 A 
ATOM      8  C6  OXE d   1       0.996  -0.569  -1.111  0.00  0.00     0.003 A 
ENDROOT
TORSDOF 0
ENDMDL
