MODEL 1
REMARK minimizedAffinity -2.17655778
REMARK minimizedRMSD -1
REMARK  0 active torsions:
REMARK  status: ('A' for Active; 'I' for Inactive)
ROOT
ATOM      1  C2' OXE d   1       0.014  -0.950   1.462  0.00  0.00     0.078 C 
ATOM      2  C1' OXE d   1       0.811  -1.432  -1.186  0.00  0.00     0.078 C 
ATOM      3  C1  OXE d   1       0.145  -0.114  -0.881  0.00  0.00    -0.078 A 
ATOM      4  C2  OXE d   1      -0.284   0.094   0.408  0.00  0.00    -0.078 A 
ATOM      5  C3  OXE d   1      -0.856   1.315   0.755  0.00  0.00     0.003 A 
ATOM      6  C4  OXE d   1      -1.137   2.271  -0.228  0.00  0.00    -0.002 A 
ATOM      7  C5  OXE d   1      -0.745   2.062  -1.554  0.00  0.00    -0.002 A 
ATOM      8  C6  OXE d   1      -0.066   0.896  -1.888  0.00  0.00     0.003 A 
ENDROOT
TORSDOF 0
ENDMDL
