MODEL 1
REMARK minimizedAffinity 2.25180006
REMARK minimizedRMSD -1
REMARK  0 active torsions:
REMARK  status: ('A' for Active; 'I' for Inactive)
ROOT
ATOM      1  C1  BNZ d   1      -3.890   5.242  -5.995  0.00  0.00     0.000 A 
ATOM      2  C2  BNZ d   1      -5.259   5.274  -6.000  0.00  0.00     0.000 A 
ATOM      3  C3  BNZ d   1      -5.986   4.117  -5.980  0.00  0.00     0.000 A 
ATOM      4  C4  BNZ d   1      -5.345   2.930  -5.995  0.00  0.00     0.000 A 
ATOM      5  C5  BNZ d   1      -3.965   2.881  -6.000  0.00  0.00     0.000 A 
ATOM      6  C6  BNZ d   1      -3.236   4.048  -5.980  0.00  0.00     0.000 A 
ENDROOT
TORSDOF 0
ENDMDL
