MODEL 1
REMARK minimizedAffinity 8.44687176
REMARK minimizedRMSD -1
REMARK  0 active torsions:
REMARK  status: ('A' for Active; 'I' for Inactive)
ROOT
ATOM      1  C1  BNZ d   1       3.004  -3.750  -0.748  0.00  0.00     0.000 A 
ATOM      2  C2  BNZ d   1       4.215  -3.765  -1.387  0.00  0.00     0.000 A 
ATOM      3  C3  BNZ d   1       4.646  -4.883  -2.045  0.00  0.00     0.000 A 
ATOM      4  C4  BNZ d   1       3.884  -5.996  -2.030  0.00  0.00     0.000 A 
ATOM      5  C5  BNZ d   1       2.665  -6.000  -1.382  0.00  0.00     0.000 A 
ATOM      6  C6  BNZ d   1       2.217  -4.861  -0.753  0.00  0.00     0.000 A 
ENDROOT
TORSDOF 0
ENDMDL
