MODEL 1
REMARK minimizedAffinity 5.91498089
REMARK minimizedRMSD -1
REMARK  0 active torsions:
REMARK  status: ('A' for Active; 'I' for Inactive)
ROOT
ATOM      1  C1  BNZ d   1       2.474  -3.703  -0.893  0.00  0.00     0.000 A 
ATOM      2  C2  BNZ d   1       3.147  -2.523  -0.724  0.00  0.00     0.000 A 
ATOM      3  C3  BNZ d   1       2.595  -1.339  -1.128  0.00  0.00     0.000 A 
ATOM      4  C4  BNZ d   1       1.391  -1.342  -1.735  0.00  0.00     0.000 A 
ATOM      5  C5  BNZ d   1       0.704  -2.525  -1.921  0.00  0.00     0.000 A 
ATOM      6  C6  BNZ d   1       1.245  -3.710  -1.478  0.00  0.00     0.000 A 
ENDROOT
TORSDOF 0
ENDMDL
