MODEL 1
REMARK minimizedAffinity 4.62465906
REMARK minimizedRMSD -1
REMARK  0 active torsions:
REMARK  status: ('A' for Active; 'I' for Inactive)
ROOT
ATOM      1  C1  BNZ d   1       3.054   1.549   5.995  0.00  0.00     0.000 A 
ATOM      2  C2  BNZ d   1       2.629   0.959   4.834  0.00  0.00     0.000 A 
ATOM      3  C3  BNZ d   1       2.580   1.667   3.666  0.00  0.00     0.000 A 
ATOM      4  C4  BNZ d   1       2.916   2.973   3.668  0.00  0.00     0.000 A 
ATOM      5  C5  BNZ d   1       3.338   3.585   4.832  0.00  0.00     0.000 A 
ATOM      6  C6  BNZ d   1       3.424   2.858   5.998  0.00  0.00     0.000 A 
ENDROOT
TORSDOF 0
ENDMDL
