MODEL 1
REMARK minimizedAffinity 4.14628363
REMARK minimizedRMSD -1
REMARK  0 active torsions:
REMARK  status: ('A' for Active; 'I' for Inactive)
ROOT
ATOM      1  C1  BNZ d   1       1.311  -3.027  -1.000  0.00  0.00     0.000 A 
ATOM      2  C2  BNZ d   1       2.091  -1.901  -1.004  0.00  0.00     0.000 A 
ATOM      3  C3  BNZ d   1       1.941  -0.948  -1.973  0.00  0.00     0.000 A 
ATOM      4  C4  BNZ d   1       1.041  -1.141  -2.958  0.00  0.00     0.000 A 
ATOM      5  C5  BNZ d   1       0.254  -2.276  -2.974  0.00  0.00     0.000 A 
ATOM      6  C6  BNZ d   1       0.381  -3.214  -1.975  0.00  0.00     0.000 A 
ENDROOT
TORSDOF 0
ENDMDL
