MODEL 1
REMARK minimizedAffinity 7.94732761
REMARK minimizedRMSD -1
REMARK  0 active torsions:
REMARK  status: ('A' for Active; 'I' for Inactive)
ROOT
ATOM      1  C1  BNZ d   1       1.732   0.701  -1.773  0.00  0.00     0.000 A 
ATOM      2  C2  BNZ d   1       2.728   1.564  -1.402  0.00  0.00     0.000 A 
ATOM      3  C3  BNZ d   1       3.731   1.158  -0.567  0.00  0.00     0.000 A 
ATOM      4  C4  BNZ d   1       3.714  -0.096  -0.072  0.00  0.00     0.000 A 
ATOM      5  C5  BNZ d   1       2.711  -0.975  -0.429  0.00  0.00     0.000 A 
ATOM      6  C6  BNZ d   1       1.725  -0.575  -1.301  0.00  0.00     0.000 A 
ENDROOT
TORSDOF 0
ENDMDL
