MODEL 1
REMARK minimizedAffinity 4.70288086
REMARK minimizedRMSD -1
REMARK  0 active torsions:
REMARK  status: ('A' for Active; 'I' for Inactive)
ROOT
ATOM      1  C1  BNZ d   1      -0.778   2.994   2.248  0.00  0.00     0.000 A 
ATOM      2  C2  BNZ d   1       0.565   2.962   1.980  0.00  0.00     0.000 A 
ATOM      3  C3  BNZ d   1       1.217   1.772   1.816  0.00  0.00     0.000 A 
ATOM      4  C4  BNZ d   1       0.536   0.617   1.960  0.00  0.00     0.000 A 
ATOM      5  C5  BNZ d   1      -0.816   0.633   2.240  0.00  0.00     0.000 A 
ATOM      6  C6  BNZ d   1      -1.478   1.833   2.365  0.00  0.00     0.000 A 
ENDROOT
TORSDOF 0
ENDMDL
