MODEL 1
REMARK minimizedAffinity -0.0961870551
REMARK minimizedRMSD -1
REMARK  0 active torsions:
REMARK  status: ('A' for Active; 'I' for Inactive)
ROOT
ATOM      1  C1  BNZ d   1       1.916   0.566  -2.325  0.00  0.00     0.000 A 
ATOM      2  C2  BNZ d   1       0.979  -0.391  -2.610  0.00  0.00     0.000 A 
ATOM      3  C3  BNZ d   1       0.826  -1.483  -1.802  0.00  0.00     0.000 A 
ATOM      4  C4  BNZ d   1       1.636  -1.637  -0.734  0.00  0.00     0.000 A 
ATOM      5  C5  BNZ d   1       2.592  -0.685  -0.440  0.00  0.00     0.000 A 
ATOM      6  C6  BNZ d   1       2.717   0.433  -1.233  0.00  0.00     0.000 A 
ENDROOT
TORSDOF 0
ENDMDL
