MODEL 1
REMARK minimizedAffinity 6.58802366
REMARK minimizedRMSD -1
REMARK  0 active torsions:
REMARK  status: ('A' for Active; 'I' for Inactive)
ROOT
ATOM      1  C1  BNZ d   1       3.719   0.944   0.211  0.00  0.00     0.000 A 
ATOM      2  C2  BNZ d   1       4.207   2.178   0.552  0.00  0.00     0.000 A 
ATOM      3  C3  BNZ d   1       3.695   2.863   1.618  0.00  0.00     0.000 A 
ATOM      4  C4  BNZ d   1       2.671   2.332   2.317  0.00  0.00     0.000 A 
ATOM      5  C5  BNZ d   1       2.162   1.094   1.980  0.00  0.00     0.000 A 
ATOM      6  C6  BNZ d   1       2.705   0.390   0.930  0.00  0.00     0.000 A 
ENDROOT
TORSDOF 0
ENDMDL
