MODEL 1
REMARK minimizedAffinity 0.362130731
REMARK minimizedRMSD -1
REMARK  0 active torsions:
REMARK  status: ('A' for Active; 'I' for Inactive)
ROOT
ATOM      1  C1  BNZ d   1       1.507   0.381   4.375  0.00  0.00     0.000 A 
ATOM      2  C2  BNZ d   1       1.446   0.519   3.014  0.00  0.00     0.000 A 
ATOM      3  C3  BNZ d   1       1.999   1.605   2.396  0.00  0.00     0.000 A 
ATOM      4  C4  BNZ d   1       2.577   2.570   3.141  0.00  0.00     0.000 A 
ATOM      5  C5  BNZ d   1       2.638   2.450   4.515  0.00  0.00     0.000 A 
ATOM      6  C6  BNZ d   1       2.114   1.336   5.131  0.00  0.00     0.000 A 
ENDROOT
TORSDOF 0
ENDMDL
