MODEL 1
REMARK minimizedAffinity 0.310648441
REMARK minimizedRMSD -1
REMARK  0 active torsions:
REMARK  status: ('A' for Active; 'I' for Inactive)
ROOT
ATOM      1  C1  BNZ d   1      -1.399  -4.592  -3.621  0.00  0.00     0.000 A 
ATOM      2  C2  BNZ d   1      -2.448  -3.737  -3.831  0.00  0.00     0.000 A 
ATOM      3  C3  BNZ d   1      -2.509  -2.533  -3.187  0.00  0.00     0.000 A 
ATOM      4  C4  BNZ d   1      -1.544  -2.203  -2.305  0.00  0.00     0.000 A 
ATOM      5  C5  BNZ d   1      -0.485  -3.059  -2.074  0.00  0.00     0.000 A 
ATOM      6  C6  BNZ d   1      -0.407  -4.253  -2.754  0.00  0.00     0.000 A 
ENDROOT
TORSDOF 0
ENDMDL
