MODEL 1
REMARK minimizedAffinity 7.12576675
REMARK minimizedRMSD -1
REMARK  0 active torsions:
REMARK  status: ('A' for Active; 'I' for Inactive)
ROOT
ATOM      1  C1  BNZ d   1      -1.520  -4.755  -2.180  0.00  0.00     0.000 A 
ATOM      2  C2  BNZ d   1      -2.679  -4.061  -2.407  0.00  0.00     0.000 A 
ATOM      3  C3  BNZ d   1      -2.676  -2.696  -2.469  0.00  0.00     0.000 A 
ATOM      4  C4  BNZ d   1      -1.524  -2.025  -2.264  0.00  0.00     0.000 A 
ATOM      5  C5  BNZ d   1      -0.349  -2.710  -2.025  0.00  0.00     0.000 A 
ATOM      6  C6  BNZ d   1      -0.349  -4.086  -2.002  0.00  0.00     0.000 A 
ENDROOT
TORSDOF 0
ENDMDL
