MODEL 1
REMARK minimizedAffinity 1.73828399
REMARK minimizedRMSD -1
REMARK  0 active torsions:
REMARK  status: ('A' for Active; 'I' for Inactive)
ROOT
ATOM      1  C1  BNZ d   1       1.624  -2.139  -0.466  0.00  0.00     0.000 A 
ATOM      2  C2  BNZ d   1       0.753  -3.195  -0.434  0.00  0.00     0.000 A 
ATOM      3  C3  BNZ d   1      -0.097  -3.433  -1.478  0.00  0.00     0.000 A 
ATOM      4  C4  BNZ d   1      -0.102  -2.594  -2.534  0.00  0.00     0.000 A 
ATOM      5  C5  BNZ d   1       0.764  -1.520  -2.577  0.00  0.00     0.000 A 
ATOM      6  C6  BNZ d   1       1.645  -1.305  -1.541  0.00  0.00     0.000 A 
ENDROOT
TORSDOF 0
ENDMDL
