MODEL 1
REMARK minimizedAffinity 10.4893637
REMARK minimizedRMSD -1
REMARK  0 active torsions:
REMARK  status: ('A' for Active; 'I' for Inactive)
ROOT
ATOM      1  C1  BNZ d   1       3.693   2.210  -0.210  0.00  0.00     0.000 A 
ATOM      2  C2  BNZ d   1       3.246   2.906   0.881  0.00  0.00     0.000 A 
ATOM      3  C3  BNZ d   1       2.279   2.385   1.695  0.00  0.00     0.000 A 
ATOM      4  C4  BNZ d   1       1.733   1.190   1.395  0.00  0.00     0.000 A 
ATOM      5  C5  BNZ d   1       2.166   0.480   0.293  0.00  0.00     0.000 A 
ATOM      6  C6  BNZ d   1       3.167   0.990  -0.502  0.00  0.00     0.000 A 
ENDROOT
TORSDOF 0
ENDMDL
