MODEL 1
REMARK minimizedAffinity 12.3923159
REMARK minimizedRMSD -1
REMARK  0 active torsions:
REMARK  status: ('A' for Active; 'I' for Inactive)
ROOT
ATOM      1  C1  BNZ d   1       1.367   2.277  -3.130  0.00  0.00     0.000 A 
ATOM      2  C2  BNZ d   1       2.221   2.342  -2.062  0.00  0.00     0.000 A 
ATOM      3  C3  BNZ d   1       2.671   1.203  -1.455  0.00  0.00     0.000 A 
ATOM      4  C4  BNZ d   1       2.235   0.003  -1.890  0.00  0.00     0.000 A 
ATOM      5  C5  BNZ d   1       1.366  -0.078  -2.961  0.00  0.00     0.000 A 
ATOM      6  C6  BNZ d   1       0.946   1.069  -3.594  0.00  0.00     0.000 A 
ENDROOT
TORSDOF 0
ENDMDL
