MODEL 1
REMARK minimizedAffinity -2.09475636
REMARK minimizedRMSD -1
REMARK  0 active torsions:
REMARK  status: ('A' for Active; 'I' for Inactive)
ROOT
ATOM      1  C2' OXE d   1       2.105  -3.980   0.159  0.00  0.00     0.078 C 
ATOM      2  C1' OXE d   1      -0.671  -3.841  -0.228  0.00  0.00     0.078 C 
ATOM      3  C1  OXE d   1       0.037  -2.594   0.241  0.00  0.00    -0.078 A 
ATOM      4  C2  OXE d   1       1.388  -2.684   0.472  0.00  0.00    -0.078 A 
ATOM      5  C3  OXE d   1       2.100  -1.550   0.853  0.00  0.00     0.003 A 
ATOM      6  C4  OXE d   1       1.427  -0.358   1.150  0.00  0.00    -0.002 A 
ATOM      7  C5  OXE d   1       0.045  -0.256   0.959  0.00  0.00    -0.002 A 
ATOM      8  C6  OXE d   1      -0.657  -1.350   0.465  0.00  0.00     0.003 A 
ENDROOT
TORSDOF 0
ENDMDL
