MODEL 1
REMARK minimizedAffinity -2.62170815
REMARK minimizedRMSD -1
REMARK  0 active torsions:
REMARK  status: ('A' for Active; 'I' for Inactive)
ROOT
ATOM      1  C2' OXE d   1       2.412  -3.876  -0.221  0.00  0.00     0.078 C 
ATOM      2  C1' OXE d   1       3.483  -1.285  -0.083  0.00  0.00     0.078 C 
ATOM      3  C1  OXE d   1       2.034  -1.468   0.295  0.00  0.00    -0.078 A 
ATOM      4  C2  OXE d   1       1.506  -2.732   0.179  0.00  0.00    -0.078 A 
ATOM      5  C3  OXE d   1       0.190  -2.967   0.567  0.00  0.00     0.003 A 
ATOM      6  C4  OXE d   1      -0.644  -1.901   0.927  0.00  0.00    -0.002 A 
ATOM      7  C5  OXE d   1      -0.137  -0.600   1.013  0.00  0.00    -0.002 A 
ATOM      8  C6  OXE d   1       1.208  -0.374   0.742  0.00  0.00     0.003 A 
ENDROOT
TORSDOF 0
ENDMDL
