MODEL 1
REMARK minimizedAffinity -5.71704769
REMARK minimizedRMSD -1
REMARK  0 active torsions:
REMARK  status: ('A' for Active; 'I' for Inactive)
ROOT
ATOM      1  C2' OXE d   1       2.658  -4.190   0.116  0.00  0.00     0.078 C 
ATOM      2  C1' OXE d   1       3.846  -1.681   0.530  0.00  0.00     0.078 C 
ATOM      3  C1  OXE d   1       2.340  -1.750   0.502  0.00  0.00    -0.078 A 
ATOM      4  C2  OXE d   1       1.768  -2.974   0.252  0.00  0.00    -0.078 A 
ATOM      5  C3  OXE d   1       0.382  -3.103   0.269  0.00  0.00     0.003 A 
ATOM      6  C4  OXE d   1      -0.435  -1.972   0.386  0.00  0.00    -0.002 A 
ATOM      7  C5  OXE d   1       0.129  -0.709   0.602  0.00  0.00    -0.002 A 
ATOM      8  C6  OXE d   1       1.510  -0.588   0.704  0.00  0.00     0.003 A 
ENDROOT
TORSDOF 0
ENDMDL
