MODEL 1
REMARK minimizedAffinity 9.12556267
REMARK minimizedRMSD -1
REMARK  0 active torsions:
REMARK  status: ('A' for Active; 'I' for Inactive)
ROOT
ATOM      1  C2' OXE d   1       0.755  -0.437   2.971  0.00  0.00     0.078 C 
ATOM      2  C1' OXE d   1       2.921   0.010   1.243  0.00  0.00     0.078 C 
ATOM      3  C1  OXE d   1       1.641  -0.518   0.645  0.00  0.00    -0.078 A 
ATOM      4  C2  OXE d   1       0.602  -0.778   1.505  0.00  0.00    -0.078 A 
ATOM      5  C3  OXE d   1      -0.619  -1.215   0.998  0.00  0.00     0.003 A 
ATOM      6  C4  OXE d   1      -0.749  -1.538  -0.358  0.00  0.00    -0.002 A 
ATOM      7  C5  OXE d   1       0.310  -1.318  -1.245  0.00  0.00    -0.002 A 
ATOM      8  C6  OXE d   1       1.496  -0.770  -0.768  0.00  0.00     0.003 A 
ENDROOT
TORSDOF 0
ENDMDL
