MODEL 1
REMARK minimizedAffinity -1.7834698
REMARK minimizedRMSD -1
REMARK  0 active torsions:
REMARK  status: ('A' for Active; 'I' for Inactive)
ROOT
ATOM      1  C2' OXE d   1      -0.763  -1.021   0.627  0.00  0.00     0.078 C 
ATOM      2  C1' OXE d   1       1.806   0.076   0.898  0.00  0.00     0.078 C 
ATOM      3  C1  OXE d   1       1.699  -1.384   0.538  0.00  0.00    -0.078 A 
ATOM      4  C2  OXE d   1       0.439  -1.924   0.453  0.00  0.00    -0.078 A 
ATOM      5  C3  OXE d   1       0.282  -3.253   0.070  0.00  0.00     0.003 A 
ATOM      6  C4  OXE d   1       1.399  -4.084  -0.079  0.00  0.00    -0.002 A 
ATOM      7  C5  OXE d   1       2.692  -3.564   0.041  0.00  0.00    -0.002 A 
ATOM      8  C6  OXE d   1       2.859  -2.209   0.307  0.00  0.00     0.003 A 
ENDROOT
TORSDOF 0
ENDMDL
