MODEL 1
REMARK minimizedAffinity 0.201865941
REMARK minimizedRMSD -1
REMARK  0 active torsions:
REMARK  status: ('A' for Active; 'I' for Inactive)
ROOT
ATOM      1  C2' OXE d   1       1.862  -3.781  -0.130  0.00  0.00     0.078 C 
ATOM      2  C1' OXE d   1       2.871  -1.166  -0.271  0.00  0.00     0.078 C 
ATOM      3  C1  OXE d   1       1.500  -1.359   0.326  0.00  0.00    -0.078 A 
ATOM      4  C2  OXE d   1       0.995  -2.637   0.348  0.00  0.00    -0.078 A 
ATOM      5  C3  OXE d   1      -0.243  -2.879   0.937  0.00  0.00     0.003 A 
ATOM      6  C4  OXE d   1      -1.043  -1.814   1.368  0.00  0.00    -0.002 A 
ATOM      7  C5  OXE d   1      -0.564  -0.500   1.318  0.00  0.00    -0.002 A 
ATOM      8  C6  OXE d   1       0.719  -0.261   0.840  0.00  0.00     0.003 A 
ENDROOT
TORSDOF 0
ENDMDL
