MODEL 1
REMARK minimizedAffinity 1.69693112
REMARK minimizedRMSD -1
REMARK  0 active torsions:
REMARK  status: ('A' for Active; 'I' for Inactive)
ROOT
ATOM      1  C2' OXE d   1       1.178  -3.067   0.411  0.00  0.00     0.078 C 
ATOM      2  C1' OXE d   1       2.364  -0.688   1.313  0.00  0.00     0.078 C 
ATOM      3  C1  OXE d   1       0.858  -0.759   1.292  0.00  0.00    -0.078 A 
ATOM      4  C2  OXE d   1       0.286  -1.910   0.805  0.00  0.00    -0.078 A 
ATOM      5  C3  OXE d   1      -1.099  -2.048   0.814  0.00  0.00     0.003 A 
ATOM      6  C4  OXE d   1      -1.917  -0.969   1.171  0.00  0.00    -0.002 A 
ATOM      7  C5  OXE d   1      -1.355   0.226   1.632  0.00  0.00    -0.002 A 
ATOM      8  C6  OXE d   1       0.027   0.332   1.738  0.00  0.00     0.003 A 
ENDROOT
TORSDOF 0
ENDMDL
