MODEL 1
REMARK minimizedAffinity -1.34810662
REMARK minimizedRMSD -1
REMARK  0 active torsions:
REMARK  status: ('A' for Active; 'I' for Inactive)
ROOT
ATOM      1  C2' OXE d   1       3.091  -0.541  -0.314  0.00  0.00     0.078 C 
ATOM      2  C1' OXE d   1       2.443   1.128   1.848  0.00  0.00     0.078 C 
ATOM      3  C1  OXE d   1       1.382   0.180   1.349  0.00  0.00    -0.078 A 
ATOM      4  C2  OXE d   1       1.692  -0.600   0.261  0.00  0.00    -0.078 A 
ATOM      5  C3  OXE d   1       0.768  -1.532  -0.205  0.00  0.00     0.003 A 
ATOM      6  C4  OXE d   1      -0.526  -1.573   0.326  0.00  0.00    -0.002 A 
ATOM      7  C5  OXE d   1      -0.876  -0.759   1.409  0.00  0.00    -0.002 A 
ATOM      8  C6  OXE d   1       0.077   0.091   1.958  0.00  0.00     0.003 A 
ENDROOT
TORSDOF 0
ENDMDL
