MODEL 1
REMARK minimizedAffinity -3.37566471
REMARK minimizedRMSD -1
REMARK  0 active torsions:
REMARK  status: ('A' for Active; 'I' for Inactive)
ROOT
ATOM      1  C2' OXE d   1       2.176  -0.066   0.669  0.00  0.00     0.078 C 
ATOM      2  C1' OXE d   1      -0.401  -1.138   0.968  0.00  0.00     0.078 C 
ATOM      3  C1  OXE d   1       0.710  -2.077   0.567  0.00  0.00    -0.078 A 
ATOM      4  C2  OXE d   1       1.958  -1.535   0.378  0.00  0.00    -0.078 A 
ATOM      5  C3  OXE d   1       3.029  -2.366   0.061  0.00  0.00     0.003 A 
ATOM      6  C4  OXE d   1       2.817  -3.721  -0.217  0.00  0.00    -0.002 A 
ATOM      7  C5  OXE d   1       1.545  -4.286  -0.068  0.00  0.00    -0.002 A 
ATOM      8  C6  OXE d   1       0.492  -3.487   0.364  0.00  0.00     0.003 A 
ENDROOT
TORSDOF 0
ENDMDL
