MODEL 1
REMARK minimizedAffinity 3.12451649
REMARK minimizedRMSD -1
REMARK  0 active torsions:
REMARK  status: ('A' for Active; 'I' for Inactive)
ROOT
ATOM      1  C2' OXE d   1       2.418   1.520  -3.973  0.00  0.00     0.078 C 
ATOM      2  C1' OXE d   1       3.509   0.550  -1.575  0.00  0.00     0.078 C 
ATOM      3  C1  OXE d   1       3.656   2.022  -1.870  0.00  0.00    -0.078 A 
ATOM      4  C2  OXE d   1       3.160   2.479  -3.068  0.00  0.00    -0.078 A 
ATOM      5  C3  OXE d   1       3.221   3.837  -3.365  0.00  0.00     0.003 A 
ATOM      6  C4  OXE d   1       3.918   4.716  -2.527  0.00  0.00    -0.002 A 
ATOM      7  C5  OXE d   1       4.466   4.263  -1.322  0.00  0.00    -0.002 A 
ATOM      8  C6  OXE d   1       4.307   2.931  -0.959  0.00  0.00     0.003 A 
ENDROOT
TORSDOF 0
ENDMDL
