MODEL 1
REMARK minimizedAffinity -4.16236496
REMARK minimizedRMSD -1
REMARK  0 active torsions:
REMARK  status: ('A' for Active; 'I' for Inactive)
ROOT
ATOM      1  C2' OXE d   1       2.150  -3.445  -0.519  0.00  0.00     0.078 C 
ATOM      2  C1' OXE d   1       3.122  -0.821  -0.299  0.00  0.00     0.078 C 
ATOM      3  C1  OXE d   1       1.758  -1.117   0.274  0.00  0.00    -0.078 A 
ATOM      4  C2  OXE d   1       1.271  -2.392   0.120  0.00  0.00    -0.078 A 
ATOM      5  C3  OXE d   1       0.042  -2.733   0.678  0.00  0.00     0.003 A 
ATOM      6  C4  OXE d   1      -0.769  -1.751   1.259  0.00  0.00    -0.002 A 
ATOM      7  C5  OXE d   1      -0.309  -0.436   1.390  0.00  0.00    -0.002 A 
ATOM      8  C6  OXE d   1       0.967  -0.113   0.942  0.00  0.00     0.003 A 
ENDROOT
TORSDOF 0
ENDMDL
