MODEL 1
REMARK minimizedAffinity -0.332607001
REMARK minimizedRMSD -1
REMARK  0 active torsions:
REMARK  status: ('A' for Active; 'I' for Inactive)
ROOT
ATOM      1  C2' OXE d   1       3.605  -1.814   0.328  0.00  0.00     0.078 C 
ATOM      2  C1' OXE d   1       1.375  -3.417  -0.253  0.00  0.00     0.078 C 
ATOM      3  C1  OXE d   1       1.124  -2.009   0.225  0.00  0.00    -0.078 A 
ATOM      4  C2  OXE d   1       2.220  -1.247   0.552  0.00  0.00    -0.078 A 
ATOM      5  C3  OXE d   1       2.047   0.076   0.947  0.00  0.00     0.003 A 
ATOM      6  C4  OXE d   1       0.762   0.590   1.161  0.00  0.00    -0.002 A 
ATOM      7  C5  OXE d   1      -0.369  -0.182   0.873  0.00  0.00    -0.002 A 
ATOM      8  C6  OXE d   1      -0.205  -1.466   0.364  0.00  0.00     0.003 A 
ENDROOT
TORSDOF 0
ENDMDL
