MODEL 1
REMARK minimizedAffinity -4.07958174
REMARK minimizedRMSD -1
REMARK  0 active torsions:
REMARK  status: ('A' for Active; 'I' for Inactive)
ROOT
ATOM      1  C2' OXE d   1      -0.390  -0.722   1.104  0.00  0.00     0.078 C 
ATOM      2  C1' OXE d   1       2.226   0.217   1.497  0.00  0.00     0.078 C 
ATOM      3  C1  OXE d   1       2.055  -1.163   0.913  0.00  0.00    -0.078 A 
ATOM      4  C2  OXE d   1       0.772  -1.632   0.767  0.00  0.00    -0.078 A 
ATOM      5  C3  OXE d   1       0.556  -2.877   0.182  0.00  0.00     0.003 A 
ATOM      6  C4  OXE d   1       1.635  -3.716  -0.118  0.00  0.00    -0.002 A 
ATOM      7  C5  OXE d   1       2.950  -3.273   0.060  0.00  0.00    -0.002 A 
ATOM      8  C6  OXE d   1       3.177  -1.985   0.533  0.00  0.00     0.003 A 
ENDROOT
TORSDOF 0
ENDMDL
