MODEL 1
REMARK minimizedAffinity -2.70899892
REMARK minimizedRMSD -1
REMARK  0 active torsions:
REMARK  status: ('A' for Active; 'I' for Inactive)
ROOT
ATOM      1  C2' OXE d   1       1.647  -3.370  -0.202  0.00  0.00     0.078 C 
ATOM      2  C1' OXE d   1       2.608  -0.813   0.444  0.00  0.00     0.078 C 
ATOM      3  C1  OXE d   1       1.132  -1.073   0.613  0.00  0.00    -0.078 A 
ATOM      4  C2  OXE d   1       0.663  -2.313   0.251  0.00  0.00    -0.078 A 
ATOM      5  C3  OXE d   1      -0.681  -2.624   0.438  0.00  0.00     0.003 A 
ATOM      6  C4  OXE d   1      -1.586  -1.637   0.847  0.00  0.00    -0.002 A 
ATOM      7  C5  OXE d   1      -1.136  -0.356   1.184  0.00  0.00    -0.002 A 
ATOM      8  C6  OXE d   1       0.224  -0.071   1.113  0.00  0.00     0.003 A 
ENDROOT
TORSDOF 0
ENDMDL
