MODEL 1
REMARK minimizedAffinity -4.43090725
REMARK minimizedRMSD -1
REMARK  0 active torsions:
REMARK  status: ('A' for Active; 'I' for Inactive)
ROOT
ATOM      1  C2' OXE d   1       3.128  -3.106   0.096  0.00  0.00     0.078 C 
ATOM      2  C1' OXE d   1       0.501  -4.004  -0.321  0.00  0.00     0.078 C 
ATOM      3  C1  OXE d   1       0.690  -2.610   0.222  0.00  0.00    -0.078 A 
ATOM      4  C2  OXE d   1       1.977  -2.196   0.467  0.00  0.00    -0.078 A 
ATOM      5  C3  OXE d   1       2.211  -0.899   0.918  0.00  0.00     0.003 A 
ATOM      6  C4  OXE d   1       1.141  -0.067   1.268  0.00  0.00    -0.002 A 
ATOM      7  C5  OXE d   1      -0.179  -0.484   1.064  0.00  0.00    -0.002 A 
ATOM      8  C6  OXE d   1      -0.420  -1.733   0.503  0.00  0.00     0.003 A 
ENDROOT
TORSDOF 0
ENDMDL
