MODEL 1
REMARK minimizedAffinity -6.28361273
REMARK minimizedRMSD -1
REMARK  0 active torsions:
REMARK  status: ('A' for Active; 'I' for Inactive)
ROOT
ATOM      1  C2' OXE d   1       3.793  -1.778   0.491  0.00  0.00     0.078 C 
ATOM      2  C1' OXE d   1       2.355  -4.178   0.262  0.00  0.00     0.078 C 
ATOM      3  C1  OXE d   1       1.570  -2.897   0.389  0.00  0.00    -0.078 A 
ATOM      4  C2  OXE d   1       2.282  -1.732   0.548  0.00  0.00    -0.078 A 
ATOM      5  C3  OXE d   1       1.608  -0.516   0.614  0.00  0.00     0.003 A 
ATOM      6  C4  OXE d   1       0.210  -0.483   0.676  0.00  0.00    -0.002 A 
ATOM      7  C5  OXE d   1      -0.535  -1.661   0.556  0.00  0.00    -0.002 A 
ATOM      8  C6  OXE d   1       0.128  -2.869   0.369  0.00  0.00     0.003 A 
ENDROOT
TORSDOF 0
ENDMDL
