MODEL 1
REMARK minimizedAffinity 7.72369051
REMARK minimizedRMSD -1
REMARK  0 active torsions:
REMARK  status: ('A' for Active; 'I' for Inactive)
ROOT
ATOM      1  C2' OXE d   1      -4.116  -5.998   5.930  0.00  0.00     0.078 C 
ATOM      2  C1' OXE d   1      -4.647  -3.241   5.967  0.00  0.00     0.078 C 
ATOM      3  C1  OXE d   1      -4.692  -3.948   4.636  0.00  0.00    -0.078 A 
ATOM      4  C2  OXE d   1      -4.386  -5.288   4.621  0.00  0.00    -0.078 A 
ATOM      5  C3  OXE d   1      -4.466  -6.000   3.427  0.00  0.00     0.003 A 
ATOM      6  C4  OXE d   1      -4.706  -5.334   2.219  0.00  0.00    -0.002 A 
ATOM      7  C5  OXE d   1      -4.982  -3.963   2.207  0.00  0.00    -0.002 A 
ATOM      8  C6  OXE d   1      -5.021  -3.265   3.409  0.00  0.00     0.003 A 
ENDROOT
TORSDOF 0
ENDMDL
