MODEL 1
REMARK minimizedAffinity -5.90582705
REMARK minimizedRMSD -1
REMARK  1 active torsions:
REMARK  status: ('A' for Active; 'I' for Inactive)
REMARK    1  A    between atoms: N_2  and  C1_3 
ROOT
ATOM      1  C1  UNL d   1       2.866  -0.831  -1.030  0.00  0.00     0.143 A 
ATOM      2  C2  UNL d   1       1.995  -1.779  -0.480  0.00  0.00    -0.057 A 
ATOM      3  C3  UNL d   1       0.864  -1.389   0.247  0.00  0.00     0.033 A 
ATOM      4  C4  UNL d   1       0.598  -0.041   0.463  0.00  0.00    -0.042 A 
ATOM      5  C5  UNL d   1       1.464   0.917  -0.053  0.00  0.00     0.033 A 
ATOM      6  C6  UNL d   1       2.588   0.522  -0.784  0.00  0.00    -0.057 A 
ENDROOT
BRANCH   1   7
ATOM      7  N   UNL d   1       4.060  -1.156  -1.678  0.00  0.00    -0.732 N 
ATOM      8  C   UNL d   1       4.825  -0.139  -2.367  0.00  0.00     0.284 C 
ATOM      9  H3  UNL d   1       4.626  -1.812  -1.144  0.00  0.00     0.395 HD
ENDBRANCH   1   7
TORSDOF 1
ENDMDL
