MODEL 1
REMARK minimizedAffinity -0.491423547
REMARK minimizedRMSD -1
REMARK  1 active torsions:
REMARK  status: ('A' for Active; 'I' for Inactive)
REMARK    1  A    between atoms: N_2  and  C1_3 
ROOT
ATOM      1  C1  UNL d   1       3.043  -0.625  -1.025  0.00  0.00     0.143 A 
ATOM      2  C2  UNL d   1       2.258  -1.410  -0.173  0.00  0.00    -0.057 A 
ATOM      3  C3  UNL d   1       1.172  -0.864   0.521  0.00  0.00     0.033 A 
ATOM      4  C4  UNL d   1       0.869   0.488   0.399  0.00  0.00    -0.042 A 
ATOM      5  C5  UNL d   1       1.650   1.293  -0.423  0.00  0.00     0.033 A 
ATOM      6  C6  UNL d   1       2.730   0.740  -1.119  0.00  0.00    -0.057 A 
ENDROOT
BRANCH   1   7
ATOM      7  N   UNL d   1       4.196  -1.086  -1.666  0.00  0.00    -0.732 N 
ATOM      8  C   UNL d   1       4.789  -0.331  -2.749  0.00  0.00     0.284 C 
ATOM      9  H3  UNL d   1       4.871  -1.480  -1.015  0.00  0.00     0.395 HD
ENDBRANCH   1   7
TORSDOF 1
ENDMDL
