MODEL 1
REMARK minimizedAffinity 4.01085949
REMARK minimizedRMSD -1
REMARK  1 active torsions:
REMARK  status: ('A' for Active; 'I' for Inactive)
REMARK    1  A    between atoms: N_2  and  C1_3 
ROOT
ATOM      1  C1  UNL d   1       0.104  -0.688   1.056  0.00  0.00     0.143 A 
ATOM      2  C2  UNL d   1       0.353   0.532   1.692  0.00  0.00    -0.057 A 
ATOM      3  C3  UNL d   1       1.334   1.412   1.218  0.00  0.00     0.033 A 
ATOM      4  C4  UNL d   1       2.105   1.072   0.111  0.00  0.00    -0.042 A 
ATOM      5  C5  UNL d   1       1.892  -0.148  -0.522  0.00  0.00     0.033 A 
ATOM      6  C6  UNL d   1       0.907  -1.019  -0.047  0.00  0.00    -0.057 A 
ENDROOT
BRANCH   1   7
ATOM      7  N   UNL d   1      -0.789  -1.649   1.538  0.00  0.00    -0.732 N 
ATOM      8  C   UNL d   1      -2.218  -1.448   1.427  0.00  0.00     0.284 C 
ATOM      9  H3  UNL d   1      -0.485  -2.598   1.334  0.00  0.00     0.395 HD
ENDBRANCH   1   7
TORSDOF 1
ENDMDL
