MODEL 1
REMARK minimizedAffinity 3.34975171
REMARK minimizedRMSD -1
REMARK  1 active torsions:
REMARK  status: ('A' for Active; 'I' for Inactive)
REMARK    1  A    between atoms: N_2  and  C1_3 
ROOT
ATOM      1  C1  UNL d   1       1.298   0.438   1.148  0.00  0.00     0.143 A 
ATOM      2  C2  UNL d   1       1.790   1.291   0.154  0.00  0.00    -0.057 A 
ATOM      3  C3  UNL d   1       2.127   0.807  -1.116  0.00  0.00     0.033 A 
ATOM      4  C4  UNL d   1       2.005  -0.548  -1.405  0.00  0.00    -0.042 A 
ATOM      5  C5  UNL d   1       1.541  -1.418  -0.425  0.00  0.00     0.033 A 
ATOM      6  C6  UNL d   1       1.200  -0.928   0.840  0.00  0.00    -0.057 A 
ENDROOT
BRANCH   1   7
ATOM      7  N   UNL d   1       1.039   0.842   2.461  0.00  0.00    -0.732 N 
ATOM      8  C   UNL d   1       2.125   1.169   3.359  0.00  0.00     0.284 C 
ATOM      9  H3  UNL d   1       0.243   1.473   2.523  0.00  0.00     0.395 HD
ENDBRANCH   1   7
TORSDOF 1
ENDMDL
