MODEL 1
REMARK minimizedAffinity 4.4051137
REMARK minimizedRMSD -1
REMARK  1 active torsions:
REMARK  status: ('A' for Active; 'I' for Inactive)
REMARK    1  A    between atoms: N_2  and  C1_3 
ROOT
ATOM      1  C1  UNL d   1      -0.842   4.690  -2.530  0.00  0.00     0.143 A 
ATOM      2  C2  UNL d   1      -2.045   4.116  -2.955  0.00  0.00    -0.057 A 
ATOM      3  C3  UNL d   1      -2.059   2.944  -3.721  0.00  0.00     0.033 A 
ATOM      4  C4  UNL d   1      -0.865   2.340  -4.102  0.00  0.00    -0.042 A 
ATOM      5  C5  UNL d   1       0.343   2.907  -3.712  0.00  0.00     0.033 A 
ATOM      6  C6  UNL d   1       0.350   4.074  -2.941  0.00  0.00    -0.057 A 
ENDROOT
BRANCH   1   7
ATOM      7  N   UNL d   1      -0.760   5.908  -1.851  0.00  0.00    -0.732 N 
ATOM      8  C   UNL d   1      -1.131   6.000  -0.455  0.00  0.00     0.284 C 
ATOM      9  H3  UNL d   1       0.078   6.432  -2.093  0.00  0.00     0.395 HD
ENDBRANCH   1   7
TORSDOF 1
ENDMDL
