MODEL 1
REMARK minimizedAffinity -0.138904065
REMARK minimizedRMSD -1
REMARK  1 active torsions:
REMARK  status: ('A' for Active; 'I' for Inactive)
REMARK    1  A    between atoms: N_2  and  C1_3 
ROOT
ATOM      1  C1  UNL d   1       3.141  -0.602  -0.933  0.00  0.00     0.143 A 
ATOM      2  C2  UNL d   1       2.146  -1.280  -0.221  0.00  0.00    -0.057 A 
ATOM      3  C3  UNL d   1       1.121  -0.587   0.433  0.00  0.00     0.033 A 
ATOM      4  C4  UNL d   1       1.089   0.803   0.412  0.00  0.00    -0.042 A 
ATOM      5  C5  UNL d   1       2.082   1.500  -0.269  0.00  0.00     0.033 A 
ATOM      6  C6  UNL d   1       3.099   0.801  -0.926  0.00  0.00    -0.057 A 
ENDROOT
BRANCH   1   7
ATOM      7  N   UNL d   1       4.242  -1.230  -1.522  0.00  0.00    -0.732 N 
ATOM      8  C   UNL d   1       5.129  -0.494  -2.397  0.00  0.00     0.284 C 
ATOM      9  H3  UNL d   1       4.719  -1.859  -0.880  0.00  0.00     0.395 HD
ENDBRANCH   1   7
TORSDOF 1
ENDMDL
