MODEL 1
REMARK minimizedAffinity -4.57477713
REMARK minimizedRMSD -1
REMARK  1 active torsions:
REMARK  status: ('A' for Active; 'I' for Inactive)
REMARK    1  A    between atoms: N_2  and  C1_3 
ROOT
ATOM      1  C1  UNL d   1       3.173  -0.848  -1.268  0.00  0.00     0.143 A 
ATOM      2  C2  UNL d   1       2.562  -1.781  -0.423  0.00  0.00    -0.057 A 
ATOM      3  C3  UNL d   1       1.426  -1.449   0.324  0.00  0.00     0.033 A 
ATOM      4  C4  UNL d   1       0.895  -0.165   0.261  0.00  0.00    -0.042 A 
ATOM      5  C5  UNL d   1       1.500   0.786  -0.553  0.00  0.00     0.033 A 
ATOM      6  C6  UNL d   1       2.631   0.446  -1.302  0.00  0.00    -0.057 A 
ENDROOT
BRANCH   1   7
ATOM      7  N   UNL d   1       4.362  -1.088  -1.961  0.00  0.00    -0.732 N 
ATOM      8  C   UNL d   1       5.010  -0.027  -2.702  0.00  0.00     0.284 C 
ATOM      9  H3  UNL d   1       5.003  -1.682  -1.439  0.00  0.00     0.395 HD
ENDBRANCH   1   7
TORSDOF 1
ENDMDL
