MODEL 1
REMARK minimizedAffinity -3.05930257
REMARK minimizedRMSD -1
REMARK  1 active torsions:
REMARK  status: ('A' for Active; 'I' for Inactive)
REMARK    1  A    between atoms: N_2  and  C1_3 
ROOT
ATOM      1  C1  UNL d   1       2.947  -0.918  -0.718  0.00  0.00     0.143 A 
ATOM      2  C2  UNL d   1       2.427  -1.636   0.364  0.00  0.00    -0.057 A 
ATOM      3  C3  UNL d   1       1.333  -1.157   1.095  0.00  0.00     0.033 A 
ATOM      4  C4  UNL d   1       0.757   0.068   0.775  0.00  0.00    -0.042 A 
ATOM      5  C5  UNL d   1       1.274   0.811  -0.281  0.00  0.00     0.033 A 
ATOM      6  C6  UNL d   1       2.361   0.323  -1.012  0.00  0.00    -0.057 A 
ENDROOT
BRANCH   1   7
ATOM      7  N   UNL d   1       4.093  -1.294  -1.423  0.00  0.00    -0.732 N 
ATOM      8  C   UNL d   1       4.809  -0.332  -2.233  0.00  0.00     0.284 C 
ATOM      9  H3  UNL d   1       4.694  -1.913  -0.884  0.00  0.00     0.395 HD
ENDBRANCH   1   7
TORSDOF 1
ENDMDL
