MODEL 1
REMARK minimizedAffinity -1.6214956
REMARK minimizedRMSD -1
REMARK  1 active torsions:
REMARK  status: ('A' for Active; 'I' for Inactive)
REMARK    1  A    between atoms: N_2  and  C1_3 
ROOT
ATOM      1  C1  UNL d   1       3.055  -0.967  -0.300  0.00  0.00     0.143 A 
ATOM      2  C2  UNL d   1       2.728   0.387  -0.429  0.00  0.00    -0.057 A 
ATOM      3  C3  UNL d   1       1.507   0.887   0.039  0.00  0.00     0.033 A 
ATOM      4  C4  UNL d   1       0.575   0.033   0.620  0.00  0.00    -0.042 A 
ATOM      5  C5  UNL d   1       0.868  -1.321   0.736  0.00  0.00     0.033 A 
ATOM      6  C6  UNL d   1       2.092  -1.813   0.273  0.00  0.00    -0.057 A 
ENDROOT
BRANCH   1   7
ATOM      7  N   UNL d   1       4.211  -1.543  -0.833  0.00  0.00    -0.732 N 
ATOM      8  C   UNL d   1       5.119  -0.758  -1.642  0.00  0.00     0.284 C 
ATOM      9  H3  UNL d   1       4.673  -2.167  -0.176  0.00  0.00     0.395 HD
ENDBRANCH   1   7
TORSDOF 1
ENDMDL
