MODEL 1
REMARK minimizedAffinity 5.19285154
REMARK minimizedRMSD -1
REMARK  1 active torsions:
REMARK  status: ('A' for Active; 'I' for Inactive)
REMARK    1  A    between atoms: N_2  and  C1_3 
ROOT
ATOM      1  C1  UNL d   1       1.949  -0.038   1.941  0.00  0.00     0.143 A 
ATOM      2  C2  UNL d   1       3.119  -0.686   1.529  0.00  0.00    -0.057 A 
ATOM      3  C3  UNL d   1       3.134  -1.504   0.393  0.00  0.00     0.033 A 
ATOM      4  C4  UNL d   1       1.969  -1.713  -0.337  0.00  0.00    -0.042 A 
ATOM      5  C5  UNL d   1       0.789  -1.099   0.068  0.00  0.00     0.033 A 
ATOM      6  C6  UNL d   1       0.781  -0.278   1.200  0.00  0.00    -0.057 A 
ENDROOT
BRANCH   1   7
ATOM      7  N   UNL d   1       1.846   0.708   3.117  0.00  0.00    -0.732 N 
ATOM      8  C   UNL d   1       1.009   0.256   4.207  0.00  0.00     0.284 C 
ATOM      9  H3  UNL d   1       2.741   1.093   3.412  0.00  0.00     0.395 HD
ENDBRANCH   1   7
TORSDOF 1
ENDMDL
