MODEL 1
REMARK minimizedAffinity -1.94272637
REMARK minimizedRMSD -1
REMARK  1 active torsions:
REMARK  status: ('A' for Active; 'I' for Inactive)
REMARK    1  A    between atoms: N_2  and  C1_3 
ROOT
ATOM      1  C1  UNL d   1       3.178   0.287  -1.555  0.00  0.00     0.143 A 
ATOM      2  C2  UNL d   1       2.738  -1.009  -1.266  0.00  0.00    -0.057 A 
ATOM      3  C3  UNL d   1       1.777  -1.246  -0.276  0.00  0.00     0.033 A 
ATOM      4  C4  UNL d   1       1.258  -0.189   0.465  0.00  0.00    -0.042 A 
ATOM      5  C5  UNL d   1       1.699   1.105   0.212  0.00  0.00     0.033 A 
ATOM      6  C6  UNL d   1       2.654   1.335  -0.783  0.00  0.00    -0.057 A 
ENDROOT
BRANCH   1   7
ATOM      7  N   UNL d   1       4.203   0.577  -2.459  0.00  0.00    -0.732 N 
ATOM      8  C   UNL d   1       5.389  -0.249  -2.518  0.00  0.00     0.284 C 
ATOM      9  H3  UNL d   1       3.848   0.861  -3.370  0.00  0.00     0.395 HD
ENDBRANCH   1   7
TORSDOF 1
ENDMDL
