MODEL 1
REMARK minimizedAffinity -0.0296877697
REMARK minimizedRMSD -1
REMARK  1 active torsions:
REMARK  status: ('A' for Active; 'I' for Inactive)
REMARK    1  A    between atoms: N_2  and  C1_3 
ROOT
ATOM      1  C1  UNL d   1       2.967  -0.747  -1.028  0.00  0.00     0.143 A 
ATOM      2  C2  UNL d   1       2.040  -1.595  -0.413  0.00  0.00    -0.057 A 
ATOM      3  C3  UNL d   1       0.955  -1.083   0.308  0.00  0.00     0.033 A 
ATOM      4  C4  UNL d   1       0.794   0.291   0.452  0.00  0.00    -0.042 A 
ATOM      5  C5  UNL d   1       1.717   1.153  -0.129  0.00  0.00     0.033 A 
ATOM      6  C6  UNL d   1       2.795   0.635  -0.854  0.00  0.00    -0.057 A 
ENDROOT
BRANCH   1   7
ATOM      7  N   UNL d   1       4.121  -1.195  -1.676  0.00  0.00    -0.732 N 
ATOM      8  C   UNL d   1       5.036  -0.255  -2.286  0.00  0.00     0.284 C 
ATOM      9  H3  UNL d   1       4.578  -1.954  -1.175  0.00  0.00     0.395 HD
ENDBRANCH   1   7
TORSDOF 1
ENDMDL
