MODEL 1
REMARK minimizedAffinity 6.88139534
REMARK minimizedRMSD -1
REMARK  1 active torsions:
REMARK  status: ('A' for Active; 'I' for Inactive)
REMARK    1  A    between atoms: C1_2  and  C2_3 
ROOT
ATOM      1  C2  UNL d   1      -2.720  -2.092  -2.718  0.00  0.00    -0.077 A 
ATOM      2  C3  UNL d   1      -2.886  -1.788  -1.359  0.00  0.00     0.002 A 
ATOM      3  C4  UNL d   1      -2.236  -2.545  -0.382  0.00  0.00     0.002 A 
ATOM      4  C5  UNL d   1      -1.412  -3.605  -0.753  0.00  0.00    -0.004 A 
ATOM      5  C6  UNL d   1      -1.242  -3.916  -2.102  0.00  0.00     0.002 A 
ATOM      6  C7  UNL d   1      -1.893  -3.162  -3.080  0.00  0.00     0.002 A 
ENDROOT
BRANCH   1   7
ATOM      7  C1  UNL d   1      -3.382  -1.247  -3.775  0.00  0.00     0.055 C 
ATOM      8  C   UNL d   1      -3.316   0.232  -3.423  0.00  0.00     0.019 C 
ENDBRANCH   1   7
TORSDOF 1
ENDMDL
