MODEL 1
REMARK minimizedAffinity -0.945233524
REMARK minimizedRMSD -1
REMARK  1 active torsions:
REMARK  status: ('A' for Active; 'I' for Inactive)
REMARK    1  A    between atoms: C1_2  and  C2_3 
ROOT
ATOM      1  C2  UNL d   1      -1.542  -2.497   0.853  0.00  0.00    -0.077 A 
ATOM      2  C3  UNL d   1      -1.675  -1.181   1.316  0.00  0.00     0.002 A 
ATOM      3  C4  UNL d   1      -0.558  -0.473   1.765  0.00  0.00     0.002 A 
ATOM      4  C5  UNL d   1       0.700  -1.072   1.751  0.00  0.00    -0.004 A 
ATOM      5  C6  UNL d   1       0.842  -2.382   1.293  0.00  0.00     0.002 A 
ATOM      6  C7  UNL d   1      -0.273  -3.091   0.846  0.00  0.00     0.002 A 
ENDROOT
BRANCH   1   7
ATOM      7  C1  UNL d   1      -2.737  -3.244   0.322  0.00  0.00     0.055 C 
ATOM      8  C   UNL d   1      -2.655  -3.421  -1.187  0.00  0.00     0.019 C 
ENDBRANCH   1   7
TORSDOF 1
ENDMDL
