MODEL 1
REMARK minimizedAffinity 5.72249699
REMARK minimizedRMSD -1
REMARK  1 active torsions:
REMARK  status: ('A' for Active; 'I' for Inactive)
REMARK    1  A    between atoms: C1_2  and  C2_3 
ROOT
ATOM      1  C2  UNL d   1       1.498  -2.807   4.579  0.00  0.00    -0.077 A 
ATOM      2  C3  UNL d   1       2.238  -3.516   3.622  0.00  0.00     0.002 A 
ATOM      3  C4  UNL d   1       2.442  -2.982   2.349  0.00  0.00     0.002 A 
ATOM      4  C5  UNL d   1       1.913  -1.736   2.021  0.00  0.00    -0.004 A 
ATOM      5  C6  UNL d   1       1.174  -1.023   2.965  0.00  0.00     0.002 A 
ATOM      6  C7  UNL d   1       0.968  -1.556   4.238  0.00  0.00     0.002 A 
ENDROOT
BRANCH   1   7
ATOM      7  C1  UNL d   1       1.319  -3.359   5.969  0.00  0.00     0.055 C 
ATOM      8  C   UNL d   1       0.269  -4.460   5.996  0.00  0.00     0.019 C 
ENDBRANCH   1   7
TORSDOF 1
ENDMDL
