MODEL 1
REMARK minimizedAffinity 6.20783043
REMARK minimizedRMSD -1
REMARK  0 active torsions:
REMARK  status: ('A' for Active; 'I' for Inactive)
ROOT
ATOM      1  C   UNL d   1      -4.120  -0.068   1.019  0.00  0.00     0.077 C 
ATOM      2  C1  UNL d   1      -4.759  -0.227   2.367  0.00  0.00    -0.074 A 
ATOM      3  C2  UNL d   1      -5.401   0.848   2.989  0.00  0.00    -0.005 A 
ATOM      4  C3  UNL d   1      -6.000   0.682   4.238  0.00  0.00     0.006 A 
ATOM      5  C4  UNL d   1      -5.962  -0.558   4.876  0.00  0.00    -0.005 A 
ATOM      6  C5  UNL d   1      -5.326  -1.645   4.269  0.00  0.00    -0.074 A 
ATOM      7  C6  UNL d   1      -5.285  -2.988   4.936  0.00  0.00     0.077 C 
ATOM      8  C7  UNL d   1      -4.733  -1.472   3.011  0.00  0.00    -0.001 A 
ENDROOT
TORSDOF 0
ENDMDL
