MODEL 1
REMARK minimizedAffinity 6.1203022
REMARK minimizedRMSD -1
REMARK  0 active torsions:
REMARK  status: ('A' for Active; 'I' for Inactive)
ROOT
ATOM      1  C   UNL d   1      -3.013   1.423   2.954  0.00  0.00     0.077 C 
ATOM      2  C1  UNL d   1      -1.639   1.637   2.392  0.00  0.00    -0.074 A 
ATOM      3  C2  UNL d   1      -0.506   1.181   3.073  0.00  0.00    -0.005 A 
ATOM      4  C3  UNL d   1       0.766   1.378   2.533  0.00  0.00     0.006 A 
ATOM      5  C4  UNL d   1       0.916   2.032   1.310  0.00  0.00    -0.005 A 
ATOM      6  C5  UNL d   1      -0.206   2.495   0.615  0.00  0.00    -0.074 A 
ATOM      7  C6  UNL d   1      -0.063   3.191  -0.706  0.00  0.00     0.077 C 
ATOM      8  C7  UNL d   1      -1.480   2.286   1.160  0.00  0.00    -0.001 A 
ENDROOT
TORSDOF 0
ENDMDL
