MODEL 1
REMARK minimizedAffinity 3.60274267
REMARK minimizedRMSD -1
REMARK  0 active torsions:
REMARK  status: ('A' for Active; 'I' for Inactive)
ROOT
ATOM      1  C   UNL d   1       2.172  -1.837   0.532  0.00  0.00     0.077 C 
ATOM      2  C1  UNL d   1       1.722  -1.411   1.898  0.00  0.00    -0.074 A 
ATOM      3  C2  UNL d   1       1.141  -0.156   2.104  0.00  0.00    -0.005 A 
ATOM      4  C3  UNL d   1       0.718   0.222   3.379  0.00  0.00     0.006 A 
ATOM      5  C4  UNL d   1       0.872  -0.650   4.457  0.00  0.00    -0.005 A 
ATOM      6  C5  UNL d   1       1.450  -1.909   4.270  0.00  0.00    -0.074 A 
ATOM      7  C6  UNL d   1       1.615  -2.862   5.417  0.00  0.00     0.077 C 
ATOM      8  C7  UNL d   1       1.866  -2.284   2.985  0.00  0.00    -0.001 A 
ENDROOT
TORSDOF 0
ENDMDL
