MODEL 1
REMARK minimizedAffinity 0.0557927191
REMARK minimizedRMSD -1
REMARK  0 active torsions:
REMARK  status: ('A' for Active; 'I' for Inactive)
ROOT
ATOM      1  C   UNL d   1      -5.999  -3.318   6.000  0.00  0.00     0.077 C 
ATOM      2  C1  UNL d   1      -5.498  -2.748   4.706  0.00  0.00    -0.074 A 
ATOM      3  C2  UNL d   1      -4.593  -3.459   3.911  0.00  0.00    -0.005 A 
ATOM      4  C3  UNL d   1      -4.143  -2.920   2.705  0.00  0.00     0.006 A 
ATOM      5  C4  UNL d   1      -4.593  -1.669   2.284  0.00  0.00    -0.005 A 
ATOM      6  C5  UNL d   1      -5.498  -0.944   3.065  0.00  0.00    -0.074 A 
ATOM      7  C6  UNL d   1      -5.999   0.398   2.621  0.00  0.00     0.077 C 
ATOM      8  C7  UNL d   1      -5.951  -1.495   4.272  0.00  0.00    -0.001 A 
ENDROOT
TORSDOF 0
ENDMDL
