MODEL 1
REMARK minimizedAffinity 1.14163923
REMARK minimizedRMSD -1
REMARK  0 active torsions:
REMARK  status: ('A' for Active; 'I' for Inactive)
ROOT
ATOM      1  C   UNL d   1      -0.487  -2.267  -5.953  0.00  0.00     0.077 C 
ATOM      2  C1  UNL d   1      -1.281  -3.539  -5.964  0.00  0.00    -0.074 A 
ATOM      3  C2  UNL d   1      -0.644  -4.784  -5.947  0.00  0.00    -0.005 A 
ATOM      4  C3  UNL d   1      -1.396  -5.959  -5.949  0.00  0.00     0.006 A 
ATOM      5  C4  UNL d   1      -2.790  -5.901  -5.967  0.00  0.00    -0.005 A 
ATOM      6  C5  UNL d   1      -3.445  -4.665  -5.984  0.00  0.00    -0.074 A 
ATOM      7  C6  UNL d   1      -4.942  -4.584  -5.994  0.00  0.00     0.077 C 
ATOM      8  C7  UNL d   1      -2.682  -3.489  -5.975  0.00  0.00    -0.001 A 
ENDROOT
TORSDOF 0
ENDMDL
