MODEL 1
REMARK minimizedAffinity 8.57058907
REMARK minimizedRMSD -1
REMARK  0 active torsions:
REMARK  status: ('A' for Active; 'I' for Inactive)
ROOT
ATOM      1  C   UNL d   1      -4.147  -2.701   3.946  0.00  0.00     0.077 C 
ATOM      2  C1  UNL d   1      -4.438  -1.251   3.695  0.00  0.00    -0.074 A 
ATOM      3  C2  UNL d   1      -5.739  -0.749   3.805  0.00  0.00    -0.005 A 
ATOM      4  C3  UNL d   1      -5.992   0.604   3.578  0.00  0.00     0.006 A 
ATOM      5  C4  UNL d   1      -4.949   1.467   3.239  0.00  0.00    -0.005 A 
ATOM      6  C5  UNL d   1      -3.642   0.983   3.126  0.00  0.00    -0.074 A 
ATOM      7  C6  UNL d   1      -2.508   1.899   2.772  0.00  0.00     0.077 C 
ATOM      8  C7  UNL d   1      -3.394  -0.376   3.362  0.00  0.00    -0.001 A 
ENDROOT
TORSDOF 0
ENDMDL
