MODEL 1
REMARK minimizedAffinity 3.99875903
REMARK minimizedRMSD -1
REMARK  0 active torsions:
REMARK  status: ('A' for Active; 'I' for Inactive)
ROOT
ATOM      1  C   UNL d   1      -5.236  -3.002   4.506  0.00  0.00     0.077 C 
ATOM      2  C1  UNL d   1      -5.256  -1.814   3.591  0.00  0.00    -0.074 A 
ATOM      3  C2  UNL d   1      -5.999  -0.673   3.911  0.00  0.00    -0.005 A 
ATOM      4  C3  UNL d   1      -6.000   0.428   3.055  0.00  0.00     0.006 A 
ATOM      5  C4  UNL d   1      -5.260   0.399   1.872  0.00  0.00    -0.005 A 
ATOM      6  C5  UNL d   1      -4.512  -0.733   1.536  0.00  0.00    -0.074 A 
ATOM      7  C6  UNL d   1      -3.703  -0.777   0.273  0.00  0.00     0.077 C 
ATOM      8  C7  UNL d   1      -4.510  -1.833   2.405  0.00  0.00    -0.001 A 
ENDROOT
TORSDOF 0
ENDMDL
