MODEL 1
REMARK minimizedAffinity 3.19538784
REMARK minimizedRMSD -1
REMARK  0 active torsions:
REMARK  status: ('A' for Active; 'I' for Inactive)
ROOT
ATOM      1  C   UNL d   1      -5.132  -2.643   4.708  0.00  0.00     0.077 C 
ATOM      2  C1  UNL d   1      -5.152  -1.497   3.741  0.00  0.00    -0.074 A 
ATOM      3  C2  UNL d   1      -5.999  -0.402   3.941  0.00  0.00    -0.005 A 
ATOM      4  C3  UNL d   1      -6.000   0.661   3.037  0.00  0.00     0.006 A 
ATOM      5  C4  UNL d   1      -5.155   0.639   1.927  0.00  0.00    -0.005 A 
ATOM      6  C5  UNL d   1      -4.301  -0.446   1.711  0.00  0.00    -0.074 A 
ATOM      7  C6  UNL d   1      -3.379  -0.480   0.528  0.00  0.00     0.077 C 
ATOM      8  C7  UNL d   1      -4.301  -1.507   2.627  0.00  0.00    -0.001 A 
ENDROOT
TORSDOF 0
ENDMDL
