MODEL 1
REMARK minimizedAffinity 14.2668657
REMARK minimizedRMSD -1
REMARK  0 active torsions:
REMARK  status: ('A' for Active; 'I' for Inactive)
ROOT
ATOM      1  C   UNL d   1       5.183  -5.816  -1.046  0.00  0.00     0.077 C 
ATOM      2  C1  UNL d   1       3.849  -5.145  -0.904  0.00  0.00    -0.074 A 
ATOM      3  C2  UNL d   1       2.680  -5.767  -1.352  0.00  0.00    -0.005 A 
ATOM      4  C3  UNL d   1       1.446  -5.135  -1.205  0.00  0.00     0.006 A 
ATOM      5  C4  UNL d   1       1.368  -3.876  -0.608  0.00  0.00    -0.005 A 
ATOM      6  C5  UNL d   1       2.526  -3.239  -0.153  0.00  0.00    -0.074 A 
ATOM      7  C6  UNL d   1       2.459  -1.890   0.500  0.00  0.00     0.077 C 
ATOM      8  C7  UNL d   1       3.762  -3.883  -0.298  0.00  0.00    -0.001 A 
ENDROOT
TORSDOF 0
ENDMDL
