MODEL 1
REMARK minimizedAffinity 3.06688142
REMARK minimizedRMSD -1
REMARK  0 active torsions:
REMARK  status: ('A' for Active; 'I' for Inactive)
ROOT
ATOM      1  C   UNL d   1      -0.184   5.900  -5.280  0.00  0.00     0.077 C 
ATOM      2  C1  UNL d   1      -1.556   5.569  -4.773  0.00  0.00    -0.074 A 
ATOM      3  C2  UNL d   1      -1.980   6.000  -3.512  0.00  0.00    -0.005 A 
ATOM      4  C3  UNL d   1      -3.263   5.692  -3.058  0.00  0.00     0.006 A 
ATOM      5  C4  UNL d   1      -4.133   4.951  -3.858  0.00  0.00    -0.005 A 
ATOM      6  C5  UNL d   1      -3.727   4.512  -5.123  0.00  0.00    -0.074 A 
ATOM      7  C6  UNL d   1      -4.653   3.724  -6.000  0.00  0.00     0.077 C 
ATOM      8  C7  UNL d   1      -2.439   4.832  -5.575  0.00  0.00    -0.001 A 
ENDROOT
TORSDOF 0
ENDMDL
