MODEL 1
REMARK minimizedAffinity 0.968390703
REMARK minimizedRMSD -1
REMARK  0 active torsions:
REMARK  status: ('A' for Active; 'I' for Inactive)
ROOT
ATOM      1  C   UNL d   1       2.323  -5.793  -5.961  0.00  0.00     0.023 A 
ATOM      2  C1  UNL d   1       3.698  -5.706  -5.742  0.00  0.00     0.003 A 
ATOM      3  C2  UNL d   1       4.204  -5.765  -4.442  0.00  0.00     0.048 A 
ATOM      4  C3  UNL d   1       3.330  -5.912  -3.366  0.00  0.00     0.023 A 
ATOM      5  C4  UNL d   1       1.954  -5.999  -3.580  0.00  0.00     0.048 A 
ATOM      6  C5  UNL d   1       1.452  -5.939  -4.881  0.00  0.00     0.003 A 
ATOM      7  I   UNL d   1       4.082  -6.000  -1.430  0.00  0.00    -0.146 I 
ENDROOT
TORSDOF 0
ENDMDL
