MODEL 1
REMARK minimizedAffinity -0.71555531
REMARK minimizedRMSD -1
REMARK  0 active torsions:
REMARK  status: ('A' for Active; 'I' for Inactive)
ROOT
ATOM      1  C   UNL d   1       3.430  -5.996  -5.999  0.00  0.00     0.023 A 
ATOM      2  C1  UNL d   1       2.165  -5.994  -5.410  0.00  0.00     0.003 A 
ATOM      3  C2  UNL d   1       2.042  -5.995  -4.019  0.00  0.00     0.048 A 
ATOM      4  C3  UNL d   1       3.187  -5.997  -3.223  0.00  0.00     0.023 A 
ATOM      5  C4  UNL d   1       4.454  -5.998  -3.809  0.00  0.00     0.048 A 
ATOM      6  C5  UNL d   1       4.573  -5.998  -5.200  0.00  0.00     0.003 A 
ATOM      7  I   UNL d   1       3.006  -5.998  -1.153  0.00  0.00    -0.146 I 
ENDROOT
TORSDOF 0
ENDMDL
