MODEL 1
REMARK minimizedAffinity -0.328720808
REMARK minimizedRMSD -1
REMARK  0 active torsions:
REMARK  status: ('A' for Active; 'I' for Inactive)
ROOT
ATOM      1  C   UNL d   1       3.010  -1.500  -3.785  0.00  0.00     0.023 A 
ATOM      2  C1  UNL d   1       4.371  -1.537  -4.087  0.00  0.00     0.003 A 
ATOM      3  C2  UNL d   1       4.976  -0.451  -4.723  0.00  0.00     0.048 A 
ATOM      4  C3  UNL d   1       4.215   0.669  -5.053  0.00  0.00     0.023 A 
ATOM      5  C4  UNL d   1       2.852   0.711  -4.752  0.00  0.00     0.048 A 
ATOM      6  C5  UNL d   1       2.251  -0.377  -4.117  0.00  0.00     0.003 A 
ATOM      7  I   UNL d   1       5.113   2.286  -6.000  0.00  0.00    -0.146 I 
ENDROOT
TORSDOF 0
ENDMDL
