MODEL 1
REMARK minimizedAffinity -1.12974572
REMARK minimizedRMSD -1
REMARK  0 active torsions:
REMARK  status: ('A' for Active; 'I' for Inactive)
ROOT
ATOM      1  C   UNL d   1       2.894  -5.994  -5.996  0.00  0.00     0.023 A 
ATOM      2  C1  UNL d   1       1.751  -5.998  -5.196  0.00  0.00     0.003 A 
ATOM      3  C2  UNL d   1       1.870  -5.996  -3.805  0.00  0.00     0.048 A 
ATOM      4  C3  UNL d   1       3.136  -5.990  -3.220  0.00  0.00     0.023 A 
ATOM      5  C4  UNL d   1       4.282  -5.986  -4.015  0.00  0.00     0.048 A 
ATOM      6  C5  UNL d   1       4.158  -5.989  -5.406  0.00  0.00     0.003 A 
ATOM      7  I   UNL d   1       3.316  -5.988  -1.149  0.00  0.00    -0.146 I 
ENDROOT
TORSDOF 0
ENDMDL
