MODEL 1
REMARK minimizedAffinity 2.56071997
REMARK minimizedRMSD -1
REMARK  0 active torsions:
REMARK  status: ('A' for Active; 'I' for Inactive)
ROOT
ATOM      1  C   UNL d   1       4.133  -4.839  -1.213  0.00  0.00     0.023 A 
ATOM      2  C1  UNL d   1       4.061  -5.993  -1.993  0.00  0.00     0.003 A 
ATOM      3  C2  UNL d   1       4.596  -6.000  -3.283  0.00  0.00     0.048 A 
ATOM      4  C3  UNL d   1       5.202  -4.849  -3.786  0.00  0.00     0.023 A 
ATOM      5  C4  UNL d   1       5.277  -3.692  -3.009  0.00  0.00     0.048 A 
ATOM      6  C5  UNL d   1       4.740  -3.690  -1.720  0.00  0.00     0.003 A 
ATOM      7  I   UNL d   1       5.999  -4.857  -5.706  0.00  0.00    -0.146 I 
ENDROOT
TORSDOF 0
ENDMDL
