MODEL 1
REMARK minimizedAffinity -1.81754827
REMARK minimizedRMSD -1
REMARK  0 active torsions:
REMARK  status: ('A' for Active; 'I' for Inactive)
ROOT
ATOM      1  C   UNL d   1       3.281  -5.925  -5.999  0.00  0.00     0.023 A 
ATOM      2  C1  UNL d   1       4.548  -5.964  -5.416  0.00  0.00     0.003 A 
ATOM      3  C2  UNL d   1       4.678  -5.985  -4.026  0.00  0.00     0.048 A 
ATOM      4  C3  UNL d   1       3.537  -5.968  -3.224  0.00  0.00     0.023 A 
ATOM      5  C4  UNL d   1       2.267  -5.930  -3.803  0.00  0.00     0.048 A 
ATOM      6  C5  UNL d   1       2.142  -5.908  -5.194  0.00  0.00     0.003 A 
ATOM      7  I   UNL d   1       3.727  -6.000  -1.155  0.00  0.00    -0.146 I 
ENDROOT
TORSDOF 0
ENDMDL
