MODEL 1
REMARK minimizedAffinity 2.72371483
REMARK minimizedRMSD -1
REMARK  0 active torsions:
REMARK  status: ('A' for Active; 'I' for Inactive)
ROOT
ATOM      1  C   UNL d   1      -3.712  -2.629  -2.849  0.00  0.00     0.023 A 
ATOM      2  C1  UNL d   1      -2.821  -1.557  -2.794  0.00  0.00     0.003 A 
ATOM      3  C2  UNL d   1      -1.765  -1.571  -1.880  0.00  0.00     0.048 A 
ATOM      4  C3  UNL d   1      -1.607  -2.660  -1.023  0.00  0.00     0.023 A 
ATOM      5  C4  UNL d   1      -2.496  -3.735  -1.075  0.00  0.00     0.048 A 
ATOM      6  C5  UNL d   1      -3.550  -3.716  -1.990  0.00  0.00     0.003 A 
ATOM      7  I   UNL d   1      -0.037  -2.683   0.338  0.00  0.00    -0.146 I 
ENDROOT
TORSDOF 0
ENDMDL
