MODEL 1
REMARK minimizedAffinity 2.10718799
REMARK minimizedRMSD -1
REMARK  0 active torsions:
REMARK  status: ('A' for Active; 'I' for Inactive)
ROOT
ATOM      1  C   UNL d   1       2.490  -2.327   2.729  0.00  0.00     0.023 A 
ATOM      2  C1  UNL d   1       2.877  -3.665   2.820  0.00  0.00     0.003 A 
ATOM      3  C2  UNL d   1       2.274  -4.505   3.759  0.00  0.00     0.048 A 
ATOM      4  C3  UNL d   1       1.284  -4.001   4.602  0.00  0.00     0.023 A 
ATOM      5  C4  UNL d   1       0.893  -2.664   4.514  0.00  0.00     0.048 A 
ATOM      6  C5  UNL d   1       1.500  -1.828   3.574  0.00  0.00     0.003 A 
ATOM      7  I   UNL d   1       0.384  -5.249   5.999  0.00  0.00    -0.146 I 
ENDROOT
TORSDOF 0
ENDMDL
