MODEL 1
REMARK minimizedAffinity -2.82982802
REMARK minimizedRMSD -1
REMARK  0 active torsions:
REMARK  status: ('A' for Active; 'I' for Inactive)
ROOT
ATOM      1  O1  BZF d   1      -3.263   0.385   2.913  0.00  0.00    -0.204 OA
ATOM      2  C2  BZF d   1      -3.532   1.634   3.439  0.00  0.00     0.174 A 
ATOM      3  C3  BZF d   1      -2.505   2.478   3.215  0.00  0.00    -0.012 A 
ATOM      4  C3A BZF d   1      -1.572   1.735   2.426  0.00  0.00    -0.107 A 
ATOM      5  C4  BZF d   1      -0.359   2.036   1.874  0.00  0.00     0.055 A 
ATOM      6  C5  BZF d   1       0.330   1.063   1.222  0.00  0.00    -0.016 A 
ATOM      7  C6  BZF d   1      -0.161  -0.221   1.107  0.00  0.00     0.022 A 
ATOM      8  C7  BZF d   1      -1.361  -0.566   1.633  0.00  0.00     0.029 A 
ATOM      9  C7A BZF d   1      -2.075   0.423   2.264  0.00  0.00     0.058 A 
ENDROOT
TORSDOF 0
ENDMDL
