MODEL 1
REMARK minimizedAffinity -1.45242488
REMARK minimizedRMSD -1
REMARK  0 active torsions:
REMARK  status: ('A' for Active; 'I' for Inactive)
ROOT
ATOM      1  O1  BZF d   1      -2.892   1.614   3.530  0.00  0.00    -0.204 OA
ATOM      2  C2  BZF d   1      -3.639   0.513   3.900  0.00  0.00     0.174 A 
ATOM      3  C3  BZF d   1      -3.126  -0.615   3.367  0.00  0.00    -0.012 A 
ATOM      4  C3A BZF d   1      -1.933  -0.203   2.693  0.00  0.00    -0.107 A 
ATOM      5  C4  BZF d   1      -0.977  -0.873   1.984  0.00  0.00     0.055 A 
ATOM      6  C5  BZF d   1       0.022  -0.166   1.392  0.00  0.00    -0.016 A 
ATOM      7  C6  BZF d   1       0.092   1.208   1.484  0.00  0.00     0.022 A 
ATOM      8  C7  BZF d   1      -0.831   1.916   2.180  0.00  0.00     0.029 A 
ATOM      9  C7A BZF d   1      -1.823   1.202   2.807  0.00  0.00     0.058 A 
ENDROOT
TORSDOF 0
ENDMDL
