MODEL 1
REMARK minimizedAffinity -3.52135396
REMARK minimizedRMSD -1
REMARK  0 active torsions:
REMARK  status: ('A' for Active; 'I' for Inactive)
ROOT
ATOM      1  O1  BZF d   1      -2.846  -0.074   2.797  0.00  0.00    -0.204 OA
ATOM      2  C2  BZF d   1      -3.403   1.068   3.339  0.00  0.00     0.174 A 
ATOM      3  C3  BZF d   1      -2.598   2.132   3.143  0.00  0.00    -0.012 A 
ATOM      4  C3A BZF d   1      -1.510   1.641   2.354  0.00  0.00    -0.107 A 
ATOM      5  C4  BZF d   1      -0.396   2.226   1.824  0.00  0.00     0.055 A 
ATOM      6  C5  BZF d   1       0.506   1.452   1.165  0.00  0.00    -0.016 A 
ATOM      7  C6  BZF d   1       0.329   0.091   1.023  0.00  0.00     0.022 A 
ATOM      8  C7  BZF d   1      -0.764  -0.533   1.527  0.00  0.00     0.029 A 
ATOM      9  C7A BZF d   1      -1.693   0.252   2.165  0.00  0.00     0.058 A 
ENDROOT
TORSDOF 0
ENDMDL
