MODEL 1
REMARK minimizedAffinity 1.24016392
REMARK minimizedRMSD -1
REMARK  0 active torsions:
REMARK  status: ('A' for Active; 'I' for Inactive)
ROOT
ATOM      1  O1  BZF d   1      -3.320   0.589   3.513  0.00  0.00    -0.204 OA
ATOM      2  C2  BZF d   1      -3.758   1.810   3.988  0.00  0.00     0.174 A 
ATOM      3  C3  BZF d   1      -2.867   2.782   3.703  0.00  0.00    -0.012 A 
ATOM      4  C3A BZF d   1      -1.849   2.143   2.926  0.00  0.00    -0.107 A 
ATOM      5  C4  BZF d   1      -0.702   2.588   2.334  0.00  0.00     0.055 A 
ATOM      6  C5  BZF d   1       0.109   1.694   1.710  0.00  0.00    -0.016 A 
ATOM      7  C6  BZF d   1      -0.193   0.349   1.664  0.00  0.00     0.022 A 
ATOM      8  C7  BZF d   1      -1.323  -0.139   2.232  0.00  0.00     0.029 A 
ATOM      9  C7A BZF d   1      -2.161   0.767   2.835  0.00  0.00     0.058 A 
ENDROOT
TORSDOF 0
ENDMDL
