MODEL 1
REMARK minimizedAffinity -5.61256933
REMARK minimizedRMSD -1
REMARK  0 active torsions:
REMARK  status: ('A' for Active; 'I' for Inactive)
ROOT
ATOM      1  O1  BZF d   1      -3.439   0.413   2.418  0.00  0.00    -0.204 OA
ATOM      2  C2  BZF d   1      -3.808   1.522   3.154  0.00  0.00     0.174 A 
ATOM      3  C3  BZF d   1      -2.812   2.431   3.180  0.00  0.00    -0.012 A 
ATOM      4  C3A BZF d   1      -1.790   1.895   2.335  0.00  0.00    -0.107 A 
ATOM      5  C4  BZF d   1      -0.560   2.344   1.948  0.00  0.00     0.055 A 
ATOM      6  C5  BZF d   1       0.221   1.546   1.173  0.00  0.00    -0.016 A 
ATOM      7  C6  BZF d   1      -0.194   0.293   0.772  0.00  0.00     0.022 A 
ATOM      8  C7  BZF d   1      -1.408  -0.194   1.126  0.00  0.00     0.029 A 
ATOM      9  C7A BZF d   1      -2.213   0.624   1.882  0.00  0.00     0.058 A 
ENDROOT
TORSDOF 0
ENDMDL
