MODEL 1
REMARK minimizedAffinity -2.8601501
REMARK minimizedRMSD -1
REMARK  0 active torsions:
REMARK  status: ('A' for Active; 'I' for Inactive)
ROOT
ATOM      1  O1  BZF d   1      -2.584   1.669   1.820  0.00  0.00    -0.204 OA
ATOM      2  C2  BZF d   1      -2.034   2.917   2.040  0.00  0.00     0.174 A 
ATOM      3  C3  BZF d   1      -0.687   2.861   1.996  0.00  0.00    -0.012 A 
ATOM      4  C3A BZF d   1      -0.378   1.510   1.641  0.00  0.00    -0.107 A 
ATOM      5  C4  BZF d   1       0.792   0.839   1.427  0.00  0.00     0.055 A 
ATOM      6  C5  BZF d   1       0.752  -0.494   1.166  0.00  0.00    -0.016 A 
ATOM      7  C6  BZF d   1      -0.439  -1.188   1.117  0.00  0.00     0.022 A 
ATOM      8  C7  BZF d   1      -1.626  -0.565   1.318  0.00  0.00     0.029 A 
ATOM      9  C7A BZF d   1      -1.591   0.788   1.549  0.00  0.00     0.058 A 
ENDROOT
TORSDOF 0
ENDMDL
