MODEL 1
REMARK minimizedAffinity -3.69136047
REMARK minimizedRMSD -1
REMARK  0 active torsions:
REMARK  status: ('A' for Active; 'I' for Inactive)
ROOT
ATOM      1  O1  BZF d   1       1.058   2.181   1.192  0.00  0.00    -0.204 OA
ATOM      2  C2  BZF d   1       1.902   1.462   0.369  0.00  0.00     0.174 A 
ATOM      3  C3  BZF d   1       1.412   0.226   0.143  0.00  0.00    -0.012 A 
ATOM      4  C3A BZF d   1       0.139   0.201   0.796  0.00  0.00    -0.107 A 
ATOM      5  C4  BZF d   1      -0.837  -0.747   0.916  0.00  0.00     0.055 A 
ATOM      6  C5  BZF d   1      -1.927  -0.480   1.682  0.00  0.00    -0.016 A 
ATOM      7  C6  BZF d   1      -2.072   0.722   2.344  0.00  0.00     0.022 A 
ATOM      8  C7  BZF d   1      -1.134   1.695   2.251  0.00  0.00     0.029 A 
ATOM      9  C7A BZF d   1      -0.046   1.441   1.452  0.00  0.00     0.058 A 
ENDROOT
TORSDOF 0
ENDMDL
