MODEL 1
REMARK minimizedAffinity 2.87666965
REMARK minimizedRMSD -1
REMARK  0 active torsions:
REMARK  status: ('A' for Active; 'I' for Inactive)
ROOT
ATOM      1  O1  BZF d   1      -0.708  -0.845   1.879  0.00  0.00    -0.204 OA
ATOM      2  C2  BZF d   1       0.419  -0.318   1.277  0.00  0.00     0.174 A 
ATOM      3  C3  BZF d   1       0.371   1.030   1.270  0.00  0.00    -0.012 A 
ATOM      4  C3A BZF d   1      -0.819   1.369   1.989  0.00  0.00    -0.107 A 
ATOM      5  C4  BZF d   1      -1.404   2.554   2.331  0.00  0.00     0.055 A 
ATOM      6  C5  BZF d   1      -2.602   2.539   2.972  0.00  0.00    -0.016 A 
ATOM      7  C6  BZF d   1      -3.246   1.358   3.280  0.00  0.00     0.022 A 
ATOM      8  C7  BZF d   1      -2.702   0.157   2.965  0.00  0.00     0.029 A 
ATOM      9  C7A BZF d   1      -1.476   0.169   2.347  0.00  0.00     0.058 A 
ENDROOT
TORSDOF 0
ENDMDL
