MODEL 1
REMARK minimizedAffinity 6.51285553
REMARK minimizedRMSD -1
REMARK  0 active torsions:
REMARK  status: ('A' for Active; 'I' for Inactive)
ROOT
ATOM      1  O1  BZF d   1      -3.455   0.811  -0.827  0.00  0.00    -0.204 OA
ATOM      2  C2  BZF d   1      -4.286  -0.288  -0.728  0.00  0.00     0.174 A 
ATOM      3  C3  BZF d   1      -3.764  -1.209   0.108  0.00  0.00    -0.012 A 
ATOM      4  C3A BZF d   1      -2.574  -0.611   0.630  0.00  0.00    -0.107 A 
ATOM      5  C4  BZF d   1      -1.627  -1.027   1.522  0.00  0.00     0.055 A 
ATOM      6  C5  BZF d   1      -0.550  -0.234   1.761  0.00  0.00    -0.016 A 
ATOM      7  C6  BZF d   1      -0.385   0.978   1.123  0.00  0.00     0.022 A 
ATOM      8  C7  BZF d   1      -1.300   1.436   0.234  0.00  0.00     0.029 A 
ATOM      9  C7A BZF d   1      -2.406   0.651   0.015  0.00  0.00     0.058 A 
ENDROOT
TORSDOF 0
ENDMDL
