MODEL 1
REMARK minimizedAffinity -1.99863195
REMARK minimizedRMSD -1
REMARK  0 active torsions:
REMARK  status: ('A' for Active; 'I' for Inactive)
ROOT
ATOM      1  O1  BZF d   1      -1.612   2.803   2.148  0.00  0.00    -0.204 OA
ATOM      2  C2  BZF d   1      -2.441   1.811   2.634  0.00  0.00     0.174 A 
ATOM      3  C3  BZF d   1      -1.850   0.602   2.535  0.00  0.00    -0.012 A 
ATOM      4  C3A BZF d   1      -0.536   0.866   2.035  0.00  0.00    -0.107 A 
ATOM      5  C4  BZF d   1       0.534   0.070   1.740  0.00  0.00     0.055 A 
ATOM      6  C5  BZF d   1       1.647   0.632   1.200  0.00  0.00    -0.016 A 
ATOM      7  C6  BZF d   1       1.722   1.984   0.937  0.00  0.00     0.022 A 
ATOM      8  C7  BZF d   1       0.689   2.815   1.218  0.00  0.00     0.029 A 
ATOM      9  C7A BZF d   1      -0.425   2.255   1.794  0.00  0.00     0.058 A 
ENDROOT
TORSDOF 0
ENDMDL
