MODEL 1
REMARK minimizedAffinity -4.31186724
REMARK minimizedRMSD -1
REMARK  0 active torsions:
REMARK  status: ('A' for Active; 'I' for Inactive)
ROOT
ATOM      1  O1  BZF d   1      -2.918  -0.189   2.852  0.00  0.00    -0.204 OA
ATOM      2  C2  BZF d   1      -3.568   0.917   3.366  0.00  0.00     0.174 A 
ATOM      3  C3  BZF d   1      -2.879   2.045   3.097  0.00  0.00    -0.012 A 
ATOM      4  C3A BZF d   1      -1.773   1.627   2.290  0.00  0.00    -0.107 A 
ATOM      5  C4  BZF d   1      -0.740   2.293   1.696  0.00  0.00     0.055 A 
ATOM      6  C5  BZF d   1       0.213   1.581   1.038  0.00  0.00    -0.016 A 
ATOM      7  C6  BZF d   1       0.166   0.205   0.959  0.00  0.00     0.022 A 
ATOM      8  C7  BZF d   1      -0.842  -0.499   1.528  0.00  0.00     0.029 A 
ATOM      9  C7A BZF d   1      -1.824   0.219   2.165  0.00  0.00     0.058 A 
ENDROOT
TORSDOF 0
ENDMDL
