MODEL 1
REMARK minimizedAffinity 0.0252042022
REMARK minimizedRMSD -1
REMARK  0 active torsions:
REMARK  status: ('A' for Active; 'I' for Inactive)
ROOT
ATOM      1  O1  BZF d   1      -2.720   0.865   2.995  0.00  0.00    -0.204 OA
ATOM      2  C2  BZF d   1      -2.653   2.238   3.129  0.00  0.00     0.174 A 
ATOM      3  C3  BZF d   1      -1.566   2.728   2.498  0.00  0.00    -0.012 A 
ATOM      4  C3A BZF d   1      -0.963   1.600   1.856  0.00  0.00    -0.107 A 
ATOM      5  C4  BZF d   1       0.139   1.449   1.064  0.00  0.00     0.055 A 
ATOM      6  C5  BZF d   1       0.496   0.202   0.661  0.00  0.00    -0.016 A 
ATOM      7  C6  BZF d   1      -0.221  -0.916   1.035  0.00  0.00     0.022 A 
ATOM      8  C7  BZF d   1      -1.324  -0.815   1.816  0.00  0.00     0.029 A 
ATOM      9  C7A BZF d   1      -1.707   0.447   2.198  0.00  0.00     0.058 A 
ENDROOT
TORSDOF 0
ENDMDL
