MODEL 1
REMARK minimizedAffinity 3.7741487
REMARK minimizedRMSD -1
REMARK  0 active torsions:
REMARK  status: ('A' for Active; 'I' for Inactive)
ROOT
ATOM      1  O1  BZF d   1      -1.562   3.136   1.604  0.00  0.00    -0.204 OA
ATOM      2  C2  BZF d   1      -2.706   2.679   2.229  0.00  0.00     0.174 A 
ATOM      3  C3  BZF d   1      -2.573   1.385   2.584  0.00  0.00    -0.012 A 
ATOM      4  C3A BZF d   1      -1.229   1.036   2.236  0.00  0.00    -0.107 A 
ATOM      5  C4  BZF d   1      -0.495  -0.110   2.357  0.00  0.00     0.055 A 
ATOM      6  C5  BZF d   1       0.766  -0.143   1.852  0.00  0.00    -0.016 A 
ATOM      7  C6  BZF d   1       1.322   0.948   1.217  0.00  0.00     0.022 A 
ATOM      8  C7  BZF d   1       0.635   2.108   1.077  0.00  0.00     0.029 A 
ATOM      9  C7A BZF d   1      -0.628   2.155   1.615  0.00  0.00     0.058 A 
ENDROOT
TORSDOF 0
ENDMDL
