MODEL 1
REMARK minimizedAffinity -0.297728568
REMARK minimizedRMSD -1
REMARK  0 active torsions:
REMARK  status: ('A' for Active; 'I' for Inactive)
ROOT
ATOM      1  O1  BZF d   1       1.683   2.018   1.182  0.00  0.00    -0.204 OA
ATOM      2  C2  BZF d   1       2.464   1.039   0.596  0.00  0.00     0.174 A 
ATOM      3  C3  BZF d   1       1.863  -0.165   0.679  0.00  0.00    -0.012 A 
ATOM      4  C3A BZF d   1       0.588   0.090   1.276  0.00  0.00    -0.107 A 
ATOM      5  C4  BZF d   1      -0.471  -0.706   1.605  0.00  0.00     0.055 A 
ATOM      6  C5  BZF d   1      -1.538  -0.157   2.242  0.00  0.00    -0.016 A 
ATOM      7  C6  BZF d   1      -1.577   1.182   2.571  0.00  0.00     0.022 A 
ATOM      8  C7  BZF d   1      -0.552   2.013   2.261  0.00  0.00     0.029 A 
ATOM      9  C7A BZF d   1       0.513   1.468   1.587  0.00  0.00     0.058 A 
ENDROOT
TORSDOF 0
ENDMDL
