MODEL 1
REMARK minimizedAffinity 4.5943222
REMARK minimizedRMSD -1
REMARK  0 active torsions:
REMARK  status: ('A' for Active; 'I' for Inactive)
ROOT
ATOM      1  O1  BZF d   1       2.680  -0.412   0.024  0.00  0.00    -0.204 OA
ATOM      2  C2  BZF d   1       3.114   0.449  -0.966  0.00  0.00     0.174 A 
ATOM      3  C3  BZF d   1       2.299   1.519  -1.060  0.00  0.00    -0.012 A 
ATOM      4  C3A BZF d   1       1.345   1.360  -0.005  0.00  0.00    -0.107 A 
ATOM      5  C4  BZF d   1       0.287   2.109   0.425  0.00  0.00     0.055 A 
ATOM      6  C5  BZF d   1      -0.488   1.636   1.436  0.00  0.00    -0.016 A 
ATOM      7  C6  BZF d   1      -0.238   0.419   2.035  0.00  0.00     0.022 A 
ATOM      8  C7  BZF d   1       0.803  -0.357   1.646  0.00  0.00     0.029 A 
ATOM      9  C7A BZF d   1       1.608   0.133   0.647  0.00  0.00     0.058 A 
ENDROOT
TORSDOF 0
ENDMDL
