MODEL 1
REMARK minimizedAffinity -0.601259649
REMARK minimizedRMSD -1
REMARK  0 active torsions:
REMARK  status: ('A' for Active; 'I' for Inactive)
ROOT
ATOM      1  O1  BZF d   1       2.247  -0.903   0.632  0.00  0.00    -0.204 OA
ATOM      2  C2  BZF d   1       2.933  -0.091  -0.251  0.00  0.00     0.174 A 
ATOM      3  C3  BZF d   1       2.255   1.052  -0.476  0.00  0.00    -0.012 A 
ATOM      4  C3A BZF d   1       1.115   0.989   0.386  0.00  0.00    -0.107 A 
ATOM      5  C4  BZF d   1       0.073   1.838   0.629  0.00  0.00     0.055 A 
ATOM      6  C5  BZF d   1      -0.914   1.446   1.477  0.00  0.00    -0.016 A 
ATOM      7  C6  BZF d   1      -0.894   0.213   2.095  0.00  0.00     0.022 A 
ATOM      8  C7  BZF d   1       0.122  -0.661   1.889  0.00  0.00     0.029 A 
ATOM      9  C7A BZF d   1       1.137  -0.255   1.059  0.00  0.00     0.058 A 
ENDROOT
TORSDOF 0
ENDMDL
