MODEL 1
REMARK minimizedAffinity 1.72057116
REMARK minimizedRMSD -1
REMARK  0 active torsions:
REMARK  status: ('A' for Active; 'I' for Inactive)
ROOT
ATOM      1  O1  BZF d   1      -0.537   2.498   2.465  0.00  0.00    -0.204 OA
ATOM      2  C2  BZF d   1       0.543   1.886   1.858  0.00  0.00     0.174 A 
ATOM      3  C3  BZF d   1       0.312   0.569   1.686  0.00  0.00    -0.012 A 
ATOM      4  C3A BZF d   1      -1.031   0.361   2.133  0.00  0.00    -0.107 A 
ATOM      5  C4  BZF d   1      -1.840  -0.738   2.197  0.00  0.00     0.055 A 
ATOM      6  C5  BZF d   1      -3.073  -0.618   2.755  0.00  0.00    -0.016 A 
ATOM      7  C6  BZF d   1      -3.528   0.581   3.263  0.00  0.00     0.022 A 
ATOM      8  C7  BZF d   1      -2.763   1.699   3.217  0.00  0.00     0.029 A 
ATOM      9  C7A BZF d   1      -1.529   1.590   2.624  0.00  0.00     0.058 A 
ENDROOT
TORSDOF 0
ENDMDL
