MODEL 1
REMARK minimizedAffinity 2.02754569
REMARK minimizedRMSD -1
REMARK  1 active torsions:
REMARK  status: ('A' for Active; 'I' for Inactive)
REMARK    1  A    between atoms: N_2  and  C1_3 
ROOT
ATOM      1  C1  UNL d   1      -1.842  -2.173  -1.096  0.00  0.00     0.143 A 
ATOM      2  C2  UNL d   1      -1.565  -3.531  -0.904  0.00  0.00    -0.057 A 
ATOM      3  C3  UNL d   1      -2.427  -4.350  -0.164  0.00  0.00     0.033 A 
ATOM      4  C4  UNL d   1      -3.569  -3.817   0.423  0.00  0.00    -0.042 A 
ATOM      5  C5  UNL d   1      -3.851  -2.464   0.266  0.00  0.00     0.033 A 
ATOM      6  C6  UNL d   1      -2.991  -1.653  -0.479  0.00  0.00    -0.057 A 
ENDROOT
BRANCH   1   7
ATOM      7  N   UNL d   1      -0.975  -1.285  -1.738  0.00  0.00    -0.732 N 
ATOM      8  C   UNL d   1       0.066  -0.606  -0.997  0.00  0.00     0.284 C 
ATOM      9  H3  UNL d   1      -0.682  -1.622  -2.652  0.00  0.00     0.395 HD
ENDBRANCH   1   7
TORSDOF 1
ENDMDL
