MODEL 1
REMARK minimizedAffinity -3.87619066
REMARK minimizedRMSD -1
REMARK  1 active torsions:
REMARK  status: ('A' for Active; 'I' for Inactive)
REMARK    1  A    between atoms: N_2  and  C1_3 
ROOT
ATOM      1  C1  UNL d   1      -5.145   4.397   3.262  0.00  0.00     0.143 A 
ATOM      2  C2  UNL d   1      -4.851   3.079   3.628  0.00  0.00    -0.057 A 
ATOM      3  C3  UNL d   1      -5.023   2.635   4.945  0.00  0.00     0.033 A 
ATOM      4  C4  UNL d   1      -5.466   3.513   5.929  0.00  0.00    -0.042 A 
ATOM      5  C5  UNL d   1      -5.741   4.834   5.593  0.00  0.00     0.033 A 
ATOM      6  C6  UNL d   1      -5.574   5.269   4.275  0.00  0.00    -0.057 A 
ENDROOT
BRANCH   1   7
ATOM      7  N   UNL d   1      -4.902   4.925   1.992  0.00  0.00    -0.732 N 
ATOM      8  C   UNL d   1      -6.000   5.284   1.120  0.00  0.00     0.284 C 
ATOM      9  H3  UNL d   1      -4.133   5.591   1.989  0.00  0.00     0.395 HD
ENDBRANCH   1   7
TORSDOF 1
ENDMDL
