MODEL 1
REMARK minimizedAffinity -0.971088231
REMARK minimizedRMSD -1
REMARK  1 active torsions:
REMARK  status: ('A' for Active; 'I' for Inactive)
REMARK    1  A    between atoms: N_2  and  C1_3 
ROOT
ATOM      1  C1  UNL d   1      -1.135  -1.243  -0.561  0.00  0.00     0.143 A 
ATOM      2  C2  UNL d   1      -2.121  -0.629   0.218  0.00  0.00    -0.057 A 
ATOM      3  C3  UNL d   1      -3.421  -1.147   0.286  0.00  0.00     0.033 A 
ATOM      4  C4  UNL d   1      -3.765  -2.275  -0.450  0.00  0.00    -0.042 A 
ATOM      5  C5  UNL d   1      -2.808  -2.888  -1.252  0.00  0.00     0.033 A 
ATOM      6  C6  UNL d   1      -1.511  -2.370  -1.310  0.00  0.00    -0.057 A 
ENDROOT
BRANCH   1   7
ATOM      7  N   UNL d   1       0.147  -0.720  -0.748  0.00  0.00    -0.732 N 
ATOM      8  C   UNL d   1       0.347   0.477  -1.536  0.00  0.00     0.284 C 
ATOM      9  H3  UNL d   1       0.709  -0.760   0.100  0.00  0.00     0.395 HD
ENDBRANCH   1   7
TORSDOF 1
ENDMDL
