MODEL 1
REMARK minimizedAffinity -2.4124217
REMARK minimizedRMSD -1
REMARK  1 active torsions:
REMARK  status: ('A' for Active; 'I' for Inactive)
REMARK    1  A    between atoms: N_2  and  C1_3 
ROOT
ATOM      1  C1  UNL d   1      -1.197  -1.443  -0.751  0.00  0.00     0.143 A 
ATOM      2  C2  UNL d   1      -1.798  -0.827   0.352  0.00  0.00    -0.057 A 
ATOM      3  C3  UNL d   1      -3.068  -1.213   0.796  0.00  0.00     0.033 A 
ATOM      4  C4  UNL d   1      -3.774  -2.207   0.126  0.00  0.00    -0.042 A 
ATOM      5  C5  UNL d   1      -3.206  -2.816  -0.988  0.00  0.00     0.033 A 
ATOM      6  C6  UNL d   1      -1.935  -2.430  -1.423  0.00  0.00    -0.057 A 
ENDROOT
BRANCH   1   7
ATOM      7  N   UNL d   1       0.021  -1.036  -1.301  0.00  0.00    -0.732 N 
ATOM      8  C   UNL d   1       1.115  -0.623  -0.448  0.00  0.00     0.284 C 
ATOM      9  H3  UNL d   1       0.304  -1.614  -2.089  0.00  0.00     0.395 HD
ENDBRANCH   1   7
TORSDOF 1
ENDMDL
