MODEL 1
REMARK minimizedAffinity 1.96749175
REMARK minimizedRMSD -1
REMARK  1 active torsions:
REMARK  status: ('A' for Active; 'I' for Inactive)
REMARK    1  A    between atoms: N_2  and  C1_3 
ROOT
ATOM      1  C1  UNL d   1      -1.065  -1.006  -0.639  0.00  0.00     0.143 A 
ATOM      2  C2  UNL d   1      -1.664  -2.009  -1.410  0.00  0.00    -0.057 A 
ATOM      3  C3  UNL d   1      -2.945  -2.487  -1.111  0.00  0.00     0.033 A 
ATOM      4  C4  UNL d   1      -3.642  -1.990  -0.015  0.00  0.00    -0.042 A 
ATOM      5  C5  UNL d   1      -3.056  -1.011   0.780  0.00  0.00     0.033 A 
ATOM      6  C6  UNL d   1      -1.779  -0.532   0.473  0.00  0.00    -0.057 A 
ENDROOT
BRANCH   1   7
ATOM      7  N   UNL d   1       0.245  -0.559  -0.826  0.00  0.00    -0.732 N 
ATOM      8  C   UNL d   1       0.647   0.042  -2.080  0.00  0.00     0.284 C 
ATOM      9  H3  UNL d   1       0.616  -0.091  -0.003  0.00  0.00     0.395 HD
ENDBRANCH   1   7
TORSDOF 1
ENDMDL
