MODEL 1
REMARK minimizedAffinity -3.58555222
REMARK minimizedRMSD -1
REMARK  1 active torsions:
REMARK  status: ('A' for Active; 'I' for Inactive)
REMARK    1  A    between atoms: N_2  and  C1_3 
ROOT
ATOM      1  C1  UNL d   1      -5.499   3.823   3.403  0.00  0.00     0.143 A 
ATOM      2  C2  UNL d   1      -6.000   3.057   4.462  0.00  0.00    -0.057 A 
ATOM      3  C3  UNL d   1      -5.410   3.102   5.732  0.00  0.00     0.033 A 
ATOM      4  C4  UNL d   1      -4.289   3.893   5.957  0.00  0.00    -0.042 A 
ATOM      5  C5  UNL d   1      -3.759   4.642   4.913  0.00  0.00     0.033 A 
ATOM      6  C6  UNL d   1      -4.356   4.599   3.649  0.00  0.00    -0.057 A 
ENDROOT
BRANCH   1   7
ATOM      7  N   UNL d   1      -5.980   3.747   2.094  0.00  0.00    -0.732 N 
ATOM      8  C   UNL d   1      -5.214   4.292   0.994  0.00  0.00     0.284 C 
ATOM      9  H3  UNL d   1      -6.418   2.851   1.892  0.00  0.00     0.395 HD
ENDBRANCH   1   7
TORSDOF 1
ENDMDL
