MODEL 1
REMARK minimizedAffinity -1.38872826
REMARK minimizedRMSD -1
REMARK  1 active torsions:
REMARK  status: ('A' for Active; 'I' for Inactive)
REMARK    1  A    between atoms: N_2  and  C1_3 
ROOT
ATOM      1  C1  UNL d   1      -5.573   5.386   1.768  0.00  0.00     0.143 A 
ATOM      2  C2  UNL d   1      -5.988   5.997   2.956  0.00  0.00    -0.057 A 
ATOM      3  C3  UNL d   1      -5.999   5.296   4.168  0.00  0.00     0.033 A 
ATOM      4  C4  UNL d   1      -5.621   3.958   4.208  0.00  0.00    -0.042 A 
ATOM      5  C5  UNL d   1      -5.229   3.323   3.035  0.00  0.00     0.033 A 
ATOM      6  C6  UNL d   1      -5.213   4.030   1.829  0.00  0.00    -0.057 A 
ENDROOT
BRANCH   1   7
ATOM      7  N   UNL d   1      -5.633   6.000   0.514  0.00  0.00    -0.732 N 
ATOM      8  C   UNL d   1      -5.523   5.216  -0.697  0.00  0.00     0.284 C 
ATOM      9  H3  UNL d   1      -6.340   6.731   0.474  0.00  0.00     0.395 HD
ENDBRANCH   1   7
TORSDOF 1
ENDMDL
