MODEL 1
REMARK minimizedAffinity -3.12079072
REMARK minimizedRMSD -1
REMARK  1 active torsions:
REMARK  status: ('A' for Active; 'I' for Inactive)
REMARK    1  A    between atoms: N_2  and  C1_3 
ROOT
ATOM      1  C1  UNL d   1      -4.691   5.385   3.333  0.00  0.00     0.143 A 
ATOM      2  C2  UNL d   1      -5.835   5.504   4.130  0.00  0.00    -0.057 A 
ATOM      3  C3  UNL d   1      -5.966   4.783   5.323  0.00  0.00     0.033 A 
ATOM      4  C4  UNL d   1      -4.966   3.905   5.726  0.00  0.00    -0.042 A 
ATOM      5  C5  UNL d   1      -3.832   3.752   4.936  0.00  0.00     0.033 A 
ATOM      6  C6  UNL d   1      -3.703   4.479   3.750  0.00  0.00    -0.057 A 
ENDROOT
BRANCH   1   7
ATOM      7  N   UNL d   1      -4.544   6.000   2.087  0.00  0.00    -0.732 N 
ATOM      8  C   UNL d   1      -5.630   5.997   1.130  0.00  0.00     0.284 C 
ATOM      9  H3  UNL d   1      -4.046   6.885   2.147  0.00  0.00     0.395 HD
ENDBRANCH   1   7
TORSDOF 1
ENDMDL
