MODEL 1
REMARK minimizedAffinity -0.971294582
REMARK minimizedRMSD -1
REMARK  1 active torsions:
REMARK  status: ('A' for Active; 'I' for Inactive)
REMARK    1  A    between atoms: N_2  and  C1_3 
ROOT
ATOM      1  C1  UNL d   1      -5.903   5.186   2.333  0.00  0.00     0.143 A 
ATOM      2  C2  UNL d   1      -5.999   5.823   3.574  0.00  0.00    -0.057 A 
ATOM      3  C3  UNL d   1      -5.998   5.092   4.768  0.00  0.00     0.033 A 
ATOM      4  C4  UNL d   1      -5.930   3.703   4.740  0.00  0.00    -0.042 A 
ATOM      5  C5  UNL d   1      -5.859   3.046   3.516  0.00  0.00     0.033 A 
ATOM      6  C6  UNL d   1      -5.854   3.783   2.328  0.00  0.00    -0.057 A 
ENDROOT
BRANCH   1   7
ATOM      7  N   UNL d   1      -5.999   5.850   1.107  0.00  0.00    -0.732 N 
ATOM      8  C   UNL d   1      -5.507   5.233  -0.106  0.00  0.00     0.284 C 
ATOM      9  H3  UNL d   1      -6.886   6.336   0.997  0.00  0.00     0.395 HD
ENDBRANCH   1   7
TORSDOF 1
ENDMDL
