MODEL 1
REMARK minimizedAffinity -3.13058949
REMARK minimizedRMSD -1
REMARK  1 active torsions:
REMARK  status: ('A' for Active; 'I' for Inactive)
REMARK    1  A    between atoms: N_2  and  C1_3 
ROOT
ATOM      1  C1  UNL d   1      -5.345   3.980   3.863  0.00  0.00     0.143 A 
ATOM      2  C2  UNL d   1      -5.926   3.399   2.730  0.00  0.00    -0.057 A 
ATOM      3  C3  UNL d   1      -5.999   4.093   1.516  0.00  0.00     0.033 A 
ATOM      4  C4  UNL d   1      -5.517   5.394   1.421  0.00  0.00    -0.042 A 
ATOM      5  C5  UNL d   1      -4.958   6.000   2.541  0.00  0.00     0.033 A 
ATOM      6  C6  UNL d   1      -4.882   5.300   3.749  0.00  0.00    -0.057 A 
ENDROOT
BRANCH   1   7
ATOM      7  N   UNL d   1      -5.331   3.379   5.124  0.00  0.00    -0.732 N 
ATOM      8  C   UNL d   1      -4.180   2.621   5.567  0.00  0.00     0.284 C 
ATOM      9  H3  UNL d   1      -5.739   3.973   5.842  0.00  0.00     0.395 HD
ENDBRANCH   1   7
TORSDOF 1
ENDMDL
