MODEL 1
REMARK minimizedAffinity -3.2884984
REMARK minimizedRMSD -1
REMARK  1 active torsions:
REMARK  status: ('A' for Active; 'I' for Inactive)
REMARK    1  A    between atoms: N_2  and  C1_3 
ROOT
ATOM      1  C1  UNL d   1      -5.446   4.687   4.210  0.00  0.00     0.143 A 
ATOM      2  C2  UNL d   1      -4.742   5.805   3.749  0.00  0.00    -0.057 A 
ATOM      3  C3  UNL d   1      -4.503   6.000   2.384  0.00  0.00     0.033 A 
ATOM      4  C4  UNL d   1      -4.939   5.062   1.454  0.00  0.00    -0.042 A 
ATOM      5  C5  UNL d   1      -5.619   3.931   1.891  0.00  0.00     0.033 A 
ATOM      6  C6  UNL d   1      -5.861   3.745   3.255  0.00  0.00    -0.057 A 
ENDROOT
BRANCH   1   7
ATOM      7  N   UNL d   1      -5.630   4.386   5.561  0.00  0.00    -0.732 N 
ATOM      8  C   UNL d   1      -5.852   3.022   5.990  0.00  0.00     0.284 C 
ATOM      9  H3  UNL d   1      -5.006   4.915   6.166  0.00  0.00     0.395 HD
ENDBRANCH   1   7
TORSDOF 1
ENDMDL
