MODEL 1
REMARK minimizedAffinity 11.5891676
REMARK minimizedRMSD -1
REMARK  1 active torsions:
REMARK  status: ('A' for Active; 'I' for Inactive)
REMARK    1  A    between atoms: N_2  and  C1_3 
ROOT
ATOM      1  C1  UNL d   1       0.974  -1.505   0.386  0.00  0.00     0.143 A 
ATOM      2  C2  UNL d   1       0.353  -1.643   1.632  0.00  0.00    -0.057 A 
ATOM      3  C3  UNL d   1       0.882  -2.486   2.617  0.00  0.00     0.033 A 
ATOM      4  C4  UNL d   1       2.028  -3.231   2.361  0.00  0.00    -0.042 A 
ATOM      5  C5  UNL d   1       2.647  -3.129   1.120  0.00  0.00     0.033 A 
ATOM      6  C6  UNL d   1       2.118  -2.280   0.143  0.00  0.00    -0.057 A 
ENDROOT
BRANCH   1   7
ATOM      7  N   UNL d   1       0.442  -0.758  -0.669  0.00  0.00    -0.732 N 
ATOM      8  C   UNL d   1      -0.924  -0.961  -1.100  0.00  0.00     0.284 C 
ATOM      9  H3  UNL d   1       0.728   0.218  -0.636  0.00  0.00     0.395 HD
ENDBRANCH   1   7
TORSDOF 1
ENDMDL
