MODEL 1
REMARK minimizedAffinity 4.96167755
REMARK minimizedRMSD -1
REMARK  1 active torsions:
REMARK  status: ('A' for Active; 'I' for Inactive)
REMARK    1  A    between atoms: N_2  and  C1_3 
ROOT
ATOM      1  C1  UNL d   1       3.427  -4.194   4.032  0.00  0.00     0.143 A 
ATOM      2  C2  UNL d   1       3.417  -4.912   2.831  0.00  0.00    -0.057 A 
ATOM      3  C3  UNL d   1       2.624  -4.508   1.750  0.00  0.00     0.033 A 
ATOM      4  C4  UNL d   1       1.802  -3.391   1.862  0.00  0.00    -0.042 A 
ATOM      5  C5  UNL d   1       1.776  -2.678   3.055  0.00  0.00     0.033 A 
ATOM      6  C6  UNL d   1       2.575  -3.082   4.128  0.00  0.00    -0.057 A 
ENDROOT
BRANCH   1   7
ATOM      7  N   UNL d   1       4.118  -4.601   5.176  0.00  0.00    -0.732 N 
ATOM      8  C   UNL d   1       4.163  -5.998   5.551  0.00  0.00     0.284 C 
ATOM      9  H3  UNL d   1       5.002  -4.111   5.290  0.00  0.00     0.395 HD
ENDBRANCH   1   7
TORSDOF 1
ENDMDL
