MODEL 1
REMARK minimizedAffinity 0.492929608
REMARK minimizedRMSD -1
REMARK  1 active torsions:
REMARK  status: ('A' for Active; 'I' for Inactive)
REMARK    1  A    between atoms: N_2  and  C1_3 
ROOT
ATOM      1  C1  UNL d   1       4.615   2.065   1.574  0.00  0.00     0.143 A 
ATOM      2  C2  UNL d   1       3.487   2.207   0.760  0.00  0.00    -0.057 A 
ATOM      3  C3  UNL d   1       2.257   2.618   1.288  0.00  0.00     0.033 A 
ATOM      4  C4  UNL d   1       2.127   2.869   2.650  0.00  0.00    -0.042 A 
ATOM      5  C5  UNL d   1       3.229   2.710   3.482  0.00  0.00     0.033 A 
ATOM      6  C6  UNL d   1       4.456   2.306   2.948  0.00  0.00    -0.057 A 
ENDROOT
BRANCH   1   7
ATOM      7  N   UNL d   1       5.840   1.565   1.126  0.00  0.00    -0.732 N 
ATOM      8  C   UNL d   1       5.990   0.162   0.803  0.00  0.00     0.284 C 
ATOM      9  H3  UNL d   1       6.301   2.194   0.472  0.00  0.00     0.395 HD
ENDBRANCH   1   7
TORSDOF 1
ENDMDL
