MODEL 1
REMARK minimizedAffinity -0.177526653
REMARK minimizedRMSD -1
REMARK  1 active torsions:
REMARK  status: ('A' for Active; 'I' for Inactive)
REMARK    1  A    between atoms: N_2  and  C1_3 
ROOT
ATOM      1  C1  UNL d   1       3.072   1.562   0.581  0.00  0.00     0.143 A 
ATOM      2  C2  UNL d   1       2.225   2.491  -0.033  0.00  0.00    -0.057 A 
ATOM      3  C3  UNL d   1       1.116   2.078  -0.782  0.00  0.00     0.033 A 
ATOM      4  C4  UNL d   1       0.851   0.724  -0.954  0.00  0.00    -0.042 A 
ATOM      5  C5  UNL d   1       1.694  -0.217  -0.373  0.00  0.00     0.033 A 
ATOM      6  C6  UNL d   1       2.796   0.201   0.379  0.00  0.00    -0.057 A 
ENDROOT
BRANCH   1   7
ATOM      7  N   UNL d   1       4.246   1.907   1.256  0.00  0.00    -0.732 N 
ATOM      8  C   UNL d   1       5.539   1.533   0.725  0.00  0.00     0.284 C 
ATOM      9  H3  UNL d   1       4.211   2.849   1.639  0.00  0.00     0.395 HD
ENDBRANCH   1   7
TORSDOF 1
ENDMDL
