MODEL 1
REMARK minimizedAffinity 2.67436075
REMARK minimizedRMSD -1
REMARK  1 active torsions:
REMARK  status: ('A' for Active; 'I' for Inactive)
REMARK    1  A    between atoms: N_2  and  C1_3 
ROOT
ATOM      1  C1  UNL d   1      -1.965   1.614  -2.142  0.00  0.00     0.143 A 
ATOM      2  C2  UNL d   1      -0.886   2.483  -2.340  0.00  0.00    -0.057 A 
ATOM      3  C3  UNL d   1      -1.068   3.746  -2.917  0.00  0.00     0.033 A 
ATOM      4  C4  UNL d   1      -2.331   4.151  -3.334  0.00  0.00    -0.042 A 
ATOM      5  C5  UNL d   1      -3.414   3.294  -3.170  0.00  0.00     0.033 A 
ATOM      6  C6  UNL d   1      -3.227   2.037  -2.587  0.00  0.00    -0.057 A 
ENDROOT
BRANCH   1   7
ATOM      7  N   UNL d   1      -1.833   0.308  -1.664  0.00  0.00    -0.732 N 
ATOM      8  C   UNL d   1      -2.781  -0.716  -2.048  0.00  0.00     0.284 C 
ATOM      9  H3  UNL d   1      -0.865  -0.006  -1.652  0.00  0.00     0.395 HD
ENDBRANCH   1   7
TORSDOF 1
ENDMDL
