MODEL 1
REMARK minimizedAffinity 2.73924828
REMARK minimizedRMSD -1
REMARK  1 active torsions:
REMARK  status: ('A' for Active; 'I' for Inactive)
REMARK    1  A    between atoms: N_2  and  C1_3 
ROOT
ATOM      1  C1  UNL d   1       1.028  -2.721   2.001  0.00  0.00     0.143 A 
ATOM      2  C2  UNL d   1       2.082  -1.920   1.548  0.00  0.00    -0.057 A 
ATOM      3  C3  UNL d   1       3.174  -2.473   0.869  0.00  0.00     0.033 A 
ATOM      4  C4  UNL d   1       3.245  -3.846   0.656  0.00  0.00    -0.042 A 
ATOM      5  C5  UNL d   1       2.221  -4.664   1.119  0.00  0.00     0.033 A 
ATOM      6  C6  UNL d   1       1.130  -4.105   1.790  0.00  0.00    -0.057 A 
ENDROOT
BRANCH   1   7
ATOM      7  N   UNL d   1      -0.038  -2.243   2.768  0.00  0.00    -0.732 N 
ATOM      8  C   UNL d   1       0.109  -1.048   3.570  0.00  0.00     0.284 C 
ATOM      9  H3  UNL d   1      -0.928  -2.309   2.280  0.00  0.00     0.395 HD
ENDBRANCH   1   7
TORSDOF 1
ENDMDL
