MODEL 1
REMARK minimizedAffinity -6.13750315
REMARK minimizedRMSD -1
REMARK  0 active torsions:
REMARK  status: ('A' for Active; 'I' for Inactive)
ROOT
ATOM      1  N1  IND d   1       0.485   0.315  -0.636  0.00  0.00    -0.196 N 
ATOM      2  C2  IND d   1       0.339  -0.755   0.203  0.00  0.00     0.054 A 
ATOM      3  C3  IND d   1      -0.495  -0.444   1.220  0.00  0.00    -0.031 A 
ATOM      4  C4  IND d   1      -1.813   1.726   1.650  0.00  0.00     0.051 A 
ATOM      5  C5  IND d   1      -1.977   2.998   1.178  0.00  0.00    -0.031 A 
ATOM      6  C6  IND d   1      -1.317   3.449   0.053  0.00  0.00     0.015 A 
ATOM      7  C7  IND d   1      -0.474   2.637  -0.652  0.00  0.00    -0.016 A 
ATOM      8  C8  IND d   1      -0.300   1.347  -0.171  0.00  0.00    -0.047 A 
ATOM      9  C9  IND d   1      -0.934   0.897   0.994  0.00  0.00    -0.096 A 
ATOM     10  HN1 IND d   1       0.984   0.338  -1.336  0.00  0.00     0.298 HD
ENDROOT
TORSDOF 0
ENDMDL
