MODEL 1
REMARK minimizedAffinity -4.40601397
REMARK minimizedRMSD -1
REMARK  0 active torsions:
REMARK  status: ('A' for Active; 'I' for Inactive)
ROOT
ATOM      1  N1  IND d   1      -0.835  -0.731  -1.909  0.00  0.00    -0.196 N 
ATOM      2  C2  IND d   1       0.175  -1.650  -1.976  0.00  0.00     0.054 A 
ATOM      3  C3  IND d   1       0.789  -1.763  -0.777  0.00  0.00    -0.031 A 
ATOM      4  C4  IND d   1       0.236  -0.612   1.458  0.00  0.00     0.051 A 
ATOM      5  C5  IND d   1      -0.578   0.338   2.009  0.00  0.00    -0.031 A 
ATOM      6  C6  IND d   1      -1.541   0.991   1.267  0.00  0.00     0.015 A 
ATOM      7  C7  IND d   1      -1.734   0.709  -0.056  0.00  0.00    -0.016 A 
ATOM      8  C8  IND d   1      -0.904  -0.249  -0.620  0.00  0.00    -0.047 A 
ATOM      9  C9  IND d   1       0.103  -0.885   0.117  0.00  0.00    -0.096 A 
ATOM     10  HN1 IND d   1      -1.342  -0.494  -2.561  0.00  0.00     0.298 HD
ENDROOT
TORSDOF 0
ENDMDL
