MODEL 1
REMARK minimizedAffinity -4.61719275
REMARK minimizedRMSD -1
REMARK  0 active torsions:
REMARK  status: ('A' for Active; 'I' for Inactive)
ROOT
ATOM      1  N1  IND d   1       0.291   0.317  -1.497  0.00  0.00    -0.196 N 
ATOM      2  C2  IND d   1       0.922  -0.894  -1.437  0.00  0.00     0.054 A 
ATOM      3  C3  IND d   1       0.825  -1.414  -0.192  0.00  0.00    -0.031 A 
ATOM      4  C4  IND d   1      -0.410  -0.496   1.871  0.00  0.00     0.051 A 
ATOM      5  C5  IND d   1      -1.103   0.596   2.315  0.00  0.00    -0.031 A 
ATOM      6  C6  IND d   1      -1.375   1.670   1.493  0.00  0.00     0.015 A 
ATOM      7  C7  IND d   1      -0.972   1.689   0.188  0.00  0.00    -0.016 A 
ATOM      8  C8  IND d   1      -0.262   0.585  -0.264  0.00  0.00    -0.047 A 
ATOM      9  C9  IND d   1       0.054  -0.489   0.577  0.00  0.00    -0.096 A 
ATOM     10  HN1 IND d   1       0.246   0.825  -2.189  0.00  0.00     0.298 HD
ENDROOT
TORSDOF 0
ENDMDL
