MODEL 1
REMARK minimizedAffinity -3.08828378
REMARK minimizedRMSD -1
REMARK  0 active torsions:
REMARK  status: ('A' for Active; 'I' for Inactive)
ROOT
ATOM      1  N1  IND d   1       0.953   0.396  -0.946  0.00  0.00    -0.196 N 
ATOM      2  C2  IND d   1       1.508  -0.850  -0.865  0.00  0.00     0.054 A 
ATOM      3  C3  IND d   1       0.970  -1.539   0.167  0.00  0.00    -0.031 A 
ATOM      4  C4  IND d   1      -0.908  -0.852   1.789  0.00  0.00     0.051 A 
ATOM      5  C5  IND d   1      -1.701   0.206   2.132  0.00  0.00    -0.031 A 
ATOM      6  C6  IND d   1      -1.651   1.406   1.452  0.00  0.00     0.015 A 
ATOM      7  C7  IND d   1      -0.810   1.588   0.391  0.00  0.00    -0.016 A 
ATOM      8  C8  IND d   1       0.002   0.518   0.044  0.00  0.00    -0.047 A 
ATOM      9  C9  IND d   1      -0.014  -0.688   0.757  0.00  0.00    -0.096 A 
ATOM     10  HN1 IND d   1       1.163   1.003  -1.518  0.00  0.00     0.298 HD
ENDROOT
TORSDOF 0
ENDMDL
