MODEL 1
REMARK minimizedAffinity -5.04160929
REMARK minimizedRMSD -1
REMARK  0 active torsions:
REMARK  status: ('A' for Active; 'I' for Inactive)
ROOT
ATOM      1  N1  IND d   1       0.936  -0.188   0.906  0.00  0.00    -0.196 N 
ATOM      2  C2  IND d   1       1.294  -0.728  -0.298  0.00  0.00     0.054 A 
ATOM      3  C3  IND d   1       0.342  -0.481  -1.226  0.00  0.00    -0.031 A 
ATOM      4  C4  IND d   1      -1.835   0.876  -1.015  0.00  0.00     0.051 A 
ATOM      5  C5  IND d   1      -2.611   1.532  -0.101  0.00  0.00    -0.031 A 
ATOM      6  C6  IND d   1      -2.236   1.654   1.222  0.00  0.00     0.015 A 
ATOM      7  C7  IND d   1      -1.059   1.130   1.679  0.00  0.00    -0.016 A 
ATOM      8  C8  IND d   1      -0.272   0.457   0.755  0.00  0.00    -0.047 A 
ATOM      9  C9  IND d   1      -0.669   0.294  -0.579  0.00  0.00    -0.096 A 
ATOM     10  HN1 IND d   1       1.389  -0.242   1.635  0.00  0.00     0.298 HD
ENDROOT
TORSDOF 0
ENDMDL
