MODEL 1
REMARK minimizedAffinity -4.46160507
REMARK minimizedRMSD -1
REMARK  0 active torsions:
REMARK  status: ('A' for Active; 'I' for Inactive)
ROOT
ATOM      1  N1  IND d   1       0.703   0.445  -1.051  0.00  0.00    -0.196 N 
ATOM      2  C2  IND d   1       1.318  -0.701  -0.630  0.00  0.00     0.054 A 
ATOM      3  C3  IND d   1       0.806  -1.102   0.555  0.00  0.00    -0.031 A 
ATOM      4  C4  IND d   1      -1.116  -0.085   1.934  0.00  0.00     0.051 A 
ATOM      5  C5  IND d   1      -1.962   0.986   1.975  0.00  0.00    -0.031 A 
ATOM      6  C6  IND d   1      -1.966   1.951   0.988  0.00  0.00     0.015 A 
ATOM      7  C7  IND d   1      -1.127   1.873  -0.088  0.00  0.00    -0.016 A 
ATOM      8  C8  IND d   1      -0.260   0.789  -0.129  0.00  0.00    -0.047 A 
ATOM      9  C9  IND d   1      -0.223  -0.170   0.892  0.00  0.00    -0.096 A 
ATOM     10  HN1 IND d   1       0.888   0.878  -1.770  0.00  0.00     0.298 HD
ENDROOT
TORSDOF 0
ENDMDL
