MODEL 1
REMARK minimizedAffinity -3.86671472
REMARK minimizedRMSD -1
REMARK  0 active torsions:
REMARK  status: ('A' for Active; 'I' for Inactive)
ROOT
ATOM      1  N1  IND d   1      -0.716  -0.288  -2.092  0.00  0.00    -0.196 N 
ATOM      2  C2  IND d   1      -0.452   0.203  -0.844  0.00  0.00     0.054 A 
ATOM      3  C3  IND d   1       0.279  -0.686  -0.134  0.00  0.00    -0.031 A 
ATOM      4  C4  IND d   1       1.239  -2.962  -0.857  0.00  0.00     0.051 A 
ATOM      5  C5  IND d   1       1.235  -3.853  -1.893  0.00  0.00    -0.031 A 
ATOM      6  C6  IND d   1       0.568  -3.595  -3.074  0.00  0.00     0.015 A 
ATOM      7  C7  IND d   1      -0.112  -2.426  -3.267  0.00  0.00    -0.016 A 
ATOM      8  C8  IND d   1      -0.115  -1.522  -2.214  0.00  0.00    -0.047 A 
ATOM      9  C9  IND d   1       0.524  -1.797  -0.998  0.00  0.00    -0.096 A 
ATOM     10  HN1 IND d   1      -1.179   0.107  -2.699  0.00  0.00     0.298 HD
ENDROOT
TORSDOF 0
ENDMDL
