MODEL 1
REMARK minimizedAffinity -2.93144846
REMARK minimizedRMSD -1
REMARK  0 active torsions:
REMARK  status: ('A' for Active; 'I' for Inactive)
ROOT
ATOM      1  N1  IND d   1      -1.426  -0.034   1.477  0.00  0.00    -0.196 N 
ATOM      2  C2  IND d   1      -2.119   1.144   1.525  0.00  0.00     0.054 A 
ATOM      3  C3  IND d   1      -1.660   1.998   0.584  0.00  0.00    -0.031 A 
ATOM      4  C4  IND d   1       0.151   1.636  -1.210  0.00  0.00     0.051 A 
ATOM      5  C5  IND d   1       1.089   0.734  -1.627  0.00  0.00    -0.031 A 
ATOM      6  C6  IND d   1       1.238  -0.496  -1.019  0.00  0.00     0.015 A 
ATOM      7  C7  IND d   1       0.443  -0.876   0.025  0.00  0.00    -0.016 A 
ATOM      8  C8  IND d   1      -0.506   0.040   0.455  0.00  0.00    -0.047 A 
ATOM      9  C9  IND d   1      -0.633   1.307  -0.130  0.00  0.00    -0.096 A 
ATOM     10  HN1 IND d   1      -1.545  -0.708   1.998  0.00  0.00     0.298 HD
ENDROOT
TORSDOF 0
ENDMDL
