MODEL 1
REMARK minimizedAffinity 0.0368142352
REMARK minimizedRMSD -1
REMARK  0 active torsions:
REMARK  status: ('A' for Active; 'I' for Inactive)
ROOT
ATOM      1  N1  IND d   1       1.245   0.925  -1.869  0.00  0.00    -0.196 N 
ATOM      2  C2  IND d   1       0.621   2.103  -2.170  0.00  0.00     0.054 A 
ATOM      3  C3  IND d   1      -0.308   2.396  -1.233  0.00  0.00    -0.031 A 
ATOM      4  C4  IND d   1      -0.901   1.136   0.932  0.00  0.00     0.051 A 
ATOM      5  C5  IND d   1      -0.626  -0.013   1.619  0.00  0.00    -0.031 A 
ATOM      6  C6  IND d   1       0.308  -0.925   1.171  0.00  0.00     0.015 A 
ATOM      7  C7  IND d   1       1.012  -0.716   0.020  0.00  0.00    -0.016 A 
ATOM      8  C8  IND d   1       0.731   0.446  -0.685  0.00  0.00    -0.047 A 
ATOM      9  C9  IND d   1      -0.246   1.355  -0.257  0.00  0.00    -0.096 A 
ATOM     10  HN1 IND d   1       1.856   0.546  -2.341  0.00  0.00     0.298 HD
ENDROOT
TORSDOF 0
ENDMDL
