MODEL 1
REMARK minimizedAffinity -0.195077047
REMARK minimizedRMSD -1
REMARK  0 active torsions:
REMARK  status: ('A' for Active; 'I' for Inactive)
ROOT
ATOM      1  N1  IND d   1       0.159   0.549  -1.517  0.00  0.00    -0.196 N 
ATOM      2  C2  IND d   1       0.224   0.820  -0.179  0.00  0.00     0.054 A 
ATOM      3  C3  IND d   1       0.592  -0.285   0.508  0.00  0.00    -0.031 A 
ATOM      4  C4  IND d   1       1.235  -2.618  -0.371  0.00  0.00     0.051 A 
ATOM      5  C5  IND d   1       1.292  -3.358  -1.518  0.00  0.00    -0.031 A 
ATOM      6  C6  IND d   1       0.971  -2.823  -2.749  0.00  0.00     0.015 A 
ATOM      7  C7  IND d   1       0.589  -1.518  -2.880  0.00  0.00    -0.016 A 
ATOM      8  C8  IND d   1       0.523  -0.764  -1.717  0.00  0.00    -0.047 A 
ATOM      9  C9  IND d   1       0.807  -1.314  -0.460  0.00  0.00    -0.096 A 
ATOM     10  HN1 IND d   1      -0.072   1.105  -2.131  0.00  0.00     0.298 HD
ENDROOT
TORSDOF 0
ENDMDL
