MODEL 1
REMARK minimizedAffinity -2.47143245
REMARK minimizedRMSD -1
REMARK  0 active torsions:
REMARK  status: ('A' for Active; 'I' for Inactive)
ROOT
ATOM      1  N1  IND d   1       0.556  -1.005   1.114  0.00  0.00    -0.196 N 
ATOM      2  C2  IND d   1       0.826  -1.382  -0.171  0.00  0.00     0.054 A 
ATOM      3  C3  IND d   1       0.124  -0.623  -1.042  0.00  0.00    -0.031 A 
ATOM      4  C4  IND d   1      -1.449   1.362  -0.582  0.00  0.00     0.051 A 
ATOM      5  C5  IND d   1      -2.037   2.057   0.438  0.00  0.00    -0.031 A 
ATOM      6  C6  IND d   1      -1.783   1.763   1.762  0.00  0.00     0.015 A 
ATOM      7  C7  IND d   1      -0.920   0.765   2.117  0.00  0.00    -0.016 A 
ATOM      8  C8  IND d   1      -0.326   0.053   1.084  0.00  0.00    -0.047 A 
ATOM      9  C9  IND d   1      -0.613   0.319  -0.261  0.00  0.00    -0.096 A 
ATOM     10  HN1 IND d   1       0.882  -1.367   1.823  0.00  0.00     0.298 HD
ENDROOT
TORSDOF 0
ENDMDL
