MODEL 1
REMARK minimizedAffinity -4.90186691
REMARK minimizedRMSD -1
REMARK  0 active torsions:
REMARK  status: ('A' for Active; 'I' for Inactive)
ROOT
ATOM      1  N1  IND d   1       0.786   0.675  -1.128  0.00  0.00    -0.196 N 
ATOM      2  C2  IND d   1       1.294  -0.476  -0.593  0.00  0.00     0.054 A 
ATOM      3  C3  IND d   1       0.688  -0.756   0.582  0.00  0.00    -0.031 A 
ATOM      4  C4  IND d   1      -1.235   0.480   1.766  0.00  0.00     0.051 A 
ATOM      5  C5  IND d   1      -2.006   1.606   1.681  0.00  0.00    -0.031 A 
ATOM      6  C6  IND d   1      -1.885   2.495   0.632  0.00  0.00     0.015 A 
ATOM      7  C7  IND d   1      -0.992   2.285  -0.380  0.00  0.00    -0.016 A 
ATOM      8  C8  IND d   1      -0.203   1.147  -0.294  0.00  0.00    -0.047 A 
ATOM      9  C9  IND d   1      -0.291   0.263   0.790  0.00  0.00    -0.096 A 
ATOM     10  HN1 IND d   1       1.042   1.042  -1.863  0.00  0.00     0.298 HD
ENDROOT
TORSDOF 0
ENDMDL
