MODEL 1
REMARK minimizedAffinity -2.99552703
REMARK minimizedRMSD -1
REMARK  0 active torsions:
REMARK  status: ('A' for Active; 'I' for Inactive)
ROOT
ATOM      1  N1  IND d   1      -1.711   1.765  -0.018  0.00  0.00    -0.196 N 
ATOM      2  C2  IND d   1      -2.118   1.954   1.274  0.00  0.00     0.054 A 
ATOM      3  C3  IND d   1      -1.497   1.079   2.096  0.00  0.00    -0.031 A 
ATOM      4  C4  IND d   1       0.301  -0.681   1.552  0.00  0.00     0.051 A 
ATOM      5  C5  IND d   1       0.970  -1.250   0.505  0.00  0.00    -0.031 A 
ATOM      6  C6  IND d   1       0.777  -0.833  -0.796  0.00  0.00     0.015 A 
ATOM      7  C7  IND d   1      -0.087   0.181  -1.098  0.00  0.00    -0.016 A 
ATOM      8  C8  IND d   1      -0.773   0.757  -0.038  0.00  0.00    -0.047 A 
ATOM      9  C9  IND d   1      -0.613   0.309   1.280  0.00  0.00    -0.096 A 
ATOM     10  HN1 IND d   1      -1.993   2.203  -0.702  0.00  0.00     0.298 HD
ENDROOT
TORSDOF 0
ENDMDL
