MODEL 1
REMARK minimizedAffinity -3.7962513
REMARK minimizedRMSD -1
REMARK  0 active torsions:
REMARK  status: ('A' for Active; 'I' for Inactive)
ROOT
ATOM      1  N1  IND d   1       0.847   1.392  -1.093  0.00  0.00    -0.196 N 
ATOM      2  C2  IND d   1       1.569   0.233  -1.014  0.00  0.00     0.054 A 
ATOM      3  C3  IND d   1       1.084  -0.557  -0.031  0.00  0.00    -0.031 A 
ATOM      4  C4  IND d   1      -0.950  -0.194   1.506  0.00  0.00     0.051 A 
ATOM      5  C5  IND d   1      -1.901   0.731   1.833  0.00  0.00    -0.031 A 
ATOM      6  C6  IND d   1      -1.989   1.947   1.186  0.00  0.00     0.015 A 
ATOM      7  C7  IND d   1      -1.131   2.280   0.176  0.00  0.00    -0.016 A 
ATOM      8  C8  IND d   1      -0.159   1.346  -0.154  0.00  0.00    -0.047 A 
ATOM      9  C9  IND d   1      -0.039   0.128   0.528  0.00  0.00    -0.096 A 
ATOM     10  HN1 IND d   1       0.997   2.040  -1.639  0.00  0.00     0.298 HD
ENDROOT
TORSDOF 0
ENDMDL
