MODEL 1
REMARK minimizedAffinity -5.51951742
REMARK minimizedRMSD -1
REMARK  0 active torsions:
REMARK  status: ('A' for Active; 'I' for Inactive)
ROOT
ATOM      1  N1  IND d   1      -0.942   1.714  -0.712  0.00  0.00    -0.196 N 
ATOM      2  C2  IND d   1      -1.592   2.697  -0.018  0.00  0.00     0.054 A 
ATOM      3  C3  IND d   1      -1.620   2.401   1.301  0.00  0.00    -0.031 A 
ATOM      4  C4  IND d   1      -0.574   0.411   2.554  0.00  0.00     0.051 A 
ATOM      5  C5  IND d   1       0.088  -0.766   2.344  0.00  0.00    -0.031 A 
ATOM      6  C6  IND d   1       0.451  -1.184   1.079  0.00  0.00     0.015 A 
ATOM      7  C7  IND d   1       0.173  -0.431  -0.026  0.00  0.00    -0.016 A 
ATOM      8  C8  IND d   1      -0.506   0.762   0.183  0.00  0.00    -0.047 A 
ATOM      9  C9  IND d   1      -0.913   1.170   1.459  0.00  0.00    -0.096 A 
ATOM     10  HN1 IND d   1      -0.826   1.695  -1.563  0.00  0.00     0.298 HD
ENDROOT
TORSDOF 0
ENDMDL
