MODEL 1
REMARK minimizedAffinity -6.28533649
REMARK minimizedRMSD -1
REMARK  0 active torsions:
REMARK  status: ('A' for Active; 'I' for Inactive)
ROOT
ATOM      1  N1  IND d   1       1.374   1.287  -0.859  0.00  0.00    -0.196 N 
ATOM      2  C2  IND d   1       1.594   0.000  -0.452  0.00  0.00     0.054 A 
ATOM      3  C3  IND d   1       0.642  -0.384   0.428  0.00  0.00    -0.031 A 
ATOM      4  C4  IND d   1      -1.427   0.899   1.262  0.00  0.00     0.051 A 
ATOM      5  C5  IND d   1      -2.034   2.123   1.200  0.00  0.00    -0.031 A 
ATOM      6  C6  IND d   1      -1.527   3.150   0.430  0.00  0.00     0.015 A 
ATOM      7  C7  IND d   1      -0.395   2.987  -0.318  0.00  0.00    -0.016 A 
ATOM      8  C8  IND d   1       0.227   1.749  -0.251  0.00  0.00    -0.047 A 
ATOM      9  C9  IND d   1      -0.259   0.716   0.561  0.00  0.00    -0.096 A 
ATOM     10  HN1 IND d   1       1.869   1.732  -1.403  0.00  0.00     0.298 HD
ENDROOT
TORSDOF 0
ENDMDL
