MODEL 1
REMARK minimizedAffinity -4.25868082
REMARK minimizedRMSD -1
REMARK  0 active torsions:
REMARK  status: ('A' for Active; 'I' for Inactive)
ROOT
ATOM      1  N1  IND d   1      -1.401   1.330   1.978  0.00  0.00    -0.196 N 
ATOM      2  C2  IND d   1      -1.798   2.288   1.087  0.00  0.00     0.054 A 
ATOM      3  C3  IND d   1      -1.302   2.022  -0.142  0.00  0.00    -0.031 A 
ATOM      4  C4  IND d   1       0.098   0.015  -0.941  0.00  0.00     0.051 A 
ATOM      5  C5  IND d   1       0.739  -1.102  -0.483  0.00  0.00    -0.031 A 
ATOM      6  C6  IND d   1       0.696  -1.474   0.845  0.00  0.00     0.015 A 
ATOM      7  C7  IND d   1      -0.002  -0.747   1.766  0.00  0.00    -0.016 A 
ATOM      8  C8  IND d   1      -0.648   0.392   1.306  0.00  0.00    -0.047 A 
ATOM      9  C9  IND d   1      -0.573   0.798  -0.032  0.00  0.00    -0.096 A 
ATOM     10  HN1 IND d   1      -1.590   1.316   2.816  0.00  0.00     0.298 HD
ENDROOT
TORSDOF 0
ENDMDL
