MODEL 1
REMARK minimizedAffinity -6.27402782
REMARK minimizedRMSD -1
REMARK  0 active torsions:
REMARK  status: ('A' for Active; 'I' for Inactive)
ROOT
ATOM      1  N1  IND d   1       1.076   0.608  -0.522  0.00  0.00    -0.196 N 
ATOM      2  C2  IND d   1       0.653  -0.429   0.262  0.00  0.00     0.054 A 
ATOM      3  C3  IND d   1      -0.346  -0.024   1.078  0.00  0.00    -0.031 A 
ATOM      4  C4  IND d   1      -1.511   2.267   1.226  0.00  0.00     0.051 A 
ATOM      5  C5  IND d   1      -1.448   3.541   0.735  0.00  0.00    -0.031 A 
ATOM      6  C6  IND d   1      -0.523   3.909  -0.221  0.00  0.00     0.015 A 
ATOM      7  C7  IND d   1       0.369   3.010  -0.732  0.00  0.00    -0.016 A 
ATOM      8  C8  IND d   1       0.313   1.717  -0.232  0.00  0.00    -0.047 A 
ATOM      9  C9  IND d   1      -0.595   1.348   0.769  0.00  0.00    -0.096 A 
ATOM     10  HN1 IND d   1       1.712   0.573  -1.099  0.00  0.00     0.298 HD
ENDROOT
TORSDOF 0
ENDMDL
