MODEL 1
REMARK minimizedAffinity -4.93568707
REMARK minimizedRMSD -1
REMARK  0 active torsions:
REMARK  status: ('A' for Active; 'I' for Inactive)
ROOT
ATOM      1  N1  IND d   1       0.069   1.150  -0.993  0.00  0.00    -0.196 N 
ATOM      2  C2  IND d   1       0.923   0.092  -1.139  0.00  0.00     0.054 A 
ATOM      3  C3  IND d   1       0.805  -0.756  -0.093  0.00  0.00    -0.031 A 
ATOM      4  C4  IND d   1      -0.798  -0.658   1.919  0.00  0.00     0.051 A 
ATOM      5  C5  IND d   1      -1.741   0.137   2.508  0.00  0.00    -0.031 A 
ATOM      6  C6  IND d   1      -2.138   1.334   1.947  0.00  0.00     0.015 A 
ATOM      7  C7  IND d   1      -1.614   1.776   0.766  0.00  0.00    -0.016 A 
ATOM      8  C8  IND d   1      -0.651   0.974   0.169  0.00  0.00    -0.047 A 
ATOM      9  C9  IND d   1      -0.213  -0.221   0.754  0.00  0.00    -0.096 A 
ATOM     10  HN1 IND d   1      -0.006   1.813  -1.535  0.00  0.00     0.298 HD
ENDROOT
TORSDOF 0
ENDMDL
