MODEL 1
REMARK minimizedAffinity 3.72546792
REMARK minimizedRMSD -1
REMARK  0 active torsions:
REMARK  status: ('A' for Active; 'I' for Inactive)
ROOT
ATOM      1  C1  BNZ d   1      -2.497  -4.896  -4.559  0.00  0.00     0.000 A 
ATOM      2  C2  BNZ d   1      -2.863  -3.809  -5.307  0.00  0.00     0.000 A 
ATOM      3  C3  BNZ d   1      -4.042  -3.801  -5.999  0.00  0.00     0.000 A 
ATOM      4  C4  BNZ d   1      -4.833  -4.893  -5.973  0.00  0.00     0.000 A 
ATOM      5  C5  BNZ d   1      -4.473  -6.000  -5.231  0.00  0.00     0.000 A 
ATOM      6  C6  BNZ d   1      -3.304  -5.990  -4.505  0.00  0.00     0.000 A 
ENDROOT
TORSDOF 0
ENDMDL
