MODEL 1
REMARK minimizedAffinity 3.8472538
REMARK minimizedRMSD -1
REMARK  0 active torsions:
REMARK  status: ('A' for Active; 'I' for Inactive)
ROOT
ATOM      1  C1  BNZ d   1       0.233   2.429   1.468  0.00  0.00     0.000 A 
ATOM      2  C2  BNZ d   1       1.168   2.736   0.515  0.00  0.00     0.000 A 
ATOM      3  C3  BNZ d   1       0.789   3.162  -0.727  0.00  0.00     0.000 A 
ATOM      4  C4  BNZ d   1      -0.524   3.242  -1.028  0.00  0.00     0.000 A 
ATOM      5  C5  BNZ d   1      -1.478   2.927  -0.082  0.00  0.00     0.000 A 
ATOM      6  C6  BNZ d   1      -1.093   2.536   1.180  0.00  0.00     0.000 A 
ENDROOT
TORSDOF 0
ENDMDL
