MODEL 1
REMARK minimizedAffinity 4.94786215
REMARK minimizedRMSD -1
REMARK  0 active torsions:
REMARK  status: ('A' for Active; 'I' for Inactive)
ROOT
ATOM      1  C1  BNZ d   1       0.563   1.525  -0.300  0.00  0.00     0.000 A 
ATOM      2  C2  BNZ d   1      -0.293   2.103  -1.200  0.00  0.00     0.000 A 
ATOM      3  C3  BNZ d   1      -1.258   2.977  -0.785  0.00  0.00     0.000 A 
ATOM      4  C4  BNZ d   1      -1.392   3.241   0.531  0.00  0.00     0.000 A 
ATOM      5  C5  BNZ d   1      -0.543   2.660   1.451  0.00  0.00     0.000 A 
ATOM      6  C6  BNZ d   1       0.453   1.810   1.026  0.00  0.00     0.000 A 
ENDROOT
TORSDOF 0
ENDMDL
