MODEL 1
REMARK minimizedAffinity 9.48818302
REMARK minimizedRMSD -1
REMARK  0 active torsions:
REMARK  status: ('A' for Active; 'I' for Inactive)
ROOT
ATOM      1  C1  BNZ d   1      -0.138   2.948  -1.444  0.00  0.00     0.000 A 
ATOM      2  C2  BNZ d   1       0.227   2.354  -0.265  0.00  0.00     0.000 A 
ATOM      3  C3  BNZ d   1      -0.250   2.817   0.929  0.00  0.00     0.000 A 
ATOM      4  C4  BNZ d   1      -1.059   3.895   0.947  0.00  0.00     0.000 A 
ATOM      5  C5  BNZ d   1      -1.430   4.511  -0.232  0.00  0.00     0.000 A 
ATOM      6  C6  BNZ d   1      -0.978   4.019  -1.435  0.00  0.00     0.000 A 
ENDROOT
TORSDOF 0
ENDMDL
