MODEL 1
REMARK minimizedAffinity 13.1650991
REMARK minimizedRMSD -1
REMARK  0 active torsions:
REMARK  status: ('A' for Active; 'I' for Inactive)
ROOT
ATOM      1  C1  BNZ d   1       0.336   1.659  -0.224  0.00  0.00     0.000 A 
ATOM      2  C2  BNZ d   1       1.011   2.308  -1.223  0.00  0.00     0.000 A 
ATOM      3  C3  BNZ d   1       0.725   3.609  -1.530  0.00  0.00     0.000 A 
ATOM      4  C4  BNZ d   1      -0.262   4.245  -0.866  0.00  0.00     0.000 A 
ATOM      5  C5  BNZ d   1      -0.958   3.601   0.137  0.00  0.00     0.000 A 
ATOM      6  C6  BNZ d   1      -0.640   2.304   0.470  0.00  0.00     0.000 A 
ENDROOT
TORSDOF 0
ENDMDL
