MODEL 1
REMARK minimizedAffinity 0.854205191
REMARK minimizedRMSD -1
REMARK  0 active torsions:
REMARK  status: ('A' for Active; 'I' for Inactive)
ROOT
ATOM      1  C1  BNZ d   1      -0.892   2.578   2.562  0.00  0.00     0.000 A 
ATOM      2  C2  BNZ d   1       0.428   2.484   2.208  0.00  0.00     0.000 A 
ATOM      3  C3  BNZ d   1       0.818   2.660   0.909  0.00  0.00     0.000 A 
ATOM      4  C4  BNZ d   1      -0.115   2.888  -0.038  0.00  0.00     0.000 A 
ATOM      5  C5  BNZ d   1      -1.450   2.976   0.303  0.00  0.00     0.000 A 
ATOM      6  C6  BNZ d   1      -1.835   2.838   1.616  0.00  0.00     0.000 A 
ENDROOT
TORSDOF 0
ENDMDL
