MODEL 1
REMARK minimizedAffinity 5.94802952
REMARK minimizedRMSD -1
REMARK  0 active torsions:
REMARK  status: ('A' for Active; 'I' for Inactive)
ROOT
ATOM      1  C1  BNZ d   1       1.543  -4.485  -3.371  0.00  0.00     0.000 A 
ATOM      2  C2  BNZ d   1       2.238  -5.192  -2.427  0.00  0.00     0.000 A 
ATOM      3  C3  BNZ d   1       1.867  -5.156  -1.112  0.00  0.00     0.000 A 
ATOM      4  C4  BNZ d   1       0.827  -4.384  -0.737  0.00  0.00     0.000 A 
ATOM      5  C5  BNZ d   1       0.122  -3.657  -1.676  0.00  0.00     0.000 A 
ATOM      6  C6  BNZ d   1       0.474  -3.726  -3.004  0.00  0.00     0.000 A 
ENDROOT
TORSDOF 0
ENDMDL
