MODEL 1
REMARK minimizedAffinity -1.6903851
REMARK minimizedRMSD -1
REMARK  0 active torsions:
REMARK  status: ('A' for Active; 'I' for Inactive)
ROOT
ATOM      1  C2' OXE d   1       0.163  -1.659  -0.865  0.00  0.00     0.078 C 
ATOM      2  C1' OXE d   1       1.315   0.890  -1.099  0.00  0.00     0.078 C 
ATOM      3  C1  OXE d   1       0.334   0.662   0.023  0.00  0.00    -0.078 A 
ATOM      4  C2  OXE d   1      -0.260  -0.575   0.102  0.00  0.00    -0.078 A 
ATOM      5  C3  OXE d   1      -1.131  -0.855   1.151  0.00  0.00     0.003 A 
ATOM      6  C4  OXE d   1      -1.525   0.156   2.035  0.00  0.00    -0.002 A 
ATOM      7  C5  OXE d   1      -0.962   1.434   1.949  0.00  0.00    -0.002 A 
ATOM      8  C6  OXE d   1      -0.001   1.690   0.977  0.00  0.00     0.003 A 
ENDROOT
TORSDOF 0
ENDMDL
