MODEL 1
REMARK minimizedAffinity -3.0855906
REMARK minimizedRMSD -1
REMARK  0 active torsions:
REMARK  status: ('A' for Active; 'I' for Inactive)
ROOT
ATOM      1  C2' OXE d   1       0.837  -0.792  -0.366  0.00  0.00     0.078 C 
ATOM      2  C1' OXE d   1      -0.303  -0.694   2.197  0.00  0.00     0.078 C 
ATOM      3  C1  OXE d   1      -0.081   0.612   1.475  0.00  0.00    -0.078 A 
ATOM      4  C2  OXE d   1       0.520   0.557   0.241  0.00  0.00    -0.078 A 
ATOM      5  C3  OXE d   1       0.698   1.728  -0.491  0.00  0.00     0.003 A 
ATOM      6  C4  OXE d   1       0.411   2.973   0.082  0.00  0.00    -0.002 A 
ATOM      7  C5  OXE d   1      -0.165   3.053   1.354  0.00  0.00    -0.002 A 
ATOM      8  C6  OXE d   1      -0.456   1.882   2.045  0.00  0.00     0.003 A 
ENDROOT
TORSDOF 0
ENDMDL
