MODEL 1
REMARK minimizedAffinity -2.79263592
REMARK minimizedRMSD -1
REMARK  0 active torsions:
REMARK  status: ('A' for Active; 'I' for Inactive)
ROOT
ATOM      1  C2' OXE d   1       0.792  -2.202  -2.397  0.00  0.00     0.078 C 
ATOM      2  C1' OXE d   1       1.896   0.289  -1.718  0.00  0.00     0.078 C 
ATOM      3  C1  OXE d   1       0.827  -0.277  -0.816  0.00  0.00    -0.078 A 
ATOM      4  C2  OXE d   1       0.260  -1.474  -1.181  0.00  0.00    -0.078 A 
ATOM      5  C3  OXE d   1      -0.691  -2.066  -0.356  0.00  0.00     0.003 A 
ATOM      6  C4  OXE d   1      -1.185  -1.382   0.761  0.00  0.00    -0.002 A 
ATOM      7  C5  OXE d   1      -0.649  -0.144   1.130  0.00  0.00    -0.002 A 
ATOM      8  C6  OXE d   1       0.385   0.402   0.377  0.00  0.00     0.003 A 
ENDROOT
TORSDOF 0
ENDMDL
