MODEL 1
REMARK minimizedAffinity -2.97573781
REMARK minimizedRMSD -1
REMARK  0 active torsions:
REMARK  status: ('A' for Active; 'I' for Inactive)
ROOT
ATOM      1  C2' OXE d   1       0.092   2.736  -1.068  0.00  0.00     0.078 C 
ATOM      2  C1' OXE d   1      -1.062   3.371   1.411  0.00  0.00     0.078 C 
ATOM      3  C1  OXE d   1      -0.823   1.915   1.099  0.00  0.00    -0.078 A 
ATOM      4  C2  OXE d   1      -0.301   1.611  -0.135  0.00  0.00    -0.078 A 
ATOM      5  C3  OXE d   1      -0.009   0.287  -0.453  0.00  0.00     0.003 A 
ATOM      6  C4  OXE d   1      -0.385  -0.749   0.411  0.00  0.00    -0.002 A 
ATOM      7  C5  OXE d   1      -0.954  -0.463   1.656  0.00  0.00    -0.002 A 
ATOM      8  C6  OXE d   1      -1.140   0.863   2.032  0.00  0.00     0.003 A 
ENDROOT
TORSDOF 0
ENDMDL
