MODEL 1
REMARK minimizedAffinity -1.17793167
REMARK minimizedRMSD -1
REMARK  0 active torsions:
REMARK  status: ('A' for Active; 'I' for Inactive)
ROOT
ATOM      1  C2' OXE d   1       0.739  -1.000  -0.325  0.00  0.00     0.078 C 
ATOM      2  C1' OXE d   1      -0.640  -1.500   2.068  0.00  0.00     0.078 C 
ATOM      3  C1  OXE d   1      -0.515  -0.067   1.614  0.00  0.00    -0.078 A 
ATOM      4  C2  OXE d   1       0.202   0.172   0.466  0.00  0.00    -0.078 A 
ATOM      5  C3  OXE d   1       0.301   1.470  -0.026  0.00  0.00     0.003 A 
ATOM      6  C4  OXE d   1      -0.191   2.550   0.717  0.00  0.00    -0.002 A 
ATOM      7  C5  OXE d   1      -0.889   2.332   1.909  0.00  0.00    -0.002 A 
ATOM      8  C6  OXE d   1      -1.097   1.029   2.349  0.00  0.00     0.003 A 
ENDROOT
TORSDOF 0
ENDMDL
