MODEL 1
REMARK minimizedAffinity 1.94673371
REMARK minimizedRMSD -1
REMARK  0 active torsions:
REMARK  status: ('A' for Active; 'I' for Inactive)
ROOT
ATOM      1  C2' OXE d   1       0.786  -0.338  -1.006  0.00  0.00     0.078 C 
ATOM      2  C1' OXE d   1       0.377   2.438  -1.110  0.00  0.00     0.078 C 
ATOM      3  C1  OXE d   1      -0.187   1.687   0.071  0.00  0.00    -0.078 A 
ATOM      4  C2  OXE d   1      -0.022   0.323   0.090  0.00  0.00    -0.078 A 
ATOM      5  C3  OXE d   1      -0.476  -0.411   1.183  0.00  0.00     0.003 A 
ATOM      6  C4  OXE d   1      -1.231   0.207   2.187  0.00  0.00    -0.002 A 
ATOM      7  C5  OXE d   1      -1.444   1.589   2.166  0.00  0.00    -0.002 A 
ATOM      8  C6  OXE d   1      -0.893   2.348   1.140  0.00  0.00     0.003 A 
ENDROOT
TORSDOF 0
ENDMDL
