MODEL 1
REMARK minimizedAffinity -3.3849802
REMARK minimizedRMSD -1
REMARK  0 active torsions:
REMARK  status: ('A' for Active; 'I' for Inactive)
ROOT
ATOM      1  C2' OXE d   1       1.674   0.181  -1.025  0.00  0.00     0.078 C 
ATOM      2  C1' OXE d   1       0.416   2.674  -0.733  0.00  0.00     0.078 C 
ATOM      3  C1  OXE d   1       0.043   1.580   0.236  0.00  0.00    -0.078 A 
ATOM      4  C2  OXE d   1       0.629   0.349   0.056  0.00  0.00    -0.078 A 
ATOM      5  C3  OXE d   1       0.361  -0.679   0.955  0.00  0.00     0.003 A 
ATOM      6  C4  OXE d   1      -0.614  -0.518   1.947  0.00  0.00    -0.002 A 
ATOM      7  C5  OXE d   1      -1.252   0.715   2.122  0.00  0.00    -0.002 A 
ATOM      8  C6  OXE d   1      -0.904   1.784   1.304  0.00  0.00     0.003 A 
ENDROOT
TORSDOF 0
ENDMDL
