MODEL 1
REMARK minimizedAffinity 0.532150805
REMARK minimizedRMSD -1
REMARK  0 active torsions:
REMARK  status: ('A' for Active; 'I' for Inactive)
ROOT
ATOM      1  C2' OXE d   1       1.755   0.351  -1.139  0.00  0.00     0.078 C 
ATOM      2  C1' OXE d   1       0.393  -2.101  -1.257  0.00  0.00     0.078 C 
ATOM      3  C1  OXE d   1      -0.069  -1.088  -0.239  0.00  0.00    -0.078 A 
ATOM      4  C2  OXE d   1       0.634   0.091  -0.157  0.00  0.00    -0.078 A 
ATOM      5  C3  OXE d   1       0.216   1.081   0.727  0.00  0.00     0.003 A 
ATOM      6  C4  OXE d   1      -0.816   0.829   1.639  0.00  0.00    -0.002 A 
ATOM      7  C5  OXE d   1      -1.519  -0.380   1.599  0.00  0.00    -0.002 A 
ATOM      8  C6  OXE d   1      -1.186  -1.330   0.639  0.00  0.00     0.003 A 
ENDROOT
TORSDOF 0
ENDMDL
