MODEL 1
REMARK minimizedAffinity -0.712715387
REMARK minimizedRMSD -1
REMARK  0 active torsions:
REMARK  status: ('A' for Active; 'I' for Inactive)
ROOT
ATOM      1  C2' OXE d   1       0.336  -0.910   2.854  0.00  0.00     0.078 C 
ATOM      2  C1' OXE d   1      -0.831   1.613   2.469  0.00  0.00     0.078 C 
ATOM      3  C1  OXE d   1      -0.182   0.950   1.280  0.00  0.00    -0.078 A 
ATOM      4  C2  OXE d   1       0.428  -0.263   1.489  0.00  0.00    -0.078 A 
ATOM      5  C3  OXE d   1       0.994  -0.944   0.414  0.00  0.00     0.003 A 
ATOM      6  C4  OXE d   1       1.083  -0.334  -0.843  0.00  0.00    -0.002 A 
ATOM      7  C5  OXE d   1       0.503   0.919  -1.067  0.00  0.00    -0.002 A 
ATOM      8  C6  OXE d   1      -0.169   1.554  -0.029  0.00  0.00     0.003 A 
ENDROOT
TORSDOF 0
ENDMDL
