MODEL 1
REMARK minimizedAffinity 0.73352772
REMARK minimizedRMSD -1
REMARK  0 active torsions:
REMARK  status: ('A' for Active; 'I' for Inactive)
ROOT
ATOM      1  C2' OXE d   1      -0.972  -1.358   2.218  0.00  0.00     0.078 C 
ATOM      2  C1' OXE d   1      -1.484   1.383   1.890  0.00  0.00     0.078 C 
ATOM      3  C1  OXE d   1      -0.442   0.751   1.002  0.00  0.00    -0.078 A 
ATOM      4  C2  OXE d   1      -0.164  -0.580   1.201  0.00  0.00    -0.078 A 
ATOM      5  C3  OXE d   1       0.750  -1.225   0.373  0.00  0.00     0.003 A 
ATOM      6  C4  OXE d   1       1.500  -0.496  -0.558  0.00  0.00    -0.002 A 
ATOM      7  C5  OXE d   1       1.261   0.869  -0.750  0.00  0.00    -0.002 A 
ATOM      8  C6  OXE d   1       0.266   1.497  -0.009  0.00  0.00     0.003 A 
ENDROOT
TORSDOF 0
ENDMDL
