MODEL 1
REMARK minimizedAffinity -4.25572634
REMARK minimizedRMSD -1
REMARK  0 active torsions:
REMARK  status: ('A' for Active; 'I' for Inactive)
ROOT
ATOM      1  C2' OXE d   1      -1.764   3.301   1.854  0.00  0.00     0.078 C 
ATOM      2  C1' OXE d   1      -0.213   3.560  -0.472  0.00  0.00     0.078 C 
ATOM      3  C1  OXE d   1      -0.371   2.181   0.119  0.00  0.00    -0.078 A 
ATOM      4  C2  OXE d   1      -1.093   2.071   1.283  0.00  0.00    -0.078 A 
ATOM      5  C3  OXE d   1      -1.315   0.815   1.841  0.00  0.00     0.003 A 
ATOM      6  C4  OXE d   1      -0.682  -0.317   1.312  0.00  0.00    -0.002 A 
ATOM      7  C5  OXE d   1       0.090  -0.221   0.150  0.00  0.00    -0.002 A 
ATOM      8  C6  OXE d   1       0.221   1.011  -0.482  0.00  0.00     0.003 A 
ENDROOT
TORSDOF 0
ENDMDL
