MODEL 1
REMARK minimizedAffinity -2.90354872
REMARK minimizedRMSD -1
REMARK  0 active torsions:
REMARK  status: ('A' for Active; 'I' for Inactive)
ROOT
ATOM      1  C2' OXE d   1      -0.223  -0.454   0.409  0.00  0.00     0.078 C 
ATOM      2  C1' OXE d   1       0.799   1.418  -1.416  0.00  0.00     0.078 C 
ATOM      3  C1  OXE d   1       0.131   1.943  -0.170  0.00  0.00    -0.078 A 
ATOM      4  C2  OXE d   1      -0.408   1.020   0.695  0.00  0.00    -0.078 A 
ATOM      5  C3  OXE d   1      -0.988   1.448   1.886  0.00  0.00     0.003 A 
ATOM      6  C4  OXE d   1      -1.163   2.814   2.138  0.00  0.00    -0.002 A 
ATOM      7  C5  OXE d   1      -0.657   3.771   1.252  0.00  0.00    -0.002 A 
ATOM      8  C6  OXE d   1       0.028   3.352   0.117  0.00  0.00     0.003 A 
ENDROOT
TORSDOF 0
ENDMDL
