MODEL 1
REMARK minimizedAffinity -3.90741277
REMARK minimizedRMSD -1
REMARK  0 active torsions:
REMARK  status: ('A' for Active; 'I' for Inactive)
ROOT
ATOM      1  C2' OXE d   1      -0.750  -0.540   1.766  0.00  0.00     0.078 C 
ATOM      2  C1' OXE d   1       0.495  -0.301  -0.739  0.00  0.00     0.078 C 
ATOM      3  C1  OXE d   1      -0.074   0.948  -0.114  0.00  0.00    -0.078 A 
ATOM      4  C2  OXE d   1      -0.722   0.814   1.091  0.00  0.00    -0.078 A 
ATOM      5  C3  OXE d   1      -1.218   1.943   1.737  0.00  0.00     0.003 A 
ATOM      6  C4  OXE d   1      -1.197   3.190   1.100  0.00  0.00    -0.002 A 
ATOM      7  C5  OXE d   1      -0.577   3.342  -0.144  0.00  0.00    -0.002 A 
ATOM      8  C6  OXE d   1       0.026   2.241  -0.744  0.00  0.00     0.003 A 
ENDROOT
TORSDOF 0
ENDMDL
