MODEL 1
REMARK minimizedAffinity -4.63953447
REMARK minimizedRMSD -1
REMARK  0 active torsions:
REMARK  status: ('A' for Active; 'I' for Inactive)
ROOT
ATOM      1  C2' OXE d   1      -0.408  -1.044   1.877  0.00  0.00     0.078 C 
ATOM      2  C1' OXE d   1       0.700  -0.101  -0.524  0.00  0.00     0.078 C 
ATOM      3  C1  OXE d   1      -0.148   0.852   0.282  0.00  0.00    -0.078 A 
ATOM      4  C2  OXE d   1      -0.724   0.368   1.431  0.00  0.00    -0.078 A 
ATOM      5  C3  OXE d   1      -1.471   1.220   2.240  0.00  0.00     0.003 A 
ATOM      6  C4  OXE d   1      -1.767   2.521   1.816  0.00  0.00    -0.002 A 
ATOM      7  C5  OXE d   1      -1.223   3.022   0.628  0.00  0.00    -0.002 A 
ATOM      8  C6  OXE d   1      -0.378   2.216  -0.127  0.00  0.00     0.003 A 
ENDROOT
TORSDOF 0
ENDMDL
