MODEL 1
REMARK minimizedAffinity -2.33090544
REMARK minimizedRMSD -1
REMARK  0 active torsions:
REMARK  status: ('A' for Active; 'I' for Inactive)
ROOT
ATOM      1  C2' OXE d   1       0.259   3.093  -0.947  0.00  0.00     0.078 C 
ATOM      2  C1' OXE d   1      -1.175   3.406   1.446  0.00  0.00     0.078 C 
ATOM      3  C1  OXE d   1      -0.648   2.031   1.116  0.00  0.00    -0.078 A 
ATOM      4  C2  OXE d   1       0.012   1.878  -0.079  0.00  0.00    -0.078 A 
ATOM      5  C3  OXE d   1       0.566   0.643  -0.407  0.00  0.00     0.003 A 
ATOM      6  C4  OXE d   1       0.324  -0.478   0.396  0.00  0.00    -0.002 A 
ATOM      7  C5  OXE d   1      -0.380  -0.352   1.598  0.00  0.00    -0.002 A 
ATOM      8  C6  OXE d   1      -0.836   0.902   1.993  0.00  0.00     0.003 A 
ENDROOT
TORSDOF 0
ENDMDL
