MODEL 1
REMARK minimizedAffinity -4.75224209
REMARK minimizedRMSD -1
REMARK  0 active torsions:
REMARK  status: ('A' for Active; 'I' for Inactive)
ROOT
ATOM      1  C2' OXE d   1       0.469  -0.931  -0.737  0.00  0.00     0.078 C 
ATOM      2  C1' OXE d   1       1.208   1.731  -1.235  0.00  0.00     0.078 C 
ATOM      3  C1  OXE d   1       0.268   1.466  -0.087  0.00  0.00    -0.078 A 
ATOM      4  C2  OXE d   1      -0.126   0.165   0.121  0.00  0.00    -0.078 A 
ATOM      5  C3  OXE d   1      -0.949  -0.142   1.200  0.00  0.00     0.003 A 
ATOM      6  C4  OXE d   1      -1.502   0.879   1.983  0.00  0.00    -0.002 A 
ATOM      7  C5  OXE d   1      -1.146   2.214   1.764  0.00  0.00    -0.002 A 
ATOM      8  C6  OXE d   1      -0.231   2.519   0.762  0.00  0.00     0.003 A 
ENDROOT
TORSDOF 0
ENDMDL
