MODEL 1
REMARK minimizedAffinity -2.21171904
REMARK minimizedRMSD -1
REMARK  0 active torsions:
REMARK  status: ('A' for Active; 'I' for Inactive)
ROOT
ATOM      1  C2' OXE d   1       0.556   2.883  -0.171  0.00  0.00     0.078 C 
ATOM      2  C1' OXE d   1      -1.209   2.593   1.992  0.00  0.00     0.078 C 
ATOM      3  C1  OXE d   1      -0.586   1.344   1.421  0.00  0.00    -0.078 A 
ATOM      4  C2  OXE d   1       0.240   1.491   0.332  0.00  0.00    -0.078 A 
ATOM      5  C3  OXE d   1       0.884   0.378  -0.200  0.00  0.00     0.003 A 
ATOM      6  C4  OXE d   1       0.578  -0.907   0.265  0.00  0.00    -0.002 A 
ATOM      7  C5  OXE d   1      -0.291  -1.082   1.347  0.00  0.00    -0.002 A 
ATOM      8  C6  OXE d   1      -0.848   0.034   1.962  0.00  0.00     0.003 A 
ENDROOT
TORSDOF 0
ENDMDL
