MODEL 1
REMARK minimizedAffinity -1.83571482
REMARK minimizedRMSD -1
REMARK  0 active torsions:
REMARK  status: ('A' for Active; 'I' for Inactive)
ROOT
ATOM      1  C2' OXE d   1       0.826   2.730  -0.626  0.00  0.00     0.078 C 
ATOM      2  C1' OXE d   1      -0.386   2.321   1.873  0.00  0.00     0.078 C 
ATOM      3  C1  OXE d   1      -0.021   1.104   1.061  0.00  0.00    -0.078 A 
ATOM      4  C2  OXE d   1       0.529   1.314  -0.181  0.00  0.00    -0.078 A 
ATOM      5  C3  OXE d   1       0.935   0.226  -0.948  0.00  0.00     0.003 A 
ATOM      6  C4  OXE d   1       0.647  -1.080  -0.534  0.00  0.00    -0.002 A 
ATOM      7  C5  OXE d   1       0.051  -1.315   0.710  0.00  0.00    -0.002 A 
ATOM      8  C6  OXE d   1      -0.249  -0.238   1.536  0.00  0.00     0.003 A 
ENDROOT
TORSDOF 0
ENDMDL
