MODEL 1
REMARK minimizedAffinity 0.0625222623
REMARK minimizedRMSD -1
REMARK  2 active torsions:
REMARK  status: ('A' for Active; 'I' for Inactive)
REMARK    1  A    between atoms: C2'_3  and  C1'_4 
REMARK    2  A    between atoms: C1'_4  and  C1_5 
ROOT
ATOM      1  C1  I4B d   1       1.593  -1.886   0.499  0.00  0.00    -0.075 A 
ATOM      2  C2  I4B d   1       2.007  -0.715   1.084  0.00  0.00     0.003 A 
ATOM      3  C3  I4B d   1       1.111   0.039   1.881  0.00  0.00     0.002 A 
ATOM      4  C4  I4B d   1      -0.194  -0.387   2.025  0.00  0.00    -0.004 A 
ATOM      5  C5  I4B d   1      -0.605  -1.586   1.450  0.00  0.00     0.002 A 
ATOM      6  C6  I4B d   1       0.298  -2.347   0.692  0.00  0.00     0.003 A 
ENDROOT
BRANCH   1   7
ATOM      7  C1' I4B d   1       2.556  -2.639  -0.364  0.00  0.00     0.060 C 
BRANCH   7   8
ATOM      8  C2' I4B d   1       2.968  -3.892   0.382  0.00  0.00    -0.013 C 
ATOM      9  C4' I4B d   1       2.002  -5.019   0.130  0.00  0.00     0.013 C 
ATOM     10  C3' I4B d   1       4.354  -4.257  -0.059  0.00  0.00     0.013 C 
ENDBRANCH   7   8
ENDBRANCH   1   7
TORSDOF 2
ENDMDL
