MODEL 1
REMARK minimizedAffinity 0.239550933
REMARK minimizedRMSD -1
REMARK  2 active torsions:
REMARK  status: ('A' for Active; 'I' for Inactive)
REMARK    1  A    between atoms: C2'_3  and  C1'_4 
REMARK    2  A    between atoms: C1'_4  and  C1_5 
ROOT
ATOM      1  C1  I4B d   1       2.871  -3.825   2.317  0.00  0.00    -0.075 A 
ATOM      2  C2  I4B d   1       1.831  -3.321   3.056  0.00  0.00     0.003 A 
ATOM      3  C3  I4B d   1       0.755  -2.660   2.415  0.00  0.00     0.002 A 
ATOM      4  C4  I4B d   1       0.785  -2.482   1.047  0.00  0.00    -0.004 A 
ATOM      5  C5  I4B d   1       1.830  -3.014   0.297  0.00  0.00     0.002 A 
ATOM      6  C6  I4B d   1       2.873  -3.700   0.934  0.00  0.00     0.003 A 
ENDROOT
BRANCH   1   7
ATOM      7  C1' I4B d   1       4.007  -4.488   3.030  0.00  0.00     0.060 C 
BRANCH   7   8
ATOM      8  C2' I4B d   1       3.643  -4.588   4.497  0.00  0.00    -0.013 C 
ATOM      9  C4' I4B d   1       3.791  -6.000   5.000  0.00  0.00     0.013 C 
ATOM     10  C3' I4B d   1       4.526  -3.645   5.259  0.00  0.00     0.013 C 
ENDBRANCH   7   8
ENDBRANCH   1   7
TORSDOF 2
ENDMDL
