MODEL 1
REMARK minimizedAffinity 5.02722692
REMARK minimizedRMSD -1
REMARK  2 active torsions:
REMARK  status: ('A' for Active; 'I' for Inactive)
REMARK    1  A    between atoms: C2'_3  and  C1'_4 
REMARK    2  A    between atoms: C1'_4  and  C1_5 
ROOT
ATOM      1  C1  I4B d   1       1.241  -3.770   1.291  0.00  0.00    -0.075 A 
ATOM      2  C2  I4B d   1       0.035  -4.354   1.585  0.00  0.00     0.003 A 
ATOM      3  C3  I4B d   1      -1.028  -3.573   2.101  0.00  0.00     0.002 A 
ATOM      4  C4  I4B d   1      -0.827  -2.231   2.351  0.00  0.00    -0.004 A 
ATOM      5  C5  I4B d   1       0.390  -1.636   2.030  0.00  0.00     0.002 A 
ATOM      6  C6  I4B d   1       1.427  -2.407   1.485  0.00  0.00     0.003 A 
ENDROOT
BRANCH   1   7
ATOM      7  C1' I4B d   1       2.353  -4.630   0.779  0.00  0.00     0.060 C 
BRANCH   7   8
ATOM      8  C2' I4B d   1       3.458  -4.631   1.816  0.00  0.00    -0.013 C 
ATOM      9  C4' I4B d   1       3.515  -5.945   2.550  0.00  0.00     0.013 C 
ATOM     10  C3' I4B d   1       4.752  -4.346   1.113  0.00  0.00     0.013 C 
ENDBRANCH   7   8
ENDBRANCH   1   7
TORSDOF 2
ENDMDL
