MODEL 1
REMARK minimizedAffinity -0.871332288
REMARK minimizedRMSD -1
REMARK  2 active torsions:
REMARK  status: ('A' for Active; 'I' for Inactive)
REMARK    1  A    between atoms: C2'_3  and  C1'_4 
REMARK    2  A    between atoms: C1'_4  and  C1_5 
ROOT
ATOM      1  C1  I4B d   1       0.425  -2.552   1.836  0.00  0.00    -0.075 A 
ATOM      2  C2  I4B d   1      -0.494  -3.569   1.917  0.00  0.00     0.003 A 
ATOM      3  C3  I4B d   1      -0.098  -4.907   1.678  0.00  0.00     0.002 A 
ATOM      4  C4  I4B d   1       1.205  -5.176   1.315  0.00  0.00    -0.004 A 
ATOM      5  C5  I4B d   1       2.140  -4.147   1.255  0.00  0.00     0.002 A 
ATOM      6  C6  I4B d   1       1.751  -2.828   1.529  0.00  0.00     0.003 A 
ENDROOT
BRANCH   1   7
ATOM      7  C1' I4B d   1      -0.035  -1.146   2.061  0.00  0.00     0.060 C 
BRANCH   7   8
ATOM      8  C2' I4B d   1      -0.024  -0.432   0.725  0.00  0.00    -0.013 C 
ATOM      9  C4' I4B d   1       0.914  -1.102  -0.244  0.00  0.00     0.013 C 
ATOM     10  C3' I4B d   1      -1.427  -0.415   0.198  0.00  0.00     0.013 C 
ENDBRANCH   7   8
ENDBRANCH   1   7
TORSDOF 2
ENDMDL
