MODEL 1
REMARK minimizedAffinity 7.38575125
REMARK minimizedRMSD -1
REMARK  2 active torsions:
REMARK  status: ('A' for Active; 'I' for Inactive)
REMARK    1  A    between atoms: C2'_3  and  C1'_4 
REMARK    2  A    between atoms: C1'_4  and  C1_5 
ROOT
ATOM      1  C1  I4B d   1      -4.963   0.116  -4.043  0.00  0.00    -0.075 A 
ATOM      2  C2  I4B d   1      -5.660  -0.081  -5.209  0.00  0.00     0.003 A 
ATOM      3  C3  I4B d   1      -5.418  -1.231  -5.999  0.00  0.00     0.002 A 
ATOM      4  C4  I4B d   1      -4.440  -2.126  -5.615  0.00  0.00    -0.004 A 
ATOM      5  C5  I4B d   1      -3.750  -1.936  -4.421  0.00  0.00     0.002 A 
ATOM      6  C6  I4B d   1      -4.021  -0.815  -3.624  0.00  0.00     0.003 A 
ENDROOT
BRANCH   1   7
ATOM      7  C1' I4B d   1      -5.221   1.357  -3.250  0.00  0.00     0.060 C 
BRANCH   7   8
ATOM      8  C2' I4B d   1      -4.030   1.587  -2.342  0.00  0.00    -0.013 C 
ATOM      9  C4' I4B d   1      -3.809   3.056  -2.094  0.00  0.00     0.013 C 
ATOM     10  C3' I4B d   1      -4.277   0.852  -1.059  0.00  0.00     0.013 C 
ENDBRANCH   7   8
ENDBRANCH   1   7
TORSDOF 2
ENDMDL
