MODEL 1
REMARK minimizedAffinity 0.806044042
REMARK minimizedRMSD -1
REMARK  2 active torsions:
REMARK  status: ('A' for Active; 'I' for Inactive)
REMARK    1  A    between atoms: C2'_3  and  C1'_4 
REMARK    2  A    between atoms: C1'_4  and  C1_5 
ROOT
ATOM      1  C1  I4B d   1      -3.590  -0.128  -5.077  0.00  0.00    -0.075 A 
ATOM      2  C2  I4B d   1      -4.754  -0.404  -5.750  0.00  0.00     0.003 A 
ATOM      3  C3  I4B d   1      -5.890   0.422  -5.577  0.00  0.00     0.002 A 
ATOM      4  C4  I4B d   1      -5.834   1.478  -4.689  0.00  0.00    -0.004 A 
ATOM      5  C5  I4B d   1      -4.646   1.770  -4.026  0.00  0.00     0.002 A 
ATOM      6  C6  I4B d   1      -3.513   0.970  -4.230  0.00  0.00     0.003 A 
ENDROOT
BRANCH   1   7
ATOM      7  C1' I4B d   1      -2.419  -1.041  -5.258  0.00  0.00     0.060 C 
BRANCH   7   8
ATOM      8  C2' I4B d   1      -2.724  -2.339  -4.540  0.00  0.00    -0.013 C 
ATOM      9  C4' I4B d   1      -2.881  -2.119  -3.059  0.00  0.00     0.013 C 
ATOM     10  C3' I4B d   1      -3.973  -2.916  -5.137  0.00  0.00     0.013 C 
ENDBRANCH   7   8
ENDBRANCH   1   7
TORSDOF 2
ENDMDL
