MODEL 1
REMARK minimizedAffinity 5.7894721
REMARK minimizedRMSD -1
REMARK  1 active torsions:
REMARK  status: ('A' for Active; 'I' for Inactive)
REMARK    1  A    between atoms: C1_2  and  C2_3 
ROOT
ATOM      1  C2  UNL d   1       0.130   1.765   1.041  0.00  0.00    -0.077 A 
ATOM      2  C3  UNL d   1       0.726   0.773   1.832  0.00  0.00     0.002 A 
ATOM      3  C4  UNL d   1       0.763  -0.552   1.394  0.00  0.00     0.002 A 
ATOM      4  C5  UNL d   1       0.211  -0.896   0.162  0.00  0.00    -0.004 A 
ATOM      5  C6  UNL d   1      -0.386   0.083  -0.631  0.00  0.00     0.002 A 
ATOM      6  C7  UNL d   1      -0.426   1.407  -0.194  0.00  0.00     0.002 A 
ENDROOT
BRANCH   1   7
ATOM      7  C1  UNL d   1       0.132   3.203   1.490  0.00  0.00     0.055 C 
ATOM      8  C   UNL d   1       1.368   3.523   2.317  0.00  0.00     0.019 C 
ENDBRANCH   1   7
TORSDOF 1
ENDMDL
