MODEL 1
REMARK minimizedAffinity 0.457508236
REMARK minimizedRMSD -1
REMARK  1 active torsions:
REMARK  status: ('A' for Active; 'I' for Inactive)
REMARK    1  A    between atoms: C1_2  and  C2_3 
ROOT
ATOM      1  C2  UNL d   1       0.158   2.629   1.014  0.00  0.00    -0.077 A 
ATOM      2  C3  UNL d   1      -0.166   2.870  -0.329  0.00  0.00     0.002 A 
ATOM      3  C4  UNL d   1      -0.619   1.830  -1.143  0.00  0.00     0.002 A 
ATOM      4  C5  UNL d   1      -0.756   0.544  -0.623  0.00  0.00    -0.004 A 
ATOM      5  C6  UNL d   1      -0.434   0.295   0.710  0.00  0.00     0.002 A 
ATOM      6  C7  UNL d   1       0.020   1.333   1.525  0.00  0.00     0.002 A 
ENDROOT
BRANCH   1   7
ATOM      7  C1  UNL d   1       0.600   3.759   1.906  0.00  0.00     0.055 C 
ATOM      8  C   UNL d   1       1.791   3.355   2.762  0.00  0.00     0.019 C 
ENDBRANCH   1   7
TORSDOF 1
ENDMDL
