MODEL 1
REMARK minimizedAffinity 9.96665955
REMARK minimizedRMSD -1
REMARK  1 active torsions:
REMARK  status: ('A' for Active; 'I' for Inactive)
REMARK    1  A    between atoms: C1_2  and  C2_3 
ROOT
ATOM      1  C2  UNL d   1      -1.327   1.561  -1.581  0.00  0.00    -0.077 A 
ATOM      2  C3  UNL d   1      -0.543   0.696  -2.357  0.00  0.00     0.002 A 
ATOM      3  C4  UNL d   1      -1.122  -0.408  -2.987  0.00  0.00     0.002 A 
ATOM      4  C5  UNL d   1      -2.486  -0.654  -2.849  0.00  0.00    -0.004 A 
ATOM      5  C6  UNL d   1      -3.274   0.199  -2.078  0.00  0.00     0.002 A 
ATOM      6  C7  UNL d   1      -2.697   1.303  -1.447  0.00  0.00     0.002 A 
ENDROOT
BRANCH   1   7
ATOM      7  C1  UNL d   1      -0.714   2.780  -0.942  0.00  0.00     0.055 C 
ATOM      8  C   UNL d   1      -0.554   2.596   0.560  0.00  0.00     0.019 C 
ENDBRANCH   1   7
TORSDOF 1
ENDMDL
