MODEL 1
REMARK minimizedAffinity -0.440179914
REMARK minimizedRMSD -1
REMARK  1 active torsions:
REMARK  status: ('A' for Active; 'I' for Inactive)
REMARK    1  A    between atoms: C1_2  and  C2_3 
ROOT
ATOM      1  C2  UNL d   1      -0.887   2.264  -1.740  0.00  0.00    -0.077 A 
ATOM      2  C3  UNL d   1      -0.401   2.390  -0.431  0.00  0.00     0.002 A 
ATOM      3  C4  UNL d   1       0.099   3.613   0.022  0.00  0.00     0.002 A 
ATOM      4  C5  UNL d   1       0.115   4.718  -0.826  0.00  0.00    -0.004 A 
ATOM      5  C6  UNL d   1      -0.363   4.602  -2.131  0.00  0.00     0.002 A 
ATOM      6  C7  UNL d   1      -0.863   3.381  -2.585  0.00  0.00     0.002 A 
ENDROOT
BRANCH   1   7
ATOM      7  C1  UNL d   1      -1.472   0.960  -2.214  0.00  0.00     0.055 C 
ATOM      8  C   UNL d   1      -0.420  -0.139  -2.250  0.00  0.00     0.019 C 
ENDBRANCH   1   7
TORSDOF 1
ENDMDL
