MODEL 1
REMARK minimizedAffinity 0.798662782
REMARK minimizedRMSD -1
REMARK  1 active torsions:
REMARK  status: ('A' for Active; 'I' for Inactive)
REMARK    1  A    between atoms: C1_2  and  C2_3 
ROOT
ATOM      1  C2  UNL d   1      -3.451   2.499  -2.736  0.00  0.00    -0.077 A 
ATOM      2  C3  UNL d   1      -2.090   2.570  -2.409  0.00  0.00     0.002 A 
ATOM      3  C4  UNL d   1      -1.485   1.546  -1.677  0.00  0.00     0.002 A 
ATOM      4  C5  UNL d   1      -2.233   0.443  -1.271  0.00  0.00    -0.004 A 
ATOM      5  C6  UNL d   1      -3.588   0.364  -1.590  0.00  0.00     0.002 A 
ATOM      6  C7  UNL d   1      -4.194   1.387  -2.320  0.00  0.00     0.002 A 
ENDROOT
BRANCH   1   7
ATOM      7  C1  UNL d   1      -4.094   3.578  -3.568  0.00  0.00     0.055 C 
ATOM      8  C   UNL d   1      -4.701   4.664  -2.691  0.00  0.00     0.019 C 
ENDBRANCH   1   7
TORSDOF 1
ENDMDL
