MODEL 1
REMARK minimizedAffinity 1.66450536
REMARK minimizedRMSD -1
REMARK  1 active torsions:
REMARK  status: ('A' for Active; 'I' for Inactive)
REMARK    1  A    between atoms: C1_2  and  C2_3 
ROOT
ATOM      1  C2  UNL d   1      -5.971  -1.224   2.222  0.00  0.00    -0.077 A 
ATOM      2  C3  UNL d   1      -5.961  -0.311   3.286  0.00  0.00     0.002 A 
ATOM      3  C4  UNL d   1      -5.968  -0.765   4.606  0.00  0.00     0.002 A 
ATOM      4  C5  UNL d   1      -5.982  -2.132   4.875  0.00  0.00    -0.004 A 
ATOM      5  C6  UNL d   1      -5.995  -3.048   3.824  0.00  0.00     0.002 A 
ATOM      6  C7  UNL d   1      -5.988  -2.596   2.503  0.00  0.00     0.002 A 
ENDROOT
BRANCH   1   7
ATOM      7  C1  UNL d   1      -5.914  -0.737   0.798  0.00  0.00     0.055 C 
ATOM      8  C   UNL d   1      -6.000  -1.895  -0.187  0.00  0.00     0.019 C 
ENDBRANCH   1   7
TORSDOF 1
ENDMDL
