MODEL 1
REMARK minimizedAffinity -4.25579834
REMARK minimizedRMSD -1
REMARK  1 active torsions:
REMARK  status: ('A' for Active; 'I' for Inactive)
REMARK    1  A    between atoms: C1_2  and  C2_3 
ROOT
ATOM      1  C2  UNL d   1      -0.078   1.895  -0.256  0.00  0.00    -0.077 A 
ATOM      2  C3  UNL d   1      -0.082   1.399   1.054  0.00  0.00     0.002 A 
ATOM      3  C4  UNL d   1       0.245   2.231   2.126  0.00  0.00     0.002 A 
ATOM      4  C5  UNL d   1       0.574   3.566   1.899  0.00  0.00    -0.004 A 
ATOM      5  C6  UNL d   1       0.583   4.069   0.599  0.00  0.00     0.002 A 
ATOM      6  C7  UNL d   1       0.258   3.238  -0.474  0.00  0.00     0.002 A 
ENDROOT
BRANCH   1   7
ATOM      7  C1  UNL d   1      -0.478   1.012  -1.409  0.00  0.00     0.055 C 
ATOM      8  C   UNL d   1      -1.917   1.270  -1.831  0.00  0.00     0.019 C 
ENDBRANCH   1   7
TORSDOF 1
ENDMDL
