MODEL 1
REMARK minimizedAffinity -3.52987528
REMARK minimizedRMSD -1
REMARK  0 active torsions:
REMARK  status: ('A' for Active; 'I' for Inactive)
ROOT
ATOM      1  C   UNL d   1      -0.078  -2.183   3.205  0.00  0.00    -0.002 A 
ATOM      2  C1  UNL d   1      -1.090  -1.273   2.936  0.00  0.00     0.010 A 
ATOM      3  C2  UNL d   1      -0.957  -0.351   1.895  0.00  0.00     0.041 A 
ATOM      4  C3  UNL d   1       0.220  -0.361   1.122  0.00  0.00    -0.075 A 
ATOM      5  S   UNL d   1       0.603   0.674  -0.203  0.00  0.00     0.015 SA
ATOM      6  C4  UNL d   1       2.118  -0.069  -0.442  0.00  0.00     0.022 A 
ATOM      7  C5  UNL d   1       2.343  -1.083   0.458  0.00  0.00     0.026 A 
ATOM      8  C6  UNL d   1       1.253  -1.269   1.374  0.00  0.00    -0.082 A 
ATOM      9  C7  UNL d   1       1.088  -2.190   2.436  0.00  0.00     0.045 A 
ENDROOT
TORSDOF 0
ENDMDL
