MODEL 1
REMARK minimizedAffinity 1.88079751
REMARK minimizedRMSD -1
REMARK  0 active torsions:
REMARK  status: ('A' for Active; 'I' for Inactive)
ROOT
ATOM      1  C   UNL d   1       2.623  -1.435   0.373  0.00  0.00    -0.002 A 
ATOM      2  C1  UNL d   1       1.882  -1.882   1.458  0.00  0.00     0.010 A 
ATOM      3  C2  UNL d   1       0.617  -1.354   1.721  0.00  0.00     0.041 A 
ATOM      4  C3  UNL d   1       0.102  -0.360   0.865  0.00  0.00    -0.075 A 
ATOM      5  S   UNL d   1      -1.424   0.432   0.990  0.00  0.00     0.015 SA
ATOM      6  C4  UNL d   1      -1.129   1.381  -0.395  0.00  0.00     0.022 A 
ATOM      7  C5  UNL d   1       0.099   1.114  -0.951  0.00  0.00     0.026 A 
ATOM      8  C6  UNL d   1       0.829   0.106  -0.235  0.00  0.00    -0.082 A 
ATOM      9  C7  UNL d   1       2.109  -0.449  -0.474  0.00  0.00     0.045 A 
ENDROOT
TORSDOF 0
ENDMDL
