MODEL 1
REMARK minimizedAffinity -5.99160814
REMARK minimizedRMSD -1
REMARK  0 active torsions:
REMARK  status: ('A' for Active; 'I' for Inactive)
ROOT
ATOM      1  C   UNL d   1       0.042  -2.268   2.384  0.00  0.00    -0.002 A 
ATOM      2  C1  UNL d   1       1.216  -2.627   1.738  0.00  0.00     0.010 A 
ATOM      3  C2  UNL d   1       1.723  -1.844   0.698  0.00  0.00     0.041 A 
ATOM      4  C3  UNL d   1       1.023  -0.683   0.316  0.00  0.00    -0.075 A 
ATOM      5  S   UNL d   1       1.455   0.429  -0.929  0.00  0.00     0.015 SA
ATOM      6  C4  UNL d   1       0.091   1.406  -0.633  0.00  0.00     0.022 A 
ATOM      7  C5  UNL d   1      -0.686   0.912   0.388  0.00  0.00     0.026 A 
ATOM      8  C6  UNL d   1      -0.161  -0.300   0.952  0.00  0.00    -0.082 A 
ATOM      9  C7  UNL d   1      -0.649  -1.115   2.002  0.00  0.00     0.045 A 
ENDROOT
TORSDOF 0
ENDMDL
