MODEL 1
REMARK minimizedAffinity -2.82478642
REMARK minimizedRMSD -1
REMARK  0 active torsions:
REMARK  status: ('A' for Active; 'I' for Inactive)
ROOT
ATOM      1  C   UNL d   1       1.573  -2.617   1.727  0.00  0.00    -0.002 A 
ATOM      2  C1  UNL d   1       0.323  -2.416   2.294  0.00  0.00     0.010 A 
ATOM      3  C2  UNL d   1      -0.521  -1.411   1.816  0.00  0.00     0.041 A 
ATOM      4  C3  UNL d   1      -0.082  -0.605   0.747  0.00  0.00    -0.075 A 
ATOM      5  S   UNL d   1      -0.945   0.686  -0.003  0.00  0.00     0.015 SA
ATOM      6  C4  UNL d   1       0.326   1.001  -1.094  0.00  0.00     0.022 A 
ATOM      7  C5  UNL d   1       1.391   0.151  -0.905  0.00  0.00     0.026 A 
ATOM      8  C6  UNL d   1       1.173  -0.788   0.159  0.00  0.00    -0.082 A 
ATOM      9  C7  UNL d   1       2.005  -1.815   0.667  0.00  0.00     0.045 A 
ENDROOT
TORSDOF 0
ENDMDL
