MODEL 1
REMARK minimizedAffinity -5.11090279
REMARK minimizedRMSD -1
REMARK  0 active torsions:
REMARK  status: ('A' for Active; 'I' for Inactive)
ROOT
ATOM      1  C   UNL d   1       1.508  -3.006   1.829  0.00  0.00    -0.002 A 
ATOM      2  C1  UNL d   1       0.280  -2.925   2.470  0.00  0.00     0.010 A 
ATOM      3  C2  UNL d   1      -0.634  -1.926   2.130  0.00  0.00     0.041 A 
ATOM      4  C3  UNL d   1      -0.291  -1.001   1.124  0.00  0.00    -0.075 A 
ATOM      5  S   UNL d   1      -1.252   0.306   0.542  0.00  0.00     0.015 SA
ATOM      6  C4  UNL d   1      -0.056   0.787  -0.573  0.00  0.00     0.022 A 
ATOM      7  C5  UNL d   1       1.057  -0.019  -0.516  0.00  0.00     0.026 A 
ATOM      8  C6  UNL d   1       0.939  -1.063   0.463  0.00  0.00    -0.082 A 
ATOM      9  C7  UNL d   1       1.845  -2.087   0.831  0.00  0.00     0.045 A 
ENDROOT
TORSDOF 0
ENDMDL
