MODEL 1
REMARK minimizedAffinity -3.66847825
REMARK minimizedRMSD -1
REMARK  0 active torsions:
REMARK  status: ('A' for Active; 'I' for Inactive)
ROOT
ATOM      1  C   UNL d   1       2.007  -2.343   0.424  0.00  0.00    -0.002 A 
ATOM      2  C1  UNL d   1       0.876  -2.672   1.156  0.00  0.00     0.010 A 
ATOM      3  C2  UNL d   1      -0.217  -1.804   1.206  0.00  0.00     0.041 A 
ATOM      4  C3  UNL d   1      -0.153  -0.587   0.498  0.00  0.00    -0.075 A 
ATOM      5  S   UNL d   1      -1.370   0.631   0.412  0.00  0.00     0.015 SA
ATOM      6  C4  UNL d   1      -0.416   1.617  -0.599  0.00  0.00     0.022 A 
ATOM      7  C5  UNL d   1       0.804   1.047  -0.874  0.00  0.00     0.026 A 
ATOM      8  C6  UNL d   1       0.976  -0.234  -0.247  0.00  0.00    -0.082 A 
ATOM      9  C7  UNL d   1       2.067  -1.135  -0.276  0.00  0.00     0.045 A 
ENDROOT
TORSDOF 0
ENDMDL
