MODEL 1
REMARK minimizedAffinity 6.03976154
REMARK minimizedRMSD -1
REMARK  0 active torsions:
REMARK  status: ('A' for Active; 'I' for Inactive)
ROOT
ATOM      1  C2' OXE d   1      -1.320  -1.018   2.981  0.00  0.00     0.078 C 
ATOM      2  C1' OXE d   1      -1.435  -3.821   3.066  0.00  0.00     0.078 C 
ATOM      3  C1  OXE d   1      -0.240  -3.186   2.400  0.00  0.00    -0.078 A 
ATOM      4  C2  OXE d   1      -0.215  -1.814   2.321  0.00  0.00    -0.078 A 
ATOM      5  C3  OXE d   1       0.890  -1.176   1.766  0.00  0.00     0.003 A 
ATOM      6  C4  OXE d   1       1.903  -1.920   1.150  0.00  0.00    -0.002 A 
ATOM      7  C5  OXE d   1       1.878  -3.318   1.183  0.00  0.00    -0.002 A 
ATOM      8  C6  OXE d   1       0.837  -3.965   1.841  0.00  0.00     0.003 A 
ENDROOT
TORSDOF 0
ENDMDL
