MODEL 1
REMARK minimizedAffinity 9.23759174
REMARK minimizedRMSD -1
REMARK  0 active torsions:
REMARK  status: ('A' for Active; 'I' for Inactive)
ROOT
ATOM      1  C2' OXE d   1       1.321  -4.146   0.769  0.00  0.00     0.078 C 
ATOM      2  C1' OXE d   1       0.616  -1.668  -0.346  0.00  0.00     0.078 C 
ATOM      3  C1  OXE d   1       1.317  -1.665   0.990  0.00  0.00    -0.078 A 
ATOM      4  C2  OXE d   1       1.616  -2.884   1.550  0.00  0.00    -0.078 A 
ATOM      5  C3  OXE d   1       2.312  -2.937   2.754  0.00  0.00     0.003 A 
ATOM      6  C4  OXE d   1       2.572  -1.764   3.474  0.00  0.00    -0.002 A 
ATOM      7  C5  OXE d   1       2.240  -0.515   2.941  0.00  0.00    -0.002 A 
ATOM      8  C6  OXE d   1       1.652  -0.445   1.683  0.00  0.00     0.003 A 
ENDROOT
TORSDOF 0
ENDMDL
