MODEL 1
REMARK minimizedAffinity 11.6009321
REMARK minimizedRMSD -1
REMARK  0 active torsions:
REMARK  status: ('A' for Active; 'I' for Inactive)
ROOT
ATOM      1  C2' OXE d   1      -3.773  -1.016  -1.361  0.00  0.00     0.078 C 
ATOM      2  C1' OXE d   1      -1.048  -0.868  -0.704  0.00  0.00     0.078 C 
ATOM      3  C1  OXE d   1      -1.634   0.249  -1.531  0.00  0.00    -0.078 A 
ATOM      4  C2  OXE d   1      -2.957   0.145  -1.887  0.00  0.00    -0.078 A 
ATOM      5  C3  OXE d   1      -3.561   1.175  -2.603  0.00  0.00     0.003 A 
ATOM      6  C4  OXE d   1      -2.797   2.240  -3.095  0.00  0.00    -0.002 A 
ATOM      7  C5  OXE d   1      -1.438   2.344  -2.777  0.00  0.00    -0.002 A 
ATOM      8  C6  OXE d   1      -0.852   1.382  -1.963  0.00  0.00     0.003 A 
ENDROOT
TORSDOF 0
ENDMDL
