MODEL 1
REMARK minimizedAffinity 15.2606506
REMARK minimizedRMSD -1
REMARK  0 active torsions:
REMARK  status: ('A' for Active; 'I' for Inactive)
ROOT
ATOM      1  C2' OXE d   1      -3.743  -1.378  -1.886  0.00  0.00     0.078 C 
ATOM      2  C1' OXE d   1      -1.098  -0.973  -1.038  0.00  0.00     0.078 C 
ATOM      3  C1  OXE d   1      -1.776   0.147  -1.786  0.00  0.00    -0.078 A 
ATOM      4  C2  OXE d   1      -3.054  -0.078  -2.238  0.00  0.00    -0.078 A 
ATOM      5  C3  OXE d   1      -3.745   0.942  -2.886  0.00  0.00     0.003 A 
ATOM      6  C4  OXE d   1      -3.097   2.139  -3.217  0.00  0.00    -0.002 A 
ATOM      7  C5  OXE d   1      -1.782   2.372  -2.801  0.00  0.00    -0.002 A 
ATOM      8  C6  OXE d   1      -1.123   1.406  -2.050  0.00  0.00     0.003 A 
ENDROOT
TORSDOF 0
ENDMDL
