MODEL 1
REMARK minimizedAffinity 11.9042702
REMARK minimizedRMSD -1
REMARK  0 active torsions:
REMARK  status: ('A' for Active; 'I' for Inactive)
ROOT
ATOM      1  C2' OXE d   1       3.740  -1.485   3.352  0.00  0.00     0.078 C 
ATOM      2  C1' OXE d   1       4.378  -1.661   0.624  0.00  0.00     0.078 C 
ATOM      3  C1  OXE d   1       2.921  -1.703   1.009  0.00  0.00    -0.078 A 
ATOM      4  C2  OXE d   1       2.620  -1.664   2.350  0.00  0.00    -0.078 A 
ATOM      5  C3  OXE d   1       1.289  -1.644   2.757  0.00  0.00     0.003 A 
ATOM      6  C4  OXE d   1       0.260  -1.819   1.825  0.00  0.00    -0.002 A 
ATOM      7  C5  OXE d   1       0.546  -1.901   0.458  0.00  0.00    -0.002 A 
ATOM      8  C6  OXE d   1       1.866  -1.802   0.031  0.00  0.00     0.003 A 
ENDROOT
TORSDOF 0
ENDMDL
