MODEL 1
REMARK minimizedAffinity 9.19670677
REMARK minimizedRMSD -1
REMARK  0 active torsions:
REMARK  status: ('A' for Active; 'I' for Inactive)
ROOT
ATOM      1  C2' OXE d   1       5.464   5.912  -5.937  0.00  0.00     0.078 C 
ATOM      2  C1' OXE d   1       5.330   3.131  -5.577  0.00  0.00     0.078 C 
ATOM      3  C1  OXE d   1       4.031   3.888  -5.699  0.00  0.00    -0.078 A 
ATOM      4  C2  OXE d   1       4.105   5.254  -5.828  0.00  0.00    -0.078 A 
ATOM      5  C3  OXE d   1       2.939   5.994  -6.000  0.00  0.00     0.003 A 
ATOM      6  C4  OXE d   1       1.686   5.379  -5.888  0.00  0.00    -0.002 A 
ATOM      7  C5  OXE d   1       1.588   3.994  -5.717  0.00  0.00    -0.002 A 
ATOM      8  C6  OXE d   1       2.748   3.230  -5.663  0.00  0.00     0.003 A 
ENDROOT
TORSDOF 0
ENDMDL
