MODEL 1
REMARK minimizedAffinity 4.58040762
REMARK minimizedRMSD -1
REMARK  0 active torsions:
REMARK  status: ('A' for Active; 'I' for Inactive)
ROOT
ATOM      1  C2' OXE d   1      -1.884   2.990  -3.010  0.00  0.00     0.078 C 
ATOM      2  C1' OXE d   1      -3.485   5.107  -3.922  0.00  0.00     0.078 C 
ATOM      3  C1  OXE d   1      -2.107   4.961  -4.517  0.00  0.00    -0.078 A 
ATOM      4  C2  OXE d   1      -1.313   3.950  -4.031  0.00  0.00    -0.078 A 
ATOM      5  C3  OXE d   1      -0.053   3.737  -4.583  0.00  0.00     0.003 A 
ATOM      6  C4  OXE d   1       0.471   4.635  -5.520  0.00  0.00    -0.002 A 
ATOM      7  C5  OXE d   1      -0.306   5.695  -6.000  0.00  0.00    -0.002 A 
ATOM      8  C6  OXE d   1      -1.610   5.846  -5.541  0.00  0.00     0.003 A 
ENDROOT
TORSDOF 0
ENDMDL
