MODEL 1
REMARK minimizedAffinity 8.32453918
REMARK minimizedRMSD -1
REMARK  0 active torsions:
REMARK  status: ('A' for Active; 'I' for Inactive)
ROOT
ATOM      1  C2' OXE d   1       3.333  -5.537   0.287  0.00  0.00     0.078 C 
ATOM      2  C1' OXE d   1       0.551  -5.302   0.579  0.00  0.00     0.078 C 
ATOM      3  C1  OXE d   1       1.381  -4.050   0.716  0.00  0.00    -0.078 A 
ATOM      4  C2  OXE d   1       2.746  -4.182   0.618  0.00  0.00    -0.078 A 
ATOM      5  C3  OXE d   1       3.554  -3.051   0.682  0.00  0.00     0.003 A 
ATOM      6  C4  OXE d   1       3.003  -1.803   0.998  0.00  0.00    -0.002 A 
ATOM      7  C5  OXE d   1       1.620  -1.653   1.141  0.00  0.00    -0.002 A 
ATOM      8  C6  OXE d   1       0.793  -2.757   0.962  0.00  0.00     0.003 A 
ENDROOT
TORSDOF 0
ENDMDL
