MODEL 1
REMARK minimizedAffinity 1.96975172
REMARK minimizedRMSD -1
REMARK  0 active torsions:
REMARK  status: ('A' for Active; 'I' for Inactive)
ROOT
ATOM      1  C2' OXE d   1       2.126  -2.067   1.501  0.00  0.00     0.078 C 
ATOM      2  C1' OXE d   1       4.846  -2.372   0.879  0.00  0.00     0.078 C 
ATOM      3  C1  OXE d   1       3.972  -3.600   0.833  0.00  0.00    -0.078 A 
ATOM      4  C2  OXE d   1       2.652  -3.450   1.184  0.00  0.00    -0.078 A 
ATOM      5  C3  OXE d   1       1.790  -4.540   1.106  0.00  0.00     0.003 A 
ATOM      6  C4  OXE d   1       2.286  -5.818   0.822  0.00  0.00    -0.002 A 
ATOM      7  C5  OXE d   1       3.635  -6.000   0.501  0.00  0.00    -0.002 A 
ATOM      8  C6  OXE d   1       4.481  -4.897   0.460  0.00  0.00     0.003 A 
ENDROOT
TORSDOF 0
ENDMDL
