MODEL 1
REMARK minimizedAffinity 7.39688158
REMARK minimizedRMSD -1
REMARK  0 active torsions:
REMARK  status: ('A' for Active; 'I' for Inactive)
ROOT
ATOM      1  C2' OXE d   1      -2.243   2.487  -3.283  0.00  0.00     0.078 C 
ATOM      2  C1' OXE d   1      -1.494   1.173  -5.648  0.00  0.00     0.078 C 
ATOM      3  C1  OXE d   1      -0.698   2.386  -5.234  0.00  0.00    -0.078 A 
ATOM      4  C2  OXE d   1      -1.101   3.050  -4.101  0.00  0.00    -0.078 A 
ATOM      5  C3  OXE d   1      -0.369   4.142  -3.645  0.00  0.00     0.003 A 
ATOM      6  C4  OXE d   1       0.680   4.663  -4.412  0.00  0.00    -0.002 A 
ATOM      7  C5  OXE d   1       1.082   4.025  -5.591  0.00  0.00    -0.002 A 
ATOM      8  C6  OXE d   1       0.432   2.863  -5.993  0.00  0.00     0.003 A 
ENDROOT
TORSDOF 0
ENDMDL
