MODEL 1
REMARK minimizedAffinity 9.6939249
REMARK minimizedRMSD -1
REMARK  2 active torsions:
REMARK  status: ('A' for Active; 'I' for Inactive)
REMARK    1  A    between atoms: C1_2  and  C2_3 
REMARK    2  A    between atoms: C2_3  and  C3_4 
ROOT
ATOM      1  C3  UNL d   1       4.308  -0.451  -3.859  0.00  0.00    -0.075 A 
ATOM      2  C4  UNL d   1       5.426  -0.966  -4.531  0.00  0.00     0.002 A 
ATOM      3  C5  UNL d   1       6.000  -0.264  -5.591  0.00  0.00     0.002 A 
ATOM      4  C6  UNL d   1       5.459   0.953  -5.999  0.00  0.00    -0.004 A 
ATOM      5  C7  UNL d   1       4.338   1.466  -5.350  0.00  0.00     0.002 A 
ATOM      6  C8  UNL d   1       3.765   0.768  -4.285  0.00  0.00     0.002 A 
ENDROOT
BRANCH   1   7
ATOM      7  C2  UNL d   1       3.700  -1.191  -2.691  0.00  0.00     0.056 C 
BRANCH   7   8
ATOM      8  C1  UNL d   1       2.209  -1.502  -2.858  0.00  0.00     0.007 C 
ATOM      9  C   UNL d   1       1.842  -2.922  -2.448  0.00  0.00     0.009 C 
ENDBRANCH   7   8
ENDBRANCH   1   7
TORSDOF 2
ENDMDL
