MODEL 1
REMARK minimizedAffinity 9.40640736
REMARK minimizedRMSD -1
REMARK  2 active torsions:
REMARK  status: ('A' for Active; 'I' for Inactive)
REMARK    1  A    between atoms: C1_2  and  C2_3 
REMARK    2  A    between atoms: C2_3  and  C3_4 
ROOT
ATOM      1  C3  UNL d   1      -4.750   0.628  -1.767  0.00  0.00    -0.075 A 
ATOM      2  C4  UNL d   1      -4.179   0.695  -3.046  0.00  0.00     0.002 A 
ATOM      3  C5  UNL d   1      -3.034   1.460  -3.272  0.00  0.00     0.002 A 
ATOM      4  C6  UNL d   1      -2.453   2.175  -2.226  0.00  0.00    -0.004 A 
ATOM      5  C7  UNL d   1      -3.021   2.129  -0.955  0.00  0.00     0.002 A 
ATOM      6  C8  UNL d   1      -4.164   1.361  -0.725  0.00  0.00     0.002 A 
ENDROOT
BRANCH   1   7
ATOM      7  C2  UNL d   1      -5.972  -0.221  -1.509  0.00  0.00     0.056 C 
BRANCH   7   8
ATOM      8  C1  UNL d   1      -5.894  -1.625  -2.117  0.00  0.00     0.007 C 
ATOM      9  C   UNL d   1      -5.958  -2.735  -1.077  0.00  0.00     0.009 C 
ENDBRANCH   7   8
ENDBRANCH   1   7
TORSDOF 2
ENDMDL
