MODEL 1
REMARK minimizedAffinity -3.14003825
REMARK minimizedRMSD -1
REMARK  2 active torsions:
REMARK  status: ('A' for Active; 'I' for Inactive)
REMARK    1  A    between atoms: C1_2  and  C2_3 
REMARK    2  A    between atoms: C2_3  and  C3_4 
ROOT
ATOM      1  C3  UNL d   1       3.957  -2.451   2.713  0.00  0.00    -0.075 A 
ATOM      2  C4  UNL d   1       3.855  -1.657   1.561  0.00  0.00     0.002 A 
ATOM      3  C5  UNL d   1       2.617  -1.161   1.150  0.00  0.00     0.002 A 
ATOM      4  C6  UNL d   1       1.467  -1.458   1.879  0.00  0.00    -0.004 A 
ATOM      5  C7  UNL d   1       1.555  -2.259   3.015  0.00  0.00     0.002 A 
ATOM      6  C8  UNL d   1       2.792  -2.753   3.431  0.00  0.00     0.002 A 
ENDROOT
BRANCH   1   7
ATOM      7  C2  UNL d   1       5.297  -2.967   3.179  0.00  0.00     0.056 C 
BRANCH   7   8
ATOM      8  C1  UNL d   1       5.261  -3.641   4.555  0.00  0.00     0.007 C 
ATOM      9  C   UNL d   1       5.999  -2.852   5.629  0.00  0.00     0.009 C 
ENDBRANCH   7   8
ENDBRANCH   1   7
TORSDOF 2
ENDMDL
