MODEL 1
REMARK minimizedAffinity -0.16567342
REMARK minimizedRMSD -1
REMARK  2 active torsions:
REMARK  status: ('A' for Active; 'I' for Inactive)
REMARK    1  A    between atoms: C1_2  and  C2_3 
REMARK    2  A    between atoms: C2_3  and  C3_4 
ROOT
ATOM      1  C3  UNL d   1       3.796  -1.183  -4.525  0.00  0.00    -0.075 A 
ATOM      2  C4  UNL d   1       2.999  -0.029  -4.520  0.00  0.00     0.002 A 
ATOM      3  C5  UNL d   1       3.375   1.094  -5.258  0.00  0.00     0.002 A 
ATOM      4  C6  UNL d   1       4.554   1.082  -5.999  0.00  0.00    -0.004 A 
ATOM      5  C7  UNL d   1       5.362  -0.053  -5.998  0.00  0.00     0.002 A 
ATOM      6  C8  UNL d   1       4.986  -1.180  -5.264  0.00  0.00     0.002 A 
ENDROOT
BRANCH   1   7
ATOM      7  C2  UNL d   1       3.380  -2.412  -3.753  0.00  0.00     0.056 C 
BRANCH   7   8
ATOM      8  C1  UNL d   1       2.627  -2.108  -2.454  0.00  0.00     0.007 C 
ATOM      9  C   UNL d   1       2.229  -3.359  -1.683  0.00  0.00     0.009 C 
ENDBRANCH   7   8
ENDBRANCH   1   7
TORSDOF 2
ENDMDL
