MODEL 1
REMARK minimizedAffinity 5.08325863
REMARK minimizedRMSD -1
REMARK  2 active torsions:
REMARK  status: ('A' for Active; 'I' for Inactive)
REMARK    1  A    between atoms: C1_2  and  C2_3 
REMARK    2  A    between atoms: C2_3  and  C3_4 
ROOT
ATOM      1  C3  UNL d   1      -4.923  -3.275  -4.883  0.00  0.00    -0.075 A 
ATOM      2  C4  UNL d   1      -5.962  -3.789  -5.672  0.00  0.00     0.002 A 
ATOM      3  C5  UNL d   1      -6.000  -5.144  -6.000  0.00  0.00     0.002 A 
ATOM      4  C6  UNL d   1      -4.995  -6.000  -5.553  0.00  0.00    -0.004 A 
ATOM      5  C7  UNL d   1      -3.949  -5.498  -4.783  0.00  0.00     0.002 A 
ATOM      6  C8  UNL d   1      -3.911  -4.143  -4.450  0.00  0.00     0.002 A 
ENDROOT
BRANCH   1   7
ATOM      7  C2  UNL d   1      -4.892  -1.815  -4.500  0.00  0.00     0.056 C 
BRANCH   7   8
ATOM      8  C1  UNL d   1      -4.890  -1.567  -2.988  0.00  0.00     0.007 C 
ATOM      9  C   UNL d   1      -4.457  -0.156  -2.612  0.00  0.00     0.009 C 
ENDBRANCH   7   8
ENDBRANCH   1   7
TORSDOF 2
ENDMDL
