MODEL 1
REMARK minimizedAffinity 11.6111717
REMARK minimizedRMSD -1
REMARK  2 active torsions:
REMARK  status: ('A' for Active; 'I' for Inactive)
REMARK    1  A    between atoms: C1_2  and  C2_3 
REMARK    2  A    between atoms: C2_3  and  C3_4 
ROOT
ATOM      1  C3  UNL d   1       3.621  -5.204   4.922  0.00  0.00    -0.075 A 
ATOM      2  C4  UNL d   1       4.753  -5.508   4.152  0.00  0.00     0.002 A 
ATOM      3  C5  UNL d   1       5.936  -4.787   4.315  0.00  0.00     0.002 A 
ATOM      4  C6  UNL d   1       6.000  -3.748   5.241  0.00  0.00    -0.004 A 
ATOM      5  C7  UNL d   1       4.876  -3.426   6.000  0.00  0.00     0.002 A 
ATOM      6  C8  UNL d   1       3.693  -4.149   5.841  0.00  0.00     0.002 A 
ENDROOT
BRANCH   1   7
ATOM      7  C2  UNL d   1       2.346  -5.999   4.771  0.00  0.00     0.056 C 
BRANCH   7   8
ATOM      8  C1  UNL d   1       1.252  -5.620   5.773  0.00  0.00     0.007 C 
ATOM      9  C   UNL d   1      -0.149  -5.985   5.300  0.00  0.00     0.009 C 
ENDBRANCH   7   8
ENDBRANCH   1   7
TORSDOF 2
ENDMDL
