MODEL 1
REMARK minimizedAffinity -5.17799282
REMARK minimizedRMSD -1
REMARK  0 active torsions:
REMARK  status: ('A' for Active; 'I' for Inactive)
ROOT
ATOM      1  C   UNL d   1      -1.371   0.732  -0.112  0.00  0.00     0.078 C 
ATOM      2  C1  UNL d   1      -0.070   0.077   0.245  0.00  0.00    -0.077 A 
ATOM      3  C2  UNL d   1       0.189  -1.253  -0.109  0.00  0.00    -0.001 A 
ATOM      4  C3  UNL d   1       1.401  -1.853   0.238  0.00  0.00     0.003 A 
ATOM      5  C4  UNL d   1       2.362  -1.131   0.943  0.00  0.00    -0.005 A 
ATOM      6  C5  UNL d   1       2.113   0.192   1.302  0.00  0.00     0.003 A 
ATOM      7  C6  UNL d   1       0.902   0.793   0.955  0.00  0.00    -0.001 A 
ENDROOT
TORSDOF 0
ENDMDL
