MODEL 1
REMARK minimizedAffinity -2.09861803
REMARK minimizedRMSD -1
REMARK  0 active torsions:
REMARK  status: ('A' for Active; 'I' for Inactive)
ROOT
ATOM      1  C   UNL d   1      -0.597  -0.052   1.082  0.00  0.00     0.078 C 
ATOM      2  C1  UNL d   1       0.697  -0.734   0.753  0.00  0.00    -0.077 A 
ATOM      3  C2  UNL d   1       1.635  -1.023   1.752  0.00  0.00    -0.001 A 
ATOM      4  C3  UNL d   1       2.840  -1.649   1.430  0.00  0.00     0.003 A 
ATOM      5  C4  UNL d   1       3.119  -1.992   0.108  0.00  0.00    -0.005 A 
ATOM      6  C5  UNL d   1       2.193  -1.707  -0.893  0.00  0.00     0.003 A 
ATOM      7  C6  UNL d   1       0.988  -1.080  -0.573  0.00  0.00    -0.001 A 
ENDROOT
TORSDOF 0
ENDMDL
