MODEL 1
REMARK minimizedAffinity -5.54196501
REMARK minimizedRMSD -1
REMARK  0 active torsions:
REMARK  status: ('A' for Active; 'I' for Inactive)
ROOT
ATOM      1  C   UNL d   1       2.758   2.171   0.310  0.00  0.00     0.078 C 
ATOM      2  C1  UNL d   1       2.497   0.696   0.244  0.00  0.00    -0.077 A 
ATOM      3  C2  UNL d   1       1.191   0.197   0.172  0.00  0.00    -0.001 A 
ATOM      4  C3  UNL d   1       0.962  -1.179   0.121  0.00  0.00     0.003 A 
ATOM      5  C4  UNL d   1       2.035  -2.068   0.143  0.00  0.00    -0.005 A 
ATOM      6  C5  UNL d   1       3.339  -1.581   0.217  0.00  0.00     0.003 A 
ATOM      7  C6  UNL d   1       3.569  -0.205   0.268  0.00  0.00    -0.001 A 
ENDROOT
TORSDOF 0
ENDMDL
