MODEL 1
REMARK minimizedAffinity -0.120408408
REMARK minimizedRMSD -1
REMARK  0 active torsions:
REMARK  status: ('A' for Active; 'I' for Inactive)
ROOT
ATOM      1  C   UNL d   1       0.143   1.128  -0.078  0.00  0.00     0.078 C 
ATOM      2  C1  UNL d   1      -1.299   1.176   0.329  0.00  0.00    -0.077 A 
ATOM      3  C2  UNL d   1      -1.669   1.498   1.640  0.00  0.00    -0.001 A 
ATOM      4  C3  UNL d   1      -3.015   1.530   2.007  0.00  0.00     0.003 A 
ATOM      5  C4  UNL d   1      -4.003   1.239   1.068  0.00  0.00    -0.005 A 
ATOM      6  C5  UNL d   1      -3.645   0.915  -0.239  0.00  0.00     0.003 A 
ATOM      7  C6  UNL d   1      -2.299   0.883  -0.608  0.00  0.00    -0.001 A 
ENDROOT
TORSDOF 0
ENDMDL
