MODEL 1
REMARK minimizedAffinity -5.32311153
REMARK minimizedRMSD -1
REMARK  0 active torsions:
REMARK  status: ('A' for Active; 'I' for Inactive)
ROOT
ATOM      1  C   UNL d   1      -1.308   0.723  -0.449  0.00  0.00     0.078 C 
ATOM      2  C1  UNL d   1       0.003   0.053  -0.163  0.00  0.00    -0.077 A 
ATOM      3  C2  UNL d   1       0.965   0.668   0.648  0.00  0.00    -0.001 A 
ATOM      4  C3  UNL d   1       2.185   0.038   0.897  0.00  0.00     0.003 A 
ATOM      5  C4  UNL d   1       2.455  -1.210   0.339  0.00  0.00    -0.005 A 
ATOM      6  C5  UNL d   1       1.505  -1.829  -0.471  0.00  0.00     0.003 A 
ATOM      7  C6  UNL d   1       0.284  -1.200  -0.721  0.00  0.00    -0.001 A 
ENDROOT
TORSDOF 0
ENDMDL
