MODEL 1
REMARK minimizedAffinity -5.04743052
REMARK minimizedRMSD -1
REMARK  0 active torsions:
REMARK  status: ('A' for Active; 'I' for Inactive)
ROOT
ATOM      1  C   UNL d   1       2.985  -1.585   0.945  0.00  0.00     0.078 C 
ATOM      2  C1  UNL d   1       1.672  -0.990   0.532  0.00  0.00    -0.077 A 
ATOM      3  C2  UNL d   1       1.285   0.281   0.972  0.00  0.00    -0.001 A 
ATOM      4  C3  UNL d   1       0.055   0.818   0.587  0.00  0.00     0.003 A 
ATOM      5  C4  UNL d   1      -0.798   0.090  -0.239  0.00  0.00    -0.005 A 
ATOM      6  C5  UNL d   1      -0.423  -1.178  -0.681  0.00  0.00     0.003 A 
ATOM      7  C6  UNL d   1       0.806  -1.716  -0.297  0.00  0.00    -0.001 A 
ENDROOT
TORSDOF 0
ENDMDL
