MODEL 1
REMARK minimizedAffinity 20.2492447
REMARK minimizedRMSD -1
REMARK  2 active torsions:
REMARK  status: ('A' for Active; 'I' for Inactive)
REMARK    1  A    between atoms: C2'_3  and  C1'_4 
REMARK    2  A    between atoms: C1'_4  and  C1_5 
ROOT
ATOM      1  C1  I4B d   1       0.247   5.478  -1.951  0.00  0.00    -0.075 A 
ATOM      2  C2  I4B d   1      -1.095   5.475  -2.242  0.00  0.00     0.003 A 
ATOM      3  C3  I4B d   1      -1.537   5.714  -3.566  0.00  0.00     0.002 A 
ATOM      4  C4  I4B d   1      -0.613   5.999  -4.550  0.00  0.00    -0.004 A 
ATOM      5  C5  I4B d   1       0.748   5.979  -4.258  0.00  0.00     0.002 A 
ATOM      6  C6  I4B d   1       1.182   5.705  -2.953  0.00  0.00     0.003 A 
ENDROOT
BRANCH   1   7
ATOM      7  C1' I4B d   1       0.677   5.255  -0.536  0.00  0.00     0.060 C 
BRANCH   7   8
ATOM      8  C2' I4B d   1      -0.357   4.372   0.133  0.00  0.00    -0.013 C 
ATOM      9  C4' I4B d   1       0.252   3.075   0.598  0.00  0.00     0.013 C 
ATOM     10  C3' I4B d   1      -0.945   5.136   1.281  0.00  0.00     0.013 C 
ENDBRANCH   7   8
ENDBRANCH   1   7
TORSDOF 2
ENDMDL
