MODEL 1
REMARK minimizedAffinity 8.34647274
REMARK minimizedRMSD -1
REMARK  2 active torsions:
REMARK  status: ('A' for Active; 'I' for Inactive)
REMARK    1  A    between atoms: C2'_3  and  C1'_4 
REMARK    2  A    between atoms: C1'_4  and  C1_5 
ROOT
ATOM      1  C1  I4B d   1       5.308  -3.243  -1.171  0.00  0.00    -0.075 A 
ATOM      2  C2  I4B d   1       5.652  -4.404  -0.525  0.00  0.00     0.003 A 
ATOM      3  C3  I4B d   1       5.592  -5.644  -1.206  0.00  0.00     0.002 A 
ATOM      4  C4  I4B d   1       5.137  -5.682  -2.509  0.00  0.00    -0.004 A 
ATOM      5  C5  I4B d   1       4.811  -4.501  -3.169  0.00  0.00     0.002 A 
ATOM      6  C6  I4B d   1       4.908  -3.272  -2.500  0.00  0.00     0.003 A 
ENDROOT
BRANCH   1   7
ATOM      7  C1' I4B d   1       5.352  -1.955  -0.411  0.00  0.00     0.060 C 
BRANCH   7   8
ATOM      8  C2' I4B d   1       3.990  -1.737   0.217  0.00  0.00    -0.013 C 
ATOM      9  C4' I4B d   1       3.022  -1.146  -0.774  0.00  0.00     0.013 C 
ATOM     10  C3' I4B d   1       3.500  -3.058   0.731  0.00  0.00     0.013 C 
ENDBRANCH   7   8
ENDBRANCH   1   7
TORSDOF 2
ENDMDL
