MODEL 1
REMARK minimizedAffinity 9.50782394
REMARK minimizedRMSD -1
REMARK  2 active torsions:
REMARK  status: ('A' for Active; 'I' for Inactive)
REMARK    1  A    between atoms: C2'_3  and  C1'_4 
REMARK    2  A    between atoms: C1'_4  and  C1_5 
ROOT
ATOM      1  C1  I4B d   1       0.503   3.297   1.356  0.00  0.00    -0.075 A 
ATOM      2  C2  I4B d   1      -0.485   2.878   2.211  0.00  0.00     0.003 A 
ATOM      3  C3  I4B d   1      -0.168   2.512   3.542  0.00  0.00     0.002 A 
ATOM      4  C4  I4B d   1       1.147   2.533   3.957  0.00  0.00    -0.004 A 
ATOM      5  C5  I4B d   1       2.145   2.980   3.096  0.00  0.00     0.002 A 
ATOM      6  C6  I4B d   1       1.819   3.376   1.790  0.00  0.00     0.003 A 
ENDROOT
BRANCH   1   7
ATOM      7  C1' I4B d   1       0.137   3.644  -0.053  0.00  0.00     0.060 C 
BRANCH   7   8
ATOM      8  C2' I4B d   1       0.604   5.060  -0.320  0.00  0.00    -0.013 C 
ATOM      9  C4' I4B d   1       0.709   5.329  -1.799  0.00  0.00     0.013 C 
ATOM     10  C3' I4B d   1      -0.366   5.999   0.333  0.00  0.00     0.013 C 
ENDBRANCH   7   8
ENDBRANCH   1   7
TORSDOF 2
ENDMDL
