MODEL 1
REMARK minimizedAffinity 11.7699213
REMARK minimizedRMSD -1
REMARK  2 active torsions:
REMARK  status: ('A' for Active; 'I' for Inactive)
REMARK    1  A    between atoms: C2'_3  and  C1'_4 
REMARK    2  A    between atoms: C1'_4  and  C1_5 
ROOT
ATOM      1  C1  I4B d   1       0.755   3.781   1.256  0.00  0.00    -0.075 A 
ATOM      2  C2  I4B d   1       0.370   2.874   2.212  0.00  0.00     0.003 A 
ATOM      3  C3  I4B d   1       1.115   2.740   3.408  0.00  0.00     0.002 A 
ATOM      4  C4  I4B d   1       2.259   3.491   3.584  0.00  0.00    -0.004 A 
ATOM      5  C5  I4B d   1       2.636   4.426   2.625  0.00  0.00     0.002 A 
ATOM      6  C6  I4B d   1       1.872   4.581   1.458  0.00  0.00     0.003 A 
ENDROOT
BRANCH   1   7
ATOM      7  C1' I4B d   1      -0.035   3.873  -0.011  0.00  0.00     0.060 C 
BRANCH   7   8
ATOM      8  C2' I4B d   1       0.011   5.311  -0.486  0.00  0.00    -0.013 C 
ATOM      9  C4' I4B d   1       0.988   5.479  -1.620  0.00  0.00     0.013 C 
ATOM     10  C3' I4B d   1      -1.375   5.707  -0.901  0.00  0.00     0.013 C 
ENDBRANCH   7   8
ENDBRANCH   1   7
TORSDOF 2
ENDMDL
