MODEL 1
REMARK minimizedAffinity 11.8506851
REMARK minimizedRMSD -1
REMARK  2 active torsions:
REMARK  status: ('A' for Active; 'I' for Inactive)
REMARK    1  A    between atoms: C2'_3  and  C1'_4 
REMARK    2  A    between atoms: C1'_4  and  C1_5 
ROOT
ATOM      1  C1  I4B d   1       0.324   2.100  -0.068  0.00  0.00    -0.075 A 
ATOM      2  C2  I4B d   1       0.375   2.209   1.299  0.00  0.00     0.003 A 
ATOM      3  C3  I4B d   1       0.345   3.484   1.914  0.00  0.00     0.002 A 
ATOM      4  C4  I4B d   1       0.314   4.617   1.127  0.00  0.00    -0.004 A 
ATOM      5  C5  I4B d   1       0.240   4.504  -0.258  0.00  0.00     0.002 A 
ATOM      6  C6  I4B d   1       0.232   3.237  -0.860  0.00  0.00     0.003 A 
ENDROOT
BRANCH   1   7
ATOM      7  C1' I4B d   1       0.391   0.739  -0.685  0.00  0.00     0.060 C 
BRANCH   7   8
ATOM      8  C2' I4B d   1      -0.880   0.524  -1.481  0.00  0.00    -0.013 C 
ATOM      9  C4' I4B d   1      -0.813  -0.751  -2.281  0.00  0.00     0.013 C 
ATOM     10  C3' I4B d   1      -2.030   0.500  -0.520  0.00  0.00     0.013 C 
ENDBRANCH   7   8
ENDBRANCH   1   7
TORSDOF 2
ENDMDL
