MODEL 1
REMARK minimizedAffinity 0.866737187
REMARK minimizedRMSD -1
REMARK  2 active torsions:
REMARK  status: ('A' for Active; 'I' for Inactive)
REMARK    1  A    between atoms: C2'_3  and  C1'_4 
REMARK    2  A    between atoms: C1'_4  and  C1_5 
ROOT
ATOM      1  C1  I4B d   1       0.255  -0.301  -0.292  0.00  0.00    -0.075 A 
ATOM      2  C2  I4B d   1      -1.057  -0.497   0.062  0.00  0.00     0.003 A 
ATOM      3  C3  I4B d   1      -1.523  -0.077   1.331  0.00  0.00     0.002 A 
ATOM      4  C4  I4B d   1      -0.638   0.484   2.229  0.00  0.00    -0.004 A 
ATOM      5  C5  I4B d   1       0.686   0.703   1.859  0.00  0.00     0.002 A 
ATOM      6  C6  I4B d   1       1.133   0.319   0.587  0.00  0.00     0.003 A 
ENDROOT
BRANCH   1   7
ATOM      7  C1' I4B d   1       0.721  -0.787  -1.628  0.00  0.00     0.060 C 
BRANCH   7   8
ATOM      8  C2' I4B d   1       0.599   0.361  -2.610  0.00  0.00    -0.013 C 
ATOM      9  C4' I4B d   1       1.953   0.902  -2.987  0.00  0.00     0.013 C 
ATOM     10  C3' I4B d   1      -0.139  -0.139  -3.816  0.00  0.00     0.013 C 
ENDBRANCH   7   8
ENDBRANCH   1   7
TORSDOF 2
ENDMDL
