MODEL 1
REMARK minimizedAffinity 2.56378818
REMARK minimizedRMSD -1
REMARK  2 active torsions:
REMARK  status: ('A' for Active; 'I' for Inactive)
REMARK    1  A    between atoms: C2'_3  and  C1'_4 
REMARK    2  A    between atoms: C1'_4  and  C1_5 
ROOT
ATOM      1  C1  I4B d   1       0.268  -0.171  -0.860  0.00  0.00    -0.075 A 
ATOM      2  C2  I4B d   1      -0.977   0.387  -0.703  0.00  0.00     0.003 A 
ATOM      3  C3  I4B d   1      -1.439   0.748   0.585  0.00  0.00     0.002 A 
ATOM      4  C4  I4B d   1      -0.650   0.488   1.688  0.00  0.00    -0.004 A 
ATOM      5  C5  I4B d   1       0.620  -0.056   1.525  0.00  0.00     0.002 A 
ATOM      6  C6  I4B d   1       1.088  -0.377   0.242  0.00  0.00     0.003 A 
ENDROOT
BRANCH   1   7
ATOM      7  C1' I4B d   1       0.711  -0.571  -2.232  0.00  0.00     0.060 C 
BRANCH   7   8
ATOM      8  C2' I4B d   1       0.929   0.693  -3.038  0.00  0.00    -0.013 C 
ATOM      9  C4' I4B d   1       2.367   1.135  -2.982  0.00  0.00     0.013 C 
ATOM     10  C3' I4B d   1       0.501   0.421  -4.450  0.00  0.00     0.013 C 
ENDBRANCH   7   8
ENDBRANCH   1   7
TORSDOF 2
ENDMDL
