MODEL 1
REMARK minimizedAffinity 8.83538151
REMARK minimizedRMSD -1
REMARK  2 active torsions:
REMARK  status: ('A' for Active; 'I' for Inactive)
REMARK    1  A    between atoms: C2'_3  and  C1'_4 
REMARK    2  A    between atoms: C1'_4  and  C1_5 
ROOT
ATOM      1  C1  I4B d   1       2.725  -2.050   1.736  0.00  0.00    -0.075 A 
ATOM      2  C2  I4B d   1       2.143  -2.591   0.616  0.00  0.00     0.003 A 
ATOM      3  C3  I4B d   1       0.782  -2.330   0.324  0.00  0.00     0.002 A 
ATOM      4  C4  I4B d   1       0.032  -1.571   1.200  0.00  0.00    -0.004 A 
ATOM      5  C5  I4B d   1       0.630  -1.006   2.322  0.00  0.00     0.002 A 
ATOM      6  C6  I4B d   1       1.988  -1.236   2.586  0.00  0.00     0.003 A 
ENDROOT
BRANCH   1   7
ATOM      7  C1' I4B d   1       4.156  -2.373   2.031  0.00  0.00     0.060 C 
BRANCH   7   8
ATOM      8  C2' I4B d   1       4.192  -3.243   3.271  0.00  0.00    -0.013 C 
ATOM      9  C4' I4B d   1       4.645  -4.641   2.943  0.00  0.00     0.013 C 
ATOM     10  C3' I4B d   1       5.109  -2.596   4.265  0.00  0.00     0.013 C 
ENDBRANCH   7   8
ENDBRANCH   1   7
TORSDOF 2
ENDMDL
