MODEL 1
REMARK minimizedAffinity 1.88459766
REMARK minimizedRMSD -1
REMARK  2 active torsions:
REMARK  status: ('A' for Active; 'I' for Inactive)
REMARK    1  A    between atoms: C2'_3  and  C1'_4 
REMARK    2  A    between atoms: C1'_4  and  C1_5 
ROOT
ATOM      1  C1  I4B d   1       4.191  -3.701   2.407  0.00  0.00    -0.075 A 
ATOM      2  C2  I4B d   1       3.465  -2.591   2.761  0.00  0.00     0.003 A 
ATOM      3  C3  I4B d   1       2.452  -2.098   1.903  0.00  0.00     0.002 A 
ATOM      4  C4  I4B d   1       2.235  -2.710   0.686  0.00  0.00    -0.004 A 
ATOM      5  C5  I4B d   1       2.957  -3.848   0.338  0.00  0.00     0.002 A 
ATOM      6  C6  I4B d   1       3.932  -4.355   1.209  0.00  0.00     0.003 A 
ENDROOT
BRANCH   1   7
ATOM      7  C1' I4B d   1       5.274  -4.176   3.322  0.00  0.00     0.060 C 
BRANCH   7   8
ATOM      8  C2' I4B d   1       5.009  -3.600   4.698  0.00  0.00    -0.013 C 
ATOM      9  C4' I4B d   1       5.249  -4.627   5.774  0.00  0.00     0.013 C 
ATOM     10  C3' I4B d   1       5.898  -2.406   4.881  0.00  0.00     0.013 C 
ENDBRANCH   7   8
ENDBRANCH   1   7
TORSDOF 2
ENDMDL
