MODEL 1
REMARK minimizedAffinity 0.174699172
REMARK minimizedRMSD -1
REMARK  2 active torsions:
REMARK  status: ('A' for Active; 'I' for Inactive)
REMARK    1  A    between atoms: C2'_3  and  C1'_4 
REMARK    2  A    between atoms: C1'_4  and  C1_5 
ROOT
ATOM      1  C1  I4B d   1       1.519   4.878   3.769  0.00  0.00    -0.075 A 
ATOM      2  C2  I4B d   1       1.557   5.151   5.114  0.00  0.00     0.003 A 
ATOM      3  C3  I4B d   1       0.423   5.696   5.763  0.00  0.00     0.002 A 
ATOM      4  C4  I4B d   1      -0.703   5.998   5.024  0.00  0.00    -0.004 A 
ATOM      5  C5  I4B d   1      -0.748   5.700   3.666  0.00  0.00     0.002 A 
ATOM      6  C6  I4B d   1       0.365   5.125   3.036  0.00  0.00     0.003 A 
ENDROOT
BRANCH   1   7
ATOM      7  C1' I4B d   1       2.746   4.333   3.109  0.00  0.00     0.060 C 
BRANCH   7   8
ATOM      8  C2' I4B d   1       2.356   3.068   2.372  0.00  0.00    -0.013 C 
ATOM      9  C4' I4B d   1       3.533   2.481   1.637  0.00  0.00     0.013 C 
ATOM     10  C3' I4B d   1       1.806   2.098   3.375  0.00  0.00     0.013 C 
ENDBRANCH   7   8
ENDBRANCH   1   7
TORSDOF 2
ENDMDL
