MODEL 1
REMARK minimizedAffinity 5.93211079
REMARK minimizedRMSD -1
REMARK  2 active torsions:
REMARK  status: ('A' for Active; 'I' for Inactive)
REMARK    1  A    between atoms: C2'_3  and  C1'_4 
REMARK    2  A    between atoms: C1'_4  and  C1_5 
ROOT
ATOM      1  C1  I4B d   1       4.564  -3.958   3.442  0.00  0.00    -0.075 A 
ATOM      2  C2  I4B d   1       5.204  -2.752   3.579  0.00  0.00     0.003 A 
ATOM      3  C3  I4B d   1       5.545  -2.267   4.865  0.00  0.00     0.002 A 
ATOM      4  C4  I4B d   1       5.183  -2.992   5.982  0.00  0.00    -0.004 A 
ATOM      5  C5  I4B d   1       4.554  -4.226   5.840  0.00  0.00     0.002 A 
ATOM      6  C6  I4B d   1       4.254  -4.718   4.562  0.00  0.00     0.003 A 
ENDROOT
BRANCH   1   7
ATOM      7  C1' I4B d   1       4.190  -4.424   2.071  0.00  0.00     0.060 C 
BRANCH   7   8
ATOM      8  C2' I4B d   1       3.816  -3.207   1.250  0.00  0.00    -0.013 C 
ATOM      9  C4' I4B d   1       4.536  -3.199  -0.073  0.00  0.00     0.013 C 
ATOM     10  C3' I4B d   1       2.329  -3.218   1.057  0.00  0.00     0.013 C 
ENDBRANCH   7   8
ENDBRANCH   1   7
TORSDOF 2
ENDMDL
