MODEL 1
REMARK minimizedAffinity 0.433981389
REMARK minimizedRMSD -1
REMARK  2 active torsions:
REMARK  status: ('A' for Active; 'I' for Inactive)
REMARK    1  A    between atoms: C2'_3  and  C1'_4 
REMARK    2  A    between atoms: C1'_4  and  C1_5 
ROOT
ATOM      1  C1  I4B d   1       4.507  -4.527   3.350  0.00  0.00    -0.075 A 
ATOM      2  C2  I4B d   1       4.200  -5.470   4.300  0.00  0.00     0.003 A 
ATOM      3  C3  I4B d   1       4.565  -5.264   5.652  0.00  0.00     0.002 A 
ATOM      4  C4  I4B d   1       5.275  -4.133   6.000  0.00  0.00    -0.004 A 
ATOM      5  C5  I4B d   1       5.566  -3.168   5.040  0.00  0.00     0.002 A 
ATOM      6  C6  I4B d   1       5.169  -3.360   3.708  0.00  0.00     0.003 A 
ENDROOT
BRANCH   1   7
ATOM      7  C1' I4B d   1       4.136  -4.792   1.925  0.00  0.00     0.060 C 
BRANCH   7   8
ATOM      8  C2' I4B d   1       3.925  -3.457   1.242  0.00  0.00    -0.013 C 
ATOM      9  C4' I4B d   1       4.807  -3.321   0.028  0.00  0.00     0.013 C 
ATOM     10  C3' I4B d   1       2.476  -3.349   0.873  0.00  0.00     0.013 C 
ENDBRANCH   7   8
ENDBRANCH   1   7
TORSDOF 2
ENDMDL
