MODEL 1
REMARK minimizedAffinity 5.40108013
REMARK minimizedRMSD -1
REMARK  2 active torsions:
REMARK  status: ('A' for Active; 'I' for Inactive)
REMARK    1  A    between atoms: C2'_3  and  C1'_4 
REMARK    2  A    between atoms: C1'_4  and  C1_5 
ROOT
ATOM      1  C1  I4B d   1       3.064  -2.997   2.998  0.00  0.00    -0.075 A 
ATOM      2  C2  I4B d   1       2.752  -3.205   1.678  0.00  0.00     0.003 A 
ATOM      3  C3  I4B d   1       1.584  -2.629   1.122  0.00  0.00     0.002 A 
ATOM      4  C4  I4B d   1       0.735  -1.900   1.930  0.00  0.00    -0.004 A 
ATOM      5  C5  I4B d   1       1.065  -1.672   3.263  0.00  0.00     0.002 A 
ATOM      6  C6  I4B d   1       2.243  -2.213   3.798  0.00  0.00     0.003 A 
ENDROOT
BRANCH   1   7
ATOM      7  C1' I4B d   1       4.288  -3.647   3.561  0.00  0.00     0.060 C 
BRANCH   7   8
ATOM      8  C2' I4B d   1       4.667  -2.911   4.829  0.00  0.00    -0.013 C 
ATOM      9  C4' I4B d   1       4.777  -3.856   5.997  0.00  0.00     0.013 C 
ATOM     10  C3' I4B d   1       5.965  -2.202   4.583  0.00  0.00     0.013 C 
ENDBRANCH   7   8
ENDBRANCH   1   7
TORSDOF 2
ENDMDL
