MODEL 1
REMARK minimizedAffinity 1.12958753
REMARK minimizedRMSD -1
REMARK  2 active torsions:
REMARK  status: ('A' for Active; 'I' for Inactive)
REMARK    1  A    between atoms: C2'_3  and  C1'_4 
REMARK    2  A    between atoms: C1'_4  and  C1_5 
ROOT
ATOM      1  C1  I4B d   1       4.596  -4.274   3.410  0.00  0.00    -0.075 A 
ATOM      2  C2  I4B d   1       4.768  -5.365   4.224  0.00  0.00     0.003 A 
ATOM      3  C3  I4B d   1       5.238  -5.199   5.549  0.00  0.00     0.002 A 
ATOM      4  C4  I4B d   1       5.568  -3.938   6.000  0.00  0.00    -0.004 A 
ATOM      5  C5  I4B d   1       5.371  -2.830   5.181  0.00  0.00     0.002 A 
ATOM      6  C6  I4B d   1       4.870  -2.997   3.882  0.00  0.00     0.003 A 
ENDROOT
BRANCH   1   7
ATOM      7  C1' I4B d   1       4.129  -4.489   2.005  0.00  0.00     0.060 C 
BRANCH   7   8
ATOM      8  C2' I4B d   1       4.031  -3.134   1.333  0.00  0.00    -0.013 C 
ATOM      9  C4' I4B d   1       5.097  -2.967   0.283  0.00  0.00     0.013 C 
ATOM     10  C3' I4B d   1       2.660  -3.012   0.738  0.00  0.00     0.013 C 
ENDBRANCH   7   8
ENDBRANCH   1   7
TORSDOF 2
ENDMDL
