MODEL 1
REMARK minimizedAffinity 10.7509375
REMARK minimizedRMSD -1
REMARK  2 active torsions:
REMARK  status: ('A' for Active; 'I' for Inactive)
REMARK    1  A    between atoms: C2'_3  and  C1'_4 
REMARK    2  A    between atoms: C1'_4  and  C1_5 
ROOT
ATOM      1  C1  I4B d   1       2.017   5.069   3.413  0.00  0.00    -0.075 A 
ATOM      2  C2  I4B d   1       0.764   5.502   3.770  0.00  0.00     0.003 A 
ATOM      3  C3  I4B d   1       0.527   5.998   5.075  0.00  0.00     0.002 A 
ATOM      4  C4  I4B d   1       1.551   5.996   6.000  0.00  0.00    -0.004 A 
ATOM      5  C5  I4B d   1       2.826   5.577   5.629  0.00  0.00     0.002 A 
ATOM      6  C6  I4B d   1       3.064   5.122   4.324  0.00  0.00     0.003 A 
ENDROOT
BRANCH   1   7
ATOM      7  C1' I4B d   1       2.224   4.520   2.037  0.00  0.00     0.060 C 
BRANCH   7   8
ATOM      8  C2' I4B d   1       3.122   3.305   2.149  0.00  0.00    -0.013 C 
ATOM      9  C4' I4B d   1       2.328   2.070   2.487  0.00  0.00     0.013 C 
ATOM     10  C3' I4B d   1       3.846   3.142   0.846  0.00  0.00     0.013 C 
ENDBRANCH   7   8
ENDBRANCH   1   7
TORSDOF 2
ENDMDL
