MODEL 1
REMARK minimizedAffinity 6.26353645
REMARK minimizedRMSD -1
REMARK  2 active torsions:
REMARK  status: ('A' for Active; 'I' for Inactive)
REMARK    1  A    between atoms: C2'_3  and  C1'_4 
REMARK    2  A    between atoms: C1'_4  and  C1_5 
ROOT
ATOM      1  C1  I4B d   1       4.542  -3.813   3.418  0.00  0.00    -0.075 A 
ATOM      2  C2  I4B d   1       4.614  -4.731   4.436  0.00  0.00     0.003 A 
ATOM      3  C3  I4B d   1       4.917  -4.311   5.754  0.00  0.00     0.002 A 
ATOM      4  C4  I4B d   1       5.190  -2.981   5.998  0.00  0.00    -0.004 A 
ATOM      5  C5  I4B d   1       5.095  -2.048   4.969  0.00  0.00     0.002 A 
ATOM      6  C6  I4B d   1       4.757  -2.465   3.673  0.00  0.00     0.003 A 
ENDROOT
BRANCH   1   7
ATOM      7  C1' I4B d   1       4.252  -4.295   2.032  0.00  0.00     0.060 C 
BRANCH   7   8
ATOM      8  C2' I4B d   1       3.913  -3.089   1.180  0.00  0.00    -0.013 C 
ATOM      9  C4' I4B d   1       4.622  -3.142  -0.147  0.00  0.00     0.013 C 
ATOM     10  C3' I4B d   1       2.425  -3.055   0.998  0.00  0.00     0.013 C 
ENDBRANCH   7   8
ENDBRANCH   1   7
TORSDOF 2
ENDMDL
