MODEL 1
REMARK minimizedAffinity -0.848716378
REMARK minimizedRMSD -1
REMARK  0 active torsions:
REMARK  status: ('A' for Active; 'I' for Inactive)
ROOT
ATOM      1  C   UNL d   1       4.120   5.952   5.623  0.00  0.00     0.077 C 
ATOM      2  C1  UNL d   1       4.166   4.456   5.718  0.00  0.00    -0.074 A 
ATOM      3  C2  UNL d   1       5.379   3.785   5.904  0.00  0.00    -0.005 A 
ATOM      4  C3  UNL d   1       5.406   2.394   6.000  0.00  0.00     0.006 A 
ATOM      5  C4  UNL d   1       4.221   1.661   5.911  0.00  0.00    -0.005 A 
ATOM      6  C5  UNL d   1       2.999   2.315   5.726  0.00  0.00    -0.074 A 
ATOM      7  C6  UNL d   1       1.716   1.543   5.638  0.00  0.00     0.077 C 
ATOM      8  C7  UNL d   1       2.980   3.714   5.638  0.00  0.00    -0.001 A 
ENDROOT
TORSDOF 0
ENDMDL
