MODEL 1
REMARK minimizedAffinity -3.32344651
REMARK minimizedRMSD -1
REMARK  0 active torsions:
REMARK  status: ('A' for Active; 'I' for Inactive)
ROOT
ATOM      1  C   UNL d   1       5.372   5.905   6.000  0.00  0.00     0.077 C 
ATOM      2  C1  UNL d   1       4.539   4.830   5.368  0.00  0.00    -0.074 A 
ATOM      3  C2  UNL d   1       3.814   5.077   4.198  0.00  0.00    -0.005 A 
ATOM      4  C3  UNL d   1       3.051   4.065   3.616  0.00  0.00     0.006 A 
ATOM      5  C4  UNL d   1       3.005   2.797   4.198  0.00  0.00    -0.005 A 
ATOM      6  C5  UNL d   1       3.724   2.531   5.367  0.00  0.00    -0.074 A 
ATOM      7  C6  UNL d   1       3.694   1.172   6.000  0.00  0.00     0.077 C 
ATOM      8  C7  UNL d   1       4.494   3.552   5.942  0.00  0.00    -0.001 A 
ENDROOT
TORSDOF 0
ENDMDL
