MODEL 1
REMARK minimizedAffinity -1.4897505
REMARK minimizedRMSD -1
REMARK  0 active torsions:
REMARK  status: ('A' for Active; 'I' for Inactive)
ROOT
ATOM      1  C   UNL d   1       1.709   1.461   5.029  0.00  0.00     0.077 C 
ATOM      2  C1  UNL d   1       2.911   2.346   5.171  0.00  0.00    -0.074 A 
ATOM      3  C2  UNL d   1       4.200   1.847   4.959  0.00  0.00    -0.005 A 
ATOM      4  C3  UNL d   1       5.308   2.684   5.086  0.00  0.00     0.006 A 
ATOM      5  C4  UNL d   1       5.139   4.027   5.426  0.00  0.00    -0.005 A 
ATOM      6  C5  UNL d   1       3.858   4.544   5.642  0.00  0.00    -0.074 A 
ATOM      7  C6  UNL d   1       3.657   5.987   5.998  0.00  0.00     0.077 C 
ATOM      8  C7  UNL d   1       2.749   3.698   5.505  0.00  0.00    -0.001 A 
ENDROOT
TORSDOF 0
ENDMDL
