MODEL 1
REMARK minimizedAffinity -3.85231471
REMARK minimizedRMSD -1
REMARK  0 active torsions:
REMARK  status: ('A' for Active; 'I' for Inactive)
ROOT
ATOM      1  C   UNL d   1       4.390   5.999   3.995  0.00  0.00     0.077 C 
ATOM      2  C1  UNL d   1       4.449   4.646   4.638  0.00  0.00    -0.074 A 
ATOM      3  C2  UNL d   1       5.556   4.259   5.400  0.00  0.00    -0.005 A 
ATOM      4  C3  UNL d   1       5.592   3.000   6.000  0.00  0.00     0.006 A 
ATOM      5  C4  UNL d   1       4.523   2.117   5.844  0.00  0.00    -0.005 A 
ATOM      6  C5  UNL d   1       3.407   2.486   5.087  0.00  0.00    -0.074 A 
ATOM      7  C6  UNL d   1       2.246   1.553   4.918  0.00  0.00     0.077 C 
ATOM      8  C7  UNL d   1       3.375   3.756   4.493  0.00  0.00    -0.001 A 
ENDROOT
TORSDOF 0
ENDMDL
