MODEL 1
REMARK minimizedAffinity -4.02950764
REMARK minimizedRMSD -1
REMARK  0 active torsions:
REMARK  status: ('A' for Active; 'I' for Inactive)
ROOT
ATOM      1  C   UNL d   1       4.128   6.000   4.122  0.00  0.00     0.077 C 
ATOM      2  C1  UNL d   1       4.139   4.615   4.697  0.00  0.00    -0.074 A 
ATOM      3  C2  UNL d   1       5.219   4.163   5.462  0.00  0.00    -0.005 A 
ATOM      4  C3  UNL d   1       5.212   2.876   5.998  0.00  0.00     0.006 A 
ATOM      5  C4  UNL d   1       4.126   2.028   5.775  0.00  0.00    -0.005 A 
ATOM      6  C5  UNL d   1       3.037   2.462   5.013  0.00  0.00    -0.074 A 
ATOM      7  C6  UNL d   1       1.858   1.567   4.772  0.00  0.00     0.077 C 
ATOM      8  C7  UNL d   1       3.049   3.760   4.484  0.00  0.00    -0.001 A 
ENDROOT
TORSDOF 0
ENDMDL
