MODEL 1
REMARK minimizedAffinity -1.46664739
REMARK minimizedRMSD -1
REMARK  0 active torsions:
REMARK  status: ('A' for Active; 'I' for Inactive)
ROOT
ATOM      1  C   UNL d   1       2.124   1.560   5.999  0.00  0.00     0.077 C 
ATOM      2  C1  UNL d   1       3.247   2.428   5.513  0.00  0.00    -0.074 A 
ATOM      3  C2  UNL d   1       4.193   1.938   4.606  0.00  0.00    -0.005 A 
ATOM      4  C3  UNL d   1       5.226   2.760   4.156  0.00  0.00     0.006 A 
ATOM      5  C4  UNL d   1       5.324   4.077   4.607  0.00  0.00    -0.005 A 
ATOM      6  C5  UNL d   1       4.387   4.584   5.513  0.00  0.00    -0.074 A 
ATOM      7  C6  UNL d   1       4.472   6.000   6.000  0.00  0.00     0.077 C 
ATOM      8  C7  UNL d   1       3.348   3.754   5.955  0.00  0.00    -0.001 A 
ENDROOT
TORSDOF 0
ENDMDL
