MODEL 1
REMARK minimizedAffinity -2.44031644
REMARK minimizedRMSD -1
REMARK  0 active torsions:
REMARK  status: ('A' for Active; 'I' for Inactive)
ROOT
ATOM      1  C   UNL d   1       4.985   1.536  -1.971  0.00  0.00     0.077 C 
ATOM      2  C1  UNL d   1       4.142   0.921  -0.893  0.00  0.00    -0.074 A 
ATOM      3  C2  UNL d   1       3.798   1.647   0.252  0.00  0.00    -0.005 A 
ATOM      4  C3  UNL d   1       3.006   1.065   1.241  0.00  0.00     0.006 A 
ATOM      5  C4  UNL d   1       2.550  -0.246   1.096  0.00  0.00    -0.005 A 
ATOM      6  C5  UNL d   1       2.884  -0.987  -0.042  0.00  0.00    -0.074 A 
ATOM      7  C6  UNL d   1       2.394  -2.394  -0.218  0.00  0.00     0.077 C 
ATOM      8  C7  UNL d   1       3.674  -0.393  -1.035  0.00  0.00    -0.001 A 
ENDROOT
TORSDOF 0
ENDMDL
