MODEL 1
REMARK minimizedAffinity -4.99072456
REMARK minimizedRMSD -1
REMARK  0 active torsions:
REMARK  status: ('A' for Active; 'I' for Inactive)
ROOT
ATOM      1  C   UNL d   1       5.383   5.594   5.262  0.00  0.00     0.077 C 
ATOM      2  C1  UNL d   1       4.181   4.737   4.999  0.00  0.00    -0.074 A 
ATOM      3  C2  UNL d   1       4.234   3.351   5.179  0.00  0.00    -0.005 A 
ATOM      4  C3  UNL d   1       3.105   2.567   4.939  0.00  0.00     0.006 A 
ATOM      5  C4  UNL d   1       1.914   3.160   4.519  0.00  0.00    -0.005 A 
ATOM      6  C5  UNL d   1       1.842   4.545   4.335  0.00  0.00    -0.074 A 
ATOM      7  C6  UNL d   1       0.567   5.200   3.893  0.00  0.00     0.077 C 
ATOM      8  C7  UNL d   1       2.979   5.326   4.584  0.00  0.00    -0.001 A 
ENDROOT
TORSDOF 0
ENDMDL
