MODEL 1
REMARK minimizedAffinity 2.2814157
REMARK minimizedRMSD -1
REMARK  0 active torsions:
REMARK  status: ('A' for Active; 'I' for Inactive)
ROOT
ATOM      1  C   UNL d   1       5.261   5.616   5.999  0.00  0.00     0.077 C 
ATOM      2  C1  UNL d   1       4.638   4.490   5.228  0.00  0.00    -0.074 A 
ATOM      3  C2  UNL d   1       4.597   4.513   3.831  0.00  0.00    -0.005 A 
ATOM      4  C3  UNL d   1       4.023   3.454   3.127  0.00  0.00     0.006 A 
ATOM      5  C4  UNL d   1       3.486   2.364   3.813  0.00  0.00    -0.005 A 
ATOM      6  C5  UNL d   1       3.519   2.323   5.210  0.00  0.00    -0.074 A 
ATOM      7  C6  UNL d   1       2.955   1.155   5.962  0.00  0.00     0.077 C 
ATOM      8  C7  UNL d   1       4.103   3.388   5.910  0.00  0.00    -0.001 A 
ENDROOT
TORSDOF 0
ENDMDL
