MODEL 1
REMARK minimizedAffinity -4.40823126
REMARK minimizedRMSD -1
REMARK  0 active torsions:
REMARK  status: ('A' for Active; 'I' for Inactive)
ROOT
ATOM      1  C   UNL d   1       5.996   5.995   6.000  0.00  0.00     0.077 C 
ATOM      2  C1  UNL d   1       4.930   5.203   5.303  0.00  0.00    -0.074 A 
ATOM      3  C2  UNL d   1       4.499   5.553   4.019  0.00  0.00    -0.005 A 
ATOM      4  C3  UNL d   1       3.513   4.801   3.379  0.00  0.00     0.006 A 
ATOM      5  C4  UNL d   1       2.950   3.695   4.016  0.00  0.00    -0.005 A 
ATOM      6  C5  UNL d   1       3.369   3.330   5.299  0.00  0.00    -0.074 A 
ATOM      7  C6  UNL d   1       2.781   2.137   5.993  0.00  0.00     0.077 C 
ATOM      8  C7  UNL d   1       4.365   4.086   5.932  0.00  0.00    -0.001 A 
ENDROOT
TORSDOF 0
ENDMDL
