MODEL 1
REMARK minimizedAffinity -5.51012325
REMARK minimizedRMSD -1
REMARK  0 active torsions:
REMARK  status: ('A' for Active; 'I' for Inactive)
ROOT
ATOM      1  C   UNL d   1       3.146   1.873   5.724  0.00  0.00     0.077 C 
ATOM      2  C1  UNL d   1       3.190   3.162   4.959  0.00  0.00    -0.074 A 
ATOM      3  C2  UNL d   1       4.330   3.972   4.980  0.00  0.00    -0.005 A 
ATOM      4  C3  UNL d   1       4.359   5.163   4.256  0.00  0.00     0.006 A 
ATOM      5  C4  UNL d   1       3.251   5.556   3.504  0.00  0.00    -0.005 A 
ATOM      6  C5  UNL d   1       2.103   4.759   3.471  0.00  0.00    -0.074 A 
ATOM      7  C6  UNL d   1       0.906   5.162   2.661  0.00  0.00     0.077 C 
ATOM      8  C7  UNL d   1       2.083   3.560   4.196  0.00  0.00    -0.001 A 
ENDROOT
TORSDOF 0
ENDMDL
