MODEL 1
REMARK minimizedAffinity 1.10255885
REMARK minimizedRMSD -1
REMARK  2 active torsions:
REMARK  status: ('A' for Active; 'I' for Inactive)
REMARK    1  A    between atoms: C2'_3  and  C1'_4 
REMARK    2  A    between atoms: C1'_4  and  C1_5 
ROOT
ATOM      1  C1  I4B d   1      -0.818   0.106   0.364  0.00  0.00    -0.075 A 
ATOM      2  C2  I4B d   1      -0.556   0.021   1.709  0.00  0.00     0.003 A 
ATOM      3  C3  I4B d   1       0.511  -0.784   2.177  0.00  0.00     0.002 A 
ATOM      4  C4  I4B d   1       1.253  -1.521   1.276  0.00  0.00    -0.004 A 
ATOM      5  C5  I4B d   1       1.000  -1.415  -0.089  0.00  0.00     0.002 A 
ATOM      6  C6  I4B d   1      -0.034  -0.587  -0.549  0.00  0.00     0.003 A 
ENDROOT
BRANCH   1   7
ATOM      7  C1' I4B d   1      -1.973   0.939  -0.093  0.00  0.00     0.060 C 
BRANCH   7   8
ATOM      8  C2' I4B d   1      -1.611   2.395   0.119  0.00  0.00    -0.013 C 
ATOM      9  C4' I4B d   1      -1.459   2.712   1.584  0.00  0.00     0.013 C 
ATOM     10  C3' I4B d   1      -0.341   2.671  -0.629  0.00  0.00     0.013 C 
ENDBRANCH   7   8
ENDBRANCH   1   7
TORSDOF 2
ENDMDL
