MODEL 1
REMARK minimizedAffinity -4.11196232
REMARK minimizedRMSD -1
REMARK  2 active torsions:
REMARK  status: ('A' for Active; 'I' for Inactive)
REMARK    1  A    between atoms: C2'_3  and  C1'_4 
REMARK    2  A    between atoms: C1'_4  and  C1_5 
ROOT
ATOM      1  C1  I4B d   1       0.300  -0.497  -0.144  0.00  0.00    -0.075 A 
ATOM      2  C2  I4B d   1      -0.088  -1.077   1.038  0.00  0.00     0.003 A 
ATOM      3  C3  I4B d   1      -0.925  -0.373   1.937  0.00  0.00     0.002 A 
ATOM      4  C4  I4B d   1      -1.306   0.919   1.639  0.00  0.00    -0.004 A 
ATOM      5  C5  I4B d   1      -0.931   1.497   0.430  0.00  0.00     0.002 A 
ATOM      6  C6  I4B d   1      -0.133   0.780  -0.473  0.00  0.00     0.003 A 
ENDROOT
BRANCH   1   7
ATOM      7  C1' I4B d   1       1.211  -1.257  -1.055  0.00  0.00     0.060 C 
BRANCH   7   8
ATOM      8  C2' I4B d   1       0.479  -2.501  -1.516  0.00  0.00    -0.013 C 
ATOM      9  C4' I4B d   1       0.216  -2.461  -2.998  0.00  0.00     0.013 C 
ATOM     10  C3' I4B d   1       1.312  -3.692  -1.146  0.00  0.00     0.013 C 
ENDBRANCH   7   8
ENDBRANCH   1   7
TORSDOF 2
ENDMDL
