MODEL 1
REMARK minimizedAffinity -1.74174201
REMARK minimizedRMSD -1
REMARK  2 active torsions:
REMARK  status: ('A' for Active; 'I' for Inactive)
REMARK    1  A    between atoms: C2'_3  and  C1'_4 
REMARK    2  A    between atoms: C1'_4  and  C1_5 
ROOT
ATOM      1  C1  I4B d   1      -0.237  -0.063   0.266  0.00  0.00    -0.075 A 
ATOM      2  C2  I4B d   1       0.006   1.047  -0.503  0.00  0.00     0.003 A 
ATOM      3  C3  I4B d   1       0.889   0.970  -1.608  0.00  0.00     0.002 A 
ATOM      4  C4  I4B d   1       1.541  -0.216  -1.876  0.00  0.00    -0.004 A 
ATOM      5  C5  I4B d   1       1.275  -1.347  -1.109  0.00  0.00     0.002 A 
ATOM      6  C6  I4B d   1       0.372  -1.274  -0.039  0.00  0.00     0.003 A 
ENDROOT
BRANCH   1   7
ATOM      7  C1' I4B d   1      -1.149   0.062   1.445  0.00  0.00     0.060 C 
BRANCH   7   8
ATOM      8  C2' I4B d   1      -1.172   1.518   1.864  0.00  0.00    -0.013 C 
ATOM      9  C4' I4B d   1      -2.576   2.062   1.867  0.00  0.00     0.013 C 
ATOM     10  C3' I4B d   1      -0.550   1.617   3.225  0.00  0.00     0.013 C 
ENDBRANCH   7   8
ENDBRANCH   1   7
TORSDOF 2
ENDMDL
