MODEL 1
REMARK minimizedAffinity -3.02394462
REMARK minimizedRMSD -1
REMARK  2 active torsions:
REMARK  status: ('A' for Active; 'I' for Inactive)
REMARK    1  A    between atoms: C2'_3  and  C1'_4 
REMARK    2  A    between atoms: C1'_4  and  C1_5 
ROOT
ATOM      1  C1  I4B d   1       0.313  -0.190  -0.260  0.00  0.00    -0.075 A 
ATOM      2  C2  I4B d   1       0.017  -0.813   0.926  0.00  0.00     0.003 A 
ATOM      3  C3  I4B d   1      -0.778  -0.157   1.897  0.00  0.00     0.002 A 
ATOM      4  C4  I4B d   1      -1.210   1.133   1.663  0.00  0.00    -0.004 A 
ATOM      5  C5  I4B d   1      -0.927   1.755   0.450  0.00  0.00     0.002 A 
ATOM      6  C6  I4B d   1      -0.171   1.085  -0.523  0.00  0.00     0.003 A 
ENDROOT
BRANCH   1   7
ATOM      7  C1' I4B d   1       1.183  -0.899  -1.250  0.00  0.00     0.060 C 
BRANCH   7   8
ATOM      8  C2' I4B d   1       0.460  -2.156  -1.689  0.00  0.00    -0.013 C 
ATOM      9  C4' I4B d   1       0.248  -2.171  -3.180  0.00  0.00     0.013 C 
ATOM     10  C3' I4B d   1       1.273  -3.336  -1.246  0.00  0.00     0.013 C 
ENDBRANCH   7   8
ENDBRANCH   1   7
TORSDOF 2
ENDMDL
