MODEL 1
REMARK minimizedAffinity 0.269830674
REMARK minimizedRMSD -1
REMARK  2 active torsions:
REMARK  status: ('A' for Active; 'I' for Inactive)
REMARK    1  A    between atoms: C2'_3  and  C1'_4 
REMARK    2  A    between atoms: C1'_4  and  C1_5 
ROOT
ATOM      1  C1  I4B d   1       0.373  -0.221  -0.723  0.00  0.00    -0.075 A 
ATOM      2  C2  I4B d   1       1.031   0.841  -1.291  0.00  0.00     0.003 A 
ATOM      3  C3  I4B d   1       0.422   2.119  -1.332  0.00  0.00     0.002 A 
ATOM      4  C4  I4B d   1      -0.858   2.277  -0.841  0.00  0.00    -0.004 A 
ATOM      5  C5  I4B d   1      -1.515   1.205  -0.244  0.00  0.00     0.002 A 
ATOM      6  C6  I4B d   1      -0.891  -0.049  -0.173  0.00  0.00     0.003 A 
ENDROOT
BRANCH   1   7
ATOM      7  C1' I4B d   1       1.032  -1.564  -0.727  0.00  0.00     0.060 C 
BRANCH   7   8
ATOM      8  C2' I4B d   1       0.199  -2.490  -1.589  0.00  0.00    -0.013 C 
ATOM      9  C4' I4B d   1       0.183  -2.032  -3.024  0.00  0.00     0.013 C 
ATOM     10  C3' I4B d   1       0.768  -3.872  -1.468  0.00  0.00     0.013 C 
ENDBRANCH   7   8
ENDBRANCH   1   7
TORSDOF 2
ENDMDL
