MODEL 1
REMARK minimizedAffinity -2.59388065
REMARK minimizedRMSD -1
REMARK  2 active torsions:
REMARK  status: ('A' for Active; 'I' for Inactive)
REMARK    1  A    between atoms: C2'_3  and  C1'_4 
REMARK    2  A    between atoms: C1'_4  and  C1_5 
ROOT
ATOM      1  C1  I4B d   1      -0.180  -0.120  -0.284  0.00  0.00    -0.075 A 
ATOM      2  C2  I4B d   1       0.041  -1.395  -0.742  0.00  0.00     0.003 A 
ATOM      3  C3  I4B d   1       1.172  -1.679  -1.544  0.00  0.00     0.002 A 
ATOM      4  C4  I4B d   1       2.024  -0.655  -1.905  0.00  0.00    -0.004 A 
ATOM      5  C5  I4B d   1       1.812   0.633  -1.421  0.00  0.00     0.002 A 
ATOM      6  C6  I4B d   1       0.710   0.900  -0.596  0.00  0.00     0.003 A 
ENDROOT
BRANCH   1   7
ATOM      7  C1' I4B d   1      -1.402   0.151   0.533  0.00  0.00     0.060 C 
BRANCH   7   8
ATOM      8  C2' I4B d   1      -0.961   0.785   1.837  0.00  0.00    -0.013 C 
ATOM      9  C4' I4B d   1      -1.909   1.875   2.262  0.00  0.00     0.013 C 
ATOM     10  C3' I4B d   1      -0.879  -0.296   2.873  0.00  0.00     0.013 C 
ENDBRANCH   7   8
ENDBRANCH   1   7
TORSDOF 2
ENDMDL
