MODEL 1
REMARK minimizedAffinity -1.8393774
REMARK minimizedRMSD -1
REMARK  2 active torsions:
REMARK  status: ('A' for Active; 'I' for Inactive)
REMARK    1  A    between atoms: C2'_3  and  C1'_4 
REMARK    2  A    between atoms: C1'_4  and  C1_5 
ROOT
ATOM      1  C1  I4B d   1       0.312  -0.092   0.365  0.00  0.00    -0.075 A 
ATOM      2  C2  I4B d   1       0.015  -0.747   1.534  0.00  0.00     0.003 A 
ATOM      3  C3  I4B d   1      -0.804  -0.129   2.509  0.00  0.00     0.002 A 
ATOM      4  C4  I4B d   1      -1.260   1.156   2.298  0.00  0.00    -0.004 A 
ATOM      5  C5  I4B d   1      -0.978   1.810   1.102  0.00  0.00     0.002 A 
ATOM      6  C6  I4B d   1      -0.197   1.178   0.124  0.00  0.00     0.003 A 
ENDROOT
BRANCH   1   7
ATOM      7  C1' I4B d   1       1.207  -0.761  -0.629  0.00  0.00     0.060 C 
BRANCH   7   8
ATOM      8  C2' I4B d   1       0.470  -1.962  -1.186  0.00  0.00    -0.013 C 
ATOM      9  C4' I4B d   1      -0.158  -1.647  -2.518  0.00  0.00     0.013 C 
ATOM     10  C3' I4B d   1       1.449  -3.092  -1.303  0.00  0.00     0.013 C 
ENDBRANCH   7   8
ENDBRANCH   1   7
TORSDOF 2
ENDMDL
