MODEL 1
REMARK minimizedAffinity -4.86873579
REMARK minimizedRMSD -1
REMARK  2 active torsions:
REMARK  status: ('A' for Active; 'I' for Inactive)
REMARK    1  A    between atoms: C2'_3  and  C1'_4 
REMARK    2  A    between atoms: C1'_4  and  C1_5 
ROOT
ATOM      1  C1  I4B d   1      -0.006  -0.017  -0.180  0.00  0.00    -0.075 A 
ATOM      2  C2  I4B d   1      -0.442   1.223  -0.573  0.00  0.00     0.003 A 
ATOM      3  C3  I4B d   1      -1.407   1.917   0.196  0.00  0.00     0.002 A 
ATOM      4  C4  I4B d   1      -1.943   1.315   1.317  0.00  0.00    -0.004 A 
ATOM      5  C5  I4B d   1      -1.483   0.067   1.727  0.00  0.00     0.002 A 
ATOM      6  C6  I4B d   1      -0.499  -0.598   0.981  0.00  0.00     0.003 A 
ENDROOT
BRANCH   1   7
ATOM      7  C1' I4B d   1       0.990  -0.735  -1.034  0.00  0.00     0.060 C 
BRANCH   7   8
ATOM      8  C2' I4B d   1       0.435  -2.111  -1.342  0.00  0.00    -0.013 C 
ATOM      9  C4' I4B d   1       0.170  -2.275  -2.816  0.00  0.00     0.013 C 
ATOM     10  C3' I4B d   1       1.422  -3.129  -0.853  0.00  0.00     0.013 C 
ENDBRANCH   7   8
ENDBRANCH   1   7
TORSDOF 2
ENDMDL
