MODEL 1
REMARK minimizedAffinity -4.18000555
REMARK minimizedRMSD -1
REMARK  2 active torsions:
REMARK  status: ('A' for Active; 'I' for Inactive)
REMARK    1  A    between atoms: C2'_3  and  C1'_4 
REMARK    2  A    between atoms: C1'_4  and  C1_5 
ROOT
ATOM      1  C1  I4B d   1      -0.578   0.523   0.811  0.00  0.00    -0.075 A 
ATOM      2  C2  I4B d   1      -1.542   0.571   1.787  0.00  0.00     0.003 A 
ATOM      3  C3  I4B d   1      -2.313   1.745   1.970  0.00  0.00     0.002 A 
ATOM      4  C4  I4B d   1      -2.054   2.856   1.195  0.00  0.00    -0.004 A 
ATOM      5  C5  I4B d   1      -1.093   2.798   0.190  0.00  0.00     0.002 A 
ATOM      6  C6  I4B d   1      -0.358   1.621  -0.012  0.00  0.00     0.003 A 
ENDROOT
BRANCH   1   7
ATOM      7  C1' I4B d   1       0.240  -0.721   0.666  0.00  0.00     0.060 C 
BRANCH   7   8
ATOM      8  C2' I4B d   1       0.655  -0.840  -0.786  0.00  0.00    -0.013 C 
ATOM      9  C4' I4B d   1       2.024  -0.252  -1.012  0.00  0.00     0.013 C 
ATOM     10  C3' I4B d   1       0.621  -2.291  -1.160  0.00  0.00     0.013 C 
ENDBRANCH   7   8
ENDBRANCH   1   7
TORSDOF 2
ENDMDL
