MODEL 1
REMARK minimizedAffinity -5.5494318
REMARK minimizedRMSD -1
REMARK  2 active torsions:
REMARK  status: ('A' for Active; 'I' for Inactive)
REMARK    1  A    between atoms: C2'_3  and  C1'_4 
REMARK    2  A    between atoms: C1'_4  and  C1_5 
ROOT
ATOM      1  C1  I4B d   1      -0.278   0.974   0.333  0.00  0.00    -0.075 A 
ATOM      2  C2  I4B d   1      -0.069   2.081  -0.451  0.00  0.00     0.003 A 
ATOM      3  C3  I4B d   1      -0.673   3.317  -0.114  0.00  0.00     0.002 A 
ATOM      4  C4  I4B d   1      -1.512   3.388   0.979  0.00  0.00    -0.004 A 
ATOM      5  C5  I4B d   1      -1.704   2.270   1.785  0.00  0.00     0.002 A 
ATOM      6  C6  I4B d   1      -1.073   1.058   1.468  0.00  0.00     0.003 A 
ENDROOT
BRANCH   1   7
ATOM      7  C1' I4B d   1       0.349  -0.323  -0.071  0.00  0.00     0.060 C 
BRANCH   7   8
ATOM      8  C2' I4B d   1      -0.626  -1.051  -0.974  0.00  0.00    -0.013 C 
ATOM      9  C4' I4B d   1       0.057  -2.159  -1.732  0.00  0.00     0.013 C 
ATOM     10  C3' I4B d   1      -1.738  -1.585  -0.120  0.00  0.00     0.013 C 
ENDBRANCH   7   8
ENDBRANCH   1   7
TORSDOF 2
ENDMDL
