MODEL 1
REMARK minimizedAffinity -2.377069
REMARK minimizedRMSD -1
REMARK  2 active torsions:
REMARK  status: ('A' for Active; 'I' for Inactive)
REMARK    1  A    between atoms: C2'_3  and  C1'_4 
REMARK    2  A    between atoms: C1'_4  and  C1_5 
ROOT
ATOM      1  C1  I4B d   1      -0.681   0.101   0.644  0.00  0.00    -0.075 A 
ATOM      2  C2  I4B d   1      -1.703   0.548  -0.156  0.00  0.00     0.003 A 
ATOM      3  C3  I4B d   1      -2.497   1.649   0.250  0.00  0.00     0.002 A 
ATOM      4  C4  I4B d   1      -2.268   2.236   1.478  0.00  0.00    -0.004 A 
ATOM      5  C5  I4B d   1      -1.217   1.796   2.277  0.00  0.00     0.002 A 
ATOM      6  C6  I4B d   1      -0.410   0.730   1.853  0.00  0.00     0.003 A 
ENDROOT
BRANCH   1   7
ATOM      7  C1' I4B d   1       0.116  -1.084   0.200  0.00  0.00     0.060 C 
BRANCH   7   8
ATOM      8  C2' I4B d   1       0.587  -0.825  -1.216  0.00  0.00    -0.013 C 
ATOM      9  C4' I4B d   1       1.600   0.289  -1.259  0.00  0.00     0.013 C 
ATOM     10  C3' I4B d   1       1.164  -2.101  -1.753  0.00  0.00     0.013 C 
ENDBRANCH   7   8
ENDBRANCH   1   7
TORSDOF 2
ENDMDL
