MODEL 1
REMARK minimizedAffinity -4.9577198
REMARK minimizedRMSD -1
REMARK  2 active torsions:
REMARK  status: ('A' for Active; 'I' for Inactive)
REMARK    1  A    between atoms: C2'_3  and  C1'_4 
REMARK    2  A    between atoms: C1'_4  and  C1_5 
ROOT
ATOM      1  C1  I4B d   1       0.169   0.392  -0.040  0.00  0.00    -0.075 A 
ATOM      2  C2  I4B d   1      -0.282   1.633  -0.415  0.00  0.00     0.003 A 
ATOM      3  C3  I4B d   1      -1.230   2.318   0.384  0.00  0.00     0.002 A 
ATOM      4  C4  I4B d   1      -1.734   1.708   1.514  0.00  0.00    -0.004 A 
ATOM      5  C5  I4B d   1      -1.259   0.460   1.905  0.00  0.00     0.002 A 
ATOM      6  C6  I4B d   1      -0.292  -0.198   1.130  0.00  0.00     0.003 A 
ENDROOT
BRANCH   1   7
ATOM      7  C1' I4B d   1       1.145  -0.318  -0.923  0.00  0.00     0.060 C 
BRANCH   7   8
ATOM      8  C2' I4B d   1       0.494  -1.599  -1.403  0.00  0.00    -0.013 C 
ATOM      9  C4' I4B d   1       0.012  -1.467  -2.824  0.00  0.00     0.013 C 
ATOM     10  C3' I4B d   1       1.498  -2.705  -1.273  0.00  0.00     0.013 C 
ENDBRANCH   7   8
ENDBRANCH   1   7
TORSDOF 2
ENDMDL
