MODEL 1
REMARK minimizedAffinity -3.72126794
REMARK minimizedRMSD -1
REMARK  2 active torsions:
REMARK  status: ('A' for Active; 'I' for Inactive)
REMARK    1  A    between atoms: C2'_3  and  C1'_4 
REMARK    2  A    between atoms: C1'_4  and  C1_5 
ROOT
ATOM      1  C1  I4B d   1      -0.520  -0.893  -0.278  0.00  0.00    -0.075 A 
ATOM      2  C2  I4B d   1       0.508  -0.076  -0.676  0.00  0.00     0.003 A 
ATOM      3  C3  I4B d   1       1.576  -0.597  -1.447  0.00  0.00     0.002 A 
ATOM      4  C4  I4B d   1       1.601  -1.942  -1.752  0.00  0.00    -0.004 A 
ATOM      5  C5  I4B d   1       0.546  -2.765  -1.367  0.00  0.00     0.002 A 
ATOM      6  C6  I4B d   1      -0.528  -2.235  -0.637  0.00  0.00     0.003 A 
ENDROOT
BRANCH   1   7
ATOM      7  C1' I4B d   1      -1.615  -0.317   0.562  0.00  0.00     0.060 C 
BRANCH   7   8
ATOM      8  C2' I4B d   1      -1.020   0.789   1.409  0.00  0.00    -0.013 C 
ATOM      9  C4' I4B d   1      -2.086   1.734   1.898  0.00  0.00     0.013 C 
ATOM     10  C3' I4B d   1      -0.292   0.154   2.556  0.00  0.00     0.013 C 
ENDBRANCH   7   8
ENDBRANCH   1   7
TORSDOF 2
ENDMDL
