MODEL 1
REMARK minimizedAffinity 4.2016778
REMARK minimizedRMSD -1
REMARK  0 active torsions:
REMARK  status: ('A' for Active; 'I' for Inactive)
ROOT
ATOM      1  O1  BZF d   1      -3.940  -1.143  -1.248  0.00  0.00    -0.204 OA
ATOM      2  C2  BZF d   1      -4.113  -2.425  -1.733  0.00  0.00     0.174 A 
ATOM      3  C3  BZF d   1      -4.581  -2.399  -2.997  0.00  0.00    -0.012 A 
ATOM      4  C3A BZF d   1      -4.621  -1.014  -3.355  0.00  0.00    -0.107 A 
ATOM      5  C4  BZF d   1      -4.983  -0.348  -4.492  0.00  0.00     0.055 A 
ATOM      6  C5  BZF d   1      -4.977   1.010  -4.491  0.00  0.00    -0.016 A 
ATOM      7  C6  BZF d   1      -4.620   1.734  -3.372  0.00  0.00     0.022 A 
ATOM      8  C7  BZF d   1      -4.248   1.118  -2.224  0.00  0.00     0.029 A 
ATOM      9  C7A BZF d   1      -4.222  -0.255  -2.231  0.00  0.00     0.058 A 
ENDROOT
TORSDOF 0
ENDMDL
