MODEL 1
REMARK minimizedAffinity 12.9000063
REMARK minimizedRMSD -1
REMARK  0 active torsions:
REMARK  status: ('A' for Active; 'I' for Inactive)
ROOT
ATOM      1  O1  BZF d   1       4.943   0.195  -1.635  0.00  0.00    -0.204 OA
ATOM      2  C2  BZF d   1       5.300   0.056  -2.963  0.00  0.00     0.174 A 
ATOM      3  C3  BZF d   1       4.231   0.227  -3.766  0.00  0.00    -0.012 A 
ATOM      4  C3A BZF d   1       3.155   0.579  -2.891  0.00  0.00    -0.107 A 
ATOM      5  C4  BZF d   1       1.840   0.888  -3.097  0.00  0.00     0.055 A 
ATOM      6  C5  BZF d   1       1.039   1.114  -2.022  0.00  0.00    -0.016 A 
ATOM      7  C6  BZF d   1       1.517   1.034  -0.731  0.00  0.00     0.022 A 
ATOM      8  C7  BZF d   1       2.815   0.735  -0.477  0.00  0.00     0.029 A 
ATOM      9  C7A BZF d   1       3.635   0.539  -1.562  0.00  0.00     0.058 A 
ENDROOT
TORSDOF 0
ENDMDL
