MODEL 1
REMARK minimizedAffinity 5.63750982
REMARK minimizedRMSD -1
REMARK  0 active torsions:
REMARK  status: ('A' for Active; 'I' for Inactive)
ROOT
ATOM      1  O1  BZF d   1      -2.182   1.422   3.661  0.00  0.00    -0.204 OA
ATOM      2  C2  BZF d   1      -3.487   1.339   3.216  0.00  0.00     0.174 A 
ATOM      3  C3  BZF d   1      -3.756   0.102   2.751  0.00  0.00    -0.012 A 
ATOM      4  C3A BZF d   1      -2.571  -0.660   3.001  0.00  0.00    -0.107 A 
ATOM      5  C4  BZF d   1      -2.227  -1.963   2.777  0.00  0.00     0.055 A 
ATOM      6  C5  BZF d   1      -0.965  -2.373   3.071  0.00  0.00    -0.016 A 
ATOM      7  C6  BZF d   1      -0.022  -1.508   3.584  0.00  0.00     0.022 A 
ATOM      8  C7  BZF d   1      -0.317  -0.208   3.828  0.00  0.00     0.029 A 
ATOM      9  C7A BZF d   1      -1.601   0.202   3.563  0.00  0.00     0.058 A 
ENDROOT
TORSDOF 0
ENDMDL
