MODEL 1
REMARK minimizedAffinity 6.69930315
REMARK minimizedRMSD -1
REMARK  0 active torsions:
REMARK  status: ('A' for Active; 'I' for Inactive)
ROOT
ATOM      1  O1  BZF d   1       0.083   3.179   3.504  0.00  0.00    -0.204 OA
ATOM      2  C2  BZF d   1       1.067   2.244   3.247  0.00  0.00     0.174 A 
ATOM      3  C3  BZF d   1       2.217   2.576   3.868  0.00  0.00    -0.012 A 
ATOM      4  C3A BZF d   1       1.908   3.747   4.631  0.00  0.00    -0.107 A 
ATOM      5  C4  BZF d   1       2.636   4.539   5.472  0.00  0.00     0.055 A 
ATOM      6  C5  BZF d   1       2.057   5.649   6.000  0.00  0.00    -0.016 A 
ATOM      7  C6  BZF d   1       0.756   6.000   5.705  0.00  0.00     0.022 A 
ATOM      8  C7  BZF d   1      -0.007   5.243   4.880  0.00  0.00     0.029 A 
ATOM      9  C7A BZF d   1       0.564   4.102   4.371  0.00  0.00     0.058 A 
ENDROOT
TORSDOF 0
ENDMDL
