MODEL 1
REMARK minimizedAffinity 6.61258841
REMARK minimizedRMSD -1
REMARK  0 active torsions:
REMARK  status: ('A' for Active; 'I' for Inactive)
ROOT
ATOM      1  O1  BZF d   1       1.577  -3.480   0.765  0.00  0.00    -0.204 OA
ATOM      2  C2  BZF d   1       1.195  -2.597   1.756  0.00  0.00     0.174 A 
ATOM      3  C3  BZF d   1       2.243  -2.283   2.546  0.00  0.00    -0.012 A 
ATOM      4  C3A BZF d   1       3.368  -2.943   1.959  0.00  0.00    -0.107 A 
ATOM      5  C4  BZF d   1       4.694  -3.001   2.278  0.00  0.00     0.055 A 
ATOM      6  C5  BZF d   1       5.517  -3.795   1.543  0.00  0.00    -0.016 A 
ATOM      7  C6  BZF d   1       5.047  -4.548   0.488  0.00  0.00     0.022 A 
ATOM      8  C7  BZF d   1       3.740  -4.520   0.130  0.00  0.00     0.029 A 
ATOM      9  C7A BZF d   1       2.912  -3.693   0.850  0.00  0.00     0.058 A 
ENDROOT
TORSDOF 0
ENDMDL
