MODEL 1
REMARK minimizedAffinity 6.25053978
REMARK minimizedRMSD -1
REMARK  0 active torsions:
REMARK  status: ('A' for Active; 'I' for Inactive)
ROOT
ATOM      1  O1  BZF d   1       1.997  -4.675   0.589  0.00  0.00    -0.204 OA
ATOM      2  C2  BZF d   1       1.608  -3.723   1.510  0.00  0.00     0.174 A 
ATOM      3  C3  BZF d   1       2.666  -2.998   1.925  0.00  0.00    -0.012 A 
ATOM      4  C3A BZF d   1       3.773  -3.469   1.150  0.00  0.00    -0.107 A 
ATOM      5  C4  BZF d   1       5.093  -3.127   1.093  0.00  0.00     0.055 A 
ATOM      6  C5  BZF d   1       5.924  -3.831   0.281  0.00  0.00    -0.016 A 
ATOM      7  C6  BZF d   1       5.470  -4.885  -0.484  0.00  0.00     0.022 A 
ATOM      8  C7  BZF d   1       4.167  -5.259  -0.466  0.00  0.00     0.029 A 
ATOM      9  C7A BZF d   1       3.319  -4.528   0.330  0.00  0.00     0.058 A 
ENDROOT
TORSDOF 0
ENDMDL
