MODEL 1
REMARK minimizedAffinity 16.3900471
REMARK minimizedRMSD -1
REMARK  0 active torsions:
REMARK  status: ('A' for Active; 'I' for Inactive)
ROOT
ATOM      1  O1  BZF d   1       1.652   2.374   2.340  0.00  0.00    -0.204 OA
ATOM      2  C2  BZF d   1       1.608   2.172   3.707  0.00  0.00     0.174 A 
ATOM      3  C3  BZF d   1       1.299   0.891   3.991  0.00  0.00    -0.012 A 
ATOM      4  C3A BZF d   1       1.230   0.230   2.724  0.00  0.00    -0.107 A 
ATOM      5  C4  BZF d   1       0.977  -1.059   2.350  0.00  0.00     0.055 A 
ATOM      6  C5  BZF d   1       0.911  -1.362   1.027  0.00  0.00    -0.016 A 
ATOM      7  C6  BZF d   1       1.089  -0.402   0.053  0.00  0.00     0.022 A 
ATOM      8  C7  BZF d   1       1.347   0.889   0.375  0.00  0.00     0.029 A 
ATOM      9  C7A BZF d   1       1.447   1.192   1.711  0.00  0.00     0.058 A 
ENDROOT
TORSDOF 0
ENDMDL
