MODEL 1
REMARK minimizedAffinity -1.6903069
REMARK minimizedRMSD -1
REMARK  2 active torsions:
REMARK  status: ('A' for Active; 'I' for Inactive)
REMARK    1  A    between atoms: C1_2  and  C2_3 
REMARK    2  A    between atoms: C2_3  and  C3_4 
ROOT
ATOM      1  C3  UNL d   1       3.202  -3.697   1.493  0.00  0.00    -0.075 A 
ATOM      2  C4  UNL d   1       4.028  -4.829   1.454  0.00  0.00     0.002 A 
ATOM      3  C5  UNL d   1       5.417  -4.693   1.444  0.00  0.00     0.002 A 
ATOM      4  C6  UNL d   1       5.995  -3.426   1.462  0.00  0.00    -0.004 A 
ATOM      5  C7  UNL d   1       5.184  -2.294   1.484  0.00  0.00     0.002 A 
ATOM      6  C8  UNL d   1       3.795  -2.427   1.499  0.00  0.00     0.002 A 
ENDROOT
BRANCH   1   7
ATOM      7  C2  UNL d   1       1.699  -3.838   1.534  0.00  0.00     0.056 C 
BRANCH   7   8
ATOM      8  C1  UNL d   1       0.942  -2.551   1.190  0.00  0.00     0.007 C 
ATOM      9  C   UNL d   1      -0.334  -2.370   2.001  0.00  0.00     0.009 C 
ENDBRANCH   7   8
ENDBRANCH   1   7
TORSDOF 2
ENDMDL
