MODEL 1
REMARK minimizedAffinity 1.54521954
REMARK minimizedRMSD -1
REMARK  2 active torsions:
REMARK  status: ('A' for Active; 'I' for Inactive)
REMARK    1  A    between atoms: C1_2  and  C2_3 
REMARK    2  A    between atoms: C2_3  and  C3_4 
ROOT
ATOM      1  C3  UNL d   1       1.161  -3.555   1.925  0.00  0.00    -0.075 A 
ATOM      2  C4  UNL d   1       0.670  -2.347   1.409  0.00  0.00     0.002 A 
ATOM      3  C5  UNL d   1       1.524  -1.458   0.755  0.00  0.00     0.002 A 
ATOM      4  C6  UNL d   1       2.877  -1.759   0.618  0.00  0.00    -0.004 A 
ATOM      5  C7  UNL d   1       3.378  -2.949   1.141  0.00  0.00     0.002 A 
ATOM      6  C8  UNL d   1       2.526  -3.843   1.792  0.00  0.00     0.002 A 
ENDROOT
BRANCH   1   7
ATOM      7  C2  UNL d   1       0.237  -4.535   2.608  0.00  0.00     0.056 C 
BRANCH   7   8
ATOM      8  C1  UNL d   1       0.826  -5.941   2.767  0.00  0.00     0.007 C 
ATOM      9  C   UNL d   1       1.982  -5.999   3.757  0.00  0.00     0.009 C 
ENDBRANCH   7   8
ENDBRANCH   1   7
TORSDOF 2
ENDMDL
