MODEL 1
REMARK minimizedAffinity -3.44773483
REMARK minimizedRMSD -1
REMARK  2 active torsions:
REMARK  status: ('A' for Active; 'I' for Inactive)
REMARK    1  A    between atoms: C1_2  and  C2_3 
REMARK    2  A    between atoms: C2_3  and  C3_4 
ROOT
ATOM      1  C3  UNL d   1       3.310   4.423   5.146  0.00  0.00    -0.075 A 
ATOM      2  C4  UNL d   1       3.680   5.654   5.707  0.00  0.00     0.002 A 
ATOM      3  C5  UNL d   1       5.018   5.930   5.990  0.00  0.00     0.002 A 
ATOM      4  C6  UNL d   1       6.000   4.978   5.726  0.00  0.00    -0.004 A 
ATOM      5  C7  UNL d   1       5.642   3.745   5.184  0.00  0.00     0.002 A 
ATOM      6  C8  UNL d   1       4.305   3.468   4.895  0.00  0.00     0.002 A 
ENDROOT
BRANCH   1   7
ATOM      7  C2  UNL d   1       1.868   4.129   4.810  0.00  0.00     0.056 C 
BRANCH   7   8
ATOM      8  C1  UNL d   1       1.124   5.306   4.170  0.00  0.00     0.007 C 
ATOM      9  C   UNL d   1       0.013   5.864   5.049  0.00  0.00     0.009 C 
ENDBRANCH   7   8
ENDBRANCH   1   7
TORSDOF 2
ENDMDL
