MODEL 1
REMARK minimizedAffinity -3.28281713
REMARK minimizedRMSD -1
REMARK  2 active torsions:
REMARK  status: ('A' for Active; 'I' for Inactive)
REMARK    1  A    between atoms: C1_2  and  C2_3 
REMARK    2  A    between atoms: C2_3  and  C3_4 
ROOT
ATOM      1  C3  UNL d   1      -1.499   4.313   5.910  0.00  0.00    -0.075 A 
ATOM      2  C4  UNL d   1      -2.159   3.077   5.865  0.00  0.00     0.002 A 
ATOM      3  C5  UNL d   1      -3.552   3.019   5.800  0.00  0.00     0.002 A 
ATOM      4  C6  UNL d   1      -4.301   4.194   5.788  0.00  0.00    -0.004 A 
ATOM      5  C7  UNL d   1      -3.656   5.427   5.849  0.00  0.00     0.002 A 
ATOM      6  C8  UNL d   1      -2.263   5.488   5.910  0.00  0.00     0.002 A 
ENDROOT
BRANCH   1   7
ATOM      7  C2  UNL d   1       0.009   4.383   5.951  0.00  0.00     0.056 C 
BRANCH   7   8
ATOM      8  C1  UNL d   1       0.631   5.127   4.765  0.00  0.00     0.007 C 
ATOM      9  C   UNL d   1       1.816   6.000   5.159  0.00  0.00     0.009 C 
ENDBRANCH   7   8
ENDBRANCH   1   7
TORSDOF 2
ENDMDL
