MODEL 1
REMARK minimizedAffinity -2.50609493
REMARK minimizedRMSD -1
REMARK  2 active torsions:
REMARK  status: ('A' for Active; 'I' for Inactive)
REMARK    1  A    between atoms: C1_2  and  C2_3 
REMARK    2  A    between atoms: C2_3  and  C3_4 
ROOT
ATOM      1  C3  UNL d   1      -0.703   5.221   4.931  0.00  0.00    -0.075 A 
ATOM      2  C4  UNL d   1      -1.870   5.992   4.835  0.00  0.00     0.002 A 
ATOM      3  C5  UNL d   1      -3.082   5.507   5.329  0.00  0.00     0.002 A 
ATOM      4  C6  UNL d   1      -3.144   4.245   5.914  0.00  0.00    -0.004 A 
ATOM      5  C7  UNL d   1      -1.994   3.463   6.000  0.00  0.00     0.002 A 
ATOM      6  C8  UNL d   1      -0.779   3.947   5.511  0.00  0.00     0.002 A 
ENDROOT
BRANCH   1   7
ATOM      7  C2  UNL d   1       0.617   5.752   4.426  0.00  0.00     0.056 C 
BRANCH   7   8
ATOM      8  C1  UNL d   1       1.653   6.000   5.528  0.00  0.00     0.007 C 
ATOM      9  C   UNL d   1       3.090   5.906   5.033  0.00  0.00     0.009 C 
ENDBRANCH   7   8
ENDBRANCH   1   7
TORSDOF 2
ENDMDL
