MODEL 1
REMARK minimizedAffinity -5.01124382
REMARK minimizedRMSD -1
REMARK  0 active torsions:
REMARK  status: ('A' for Active; 'I' for Inactive)
ROOT
ATOM      1  N1  IND d   1      -0.140   1.998   2.626  0.00  0.00    -0.196 N 
ATOM      2  C2  IND d   1      -1.113   2.912   2.333  0.00  0.00     0.054 A 
ATOM      3  C3  IND d   1      -1.625   2.676   1.104  0.00  0.00    -0.031 A 
ATOM      4  C4  IND d   1      -1.087   0.784  -0.557  0.00  0.00     0.051 A 
ATOM      5  C5  IND d   1      -0.241  -0.272  -0.749  0.00  0.00    -0.031 A 
ATOM      6  C6  IND d   1       0.699  -0.634   0.194  0.00  0.00     0.015 A 
ATOM      7  C7  IND d   1       0.821   0.042   1.375  0.00  0.00    -0.016 A 
ATOM      8  C8  IND d   1      -0.032   1.119   1.570  0.00  0.00    -0.047 A 
ATOM      9  C9  IND d   1      -0.959   1.518   0.599  0.00  0.00    -0.096 A 
ATOM     10  HN1 IND d   1       0.326   1.975   3.348  0.00  0.00     0.298 HD
ENDROOT
TORSDOF 0
ENDMDL
