MODEL 1
REMARK minimizedAffinity -2.45076776
REMARK minimizedRMSD -1
REMARK  0 active torsions:
REMARK  status: ('A' for Active; 'I' for Inactive)
ROOT
ATOM      1  N1  IND d   1       0.573  -0.738   4.412  0.00  0.00    -0.196 N 
ATOM      2  C2  IND d   1       1.505  -1.644   3.988  0.00  0.00     0.054 A 
ATOM      3  C3  IND d   1       1.844  -1.403   2.702  0.00  0.00    -0.031 A 
ATOM      4  C4  IND d   1       1.072   0.487   1.133  0.00  0.00     0.051 A 
ATOM      5  C5  IND d   1       0.200   1.536   1.059  0.00  0.00    -0.031 A 
ATOM      6  C6  IND d   1      -0.607   1.890   2.121  0.00  0.00     0.015 A 
ATOM      7  C7  IND d   1      -0.563   1.211   3.306  0.00  0.00    -0.016 A 
ATOM      8  C8  IND d   1       0.316   0.141   3.382  0.00  0.00    -0.047 A 
ATOM      9  C9  IND d   1       1.107  -0.250   2.294  0.00  0.00    -0.096 A 
ATOM     10  HN1 IND d   1       0.208  -0.721   5.190  0.00  0.00     0.298 HD
ENDROOT
TORSDOF 0
ENDMDL
