MODEL 1
REMARK minimizedAffinity -4.12477493
REMARK minimizedRMSD -1
REMARK  0 active torsions:
REMARK  status: ('A' for Active; 'I' for Inactive)
ROOT
ATOM      1  N1  IND d   1      -0.637  -0.098  -1.405  0.00  0.00    -0.196 N 
ATOM      2  C2  IND d   1       0.216  -1.151  -1.584  0.00  0.00     0.054 A 
ATOM      3  C3  IND d   1       0.945  -1.362  -0.466  0.00  0.00    -0.031 A 
ATOM      4  C4  IND d   1       0.834  -0.163   1.809  0.00  0.00     0.051 A 
ATOM      5  C5  IND d   1       0.236   0.889   2.444  0.00  0.00    -0.031 A 
ATOM      6  C6  IND d   1      -0.705   1.680   1.817  0.00  0.00     0.015 A 
ATOM      7  C7  IND d   1      -1.092   1.441   0.529  0.00  0.00    -0.016 A 
ATOM      8  C8  IND d   1      -0.482   0.378  -0.121  0.00  0.00    -0.047 A 
ATOM      9  C9  IND d   1       0.504  -0.402   0.496  0.00  0.00    -0.096 A 
ATOM     10  HN1 IND d   1      -1.178   0.216  -1.995  0.00  0.00     0.298 HD
ENDROOT
TORSDOF 0
ENDMDL
