MODEL 1
REMARK minimizedAffinity -2.85970855
REMARK minimizedRMSD -1
REMARK  0 active torsions:
REMARK  status: ('A' for Active; 'I' for Inactive)
ROOT
ATOM      1  N1  IND d   1       0.849  -1.108   0.087  0.00  0.00    -0.196 N 
ATOM      2  C2  IND d   1       0.172  -1.274  -1.089  0.00  0.00     0.054 A 
ATOM      3  C3  IND d   1      -0.745  -0.293  -1.246  0.00  0.00    -0.031 A 
ATOM      4  C4  IND d   1      -1.235   1.743   0.251  0.00  0.00     0.051 A 
ATOM      5  C5  IND d   1      -0.898   2.303   1.452  0.00  0.00    -0.031 A 
ATOM      6  C6  IND d   1       0.060   1.745   2.274  0.00  0.00     0.015 A 
ATOM      7  C7  IND d   1       0.727   0.607   1.919  0.00  0.00    -0.016 A 
ATOM      8  C8  IND d   1       0.383   0.032   0.704  0.00  0.00    -0.047 A 
ATOM      9  C9  IND d   1      -0.618   0.570  -0.115  0.00  0.00    -0.096 A 
ATOM     10  HN1 IND d   1       1.463  -1.628   0.390  0.00  0.00     0.298 HD
ENDROOT
TORSDOF 0
ENDMDL
