MODEL 1
REMARK minimizedAffinity -4.89925337
REMARK minimizedRMSD -1
REMARK  0 active torsions:
REMARK  status: ('A' for Active; 'I' for Inactive)
ROOT
ATOM      1  N1  IND d   1       1.252  -0.330   0.696  0.00  0.00    -0.196 N 
ATOM      2  C2  IND d   1       1.003  -1.080  -0.420  0.00  0.00     0.054 A 
ATOM      3  C3  IND d   1      -0.223  -0.796  -0.914  0.00  0.00    -0.031 A 
ATOM      4  C4  IND d   1      -1.948   0.937  -0.111  0.00  0.00     0.051 A 
ATOM      5  C5  IND d   1      -2.187   1.835   0.892  0.00  0.00    -0.031 A 
ATOM      6  C6  IND d   1      -1.272   2.063   1.899  0.00  0.00     0.015 A 
ATOM      7  C7  IND d   1      -0.074   1.407   1.935  0.00  0.00    -0.016 A 
ATOM      8  C8  IND d   1       0.169   0.490   0.923  0.00  0.00    -0.047 A 
ATOM      9  C9  IND d   1      -0.774   0.223  -0.079  0.00  0.00    -0.096 A 
ATOM     10  HN1 IND d   1       1.964  -0.366   1.175  0.00  0.00     0.298 HD
ENDROOT
TORSDOF 0
ENDMDL
