MODEL 1
REMARK minimizedAffinity -4.06841564
REMARK minimizedRMSD -1
REMARK  0 active torsions:
REMARK  status: ('A' for Active; 'I' for Inactive)
ROOT
ATOM      1  N1  IND d   1      -1.667   2.162   0.153  0.00  0.00    -0.196 N 
ATOM      2  C2  IND d   1      -1.601   2.379   1.501  0.00  0.00     0.054 A 
ATOM      3  C3  IND d   1      -0.673   1.572   2.063  0.00  0.00    -0.031 A 
ATOM      4  C4  IND d   1       0.924  -0.109   0.946  0.00  0.00     0.051 A 
ATOM      5  C5  IND d   1       1.213  -0.682  -0.261  0.00  0.00    -0.031 A 
ATOM      6  C6  IND d   1       0.545  -0.327  -1.415  0.00  0.00     0.015 A 
ATOM      7  C7  IND d   1      -0.434   0.626  -1.407  0.00  0.00    -0.016 A 
ATOM      8  C8  IND d   1      -0.734   1.205  -0.183  0.00  0.00    -0.047 A 
ATOM      9  C9  IND d   1      -0.089   0.819   0.999  0.00  0.00    -0.096 A 
ATOM     10  HN1 IND d   1      -2.201   2.556  -0.393  0.00  0.00     0.298 HD
ENDROOT
TORSDOF 0
ENDMDL
