MODEL 1
REMARK minimizedAffinity -2.6605916
REMARK minimizedRMSD -1
REMARK  0 active torsions:
REMARK  status: ('A' for Active; 'I' for Inactive)
ROOT
ATOM      1  N1  IND d   1       1.107  -0.709  -0.064  0.00  0.00    -0.196 N 
ATOM      2  C2  IND d   1       0.227  -1.403  -0.846  0.00  0.00     0.054 A 
ATOM      3  C3  IND d   1      -1.020  -0.897  -0.714  0.00  0.00    -0.031 A 
ATOM      4  C4  IND d   1      -1.827   1.129   0.654  0.00  0.00     0.051 A 
ATOM      5  C5  IND d   1      -1.396   2.059   1.558  0.00  0.00    -0.031 A 
ATOM      6  C6  IND d   1      -0.081   2.117   1.974  0.00  0.00     0.015 A 
ATOM      7  C7  IND d   1       0.857   1.250   1.491  0.00  0.00    -0.016 A 
ATOM      8  C8  IND d   1       0.422   0.300   0.578  0.00  0.00    -0.047 A 
ATOM      9  C9  IND d   1      -0.919   0.209   0.184  0.00  0.00    -0.096 A 
ATOM     10  HN1 IND d   1       1.947  -0.874   0.015  0.00  0.00     0.298 HD
ENDROOT
TORSDOF 0
ENDMDL
