MODEL 1
REMARK minimizedAffinity -2.81341004
REMARK minimizedRMSD -1
REMARK  1 active torsions:
REMARK  status: ('A' for Active; 'I' for Inactive)
REMARK    1  A    between atoms: N_2  and  C1_3 
ROOT
ATOM      1  C1  UNL d   1      -0.044   0.019   0.209  0.00  0.00     0.143 A 
ATOM      2  C2  UNL d   1      -0.588   0.500   1.405  0.00  0.00    -0.057 A 
ATOM      3  C3  UNL d   1      -0.041   1.613   2.056  0.00  0.00     0.033 A 
ATOM      4  C4  UNL d   1       1.081   2.249   1.535  0.00  0.00    -0.042 A 
ATOM      5  C5  UNL d   1       1.653   1.773   0.361  0.00  0.00     0.033 A 
ATOM      6  C6  UNL d   1       1.099   0.665  -0.288  0.00  0.00    -0.057 A 
ENDROOT
BRANCH   1   7
ATOM      7  N   UNL d   1      -0.481  -1.142  -0.433  0.00  0.00    -0.732 N 
ATOM      8  C   UNL d   1      -1.533  -1.084  -1.425  0.00  0.00     0.284 C 
ATOM      9  H3  UNL d   1       0.286  -1.764  -0.677  0.00  0.00     0.395 HD
ENDBRANCH   1   7
TORSDOF 1
ENDMDL
