MODEL 1
REMARK minimizedAffinity -4.12052822
REMARK minimizedRMSD -1
REMARK  1 active torsions:
REMARK  status: ('A' for Active; 'I' for Inactive)
REMARK    1  A    between atoms: N_2  and  C1_3 
ROOT
ATOM      1  C1  UNL d   1       0.492   0.137  -0.129  0.00  0.00     0.143 A 
ATOM      2  C2  UNL d   1       1.363   1.160   0.262  0.00  0.00    -0.057 A 
ATOM      3  C3  UNL d   1       1.054   2.007   1.333  0.00  0.00     0.033 A 
ATOM      4  C4  UNL d   1      -0.149   1.863   2.017  0.00  0.00    -0.042 A 
ATOM      5  C5  UNL d   1      -1.041   0.869   1.630  0.00  0.00     0.033 A 
ATOM      6  C6  UNL d   1      -0.724   0.023   0.563  0.00  0.00    -0.057 A 
ENDROOT
BRANCH   1   7
ATOM      7  N   UNL d   1       0.697  -0.673  -1.248  0.00  0.00    -0.732 N 
ATOM      8  C   UNL d   1       2.031  -1.100  -1.615  0.00  0.00     0.284 C 
ATOM      9  H3  UNL d   1      -0.010  -1.399  -1.337  0.00  0.00     0.395 HD
ENDBRANCH   1   7
TORSDOF 1
ENDMDL
