MODEL 1
REMARK minimizedAffinity -4.37923098
REMARK minimizedRMSD -1
REMARK  1 active torsions:
REMARK  status: ('A' for Active; 'I' for Inactive)
REMARK    1  A    between atoms: N_2  and  C1_3 
ROOT
ATOM      1  C1  UNL d   1      -0.001  -0.252  -0.239  0.00  0.00     0.143 A 
ATOM      2  C2  UNL d   1       1.177   0.483  -0.412  0.00  0.00    -0.057 A 
ATOM      3  C3  UNL d   1       1.489   1.561   0.425  0.00  0.00     0.033 A 
ATOM      4  C4  UNL d   1       0.612   1.943   1.434  0.00  0.00    -0.042 A 
ATOM      5  C5  UNL d   1      -0.577   1.243   1.608  0.00  0.00     0.033 A 
ATOM      6  C6  UNL d   1      -0.880   0.162   0.774  0.00  0.00    -0.057 A 
ENDROOT
BRANCH   1   7
ATOM      7  N   UNL d   1      -0.415  -1.272  -1.099  0.00  0.00    -0.732 N 
ATOM      8  C   UNL d   1      -1.660  -1.162  -1.828  0.00  0.00     0.284 C 
ATOM      9  H3  UNL d   1       0.354  -1.655  -1.645  0.00  0.00     0.395 HD
ENDBRANCH   1   7
TORSDOF 1
ENDMDL
