MODEL 1
REMARK minimizedAffinity -4.6527977
REMARK minimizedRMSD -1
REMARK  1 active torsions:
REMARK  status: ('A' for Active; 'I' for Inactive)
REMARK    1  A    between atoms: N_2  and  C1_3 
ROOT
ATOM      1  C1  UNL d   1       0.117   0.514  -0.022  0.00  0.00     0.143 A 
ATOM      2  C2  UNL d   1      -0.810   0.701   1.009  0.00  0.00    -0.057 A 
ATOM      3  C3  UNL d   1      -0.552   1.581   2.067  0.00  0.00     0.033 A 
ATOM      4  C4  UNL d   1       0.654   2.270   2.128  0.00  0.00    -0.042 A 
ATOM      5  C5  UNL d   1       1.601   2.081   1.127  0.00  0.00     0.033 A 
ATOM      6  C6  UNL d   1       1.335   1.206   0.070  0.00  0.00    -0.057 A 
ENDROOT
BRANCH   1   7
ATOM      7  N   UNL d   1      -0.040  -0.420  -1.049  0.00  0.00    -0.732 N 
ATOM      8  C   UNL d   1      -1.285  -0.510  -1.781  0.00  0.00     0.284 C 
ATOM      9  H3  UNL d   1       0.791  -0.501  -1.630  0.00  0.00     0.395 HD
ENDBRANCH   1   7
TORSDOF 1
ENDMDL
