MODEL 1
REMARK minimizedAffinity -2.05693865
REMARK minimizedRMSD -1
REMARK  1 active torsions:
REMARK  status: ('A' for Active; 'I' for Inactive)
REMARK    1  A    between atoms: N_2  and  C1_3 
ROOT
ATOM      1  C1  UNL d   1      -1.254  -0.374  -1.312  0.00  0.00     0.143 A 
ATOM      2  C2  UNL d   1      -1.621   0.556  -0.333  0.00  0.00    -0.057 A 
ATOM      3  C3  UNL d   1      -0.757   0.883   0.718  0.00  0.00     0.033 A 
ATOM      4  C4  UNL d   1       0.484   0.263   0.825  0.00  0.00    -0.042 A 
ATOM      5  C5  UNL d   1       0.860  -0.683  -0.122  0.00  0.00     0.033 A 
ATOM      6  C6  UNL d   1      -0.006  -1.000  -1.174  0.00  0.00    -0.057 A 
ENDROOT
BRANCH   1   7
ATOM      7  N   UNL d   1      -2.109  -0.814  -2.326  0.00  0.00    -0.732 N 
ATOM      8  C   UNL d   1      -1.587  -1.533  -3.469  0.00  0.00     0.284 C 
ATOM      9  H3  UNL d   1      -2.982  -1.188  -1.962  0.00  0.00     0.395 HD
ENDBRANCH   1   7
TORSDOF 1
ENDMDL
