MODEL 1
REMARK minimizedAffinity -4.83670187
REMARK minimizedRMSD -1
REMARK  1 active torsions:
REMARK  status: ('A' for Active; 'I' for Inactive)
REMARK    1  A    between atoms: N_2  and  C1_3 
ROOT
ATOM      1  C1  UNL d   1       0.415   0.477  -0.238  0.00  0.00     0.143 A 
ATOM      2  C2  UNL d   1      -0.409   0.959   0.784  0.00  0.00    -0.057 A 
ATOM      3  C3  UNL d   1      -0.037   2.066   1.557  0.00  0.00     0.033 A 
ATOM      4  C4  UNL d   1       1.184   2.694   1.338  0.00  0.00    -0.042 A 
ATOM      5  C5  UNL d   1       2.031   2.217   0.344  0.00  0.00     0.033 A 
ATOM      6  C6  UNL d   1       1.650   1.116  -0.428  0.00  0.00    -0.057 A 
ENDROOT
BRANCH   1   7
ATOM      7  N   UNL d   1       0.146  -0.679  -0.975  0.00  0.00    -0.732 N 
ATOM      8  C   UNL d   1      -1.203  -1.196  -1.069  0.00  0.00     0.284 C 
ATOM      9  H3  UNL d   1       0.666  -0.713  -1.849  0.00  0.00     0.395 HD
ENDBRANCH   1   7
TORSDOF 1
ENDMDL
