MODEL 1
REMARK minimizedAffinity -3.6677649
REMARK minimizedRMSD -1
REMARK  1 active torsions:
REMARK  status: ('A' for Active; 'I' for Inactive)
REMARK    1  A    between atoms: N_2  and  C1_3 
ROOT
ATOM      1  C1  UNL d   1      -1.202  -1.410  -0.947  0.00  0.00     0.143 A 
ATOM      2  C2  UNL d   1      -2.424  -2.087  -0.873  0.00  0.00    -0.057 A 
ATOM      3  C3  UNL d   1      -3.238  -2.241  -2.002  0.00  0.00     0.033 A 
ATOM      4  C4  UNL d   1      -2.856  -1.694  -3.222  0.00  0.00    -0.042 A 
ATOM      5  C5  UNL d   1      -1.657  -0.996  -3.313  0.00  0.00     0.033 A 
ATOM      6  C6  UNL d   1      -0.846  -0.851  -2.184  0.00  0.00    -0.057 A 
ENDROOT
BRANCH   1   7
ATOM      7  N   UNL d   1      -0.395  -1.139   0.161  0.00  0.00    -0.732 N 
ATOM      8  C   UNL d   1      -0.557   0.091   0.907  0.00  0.00     0.284 C 
ATOM      9  H3  UNL d   1      -0.243  -1.960   0.742  0.00  0.00     0.395 HD
ENDBRANCH   1   7
TORSDOF 1
ENDMDL
