MODEL 1
REMARK minimizedAffinity -4.73904705
REMARK minimizedRMSD -1
REMARK  1 active torsions:
REMARK  status: ('A' for Active; 'I' for Inactive)
REMARK    1  A    between atoms: N_2  and  C1_3 
ROOT
ATOM      1  C1  UNL d   1       3.599   1.393   2.085  0.00  0.00     0.143 A 
ATOM      2  C2  UNL d   1       3.689   1.198   0.703  0.00  0.00    -0.057 A 
ATOM      3  C3  UNL d   1       2.628   1.531  -0.148  0.00  0.00     0.033 A 
ATOM      4  C4  UNL d   1       1.443   2.039   0.374  0.00  0.00    -0.042 A 
ATOM      5  C5  UNL d   1       1.322   2.217   1.748  0.00  0.00     0.033 A 
ATOM      6  C6  UNL d   1       2.388   1.889   2.591  0.00  0.00    -0.057 A 
ENDROOT
BRANCH   1   7
ATOM      7  N   UNL d   1       4.582   0.990   2.993  0.00  0.00    -0.732 N 
ATOM      8  C   UNL d   1       4.235   0.192   4.149  0.00  0.00     0.284 C 
ATOM      9  H3  UNL d   1       5.442   0.702   2.532  0.00  0.00     0.395 HD
ENDBRANCH   1   7
TORSDOF 1
ENDMDL
