MODEL 1
REMARK minimizedAffinity -1.21217239
REMARK minimizedRMSD -1
REMARK  1 active torsions:
REMARK  status: ('A' for Active; 'I' for Inactive)
REMARK    1  A    between atoms: N_2  and  C1_3 
ROOT
ATOM      1  C1  UNL d   1      -0.225  -1.053  -0.559  0.00  0.00     0.143 A 
ATOM      2  C2  UNL d   1       0.965  -0.738  -1.223  0.00  0.00    -0.057 A 
ATOM      3  C3  UNL d   1       1.773   0.325  -0.801  0.00  0.00     0.033 A 
ATOM      4  C4  UNL d   1       1.388   1.113   0.279  0.00  0.00    -0.042 A 
ATOM      5  C5  UNL d   1       0.196   0.834   0.939  0.00  0.00     0.033 A 
ATOM      6  C6  UNL d   1      -0.603  -0.233   0.517  0.00  0.00    -0.057 A 
ENDROOT
BRANCH   1   7
ATOM      7  N   UNL d   1      -1.120  -2.034  -0.990  0.00  0.00    -0.732 N 
ATOM      8  C   UNL d   1      -2.053  -1.762  -2.063  0.00  0.00     0.284 C 
ATOM      9  H3  UNL d   1      -0.693  -2.957  -1.035  0.00  0.00     0.395 HD
ENDBRANCH   1   7
TORSDOF 1
ENDMDL
