MODEL 1
REMARK minimizedAffinity -1.00089121
REMARK minimizedRMSD -1
REMARK  1 active torsions:
REMARK  status: ('A' for Active; 'I' for Inactive)
REMARK    1  A    between atoms: N_2  and  C1_3 
ROOT
ATOM      1  C1  UNL d   1       1.217   0.683   0.580  0.00  0.00     0.143 A 
ATOM      2  C2  UNL d   1       1.346   1.560   1.663  0.00  0.00    -0.057 A 
ATOM      3  C3  UNL d   1       2.600   2.029   2.072  0.00  0.00     0.033 A 
ATOM      4  C4  UNL d   1       3.754   1.605   1.421  0.00  0.00    -0.042 A 
ATOM      5  C5  UNL d   1       3.652   0.714   0.358  0.00  0.00     0.033 A 
ATOM      6  C6  UNL d   1       2.396   0.255  -0.050  0.00  0.00    -0.057 A 
ENDROOT
BRANCH   1   7
ATOM      7  N   UNL d   1       0.007   0.104   0.188  0.00  0.00    -0.732 N 
ATOM      8  C   UNL d   1      -0.034  -1.256  -0.303  0.00  0.00     0.284 C 
ATOM      9  H3  UNL d   1      -0.759   0.345   0.813  0.00  0.00     0.395 HD
ENDBRANCH   1   7
TORSDOF 1
ENDMDL
