MODEL 1
REMARK minimizedAffinity -2.09122419
REMARK minimizedRMSD -1
REMARK  1 active torsions:
REMARK  status: ('A' for Active; 'I' for Inactive)
REMARK    1  A    between atoms: N_2  and  C1_3 
ROOT
ATOM      1  C1  UNL d   1      -0.848  -1.296  -1.376  0.00  0.00     0.143 A 
ATOM      2  C2  UNL d   1      -1.930  -2.177  -1.272  0.00  0.00    -0.057 A 
ATOM      3  C3  UNL d   1      -2.727  -2.483  -2.382  0.00  0.00     0.033 A 
ATOM      4  C4  UNL d   1      -2.472  -1.889  -3.614  0.00  0.00    -0.042 A 
ATOM      5  C5  UNL d   1      -1.417  -0.991  -3.735  0.00  0.00     0.033 A 
ATOM      6  C6  UNL d   1      -0.621  -0.695  -2.624  0.00  0.00    -0.057 A 
ENDROOT
BRANCH   1   7
ATOM      7  N   UNL d   1      -0.080  -0.876  -0.288  0.00  0.00    -0.732 N 
ATOM      8  C   UNL d   1      -0.627   0.037   0.692  0.00  0.00     0.284 C 
ATOM      9  H3  UNL d   1       0.474  -1.631   0.111  0.00  0.00     0.395 HD
ENDBRANCH   1   7
TORSDOF 1
ENDMDL
