MODEL 1
REMARK minimizedAffinity -3.56763577
REMARK minimizedRMSD -1
REMARK  1 active torsions:
REMARK  status: ('A' for Active; 'I' for Inactive)
REMARK    1  A    between atoms: N_2  and  C1_3 
ROOT
ATOM      1  C1  UNL d   1      -0.832  -0.098  -0.088  0.00  0.00     0.143 A 
ATOM      2  C2  UNL d   1      -1.656   0.224   0.995  0.00  0.00    -0.057 A 
ATOM      3  C3  UNL d   1      -1.350   1.290   1.849  0.00  0.00     0.033 A 
ATOM      4  C4  UNL d   1      -0.193   2.038   1.651  0.00  0.00    -0.042 A 
ATOM      5  C5  UNL d   1       0.654   1.720   0.596  0.00  0.00     0.033 A 
ATOM      6  C6  UNL d   1       0.339   0.658  -0.258  0.00  0.00    -0.057 A 
ENDROOT
BRANCH   1   7
ATOM      7  N   UNL d   1      -1.030  -1.207  -0.914  0.00  0.00    -0.732 N 
ATOM      8  C   UNL d   1      -1.549  -1.045  -2.255  0.00  0.00     0.284 C 
ATOM      9  H3  UNL d   1      -0.276  -1.887  -0.840  0.00  0.00     0.395 HD
ENDBRANCH   1   7
TORSDOF 1
ENDMDL
