MODEL 1
REMARK minimizedAffinity 0.0543720163
REMARK minimizedRMSD -1
REMARK  1 active torsions:
REMARK  status: ('A' for Active; 'I' for Inactive)
REMARK    1  A    between atoms: N_2  and  C1_3 
ROOT
ATOM      1  C1  UNL d   1       0.435   1.179   2.568  0.00  0.00     0.143 A 
ATOM      2  C2  UNL d   1      -0.197   1.110   3.814  0.00  0.00    -0.057 A 
ATOM      3  C3  UNL d   1       0.543   1.016   4.999  0.00  0.00     0.033 A 
ATOM      4  C4  UNL d   1       1.932   0.961   4.956  0.00  0.00    -0.042 A 
ATOM      5  C5  UNL d   1       2.580   1.003   3.727  0.00  0.00     0.033 A 
ATOM      6  C6  UNL d   1       1.836   1.103   2.547  0.00  0.00    -0.057 A 
ENDROOT
BRANCH   1   7
ATOM      7  N   UNL d   1      -0.248   1.174   1.349  0.00  0.00    -0.732 N 
ATOM      8  C   UNL d   1       0.077   0.202   0.326  0.00  0.00     0.284 C 
ATOM      9  H3  UNL d   1      -1.245   1.342   1.461  0.00  0.00     0.395 HD
ENDBRANCH   1   7
TORSDOF 1
ENDMDL
