MODEL 1
REMARK minimizedAffinity 4.18405533
REMARK minimizedRMSD -1
REMARK  1 active torsions:
REMARK  status: ('A' for Active; 'I' for Inactive)
REMARK    1  A    between atoms: N_2  and  C1_3 
ROOT
ATOM      1  C1  UNL d   1      -1.976  -0.719  -0.761  0.00  0.00     0.143 A 
ATOM      2  C2  UNL d   1      -2.491   0.325   0.016  0.00  0.00    -0.057 A 
ATOM      3  C3  UNL d   1      -1.693   0.995   0.952  0.00  0.00     0.033 A 
ATOM      4  C4  UNL d   1      -0.371   0.612   1.149  0.00  0.00    -0.042 A 
ATOM      5  C5  UNL d   1       0.155  -0.439   0.406  0.00  0.00     0.033 A 
ATOM      6  C6  UNL d   1      -0.644  -1.100  -0.532  0.00  0.00    -0.057 A 
ENDROOT
BRANCH   1   7
ATOM      7  N   UNL d   1      -2.745  -1.488  -1.637  0.00  0.00    -0.732 N 
ATOM      8  C   UNL d   1      -2.546  -1.396  -3.068  0.00  0.00     0.284 C 
ATOM      9  H3  UNL d   1      -2.888  -2.437  -1.298  0.00  0.00     0.395 HD
ENDBRANCH   1   7
TORSDOF 1
ENDMDL
