MODEL 1
REMARK minimizedAffinity -5.97877884
REMARK minimizedRMSD -1
REMARK  3 active torsions:
REMARK  status: ('A' for Active; 'I' for Inactive)
REMARK    1  A    between atoms: C3'_2  and  C2'_3 
REMARK    2  A    between atoms: C2'_3  and  C1'_4 
REMARK    3  A    between atoms: C1'_4  and  C1_5 
ROOT
ATOM      1  C1  N4B d   1       0.413  -0.553  -2.625  0.00  0.00    -0.075 A 
ATOM      2  C2  N4B d   1      -0.819  -0.482  -3.311  0.00  0.00     0.002 A 
ATOM      3  C3  N4B d   1      -0.930   0.286  -4.444  0.00  0.00     0.002 A 
ATOM      4  C4  N4B d   1       0.166   1.004  -4.896  0.00  0.00    -0.004 A 
ATOM      5  C5  N4B d   1       1.360   0.911  -4.242  0.00  0.00     0.002 A 
ATOM      6  C6  N4B d   1       1.487   0.139  -3.104  0.00  0.00     0.002 A 
ENDROOT
BRANCH   1   7
ATOM      7  C1' N4B d   1       0.560  -1.311  -1.334  0.00  0.00     0.057 C 
BRANCH   7   8
ATOM      8  C2' N4B d   1       0.186  -0.397  -0.171  0.00  0.00     0.009 C 
BRANCH   8   9
ATOM      9  C3' N4B d   1      -1.310  -0.395   0.092  0.00  0.00     0.004 C 
ATOM     10  C4' N4B d   1      -1.687   0.418   1.294  0.00  0.00     0.003 C 
ENDBRANCH   8   9
ENDBRANCH   7   8
ENDBRANCH   1   7
TORSDOF 3
ENDMDL
