MODEL 1
REMARK minimizedAffinity -5.61780882
REMARK minimizedRMSD -1
REMARK  3 active torsions:
REMARK  status: ('A' for Active; 'I' for Inactive)
REMARK    1  A    between atoms: C3'_2  and  C2'_3 
REMARK    2  A    between atoms: C2'_3  and  C1'_4 
REMARK    3  A    between atoms: C1'_4  and  C1_5 
ROOT
ATOM      1  C1  N4B d   1       1.026  -0.640  -2.139  0.00  0.00    -0.075 A 
ATOM      2  C2  N4B d   1      -0.059  -0.613  -3.042  0.00  0.00     0.002 A 
ATOM      3  C3  N4B d   1       0.052   0.068  -4.229  0.00  0.00     0.002 A 
ATOM      4  C4  N4B d   1       1.227   0.742  -4.526  0.00  0.00    -0.004 A 
ATOM      5  C5  N4B d   1       2.280   0.690  -3.660  0.00  0.00     0.002 A 
ATOM      6  C6  N4B d   1       2.184   0.006  -2.465  0.00  0.00     0.002 A 
ENDROOT
BRANCH   1   7
ATOM      7  C1' N4B d   1       0.922  -1.300  -0.791  0.00  0.00     0.057 C 
BRANCH   7   8
ATOM      8  C2' N4B d   1      -0.399  -0.900  -0.139  0.00  0.00     0.009 C 
BRANCH   8   9
ATOM      9  C3' N4B d   1      -0.331   0.486   0.477  0.00  0.00     0.004 C 
ATOM     10  C4' N4B d   1      -1.568   0.840   1.248  0.00  0.00     0.003 C 
ENDBRANCH   8   9
ENDBRANCH   7   8
ENDBRANCH   1   7
TORSDOF 3
ENDMDL
