MODEL 1
REMARK minimizedAffinity 3.22812581
REMARK minimizedRMSD -1
REMARK  3 active torsions:
REMARK  status: ('A' for Active; 'I' for Inactive)
REMARK    1  A    between atoms: C3'_2  and  C2'_3 
REMARK    2  A    between atoms: C2'_3  and  C1'_4 
REMARK    3  A    between atoms: C1'_4  and  C1_5 
ROOT
ATOM      1  C1  N4B d   1      -0.924   0.104   2.573  0.00  0.00    -0.075 A 
ATOM      2  C2  N4B d   1      -0.469  -1.062   3.226  0.00  0.00     0.002 A 
ATOM      3  C3  N4B d   1       0.363  -0.959   4.314  0.00  0.00     0.002 A 
ATOM      4  C4  N4B d   1       0.766   0.293   4.753  0.00  0.00    -0.004 A 
ATOM      5  C5  N4B d   1       0.301   1.416   4.132  0.00  0.00     0.002 A 
ATOM      6  C6  N4B d   1      -0.538   1.327   3.040  0.00  0.00     0.002 A 
ENDROOT
BRANCH   1   7
ATOM      7  C1' N4B d   1      -1.766   0.040   1.328  0.00  0.00     0.057 C 
BRANCH   7   8
ATOM      8  C2' N4B d   1      -0.851  -0.047   0.109  0.00  0.00     0.009 C 
BRANCH   8   9
ATOM      9  C3' N4B d   1       0.412   0.777   0.288  0.00  0.00     0.004 C 
ATOM     10  C4' N4B d   1       1.643  -0.070   0.419  0.00  0.00     0.003 C 
ENDBRANCH   8   9
ENDBRANCH   7   8
ENDBRANCH   1   7
TORSDOF 3
ENDMDL
