MODEL 1
REMARK minimizedAffinity -2.43190789
REMARK minimizedRMSD -1
REMARK  3 active torsions:
REMARK  status: ('A' for Active; 'I' for Inactive)
REMARK    1  A    between atoms: C3'_2  and  C2'_3 
REMARK    2  A    between atoms: C2'_3  and  C1'_4 
REMARK    3  A    between atoms: C1'_4  and  C1_5 
ROOT
ATOM      1  C1  N4B d   1      -0.152  -0.152   0.651  0.00  0.00    -0.075 A 
ATOM      2  C2  N4B d   1       1.092   0.364   1.076  0.00  0.00     0.002 A 
ATOM      3  C3  N4B d   1       1.156   1.182   2.177  0.00  0.00     0.002 A 
ATOM      4  C4  N4B d   1      -0.007   1.510   2.856  0.00  0.00    -0.004 A 
ATOM      5  C5  N4B d   1      -1.202   0.987   2.455  0.00  0.00     0.002 A 
ATOM      6  C6  N4B d   1      -1.280   0.161   1.352  0.00  0.00     0.002 A 
ENDROOT
BRANCH   1   7
ATOM      7  C1' N4B d   1      -0.283  -0.980  -0.597  0.00  0.00     0.057 C 
BRANCH   7   8
ATOM      8  C2' N4B d   1       0.041  -0.113  -1.810  0.00  0.00     0.009 C 
BRANCH   8   9
ATOM      9  C3' N4B d   1      -0.308  -0.807  -3.115  0.00  0.00     0.004 C 
ATOM     10  C4' N4B d   1      -0.782   0.146  -4.171  0.00  0.00     0.003 C 
ENDBRANCH   8   9
ENDBRANCH   7   8
ENDBRANCH   1   7
TORSDOF 3
ENDMDL
