MODEL 1
REMARK minimizedAffinity 1.00075495
REMARK minimizedRMSD -1
REMARK  0 active torsions:
REMARK  status: ('A' for Active; 'I' for Inactive)
ROOT
ATOM      1  C2' OXE d   1       1.583  -4.551   4.239  0.00  0.00     0.078 C 
ATOM      2  C1' OXE d   1       3.559  -4.115   2.292  0.00  0.00     0.078 C 
ATOM      3  C1  OXE d   1       2.707  -2.941   2.706  0.00  0.00    -0.078 A 
ATOM      4  C2  OXE d   1       1.712  -3.174   3.624  0.00  0.00    -0.078 A 
ATOM      5  C3  OXE d   1       0.934  -2.114   4.081  0.00  0.00     0.003 A 
ATOM      6  C4  OXE d   1       1.053  -0.845   3.500  0.00  0.00    -0.002 A 
ATOM      7  C5  OXE d   1       2.033  -0.596   2.534  0.00  0.00    -0.002 A 
ATOM      8  C6  OXE d   1       2.895  -1.620   2.157  0.00  0.00     0.003 A 
ENDROOT
TORSDOF 0
ENDMDL
