MODEL 1
REMARK minimizedAffinity 7.63552761
REMARK minimizedRMSD -1
REMARK  0 active torsions:
REMARK  status: ('A' for Active; 'I' for Inactive)
ROOT
ATOM      1  C2' OXE d   1      -3.126  -1.281  -2.940  0.00  0.00     0.078 C 
ATOM      2  C1' OXE d   1      -4.225   1.279  -3.279  0.00  0.00     0.078 C 
ATOM      3  C1  OXE d   1      -3.227   1.084  -2.165  0.00  0.00    -0.078 A 
ATOM      4  C2  OXE d   1      -2.730  -0.183  -1.977  0.00  0.00    -0.078 A 
ATOM      5  C3  OXE d   1      -1.765  -0.406  -0.998  0.00  0.00     0.003 A 
ATOM      6  C4  OXE d   1      -1.412   0.613  -0.105  0.00  0.00    -0.002 A 
ATOM      7  C5  OXE d   1      -1.937   1.901  -0.255  0.00  0.00    -0.002 A 
ATOM      8  C6  OXE d   1      -2.811   2.163  -1.304  0.00  0.00     0.003 A 
ENDROOT
TORSDOF 0
ENDMDL
