MODEL 1
REMARK minimizedAffinity 0.845465779
REMARK minimizedRMSD -1
REMARK  0 active torsions:
REMARK  status: ('A' for Active; 'I' for Inactive)
ROOT
ATOM      1  C2' OXE d   1       2.800  -0.103   2.244  0.00  0.00     0.078 C 
ATOM      2  C1' OXE d   1       1.290  -0.624   4.552  0.00  0.00     0.078 C 
ATOM      3  C1  OXE d   1       1.664  -1.794   3.678  0.00  0.00    -0.078 A 
ATOM      4  C2  OXE d   1       2.363  -1.524   2.526  0.00  0.00    -0.078 A 
ATOM      5  C3  OXE d   1       2.781  -2.573   1.711  0.00  0.00     0.003 A 
ATOM      6  C4  OXE d   1       2.364  -3.883   1.974  0.00  0.00    -0.002 A 
ATOM      7  C5  OXE d   1       1.618  -4.175   3.120  0.00  0.00    -0.002 A 
ATOM      8  C6  OXE d   1       1.296  -3.150   4.003  0.00  0.00     0.003 A 
ENDROOT
TORSDOF 0
ENDMDL
