MODEL 1
REMARK minimizedAffinity 7.47268915
REMARK minimizedRMSD -1
REMARK  0 active torsions:
REMARK  status: ('A' for Active; 'I' for Inactive)
ROOT
ATOM      1  C2' OXE d   1       2.106  -4.510   4.985  0.00  0.00     0.078 C 
ATOM      2  C1' OXE d   1       4.449  -4.072   3.503  0.00  0.00     0.078 C 
ATOM      3  C1  OXE d   1       3.274  -3.163   3.246  0.00  0.00    -0.078 A 
ATOM      4  C2  OXE d   1       2.116  -3.414   3.942  0.00  0.00    -0.078 A 
ATOM      5  C3  OXE d   1       1.020  -2.571   3.783  0.00  0.00     0.003 A 
ATOM      6  C4  OXE d   1       1.034  -1.565   2.809  0.00  0.00    -0.002 A 
ATOM      7  C5  OXE d   1       2.190  -1.317   2.061  0.00  0.00    -0.002 A 
ATOM      8  C6  OXE d   1       3.330  -2.078   2.297  0.00  0.00     0.003 A 
ENDROOT
TORSDOF 0
ENDMDL
