MODEL 1
REMARK minimizedAffinity 6.59204721
REMARK minimizedRMSD -1
REMARK  0 active torsions:
REMARK  status: ('A' for Active; 'I' for Inactive)
ROOT
ATOM      1  C2' OXE d   1       1.885  -5.967  -3.075  0.00  0.00     0.078 C 
ATOM      2  C1' OXE d   1       2.398  -5.948  -5.835  0.00  0.00     0.078 C 
ATOM      3  C1  OXE d   1       3.581  -5.966  -4.900  0.00  0.00    -0.078 A 
ATOM      4  C2  OXE d   1       3.321  -5.928  -3.551  0.00  0.00    -0.078 A 
ATOM      5  C3  OXE d   1       4.375  -5.998  -2.644  0.00  0.00     0.003 A 
ATOM      6  C4  OXE d   1       5.700  -5.951  -3.092  0.00  0.00    -0.002 A 
ATOM      7  C5  OXE d   1       5.987  -5.949  -4.461  0.00  0.00    -0.002 A 
ATOM      8  C6  OXE d   1       4.942  -5.999  -5.376  0.00  0.00     0.003 A 
ENDROOT
TORSDOF 0
ENDMDL
