MODEL 1
REMARK minimizedAffinity 11.6180944
REMARK minimizedRMSD -1
REMARK  0 active torsions:
REMARK  status: ('A' for Active; 'I' for Inactive)
ROOT
ATOM      1  C2' OXE d   1      -4.621   1.493  -5.328  0.00  0.00     0.078 C 
ATOM      2  C1' OXE d   1      -4.989  -1.290  -5.312  0.00  0.00     0.078 C 
ATOM      3  C1  OXE d   1      -4.258  -0.670  -4.147  0.00  0.00    -0.078 A 
ATOM      4  C2  OXE d   1      -4.042   0.686  -4.186  0.00  0.00    -0.078 A 
ATOM      5  C3  OXE d   1      -3.422   1.316  -3.111  0.00  0.00     0.003 A 
ATOM      6  C4  OXE d   1      -2.880   0.561  -2.064  0.00  0.00    -0.002 A 
ATOM      7  C5  OXE d   1      -3.054  -0.826  -2.024  0.00  0.00    -0.002 A 
ATOM      8  C6  OXE d   1      -3.777  -1.451  -3.035  0.00  0.00     0.003 A 
ENDROOT
TORSDOF 0
ENDMDL
