MODEL 1
REMARK minimizedAffinity 6.45998335
REMARK minimizedRMSD -1
REMARK  0 active torsions:
REMARK  status: ('A' for Active; 'I' for Inactive)
ROOT
ATOM      1  C2' OXE d   1       2.432  -5.178   5.569  0.00  0.00     0.078 C 
ATOM      2  C1' OXE d   1       3.521  -2.626   6.000  0.00  0.00     0.078 C 
ATOM      3  C1  OXE d   1       2.762  -2.860   4.718  0.00  0.00    -0.078 A 
ATOM      4  C2  OXE d   1       2.272  -4.124   4.494  0.00  0.00    -0.078 A 
ATOM      5  C3  OXE d   1       1.518  -4.380   3.353  0.00  0.00     0.003 A 
ATOM      6  C4  OXE d   1       1.384  -3.403   2.358  0.00  0.00    -0.002 A 
ATOM      7  C5  OXE d   1       1.908  -2.120   2.548  0.00  0.00    -0.002 A 
ATOM      8  C6  OXE d   1       2.562  -1.820   3.738  0.00  0.00     0.003 A 
ENDROOT
TORSDOF 0
ENDMDL
