MODEL 1
REMARK minimizedAffinity 0.0854120404
REMARK minimizedRMSD -1
REMARK  0 active torsions:
REMARK  status: ('A' for Active; 'I' for Inactive)
ROOT
ATOM      1  C2' OXE d   1       1.536  -3.772   5.010  0.00  0.00     0.078 C 
ATOM      2  C1' OXE d   1       3.124  -4.357   2.770  0.00  0.00     0.078 C 
ATOM      3  C1  OXE d   1       2.571  -2.959   2.895  0.00  0.00    -0.078 A 
ATOM      4  C2  OXE d   1       1.757  -2.695   3.970  0.00  0.00    -0.078 A 
ATOM      5  C3  OXE d   1       1.265  -1.407   4.162  0.00  0.00     0.003 A 
ATOM      6  C4  OXE d   1       1.465  -0.419   3.190  0.00  0.00    -0.002 A 
ATOM      7  C5  OXE d   1       2.259  -0.679   2.068  0.00  0.00    -0.002 A 
ATOM      8  C6  OXE d   1       2.853  -1.928   1.927  0.00  0.00     0.003 A 
ENDROOT
TORSDOF 0
ENDMDL
