MODEL 1
REMARK minimizedAffinity 6.97154427
REMARK minimizedRMSD -1
REMARK  0 active torsions:
REMARK  status: ('A' for Active; 'I' for Inactive)
ROOT
ATOM      1  C2' OXE d   1       0.719  -2.981   4.443  0.00  0.00     0.078 C 
ATOM      2  C1' OXE d   1       2.820  -3.846   2.794  0.00  0.00     0.078 C 
ATOM      3  C1  OXE d   1       2.346  -2.422   2.641  0.00  0.00    -0.078 A 
ATOM      4  C2  OXE d   1       1.287  -2.022   3.419  0.00  0.00    -0.078 A 
ATOM      5  C3  OXE d   1       0.846  -0.703   3.357  0.00  0.00     0.003 A 
ATOM      6  C4  OXE d   1       1.369   0.175   2.400  0.00  0.00    -0.002 A 
ATOM      7  C5  OXE d   1       2.422  -0.224   1.571  0.00  0.00    -0.002 A 
ATOM      8  C6  OXE d   1       2.949  -1.504   1.707  0.00  0.00     0.003 A 
ENDROOT
TORSDOF 0
ENDMDL
