MODEL 1
REMARK minimizedAffinity -1.72153986
REMARK minimizedRMSD -1
REMARK  0 active torsions:
REMARK  status: ('A' for Active; 'I' for Inactive)
ROOT
ATOM      1  C   UNL d   1      -0.573   1.090  -2.163  0.00  0.00     0.078 C 
ATOM      2  C1  UNL d   1       0.445   0.148  -2.735  0.00  0.00    -0.077 A 
ATOM      3  C2  UNL d   1       0.088  -1.146  -3.131  0.00  0.00    -0.001 A 
ATOM      4  C3  UNL d   1       1.048  -2.015  -3.652  0.00  0.00     0.003 A 
ATOM      5  C4  UNL d   1       2.372  -1.600  -3.780  0.00  0.00    -0.005 A 
ATOM      6  C5  UNL d   1       2.737  -0.314  -3.386  0.00  0.00     0.003 A 
ATOM      7  C6  UNL d   1       1.779   0.556  -2.865  0.00  0.00    -0.001 A 
ENDROOT
TORSDOF 0
ENDMDL
