MODEL 1
REMARK minimizedAffinity -4.060112
REMARK minimizedRMSD -1
REMARK  0 active torsions:
REMARK  status: ('A' for Active; 'I' for Inactive)
ROOT
ATOM      1  C   UNL d   1      -0.736   0.411   2.893  0.00  0.00     0.078 C 
ATOM      2  C1  UNL d   1      -0.581   0.484   1.403  0.00  0.00    -0.077 A 
ATOM      3  C2  UNL d   1       0.683   0.412   0.805  0.00  0.00    -0.001 A 
ATOM      4  C3  UNL d   1       0.812   0.490  -0.582  0.00  0.00     0.003 A 
ATOM      5  C4  UNL d   1      -0.318   0.642  -1.383  0.00  0.00    -0.005 A 
ATOM      6  C5  UNL d   1      -1.580   0.717  -0.797  0.00  0.00     0.003 A 
ATOM      7  C6  UNL d   1      -1.711   0.639   0.591  0.00  0.00    -0.001 A 
ENDROOT
TORSDOF 0
ENDMDL
