MODEL 1
REMARK minimizedAffinity -2.6783905
REMARK minimizedRMSD -1
REMARK  0 active torsions:
REMARK  status: ('A' for Active; 'I' for Inactive)
ROOT
ATOM      1  C   UNL d   1      -3.039   1.152   2.557  0.00  0.00     0.078 C 
ATOM      2  C1  UNL d   1      -1.684   0.734   2.069  0.00  0.00    -0.077 A 
ATOM      3  C2  UNL d   1      -0.613   0.580   2.958  0.00  0.00    -0.001 A 
ATOM      4  C3  UNL d   1       0.645   0.200   2.488  0.00  0.00     0.003 A 
ATOM      5  C4  UNL d   1       0.845  -0.027   1.128  0.00  0.00    -0.005 A 
ATOM      6  C5  UNL d   1      -0.214   0.126   0.236  0.00  0.00     0.003 A 
ATOM      7  C6  UNL d   1      -1.473   0.506   0.704  0.00  0.00    -0.001 A 
ENDROOT
TORSDOF 0
ENDMDL
