MODEL 1
REMARK minimizedAffinity -2.30280828
REMARK minimizedRMSD -1
REMARK  0 active torsions:
REMARK  status: ('A' for Active; 'I' for Inactive)
ROOT
ATOM      1  C   UNL d   1       1.028  -0.350  -3.097  0.00  0.00     0.078 C 
ATOM      2  C1  UNL d   1       0.615  -0.048  -1.687  0.00  0.00    -0.077 A 
ATOM      3  C2  UNL d   1      -0.673   0.418  -1.397  0.00  0.00    -0.001 A 
ATOM      4  C3  UNL d   1      -1.040   0.704  -0.081  0.00  0.00     0.003 A 
ATOM      5  C4  UNL d   1      -0.124   0.529   0.955  0.00  0.00    -0.005 A 
ATOM      6  C5  UNL d   1       1.161   0.068   0.675  0.00  0.00     0.003 A 
ATOM      7  C6  UNL d   1       1.530  -0.219  -0.640  0.00  0.00    -0.001 A 
ENDROOT
TORSDOF 0
ENDMDL
