MODEL 1
REMARK minimizedAffinity -1.29854321
REMARK minimizedRMSD -1
REMARK  0 active torsions:
REMARK  status: ('A' for Active; 'I' for Inactive)
ROOT
ATOM      1  C   UNL d   1      -0.096   0.718  -1.134  0.00  0.00     0.078 C 
ATOM      2  C1  UNL d   1       0.538  -0.170  -2.163  0.00  0.00    -0.077 A 
ATOM      3  C2  UNL d   1       1.844   0.062  -2.610  0.00  0.00    -0.001 A 
ATOM      4  C3  UNL d   1       2.418  -0.767  -3.575  0.00  0.00     0.003 A 
ATOM      5  C4  UNL d   1       1.693  -1.833  -4.102  0.00  0.00    -0.005 A 
ATOM      6  C5  UNL d   1       0.391  -2.071  -3.665  0.00  0.00     0.003 A 
ATOM      7  C6  UNL d   1      -0.185  -1.243  -2.700  0.00  0.00    -0.001 A 
ENDROOT
TORSDOF 0
ENDMDL
