MODEL 1
REMARK minimizedAffinity -3.85748577
REMARK minimizedRMSD -1
REMARK  0 active torsions:
REMARK  status: ('A' for Active; 'I' for Inactive)
ROOT
ATOM      1  C   UNL d   1      -2.934   0.650  -0.384  0.00  0.00     0.078 C 
ATOM      2  C1  UNL d   1      -1.653   0.541   0.388  0.00  0.00    -0.077 A 
ATOM      3  C2  UNL d   1      -1.629   0.731   1.776  0.00  0.00    -0.001 A 
ATOM      4  C3  UNL d   1      -0.428   0.636   2.480  0.00  0.00     0.003 A 
ATOM      5  C4  UNL d   1       0.758   0.352   1.806  0.00  0.00    -0.005 A 
ATOM      6  C5  UNL d   1       0.745   0.164   0.426  0.00  0.00     0.003 A 
ATOM      7  C6  UNL d   1      -0.455   0.259  -0.281  0.00  0.00    -0.001 A 
ENDROOT
TORSDOF 0
ENDMDL
