MODEL 1
REMARK minimizedAffinity -1.58631825
REMARK minimizedRMSD -1
REMARK  0 active torsions:
REMARK  status: ('A' for Active; 'I' for Inactive)
ROOT
ATOM      1  C   UNL d   1       0.668  -0.770   2.108  0.00  0.00     0.078 C 
ATOM      2  C1  UNL d   1      -0.051   0.452   2.596  0.00  0.00    -0.077 A 
ATOM      3  C2  UNL d   1      -1.450   0.500   2.629  0.00  0.00    -0.001 A 
ATOM      4  C3  UNL d   1      -2.107   1.647   3.077  0.00  0.00     0.003 A 
ATOM      5  C4  UNL d   1      -1.372   2.756   3.495  0.00  0.00    -0.005 A 
ATOM      6  C5  UNL d   1       0.020   2.718   3.464  0.00  0.00     0.003 A 
ATOM      7  C6  UNL d   1       0.678   1.571   3.016  0.00  0.00    -0.001 A 
ENDROOT
TORSDOF 0
ENDMDL
