MODEL 1
REMARK minimizedAffinity -3.75725532
REMARK minimizedRMSD -1
REMARK  0 active torsions:
REMARK  status: ('A' for Active; 'I' for Inactive)
ROOT
ATOM      1  C   UNL d   1       0.722   0.340  -1.665  0.00  0.00     0.078 C 
ATOM      2  C1  UNL d   1      -0.021   0.456  -0.367  0.00  0.00    -0.077 A 
ATOM      3  C2  UNL d   1       0.655   0.400   0.858  0.00  0.00    -0.001 A 
ATOM      4  C3  UNL d   1      -0.050   0.499   2.058  0.00  0.00     0.003 A 
ATOM      5  C4  UNL d   1      -1.435   0.654   2.045  0.00  0.00    -0.005 A 
ATOM      6  C5  UNL d   1      -2.117   0.708   0.831  0.00  0.00     0.003 A 
ATOM      7  C6  UNL d   1      -1.413   0.609  -0.370  0.00  0.00    -0.001 A 
ENDROOT
TORSDOF 0
ENDMDL
