MODEL 1
REMARK minimizedAffinity -3.50382519
REMARK minimizedRMSD -1
REMARK  0 active torsions:
REMARK  status: ('A' for Active; 'I' for Inactive)
ROOT
ATOM      1  C   UNL d   1      -0.060   0.320  -1.055  0.00  0.00     0.078 C 
ATOM      2  C1  UNL d   1      -0.266   0.280   0.430  0.00  0.00    -0.077 A 
ATOM      3  C2  UNL d   1      -1.534   0.487   0.987  0.00  0.00    -0.001 A 
ATOM      4  C3  UNL d   1      -1.710   0.457   2.372  0.00  0.00     0.003 A 
ATOM      5  C4  UNL d   1      -0.622   0.221   3.210  0.00  0.00    -0.005 A 
ATOM      6  C5  UNL d   1       0.643   0.015   2.665  0.00  0.00     0.003 A 
ATOM      7  C6  UNL d   1       0.821   0.046   1.281  0.00  0.00    -0.001 A 
ENDROOT
TORSDOF 0
ENDMDL
