MODEL 1
REMARK minimizedAffinity -2.30467558
REMARK minimizedRMSD -1
REMARK  0 active torsions:
REMARK  status: ('A' for Active; 'I' for Inactive)
ROOT
ATOM      1  C   UNL d   1       0.346   0.208  -0.138  0.00  0.00     0.078 C 
ATOM      2  C1  UNL d   1       0.745  -0.500  -1.399  0.00  0.00    -0.077 A 
ATOM      3  C2  UNL d   1       1.367   0.189  -2.447  0.00  0.00    -0.001 A 
ATOM      4  C3  UNL d   1       1.724  -0.481  -3.618  0.00  0.00     0.003 A 
ATOM      5  C4  UNL d   1       1.462  -1.843  -3.753  0.00  0.00    -0.005 A 
ATOM      6  C5  UNL d   1       0.842  -2.537  -2.715  0.00  0.00     0.003 A 
ATOM      7  C6  UNL d   1       0.484  -1.868  -1.544  0.00  0.00    -0.001 A 
ENDROOT
TORSDOF 0
ENDMDL
