MODEL 1
REMARK minimizedAffinity -1.7131834
REMARK minimizedRMSD -1
REMARK  0 active torsions:
REMARK  status: ('A' for Active; 'I' for Inactive)
ROOT
ATOM      1  C   UNL d   1       0.395   0.141  -1.856  0.00  0.00     0.078 C 
ATOM      2  C1  UNL d   1       0.469   0.172  -0.359  0.00  0.00    -0.077 A 
ATOM      3  C2  UNL d   1       1.685   0.400   0.298  0.00  0.00    -0.001 A 
ATOM      4  C3  UNL d   1       1.741   0.417   1.693  0.00  0.00     0.003 A 
ATOM      5  C4  UNL d   1       0.585   0.206   2.442  0.00  0.00    -0.005 A 
ATOM      6  C5  UNL d   1      -0.628  -0.024   1.797  0.00  0.00     0.003 A 
ATOM      7  C6  UNL d   1      -0.686  -0.041   0.403  0.00  0.00    -0.001 A 
ENDROOT
TORSDOF 0
ENDMDL
