MODEL 1
REMARK minimizedAffinity -3.38422608
REMARK minimizedRMSD -1
REMARK  0 active torsions:
REMARK  status: ('A' for Active; 'I' for Inactive)
ROOT
ATOM      1  C   UNL d   1      -3.395   0.771   1.515  0.00  0.00     0.078 C 
ATOM      2  C1  UNL d   1      -1.928   0.617   1.250  0.00  0.00    -0.077 A 
ATOM      3  C2  UNL d   1      -1.440   0.490  -0.056  0.00  0.00    -0.001 A 
ATOM      4  C3  UNL d   1      -0.072   0.338  -0.288  0.00  0.00     0.003 A 
ATOM      5  C4  UNL d   1       0.820   0.308   0.783  0.00  0.00    -0.005 A 
ATOM      6  C5  UNL d   1       0.343   0.431   2.087  0.00  0.00     0.003 A 
ATOM      7  C6  UNL d   1      -1.024   0.584   2.320  0.00  0.00    -0.001 A 
ENDROOT
TORSDOF 0
ENDMDL
