MODEL 1
REMARK minimizedAffinity -3.0060885
REMARK minimizedRMSD -1
REMARK  0 active torsions:
REMARK  status: ('A' for Active; 'I' for Inactive)
ROOT
ATOM      1  C   UNL d   1       0.207  -1.405  -2.952  0.00  0.00     0.078 C 
ATOM      2  C1  UNL d   1       0.370  -0.824  -1.580  0.00  0.00    -0.077 A 
ATOM      3  C2  UNL d   1       0.640   0.538  -1.401  0.00  0.00    -0.001 A 
ATOM      4  C3  UNL d   1       0.800   1.064  -0.118  0.00  0.00     0.003 A 
ATOM      5  C4  UNL d   1       0.693   0.234   0.996  0.00  0.00    -0.005 A 
ATOM      6  C5  UNL d   1       0.427  -1.123   0.829  0.00  0.00     0.003 A 
ATOM      7  C6  UNL d   1       0.267  -1.651  -0.454  0.00  0.00    -0.001 A 
ENDROOT
TORSDOF 0
ENDMDL
