MODEL 1
REMARK minimizedAffinity -3.72760892
REMARK minimizedRMSD -1
REMARK  0 active torsions:
REMARK  status: ('A' for Active; 'I' for Inactive)
ROOT
ATOM      1  C   UNL d   1      -2.964   0.732   0.711  0.00  0.00     0.078 C 
ATOM      2  C1  UNL d   1      -1.473   0.582   0.769  0.00  0.00    -0.077 A 
ATOM      3  C2  UNL d   1      -0.811   0.419   1.992  0.00  0.00    -0.001 A 
ATOM      4  C3  UNL d   1       0.578   0.291   2.032  0.00  0.00     0.003 A 
ATOM      5  C4  UNL d   1       1.318   0.326   0.852  0.00  0.00    -0.005 A 
ATOM      6  C5  UNL d   1       0.669   0.490  -0.370  0.00  0.00     0.003 A 
ATOM      7  C6  UNL d   1      -0.720   0.619  -0.412  0.00  0.00    -0.001 A 
ENDROOT
TORSDOF 0
ENDMDL
