MODEL 1
REMARK minimizedAffinity -3.37836385
REMARK minimizedRMSD -1
REMARK  0 active torsions:
REMARK  status: ('A' for Active; 'I' for Inactive)
ROOT
ATOM      1  C   UNL d   1       0.391  -0.066  -1.451  0.00  0.00     0.078 C 
ATOM      2  C1  UNL d   1       0.318   0.041   0.042  0.00  0.00    -0.077 A 
ATOM      3  C2  UNL d   1       1.451  -0.167   0.837  0.00  0.00    -0.001 A 
ATOM      4  C3  UNL d   1       1.366  -0.073   2.227  0.00  0.00     0.003 A 
ATOM      5  C4  UNL d   1       0.149   0.228   2.835  0.00  0.00    -0.005 A 
ATOM      6  C5  UNL d   1      -0.986   0.434   2.052  0.00  0.00     0.003 A 
ATOM      7  C6  UNL d   1      -0.902   0.341   0.662  0.00  0.00    -0.001 A 
ENDROOT
TORSDOF 0
ENDMDL
