MODEL 1
REMARK minimizedAffinity -5.41738701
REMARK minimizedRMSD -1
REMARK  0 active torsions:
REMARK  status: ('A' for Active; 'I' for Inactive)
ROOT
ATOM      1  C   UNL d   1      -1.842  -2.979   1.492  0.00  0.00     0.077 C 
ATOM      2  C1  UNL d   1      -1.501  -1.815   0.610  0.00  0.00    -0.074 A 
ATOM      3  C2  UNL d   1      -2.358  -1.421  -0.423  0.00  0.00    -0.005 A 
ATOM      4  C3  UNL d   1      -2.032  -0.331  -1.230  0.00  0.00     0.006 A 
ATOM      5  C4  UNL d   1      -0.848   0.375  -1.013  0.00  0.00    -0.005 A 
ATOM      6  C5  UNL d   1       0.020  -0.004   0.016  0.00  0.00    -0.074 A 
ATOM      7  C6  UNL d   1       1.292   0.750   0.269  0.00  0.00     0.077 C 
ATOM      8  C7  UNL d   1      -0.318  -1.096   0.827  0.00  0.00    -0.001 A 
ENDROOT
TORSDOF 0
ENDMDL
