MODEL 1
REMARK minimizedAffinity -3.24044633
REMARK minimizedRMSD -1
REMARK  0 active torsions:
REMARK  status: ('A' for Active; 'I' for Inactive)
ROOT
ATOM      1  C   UNL d   1      -4.229  -1.985  -0.426  0.00  0.00     0.077 C 
ATOM      2  C1  UNL d   1      -2.907  -1.840   0.267  0.00  0.00    -0.074 A 
ATOM      3  C2  UNL d   1      -2.477  -2.788   1.201  0.00  0.00    -0.005 A 
ATOM      4  C3  UNL d   1      -1.241  -2.645   1.831  0.00  0.00     0.006 A 
ATOM      5  C4  UNL d   1      -0.423  -1.554   1.533  0.00  0.00    -0.005 A 
ATOM      6  C5  UNL d   1      -0.835  -0.597   0.600  0.00  0.00    -0.074 A 
ATOM      7  C6  UNL d   1       0.036   0.576   0.261  0.00  0.00     0.077 C 
ATOM      8  C7  UNL d   1      -2.076  -0.752  -0.033  0.00  0.00    -0.001 A 
ENDROOT
TORSDOF 0
ENDMDL
