MODEL 1
REMARK minimizedAffinity -3.22767758
REMARK minimizedRMSD -1
REMARK  0 active torsions:
REMARK  status: ('A' for Active; 'I' for Inactive)
ROOT
ATOM      1  C   UNL d   1       2.178   1.090  -0.028  0.00  0.00     0.077 C 
ATOM      2  C1  UNL d   1       1.119   0.059   0.227  0.00  0.00    -0.074 A 
ATOM      3  C2  UNL d   1       1.275  -0.898   1.236  0.00  0.00    -0.005 A 
ATOM      4  C3  UNL d   1       0.278  -1.844   1.468  0.00  0.00     0.006 A 
ATOM      5  C4  UNL d   1      -0.884  -1.844   0.695  0.00  0.00    -0.005 A 
ATOM      6  C5  UNL d   1      -1.058  -0.896  -0.317  0.00  0.00    -0.074 A 
ATOM      7  C6  UNL d   1      -2.305  -0.876  -1.150  0.00  0.00     0.077 C 
ATOM      8  C7  UNL d   1      -0.054   0.057  -0.540  0.00  0.00    -0.001 A 
ENDROOT
TORSDOF 0
ENDMDL
