MODEL 1
REMARK minimizedAffinity -2.65519238
REMARK minimizedRMSD -1
REMARK  0 active torsions:
REMARK  status: ('A' for Active; 'I' for Inactive)
ROOT
ATOM      1  C   UNL d   1       2.893   1.357  -0.104  0.00  0.00     0.077 C 
ATOM      2  C1  UNL d   1       1.500   0.995   0.320  0.00  0.00    -0.074 A 
ATOM      3  C2  UNL d   1       0.495   1.965   0.386  0.00  0.00    -0.005 A 
ATOM      4  C3  UNL d   1      -0.798   1.612   0.773  0.00  0.00     0.006 A 
ATOM      5  C4  UNL d   1      -1.098   0.288   1.096  0.00  0.00    -0.005 A 
ATOM      6  C5  UNL d   1      -0.106  -0.695   1.034  0.00  0.00    -0.074 A 
ATOM      7  C6  UNL d   1      -0.413  -2.124   1.369  0.00  0.00     0.077 C 
ATOM      8  C7  UNL d   1       1.189  -0.334   0.639  0.00  0.00    -0.001 A 
ENDROOT
TORSDOF 0
ENDMDL
