MODEL 1
REMARK minimizedAffinity -5.04266739
REMARK minimizedRMSD -1
REMARK  0 active torsions:
REMARK  status: ('A' for Active; 'I' for Inactive)
ROOT
ATOM      1  C   UNL d   1      -0.234   0.636  -1.200  0.00  0.00     0.077 C 
ATOM      2  C1  UNL d   1      -1.125  -0.464  -0.704  0.00  0.00    -0.074 A 
ATOM      3  C2  UNL d   1      -2.338  -0.748  -1.339  0.00  0.00    -0.005 A 
ATOM      4  C3  UNL d   1      -3.152  -1.780  -0.873  0.00  0.00     0.006 A 
ATOM      5  C4  UNL d   1      -2.762  -2.537   0.233  0.00  0.00    -0.005 A 
ATOM      6  C5  UNL d   1      -1.553  -2.268   0.881  0.00  0.00    -0.074 A 
ATOM      7  C6  UNL d   1      -1.114  -3.078   2.064  0.00  0.00     0.077 C 
ATOM      8  C7  UNL d   1      -0.737  -1.234   0.401  0.00  0.00    -0.001 A 
ENDROOT
TORSDOF 0
ENDMDL
