MODEL 1
REMARK minimizedAffinity -3.95603728
REMARK minimizedRMSD -1
REMARK  0 active torsions:
REMARK  status: ('A' for Active; 'I' for Inactive)
ROOT
ATOM      1  C   UNL d   1      -3.417  -0.743   0.341  0.00  0.00     0.077 C 
ATOM      2  C1  UNL d   1      -2.102  -0.416  -0.301  0.00  0.00    -0.074 A 
ATOM      3  C2  UNL d   1      -2.014  -0.174  -1.676  0.00  0.00    -0.005 A 
ATOM      4  C3  UNL d   1      -0.786   0.139  -2.258  0.00  0.00     0.006 A 
ATOM      5  C4  UNL d   1       0.365   0.214  -1.472  0.00  0.00    -0.005 A 
ATOM      6  C5  UNL d   1       0.297  -0.024  -0.096  0.00  0.00    -0.074 A 
ATOM      7  C6  UNL d   1       1.522   0.061   0.764  0.00  0.00     0.077 C 
ATOM      8  C7  UNL d   1      -0.942  -0.331   0.482  0.00  0.00    -0.001 A 
ENDROOT
TORSDOF 0
ENDMDL
