MODEL 1
REMARK minimizedAffinity -3.38062716
REMARK minimizedRMSD -1
REMARK  0 active torsions:
REMARK  status: ('A' for Active; 'I' for Inactive)
ROOT
ATOM      1  C   UNL d   1      -2.876  -2.436  -0.277  0.00  0.00     0.077 C 
ATOM      2  C1  UNL d   1      -2.048  -1.228  -0.598  0.00  0.00    -0.074 A 
ATOM      3  C2  UNL d   1      -2.499  -0.269  -1.510  0.00  0.00    -0.005 A 
ATOM      4  C3  UNL d   1      -1.721   0.855  -1.791  0.00  0.00     0.006 A 
ATOM      5  C4  UNL d   1      -0.487   1.030  -1.163  0.00  0.00    -0.005 A 
ATOM      6  C5  UNL d   1      -0.020   0.082  -0.248  0.00  0.00    -0.074 A 
ATOM      7  C6  UNL d   1       1.299   0.260   0.443  0.00  0.00     0.077 C 
ATOM      8  C7  UNL d   1      -0.810  -1.041   0.034  0.00  0.00    -0.001 A 
ENDROOT
TORSDOF 0
ENDMDL
