MODEL 1
REMARK minimizedAffinity 1.88056505
REMARK minimizedRMSD -1
REMARK  0 active torsions:
REMARK  status: ('A' for Active; 'I' for Inactive)
ROOT
ATOM      1  C   UNL d   1      -1.288   0.750  -1.015  0.00  0.00     0.077 C 
ATOM      2  C1  UNL d   1       0.040   0.784  -0.319  0.00  0.00    -0.074 A 
ATOM      3  C2  UNL d   1       0.644  -0.393   0.134  0.00  0.00    -0.005 A 
ATOM      4  C3  UNL d   1       1.884  -0.347   0.771  0.00  0.00     0.006 A 
ATOM      5  C4  UNL d   1       2.531   0.874   0.962  0.00  0.00    -0.005 A 
ATOM      6  C5  UNL d   1       1.943   2.062   0.515  0.00  0.00    -0.074 A 
ATOM      7  C6  UNL d   1       2.629   3.382   0.703  0.00  0.00     0.077 C 
ATOM      8  C7  UNL d   1       0.700   2.006  -0.131  0.00  0.00    -0.001 A 
ENDROOT
TORSDOF 0
ENDMDL
