MODEL 1
REMARK minimizedAffinity -2.26299071
REMARK minimizedRMSD -1
REMARK  0 active torsions:
REMARK  status: ('A' for Active; 'I' for Inactive)
ROOT
ATOM      1  C   UNL d   1      -3.693  -1.112  -0.081  0.00  0.00     0.077 C 
ATOM      2  C1  UNL d   1      -2.376  -0.549  -0.526  0.00  0.00    -0.074 A 
ATOM      3  C2  UNL d   1      -2.104  -0.345  -1.883  0.00  0.00    -0.005 A 
ATOM      4  C3  UNL d   1      -0.878   0.189  -2.281  0.00  0.00     0.006 A 
ATOM      5  C4  UNL d   1       0.085   0.524  -1.329  0.00  0.00    -0.005 A 
ATOM      6  C5  UNL d   1      -0.170   0.328   0.032  0.00  0.00    -0.074 A 
ATOM      7  C6  UNL d   1       0.851   0.692   1.069  0.00  0.00     0.077 C 
ATOM      8  C7  UNL d   1      -1.406  -0.202   0.425  0.00  0.00    -0.001 A 
ENDROOT
TORSDOF 0
ENDMDL
