MODEL 1
REMARK minimizedAffinity -3.0518074
REMARK minimizedRMSD -1
REMARK  0 active torsions:
REMARK  status: ('A' for Active; 'I' for Inactive)
ROOT
ATOM      1  C   UNL d   1      -3.199  -0.379   0.307  0.00  0.00     0.077 C 
ATOM      2  C1  UNL d   1      -1.776  -0.089  -0.069  0.00  0.00    -0.074 A 
ATOM      3  C2  UNL d   1      -1.452   0.388  -1.343  0.00  0.00    -0.005 A 
ATOM      4  C3  UNL d   1      -0.126   0.664  -1.675  0.00  0.00     0.006 A 
ATOM      5  C4  UNL d   1       0.889   0.465  -0.738  0.00  0.00    -0.005 A 
ATOM      6  C5  UNL d   1       0.584  -0.011   0.541  0.00  0.00    -0.074 A 
ATOM      7  C6  UNL d   1       1.661  -0.220   1.564  0.00  0.00     0.077 C 
ATOM      8  C7  UNL d   1      -0.752  -0.278   0.870  0.00  0.00    -0.001 A 
ENDROOT
TORSDOF 0
ENDMDL
