MODEL 1
REMARK minimizedAffinity -1.73855448
REMARK minimizedRMSD -1
REMARK  0 active torsions:
REMARK  status: ('A' for Active; 'I' for Inactive)
ROOT
ATOM      1  C   UNL d   1      -3.010  -0.974   0.522  0.00  0.00     0.077 C 
ATOM      2  C1  UNL d   1      -1.681  -0.480   0.034  0.00  0.00    -0.074 A 
ATOM      3  C2  UNL d   1      -1.329  -0.579  -1.316  0.00  0.00    -0.005 A 
ATOM      4  C3  UNL d   1      -0.093  -0.106  -1.756  0.00  0.00     0.006 A 
ATOM      5  C4  UNL d   1       0.802   0.470  -0.853  0.00  0.00    -0.005 A 
ATOM      6  C5  UNL d   1       0.467   0.579   0.500  0.00  0.00    -0.074 A 
ATOM      7  C6  UNL d   1       1.412   1.204   1.482  0.00  0.00     0.077 C 
ATOM      8  C7  UNL d   1      -0.780   0.107   0.934  0.00  0.00    -0.001 A 
ENDROOT
TORSDOF 0
ENDMDL
