MODEL 1
REMARK minimizedAffinity -4.81090641
REMARK minimizedRMSD -1
REMARK  0 active torsions:
REMARK  status: ('A' for Active; 'I' for Inactive)
ROOT
ATOM      1  C   UNL d   1      -3.001  -0.715  -0.222  0.00  0.00     0.077 C 
ATOM      2  C1  UNL d   1      -1.615  -0.894   0.323  0.00  0.00    -0.074 A 
ATOM      3  C2  UNL d   1      -1.357  -1.817   1.341  0.00  0.00    -0.005 A 
ATOM      4  C3  UNL d   1      -0.061  -1.980   1.831  0.00  0.00     0.006 A 
ATOM      5  C4  UNL d   1       0.988  -1.222   1.308  0.00  0.00    -0.005 A 
ATOM      6  C5  UNL d   1       0.749  -0.295   0.289  0.00  0.00    -0.074 A 
ATOM      7  C6  UNL d   1       1.866   0.521  -0.291  0.00  0.00     0.077 C 
ATOM      8  C7  UNL d   1      -0.555  -0.143  -0.203  0.00  0.00    -0.001 A 
ENDROOT
TORSDOF 0
ENDMDL
