MODEL 1
REMARK minimizedAffinity -3.96168923
REMARK minimizedRMSD -1
REMARK  0 active torsions:
REMARK  status: ('A' for Active; 'I' for Inactive)
ROOT
ATOM      1  C   UNL d   1       1.533  -0.190   0.586  0.00  0.00     0.077 C 
ATOM      2  C1  UNL d   1       0.284  -0.014  -0.226  0.00  0.00    -0.074 A 
ATOM      3  C2  UNL d   1       0.265   0.828  -1.343  0.00  0.00    -0.005 A 
ATOM      4  C3  UNL d   1      -0.901   0.974  -2.094  0.00  0.00     0.006 A 
ATOM      5  C4  UNL d   1      -2.058   0.280  -1.737  0.00  0.00    -0.005 A 
ATOM      6  C5  UNL d   1      -2.058  -0.567  -0.625  0.00  0.00    -0.074 A 
ATOM      7  C6  UNL d   1      -3.290  -1.328  -0.234  0.00  0.00     0.077 C 
ATOM      8  C7  UNL d   1      -0.880  -0.714   0.121  0.00  0.00    -0.001 A 
ENDROOT
TORSDOF 0
ENDMDL
