MODEL 1
REMARK minimizedAffinity -5.36378336
REMARK minimizedRMSD -1
REMARK  0 active torsions:
REMARK  status: ('A' for Active; 'I' for Inactive)
ROOT
ATOM      1  C   UNL d   1      -3.402  -1.549   0.375  0.00  0.00     0.077 C 
ATOM      2  C1  UNL d   1      -2.113  -0.856   0.049  0.00  0.00    -0.074 A 
ATOM      3  C2  UNL d   1      -1.084  -0.770   0.993  0.00  0.00    -0.005 A 
ATOM      4  C3  UNL d   1       0.113  -0.130   0.673  0.00  0.00     0.006 A 
ATOM      5  C4  UNL d   1       0.294   0.429  -0.593  0.00  0.00    -0.005 A 
ATOM      6  C5  UNL d   1      -0.723   0.352  -1.550  0.00  0.00    -0.074 A 
ATOM      7  C6  UNL d   1      -0.541   0.940  -2.918  0.00  0.00     0.077 C 
ATOM      8  C7  UNL d   1      -1.920  -0.298  -1.223  0.00  0.00    -0.001 A 
ENDROOT
TORSDOF 0
ENDMDL
