MODEL 1
REMARK minimizedAffinity 7.82877493
REMARK minimizedRMSD -1
REMARK  0 active torsions:
REMARK  status: ('A' for Active; 'I' for Inactive)
ROOT
ATOM      1  N1  IND d   1       4.521   6.000   1.881  0.00  0.00    -0.196 N 
ATOM      2  C2  IND d   1       4.204   5.650   0.598  0.00  0.00     0.054 A 
ATOM      3  C3  IND d   1       4.295   4.310   0.440  0.00  0.00    -0.031 A 
ATOM      4  C4  IND d   1       4.845   2.492   2.177  0.00  0.00     0.051 A 
ATOM      5  C5  IND d   1       5.240   2.326   3.475  0.00  0.00    -0.031 A 
ATOM      6  C6  IND d   1       5.416   3.398   4.326  0.00  0.00     0.015 A 
ATOM      7  C7  IND d   1       5.192   4.681   3.912  0.00  0.00    -0.016 A 
ATOM      8  C8  IND d   1       4.798   4.853   2.593  0.00  0.00    -0.047 A 
ATOM      9  C9  IND d   1       4.659   3.772   1.712  0.00  0.00    -0.096 A 
ATOM     10  HN1 IND d   1       4.543   6.802   2.192  0.00  0.00     0.298 HD
ENDROOT
TORSDOF 0
ENDMDL
