MODEL 1
REMARK minimizedAffinity 22.918663
REMARK minimizedRMSD -1
REMARK  0 active torsions:
REMARK  status: ('A' for Active; 'I' for Inactive)
ROOT
ATOM      1  N1  IND d   1      -0.942   3.291   4.825  0.00  0.00    -0.196 N 
ATOM      2  C2  IND d   1      -0.239   3.316   5.997  0.00  0.00     0.054 A 
ATOM      3  C3  IND d   1       0.707   2.350   5.999  0.00  0.00    -0.031 A 
ATOM      4  C4  IND d   1       1.346   0.683   4.144  0.00  0.00     0.051 A 
ATOM      5  C5  IND d   1       0.964   0.253   2.904  0.00  0.00    -0.031 A 
ATOM      6  C6  IND d   1      -0.092   0.828   2.226  0.00  0.00     0.015 A 
ATOM      7  C7  IND d   1      -0.801   1.865   2.760  0.00  0.00    -0.016 A 
ATOM      8  C8  IND d   1      -0.421   2.300   4.022  0.00  0.00    -0.047 A 
ATOM      9  C9  IND d   1       0.622   1.693   4.733  0.00  0.00    -0.096 A 
ATOM     10  HN1 IND d   1      -1.598   3.808   4.622  0.00  0.00     0.298 HD
ENDROOT
TORSDOF 0
ENDMDL
