MODEL 1
REMARK minimizedAffinity 9.07806969
REMARK minimizedRMSD -1
REMARK  0 active torsions:
REMARK  status: ('A' for Active; 'I' for Inactive)
ROOT
ATOM      1  N1  IND d   1       0.544  -3.063   3.910  0.00  0.00    -0.196 N 
ATOM      2  C2  IND d   1       1.156  -3.045   5.133  0.00  0.00     0.054 A 
ATOM      3  C3  IND d   1       1.454  -1.776   5.490  0.00  0.00    -0.031 A 
ATOM      4  C4  IND d   1       0.939   0.431   4.270  0.00  0.00     0.051 A 
ATOM      5  C5  IND d   1       0.428   0.922   3.101  0.00  0.00    -0.031 A 
ATOM      6  C6  IND d   1      -0.084   0.093   2.124  0.00  0.00     0.015 A 
ATOM      7  C7  IND d   1      -0.114  -1.263   2.285  0.00  0.00    -0.016 A 
ATOM      8  C8  IND d   1       0.411  -1.766   3.467  0.00  0.00    -0.047 A 
ATOM      9  C9  IND d   1       0.971  -0.932   4.444  0.00  0.00    -0.096 A 
ATOM     10  HN1 IND d   1       0.286  -3.767   3.489  0.00  0.00     0.298 HD
ENDROOT
TORSDOF 0
ENDMDL
