MODEL 1
REMARK minimizedAffinity 22.5773582
REMARK minimizedRMSD -1
REMARK  0 active torsions:
REMARK  status: ('A' for Active; 'I' for Inactive)
ROOT
ATOM      1  N1  IND d   1       3.936   0.362   1.118  0.00  0.00    -0.196 N 
ATOM      2  C2  IND d   1       5.276   0.346   0.848  0.00  0.00     0.054 A 
ATOM      3  C3  IND d   1       5.987   0.496   1.988  0.00  0.00    -0.031 A 
ATOM      4  C4  IND d   1       5.160   0.686   4.418  0.00  0.00     0.051 A 
ATOM      5  C5  IND d   1       4.019   0.787   5.163  0.00  0.00    -0.031 A 
ATOM      6  C6  IND d   1       2.766   0.748   4.586  0.00  0.00     0.015 A 
ATOM      7  C7  IND d   1       2.607   0.594   3.238  0.00  0.00    -0.016 A 
ATOM      8  C8  IND d   1       3.764   0.499   2.478  0.00  0.00    -0.047 A 
ATOM      9  C9  IND d   1       5.039   0.580   3.053  0.00  0.00    -0.096 A 
ATOM     10  HN1 IND d   1       3.306   0.299   0.536  0.00  0.00     0.298 HD
ENDROOT
TORSDOF 0
ENDMDL
