MODEL 1
REMARK minimizedAffinity 11.4457283
REMARK minimizedRMSD -1
REMARK  0 active torsions:
REMARK  status: ('A' for Active; 'I' for Inactive)
ROOT
ATOM      1  N1  IND d   1       1.721   0.759   1.755  0.00  0.00    -0.196 N 
ATOM      2  C2  IND d   1       0.552   0.331   2.318  0.00  0.00     0.054 A 
ATOM      3  C3  IND d   1       0.718   0.121   3.644  0.00  0.00    -0.031 A 
ATOM      4  C4  IND d   1       2.794   0.515   5.114  0.00  0.00     0.051 A 
ATOM      5  C5  IND d   1       4.113   0.866   5.044  0.00  0.00    -0.031 A 
ATOM      6  C6  IND d   1       4.713   1.210   3.851  0.00  0.00     0.015 A 
ATOM      7  C7  IND d   1       4.011   1.225   2.679  0.00  0.00    -0.016 A 
ATOM      8  C8  IND d   1       2.674   0.862   2.745  0.00  0.00    -0.047 A 
ATOM      9  C9  IND d   1       2.069   0.472   3.947  0.00  0.00    -0.096 A 
ATOM     10  HN1 IND d   1       1.842   0.935   0.922  0.00  0.00     0.298 HD
ENDROOT
TORSDOF 0
ENDMDL
