MODEL 1
REMARK minimizedAffinity 21.8008003
REMARK minimizedRMSD -1
REMARK  0 active torsions:
REMARK  status: ('A' for Active; 'I' for Inactive)
ROOT
ATOM      1  N1  IND d   1      -4.829   2.519   0.070  0.00  0.00    -0.196 N 
ATOM      2  C2  IND d   1      -5.382   1.952  -1.044  0.00  0.00     0.054 A 
ATOM      3  C3  IND d   1      -5.001   0.659  -1.152  0.00  0.00    -0.031 A 
ATOM      4  C4  IND d   1      -3.560  -0.760   0.441  0.00  0.00     0.051 A 
ATOM      5  C5  IND d   1      -2.800  -0.671   1.573  0.00  0.00    -0.031 A 
ATOM      6  C6  IND d   1      -2.678   0.509   2.279  0.00  0.00     0.015 A 
ATOM      7  C7  IND d   1      -3.323   1.646   1.882  0.00  0.00    -0.016 A 
ATOM      8  C8  IND d   1      -4.089   1.561   0.728  0.00  0.00    -0.047 A 
ATOM      9  C9  IND d   1      -4.183   0.378  -0.015  0.00  0.00    -0.096 A 
ATOM     10  HN1 IND d   1      -4.928   3.336   0.318  0.00  0.00     0.298 HD
ENDROOT
TORSDOF 0
ENDMDL
