MODEL 1
REMARK minimizedAffinity 15.7030001
REMARK minimizedRMSD -1
REMARK  0 active torsions:
REMARK  status: ('A' for Active; 'I' for Inactive)
ROOT
ATOM      1  N1  IND d   1      -5.185   0.411  -1.826  0.00  0.00    -0.196 N 
ATOM      2  C2  IND d   1      -5.590   1.711  -1.702  0.00  0.00     0.054 A 
ATOM      3  C3  IND d   1      -5.094   2.252  -0.566  0.00  0.00    -0.031 A 
ATOM      4  C4  IND d   1      -3.513   1.218   1.183  0.00  0.00     0.051 A 
ATOM      5  C5  IND d   1      -2.899   0.045   1.520  0.00  0.00    -0.031 A 
ATOM      6  C6  IND d   1      -3.016  -1.089   0.742  0.00  0.00     0.015 A 
ATOM      7  C7  IND d   1      -3.745  -1.088  -0.414  0.00  0.00    -0.016 A 
ATOM      8  C8  IND d   1      -4.376   0.100  -0.755  0.00  0.00    -0.047 A 
ATOM      9  C9  IND d   1      -4.296   1.242   0.053  0.00  0.00    -0.096 A 
ATOM     10  HN1 IND d   1      -5.399  -0.122  -2.465  0.00  0.00     0.298 HD
ENDROOT
TORSDOF 0
ENDMDL
