MODEL 1
REMARK minimizedAffinity 9.97550297
REMARK minimizedRMSD -1
REMARK  0 active torsions:
REMARK  status: ('A' for Active; 'I' for Inactive)
ROOT
ATOM      1  N1  IND d   1       6.000   3.795  -4.021  0.00  0.00    -0.196 N 
ATOM      2  C2  IND d   1       5.666   4.623  -5.057  0.00  0.00     0.054 A 
ATOM      3  C3  IND d   1       4.967   3.946  -5.995  0.00  0.00    -0.031 A 
ATOM      4  C4  IND d   1       4.170   1.498  -5.990  0.00  0.00     0.051 A 
ATOM      5  C5  IND d   1       4.262   0.337  -5.276  0.00  0.00    -0.031 A 
ATOM      6  C6  IND d   1       4.949   0.268  -4.081  0.00  0.00     0.015 A 
ATOM      7  C7  IND d   1       5.564   1.366  -3.549  0.00  0.00    -0.016 A 
ATOM      8  C8  IND d   1       5.478   2.545  -4.275  0.00  0.00    -0.047 A 
ATOM      9  C9  IND d   1       4.818   2.611  -5.509  0.00  0.00    -0.096 A 
ATOM     10  HN1 IND d   1       6.458   4.017  -3.329  0.00  0.00     0.298 HD
ENDROOT
TORSDOF 0
ENDMDL
