MODEL 1
REMARK minimizedAffinity -2.94039989
REMARK minimizedRMSD -1
REMARK  0 active torsions:
REMARK  status: ('A' for Active; 'I' for Inactive)
ROOT
ATOM      1  C   UNL d   1       1.816   0.134  -2.609  0.00  0.00    -0.002 A 
ATOM      2  C1  UNL d   1       1.975   1.126  -3.566  0.00  0.00     0.010 A 
ATOM      3  C2  UNL d   1       1.045   1.275  -4.597  0.00  0.00     0.041 A 
ATOM      4  C3  UNL d   1      -0.059   0.402  -4.649  0.00  0.00    -0.075 A 
ATOM      5  S   UNL d   1      -1.325   0.397  -5.820  0.00  0.00     0.015 SA
ATOM      6  C4  UNL d   1      -2.108  -0.922  -5.076  0.00  0.00     0.022 A 
ATOM      7  C5  UNL d   1      -1.434  -1.360  -3.961  0.00  0.00     0.026 A 
ATOM      8  C6  UNL d   1      -0.242  -0.604  -3.697  0.00  0.00    -0.082 A 
ATOM      9  C7  UNL d   1       0.719  -0.730  -2.664  0.00  0.00     0.045 A 
ENDROOT
TORSDOF 0
ENDMDL
