MODEL 1
REMARK minimizedAffinity -1.134938
REMARK minimizedRMSD -1
REMARK  0 active torsions:
REMARK  status: ('A' for Active; 'I' for Inactive)
ROOT
ATOM      1  C   UNL d   1      -1.976   0.302   1.804  0.00  0.00    -0.002 A 
ATOM      2  C1  UNL d   1      -0.847   0.868   2.379  0.00  0.00     0.010 A 
ATOM      3  C2  UNL d   1       0.349   0.951   1.663  0.00  0.00     0.041 A 
ATOM      4  C3  UNL d   1       0.391   0.452   0.346  0.00  0.00    -0.075 A 
ATOM      5  S   UNL d   1       1.745   0.447  -0.721  0.00  0.00     0.015 SA
ATOM      6  C4  UNL d   1       0.857  -0.305  -1.965  0.00  0.00     0.022 A 
ATOM      7  C5  UNL d   1      -0.443  -0.554  -1.593  0.00  0.00     0.026 A 
ATOM      8  C6  UNL d   1      -0.733  -0.121  -0.255  0.00  0.00    -0.082 A 
ATOM      9  C7  UNL d   1      -1.931  -0.191   0.497  0.00  0.00     0.045 A 
ENDROOT
TORSDOF 0
ENDMDL
