MODEL 1
REMARK minimizedAffinity -2.12327242
REMARK minimizedRMSD -1
REMARK  0 active torsions:
REMARK  status: ('A' for Active; 'I' for Inactive)
ROOT
ATOM      1  C   UNL d   1      -0.709   1.184   3.160  0.00  0.00    -0.002 A 
ATOM      2  C1  UNL d   1      -1.772   0.439   2.669  0.00  0.00     0.010 A 
ATOM      3  C2  UNL d   1      -1.725  -0.103   1.383  0.00  0.00     0.041 A 
ATOM      4  C3  UNL d   1      -0.581   0.116   0.592  0.00  0.00    -0.075 A 
ATOM      5  S   UNL d   1      -0.301  -0.451  -1.012  0.00  0.00     0.015 SA
ATOM      6  C4  UNL d   1       1.236   0.281  -1.083  0.00  0.00     0.022 A 
ATOM      7  C5  UNL d   1       1.545   0.946   0.080  0.00  0.00     0.026 A 
ATOM      8  C6  UNL d   1       0.503   0.862   1.064  0.00  0.00    -0.082 A 
ATOM      9  C7  UNL d   1       0.425   1.399   2.372  0.00  0.00     0.045 A 
ENDROOT
TORSDOF 0
ENDMDL
