MODEL 1
REMARK minimizedAffinity -2.31351256
REMARK minimizedRMSD -1
REMARK  0 active torsions:
REMARK  status: ('A' for Active; 'I' for Inactive)
ROOT
ATOM      1  C   UNL d   1      -2.083   1.056   2.593  0.00  0.00    -0.002 A 
ATOM      2  C1  UNL d   1      -0.904   1.147   3.318  0.00  0.00     0.010 A 
ATOM      3  C2  UNL d   1       0.303   0.709   2.770  0.00  0.00     0.041 A 
ATOM      4  C3  UNL d   1       0.306   0.175   1.466  0.00  0.00    -0.075 A 
ATOM      5  S   UNL d   1       1.665  -0.423   0.590  0.00  0.00     0.015 SA
ATOM      6  C4  UNL d   1       0.712  -0.812  -0.769  0.00  0.00     0.022 A 
ATOM      7  C5  UNL d   1      -0.613  -0.500  -0.576  0.00  0.00     0.026 A 
ATOM      8  C6  UNL d   1      -0.869   0.074   0.715  0.00  0.00    -0.082 A 
ATOM      9  C7  UNL d   1      -2.077   0.525   1.300  0.00  0.00     0.045 A 
ENDROOT
TORSDOF 0
ENDMDL
