MODEL 1
REMARK minimizedAffinity -3.78280044
REMARK minimizedRMSD -1
REMARK  0 active torsions:
REMARK  status: ('A' for Active; 'I' for Inactive)
ROOT
ATOM      1  C   UNL d   1      -0.129   1.520   3.292  0.00  0.00    -0.002 A 
ATOM      2  C1  UNL d   1       0.761   0.534   3.694  0.00  0.00     0.010 A 
ATOM      3  C2  UNL d   1       1.298  -0.360   2.765  0.00  0.00     0.041 A 
ATOM      4  C3  UNL d   1       0.923  -0.243   1.412  0.00  0.00    -0.075 A 
ATOM      5  S   UNL d   1       1.453  -1.225   0.098  0.00  0.00     0.015 SA
ATOM      6  C4  UNL d   1       0.512  -0.359  -1.027  0.00  0.00     0.022 A 
ATOM      7  C5  UNL d   1      -0.196   0.658  -0.433  0.00  0.00     0.026 A 
ATOM      8  C6  UNL d   1       0.029   0.742   0.983  0.00  0.00    -0.082 A 
ATOM      9  C7  UNL d   1      -0.498   1.633   1.949  0.00  0.00     0.045 A 
ENDROOT
TORSDOF 0
ENDMDL
