MODEL 1
REMARK minimizedAffinity -3.69843197
REMARK minimizedRMSD -1
REMARK  0 active torsions:
REMARK  status: ('A' for Active; 'I' for Inactive)
ROOT
ATOM      1  C   UNL d   1       0.239  -0.732   0.846  0.00  0.00    -0.002 A 
ATOM      2  C1  UNL d   1      -0.161   0.596   0.866  0.00  0.00     0.010 A 
ATOM      3  C2  UNL d   1      -0.288   1.318  -0.323  0.00  0.00     0.041 A 
ATOM      4  C3  UNL d   1      -0.005   0.675  -1.544  0.00  0.00    -0.075 A 
ATOM      5  S   UNL d   1      -0.093   1.359  -3.124  0.00  0.00     0.015 SA
ATOM      6  C4  UNL d   1       0.398  -0.096  -3.863  0.00  0.00     0.022 A 
ATOM      7  C5  UNL d   1       0.628  -1.090  -2.941  0.00  0.00     0.026 A 
ATOM      8  C6  UNL d   1       0.399  -0.663  -1.590  0.00  0.00    -0.082 A 
ATOM      9  C7  UNL d   1       0.519  -1.367  -0.368  0.00  0.00     0.045 A 
ENDROOT
TORSDOF 0
ENDMDL
