MODEL 1
REMARK minimizedAffinity 0.531634808
REMARK minimizedRMSD -1
REMARK  0 active torsions:
REMARK  status: ('A' for Active; 'I' for Inactive)
ROOT
ATOM      1  C   UNL d   1       1.057  -0.175  -3.855  0.00  0.00    -0.002 A 
ATOM      2  C1  UNL d   1      -0.302  -0.400  -4.020  0.00  0.00     0.010 A 
ATOM      3  C2  UNL d   1      -1.147  -0.485  -2.911  0.00  0.00     0.041 A 
ATOM      4  C3  UNL d   1      -0.597  -0.337  -1.622  0.00  0.00    -0.075 A 
ATOM      5  S   UNL d   1      -1.440  -0.402  -0.120  0.00  0.00     0.015 SA
ATOM      6  C4  UNL d   1      -0.015  -0.132   0.776  0.00  0.00     0.022 A 
ATOM      7  C5  UNL d   1       1.086   0.006  -0.036  0.00  0.00     0.026 A 
ATOM      8  C6  UNL d   1       0.768  -0.109  -1.432  0.00  0.00    -0.082 A 
ATOM      9  C7  UNL d   1       1.599  -0.029  -2.575  0.00  0.00     0.045 A 
ENDROOT
TORSDOF 0
ENDMDL
