MODEL 1
REMARK minimizedAffinity -4.61175632
REMARK minimizedRMSD -1
REMARK  0 active torsions:
REMARK  status: ('A' for Active; 'I' for Inactive)
ROOT
ATOM      1  C   UNL d   1       1.969  -1.617   0.378  0.00  0.00    -0.002 A 
ATOM      2  C1  UNL d   1       2.491  -0.931   1.466  0.00  0.00     0.010 A 
ATOM      3  C2  UNL d   1       1.695  -0.045   2.194  0.00  0.00     0.041 A 
ATOM      4  C3  UNL d   1       0.352   0.140   1.809  0.00  0.00    -0.075 A 
ATOM      5  S   UNL d   1      -0.810   1.174   2.553  0.00  0.00     0.015 SA
ATOM      6  C4  UNL d   1      -2.026   0.728   1.445  0.00  0.00     0.022 A 
ATOM      7  C5  UNL d   1      -1.573  -0.185   0.522  0.00  0.00     0.026 A 
ATOM      8  C6  UNL d   1      -0.195  -0.540   0.717  0.00  0.00    -0.082 A 
ATOM      9  C7  UNL d   1       0.638  -1.430  -0.002  0.00  0.00     0.045 A 
ENDROOT
TORSDOF 0
ENDMDL
