MODEL 1
REMARK minimizedAffinity -0.734058022
REMARK minimizedRMSD -1
REMARK  0 active torsions:
REMARK  status: ('A' for Active; 'I' for Inactive)
ROOT
ATOM      1  C   UNL d   1      -1.712   0.227   1.767  0.00  0.00    -0.002 A 
ATOM      2  C1  UNL d   1      -1.187   1.440   2.192  0.00  0.00     0.010 A 
ATOM      3  C2  UNL d   1       0.194   1.639   2.240  0.00  0.00     0.041 A 
ATOM      4  C3  UNL d   1       1.047   0.589   1.847  0.00  0.00    -0.075 A 
ATOM      5  S   UNL d   1       2.771   0.605   1.822  0.00  0.00     0.015 SA
ATOM      6  C4  UNL d   1       2.852  -0.997   1.246  0.00  0.00     0.022 A 
ATOM      7  C5  UNL d   1       1.604  -1.546   1.072  0.00  0.00     0.026 A 
ATOM      8  C6  UNL d   1       0.543  -0.641   1.415  0.00  0.00    -0.082 A 
ATOM      9  C7  UNL d   1      -0.862  -0.812   1.379  0.00  0.00     0.045 A 
ENDROOT
TORSDOF 0
ENDMDL
