MODEL 1
REMARK minimizedAffinity 4.96670628
REMARK minimizedRMSD -1
REMARK  0 active torsions:
REMARK  status: ('A' for Active; 'I' for Inactive)
ROOT
ATOM      1  N1  IND d   1      -1.254   1.272  -0.909  0.00  0.00    -0.196 N 
ATOM      2  C2  IND d   1      -1.375   0.627  -2.108  0.00  0.00     0.054 A 
ATOM      3  C3  IND d   1      -0.730  -0.561  -2.070  0.00  0.00    -0.031 A 
ATOM      4  C4  IND d   1       0.502  -1.691  -0.112  0.00  0.00     0.051 A 
ATOM      5  C5  IND d   1       0.909  -1.473   1.174  0.00  0.00    -0.031 A 
ATOM      6  C6  IND d   1       0.608  -0.306   1.846  0.00  0.00     0.015 A 
ATOM      7  C7  IND d   1      -0.125   0.686   1.258  0.00  0.00    -0.016 A 
ATOM      8  C8  IND d   1      -0.534   0.471  -0.050  0.00  0.00    -0.047 A 
ATOM      9  C9  IND d   1      -0.195  -0.693  -0.752  0.00  0.00    -0.096 A 
ATOM     10  HN1 IND d   1      -1.573   2.049  -0.723  0.00  0.00     0.298 HD
ENDROOT
TORSDOF 0
ENDMDL
