MODEL 1
REMARK minimizedAffinity -3.99710226
REMARK minimizedRMSD -1
REMARK  0 active torsions:
REMARK  status: ('A' for Active; 'I' for Inactive)
ROOT
ATOM      1  N1  IND d   1      -5.644   0.062   3.185  0.00  0.00    -0.196 N 
ATOM      2  C2  IND d   1      -5.865  -0.396   1.917  0.00  0.00     0.054 A 
ATOM      3  C3  IND d   1      -6.000  -1.742   1.920  0.00  0.00    -0.031 A 
ATOM      4  C4  IND d   1      -5.995  -3.382   3.904  0.00  0.00     0.051 A 
ATOM      5  C5  IND d   1      -5.792  -3.438   5.254  0.00  0.00    -0.031 A 
ATOM      6  C6  IND d   1      -5.527  -2.307   6.000  0.00  0.00     0.015 A 
ATOM      7  C7  IND d   1      -5.466  -1.071   5.421  0.00  0.00    -0.016 A 
ATOM      8  C8  IND d   1      -5.664  -1.011   4.049  0.00  0.00    -0.047 A 
ATOM      9  C9  IND d   1      -5.891  -2.160   3.281  0.00  0.00    -0.096 A 
ATOM     10  HN1 IND d   1      -5.515   0.883   3.407  0.00  0.00     0.298 HD
ENDROOT
TORSDOF 0
ENDMDL
