MODEL 1
REMARK minimizedAffinity -3.1587882
REMARK minimizedRMSD -1
REMARK  0 active torsions:
REMARK  status: ('A' for Active; 'I' for Inactive)
ROOT
ATOM      1  N1  IND d   1       1.382   0.458  -1.280  0.00  0.00    -0.196 N 
ATOM      2  C2  IND d   1       0.750   1.586  -1.722  0.00  0.00     0.054 A 
ATOM      3  C3  IND d   1       0.028   2.143  -0.724  0.00  0.00    -0.031 A 
ATOM      4  C4  IND d   1      -0.177   1.429   1.741  0.00  0.00     0.051 A 
ATOM      5  C5  IND d   1       0.188   0.440   2.610  0.00  0.00    -0.031 A 
ATOM      6  C6  IND d   1       0.989  -0.614   2.219  0.00  0.00     0.015 A 
ATOM      7  C7  IND d   1       1.465  -0.712   0.943  0.00  0.00    -0.016 A 
ATOM      8  C8  IND d   1       1.090   0.287   0.056  0.00  0.00    -0.047 A 
ATOM      9  C9  IND d   1       0.244   1.336   0.435  0.00  0.00    -0.096 A 
ATOM     10  HN1 IND d   1       1.879  -0.059  -1.755  0.00  0.00     0.298 HD
ENDROOT
TORSDOF 0
ENDMDL
