MODEL 1
REMARK minimizedAffinity 8.20147133
REMARK minimizedRMSD -1
REMARK  0 active torsions:
REMARK  status: ('A' for Active; 'I' for Inactive)
ROOT
ATOM      1  N1  IND d   1       0.420   2.677   2.323  0.00  0.00    -0.196 N 
ATOM      2  C2  IND d   1       1.406   2.985   3.218  0.00  0.00     0.054 A 
ATOM      3  C3  IND d   1       2.180   1.902   3.456  0.00  0.00    -0.031 A 
ATOM      4  C4  IND d   1       2.072  -0.447   2.409  0.00  0.00     0.051 A 
ATOM      5  C5  IND d   1       1.320  -1.218   1.567  0.00  0.00    -0.031 A 
ATOM      6  C6  IND d   1       0.209  -0.719   0.919  0.00  0.00     0.015 A 
ATOM      7  C7  IND d   1      -0.187   0.579   1.080  0.00  0.00    -0.016 A 
ATOM      8  C8  IND d   1       0.570   1.362   1.940  0.00  0.00    -0.047 A 
ATOM      9  C9  IND d   1       1.674   0.850   2.633  0.00  0.00    -0.096 A 
ATOM     10  HN1 IND d   1      -0.191   3.215   2.045  0.00  0.00     0.298 HD
ENDROOT
TORSDOF 0
ENDMDL
