MODEL 1
REMARK minimizedAffinity 1.76071978
REMARK minimizedRMSD -1
REMARK  0 active torsions:
REMARK  status: ('A' for Active; 'I' for Inactive)
ROOT
ATOM      1  N1  IND d   1      -0.393   1.542   0.380  0.00  0.00    -0.196 N 
ATOM      2  C2  IND d   1      -0.302   0.203   0.118  0.00  0.00     0.054 A 
ATOM      3  C3  IND d   1       0.627  -0.370   0.916  0.00  0.00    -0.031 A 
ATOM      4  C4  IND d   1       2.043   0.679   2.792  0.00  0.00     0.051 A 
ATOM      5  C5  IND d   1       2.337   1.879   3.377  0.00  0.00    -0.031 A 
ATOM      6  C6  IND d   1       1.721   3.051   2.987  0.00  0.00     0.015 A 
ATOM      7  C7  IND d   1       0.776   3.065   2.001  0.00  0.00    -0.016 A 
ATOM      8  C8  IND d   1       0.481   1.850   1.399  0.00  0.00    -0.047 A 
ATOM      9  C9  IND d   1       1.133   0.664   1.762  0.00  0.00    -0.096 A 
ATOM     10  HN1 IND d   1      -0.909   2.098  -0.025  0.00  0.00     0.298 HD
ENDROOT
TORSDOF 0
ENDMDL
