MODEL 1
REMARK minimizedAffinity 0.98133558
REMARK minimizedRMSD -1
REMARK  0 active torsions:
REMARK  status: ('A' for Active; 'I' for Inactive)
ROOT
ATOM      1  N1  IND d   1       0.421  -0.344   0.926  0.00  0.00    -0.196 N 
ATOM      2  C2  IND d   1       0.652  -0.633   2.242  0.00  0.00     0.054 A 
ATOM      3  C3  IND d   1       0.933   0.496   2.930  0.00  0.00    -0.031 A 
ATOM      4  C4  IND d   1       0.971   2.939   2.118  0.00  0.00     0.051 A 
ATOM      5  C5  IND d   1       0.860   3.700   0.988  0.00  0.00    -0.031 A 
ATOM      6  C6  IND d   1       0.590   3.141  -0.244  0.00  0.00     0.015 A 
ATOM      7  C7  IND d   1       0.408   1.795  -0.392  0.00  0.00    -0.016 A 
ATOM      8  C8  IND d   1       0.526   1.018   0.752  0.00  0.00    -0.047 A 
ATOM      9  C9  IND d   1       0.842   1.575   1.998  0.00  0.00    -0.096 A 
ATOM     10  HN1 IND d   1       0.242  -0.917   0.311  0.00  0.00     0.298 HD
ENDROOT
TORSDOF 0
ENDMDL
