MODEL 1
REMARK minimizedAffinity -0.906938732
REMARK minimizedRMSD -1
REMARK  0 active torsions:
REMARK  status: ('A' for Active; 'I' for Inactive)
ROOT
ATOM      1  N1  IND d   1       3.030   4.912   3.165  0.00  0.00    -0.196 N 
ATOM      2  C2  IND d   1       3.109   3.789   3.942  0.00  0.00     0.054 A 
ATOM      3  C3  IND d   1       2.305   2.820   3.451  0.00  0.00    -0.031 A 
ATOM      4  C4  IND d   1       0.848   2.822   1.328  0.00  0.00     0.051 A 
ATOM      5  C5  IND d   1       0.423   3.635   0.315  0.00  0.00    -0.031 A 
ATOM      6  C6  IND d   1       0.855   4.940   0.196  0.00  0.00     0.015 A 
ATOM      7  C7  IND d   1       1.742   5.480   1.083  0.00  0.00    -0.016 A 
ATOM      8  C8  IND d   1       2.171   4.660   2.118  0.00  0.00    -0.047 A 
ATOM      9  C9  IND d   1       1.703   3.348   2.268  0.00  0.00    -0.096 A 
ATOM     10  HN1 IND d   1       3.446   5.650   3.307  0.00  0.00     0.298 HD
ENDROOT
TORSDOF 0
ENDMDL
