MODEL 1
REMARK minimizedAffinity -0.156373784
REMARK minimizedRMSD -1
REMARK  0 active torsions:
REMARK  status: ('A' for Active; 'I' for Inactive)
ROOT
ATOM      1  N1  IND d   1       2.289  -0.373  -0.100  0.00  0.00    -0.196 N 
ATOM      2  C2  IND d   1       1.345   0.267  -0.853  0.00  0.00     0.054 A 
ATOM      3  C3  IND d   1       0.344   0.721  -0.066  0.00  0.00    -0.031 A 
ATOM      4  C4  IND d   1       0.101   0.616   2.495  0.00  0.00     0.051 A 
ATOM      5  C5  IND d   1       0.693   0.098   3.613  0.00  0.00    -0.031 A 
ATOM      6  C6  IND d   1       1.872  -0.615   3.549  0.00  0.00     0.015 A 
ATOM      7  C7  IND d   1       2.512  -0.829   2.362  0.00  0.00    -0.016 A 
ATOM      8  C8  IND d   1       1.911  -0.311   1.224  0.00  0.00    -0.047 A 
ATOM      9  C9  IND d   1       0.692   0.378   1.276  0.00  0.00    -0.096 A 
ATOM     10  HN1 IND d   1       3.000  -0.752  -0.401  0.00  0.00     0.298 HD
ENDROOT
TORSDOF 0
ENDMDL
