MODEL 1
REMARK minimizedAffinity 2.7533443
REMARK minimizedRMSD -1
REMARK  0 active torsions:
REMARK  status: ('A' for Active; 'I' for Inactive)
ROOT
ATOM      1  N1  IND d   1       0.604   1.898  -1.017  0.00  0.00    -0.196 N 
ATOM      2  C2  IND d   1       0.488   3.220  -0.691  0.00  0.00     0.054 A 
ATOM      3  C3  IND d   1       0.503   3.377   0.652  0.00  0.00    -0.031 A 
ATOM      4  C4  IND d   1       0.811   1.612   2.501  0.00  0.00     0.051 A 
ATOM      5  C5  IND d   1       0.919   0.264   2.695  0.00  0.00    -0.031 A 
ATOM      6  C6  IND d   1       0.931  -0.627   1.641  0.00  0.00     0.015 A 
ATOM      7  C7  IND d   1       0.845  -0.199   0.347  0.00  0.00    -0.016 A 
ATOM      8  C8  IND d   1       0.729   1.169   0.145  0.00  0.00    -0.047 A 
ATOM      9  C9  IND d   1       0.674   2.074   1.213  0.00  0.00    -0.096 A 
ATOM     10  HN1 IND d   1       0.600   1.575  -1.814  0.00  0.00     0.298 HD
ENDROOT
TORSDOF 0
ENDMDL
