MODEL 1
REMARK minimizedAffinity 4.76962757
REMARK minimizedRMSD -1
REMARK  0 active torsions:
REMARK  status: ('A' for Active; 'I' for Inactive)
ROOT
ATOM      1  C   UNL d   1       5.943   3.030   4.050  0.00  0.00     0.172 C 
ATOM      2  N   UNL d   1       4.506   3.024   3.903  0.00  0.00    -0.070 N 
ATOM      3  C1  UNL d   1       3.685   1.951   4.125  0.00  0.00    -0.004 A 
ATOM      4  C2  UNL d   1       2.390   2.352   3.876  0.00  0.00    -0.047 A 
ATOM      5  C3  UNL d   1       2.435   3.713   3.490  0.00  0.00    -0.047 A 
ATOM      6  C4  UNL d   1       3.757   4.104   3.515  0.00  0.00    -0.004 A 
ENDROOT
TORSDOF 0
ENDMDL
