MODEL 1
REMARK minimizedAffinity 3.78571081
REMARK minimizedRMSD -1
REMARK  0 active torsions:
REMARK  status: ('A' for Active; 'I' for Inactive)
ROOT
ATOM      1  C   UNL d   1       1.134  -0.216  -2.508  0.00  0.00     0.172 C 
ATOM      2  N   UNL d   1       0.576  -0.187  -1.177  0.00  0.00    -0.070 N 
ATOM      3  C1  UNL d   1       0.864   0.740  -0.210  0.00  0.00    -0.004 A 
ATOM      4  C2  UNL d   1       0.130   0.421   0.912  0.00  0.00    -0.047 A 
ATOM      5  C3  UNL d   1      -0.625  -0.737   0.609  0.00  0.00    -0.047 A 
ATOM      6  C4  UNL d   1      -0.330  -1.092  -0.690  0.00  0.00    -0.004 A 
ENDROOT
TORSDOF 0
ENDMDL
