MODEL 1
REMARK minimizedAffinity 0.65183115
REMARK minimizedRMSD -1
REMARK  0 active torsions:
REMARK  status: ('A' for Active; 'I' for Inactive)
ROOT
ATOM      1  C   UNL d   1       5.978   2.720   5.744  0.00  0.00     0.172 C 
ATOM      2  N   UNL d   1       5.986   3.748   4.730  0.00  0.00    -0.070 N 
ATOM      3  C1  UNL d   1       5.988   5.098   4.962  0.00  0.00    -0.004 A 
ATOM      4  C2  UNL d   1       5.997   5.736   3.740  0.00  0.00    -0.047 A 
ATOM      5  C3  UNL d   1       6.000   4.735   2.740  0.00  0.00    -0.047 A 
ATOM      6  C4  UNL d   1       5.993   3.514   3.381  0.00  0.00    -0.004 A 
ENDROOT
TORSDOF 0
ENDMDL
