MODEL 1
REMARK minimizedAffinity 0.0177900232
REMARK minimizedRMSD -1
REMARK  0 active torsions:
REMARK  status: ('A' for Active; 'I' for Inactive)
ROOT
ATOM      1  C   UNL d   1       6.000   5.741   3.378  0.00  0.00     0.172 C 
ATOM      2  N   UNL d   1       5.998   4.304   3.513  0.00  0.00    -0.070 N 
ATOM      3  C1  UNL d   1       6.000   3.613   4.695  0.00  0.00    -0.004 A 
ATOM      4  C2  UNL d   1       5.997   2.267   4.397  0.00  0.00    -0.047 A 
ATOM      5  C3  UNL d   1       5.994   2.145   2.987  0.00  0.00    -0.047 A 
ATOM      6  C4  UNL d   1       5.995   3.421   2.465  0.00  0.00    -0.004 A 
ENDROOT
TORSDOF 0
ENDMDL
