MODEL 1
REMARK minimizedAffinity 0.850336492
REMARK minimizedRMSD -1
REMARK  0 active torsions:
REMARK  status: ('A' for Active; 'I' for Inactive)
ROOT
ATOM      1  C   UNL d   1       5.985   2.448   2.620  0.00  0.00     0.172 C 
ATOM      2  N   UNL d   1       5.987   3.892   2.624  0.00  0.00    -0.070 N 
ATOM      3  C1  UNL d   1       5.976   4.687   3.738  0.00  0.00    -0.004 A 
ATOM      4  C2  UNL d   1       5.983   6.000   3.320  0.00  0.00    -0.047 A 
ATOM      5  C3  UNL d   1       5.998   5.994   1.905  0.00  0.00    -0.047 A 
ATOM      6  C4  UNL d   1       6.000   4.675   1.500  0.00  0.00    -0.004 A 
ENDROOT
TORSDOF 0
ENDMDL
