MODEL 1
REMARK minimizedAffinity -0.650044143
REMARK minimizedRMSD -1
REMARK  0 active torsions:
REMARK  status: ('A' for Active; 'I' for Inactive)
ROOT
ATOM      1  C   UNL d   1       5.998   3.744   4.785  0.00  0.00     0.172 C 
ATOM      2  N   UNL d   1       5.999   4.412   3.505  0.00  0.00    -0.070 N 
ATOM      3  C1  UNL d   1       5.998   5.767   3.311  0.00  0.00    -0.004 A 
ATOM      4  C2  UNL d   1       5.999   6.000   1.953  0.00  0.00    -0.047 A 
ATOM      5  C3  UNL d   1       5.999   4.740   1.308  0.00  0.00    -0.047 A 
ATOM      6  C4  UNL d   1       5.999   3.775   2.292  0.00  0.00    -0.004 A 
ENDROOT
TORSDOF 0
ENDMDL
