MODEL 1
REMARK minimizedAffinity 4.71716833
REMARK minimizedRMSD -1
REMARK  0 active torsions:
REMARK  status: ('A' for Active; 'I' for Inactive)
ROOT
ATOM      1  C   UNL d   1       5.509   3.706   1.443  0.00  0.00     0.172 C 
ATOM      2  N   UNL d   1       5.705   4.391   2.699  0.00  0.00    -0.070 N 
ATOM      3  C1  UNL d   1       5.796   5.748   2.862  0.00  0.00    -0.004 A 
ATOM      4  C2  UNL d   1       5.980   6.000   4.205  0.00  0.00    -0.047 A 
ATOM      5  C3  UNL d   1       6.000   4.752   4.871  0.00  0.00    -0.047 A 
ATOM      6  C4  UNL d   1       5.827   3.773   3.915  0.00  0.00    -0.004 A 
ENDROOT
TORSDOF 0
ENDMDL
