MODEL 1
REMARK minimizedAffinity 0.776116073
REMARK minimizedRMSD -1
REMARK  0 active torsions:
REMARK  status: ('A' for Active; 'I' for Inactive)
ROOT
ATOM      1  C   UNL d   1       1.846  -2.420   1.525  0.00  0.00     0.172 C 
ATOM      2  N   UNL d   1       2.040  -3.779   1.974  0.00  0.00    -0.070 N 
ATOM      3  C1  UNL d   1       2.492  -4.154   3.211  0.00  0.00    -0.004 A 
ATOM      4  C2  UNL d   1       2.537  -5.531   3.244  0.00  0.00    -0.047 A 
ATOM      5  C3  UNL d   1       2.098  -5.999   1.983  0.00  0.00    -0.047 A 
ATOM      6  C4  UNL d   1       1.797  -4.894   1.216  0.00  0.00    -0.004 A 
ENDROOT
TORSDOF 0
ENDMDL
