MODEL 1
REMARK minimizedAffinity 0.32402873
REMARK minimizedRMSD -1
REMARK  0 active torsions:
REMARK  status: ('A' for Active; 'I' for Inactive)
ROOT
ATOM      1  C   UNL d   1       0.438  -2.021  -0.870  0.00  0.00     0.172 C 
ATOM      2  N   UNL d   1       1.318  -0.914  -0.577  0.00  0.00    -0.070 N 
ATOM      3  C1  UNL d   1       1.101   0.049   0.372  0.00  0.00    -0.004 A 
ATOM      4  C2  UNL d   1       2.167   0.921   0.341  0.00  0.00    -0.047 A 
ATOM      5  C3  UNL d   1       3.056   0.468  -0.663  0.00  0.00    -0.047 A 
ATOM      6  C4  UNL d   1       2.506  -0.670  -1.215  0.00  0.00    -0.004 A 
ENDROOT
TORSDOF 0
ENDMDL
