MODEL 1
REMARK minimizedAffinity 2.71888113
REMARK minimizedRMSD -1
REMARK  0 active torsions:
REMARK  status: ('A' for Active; 'I' for Inactive)
ROOT
ATOM      1  C   UNL d   1       5.985  -5.741   2.604  0.00  0.00     0.172 C 
ATOM      2  N   UNL d   1       4.611  -5.443   2.933  0.00  0.00    -0.070 N 
ATOM      3  C1  UNL d   1       3.509  -5.999   2.339  0.00  0.00    -0.004 A 
ATOM      4  C2  UNL d   1       2.390  -5.455   2.932  0.00  0.00    -0.047 A 
ATOM      5  C3  UNL d   1       2.835  -4.540   3.916  0.00  0.00    -0.047 A 
ATOM      6  C4  UNL d   1       4.213  -4.553   3.895  0.00  0.00    -0.004 A 
ENDROOT
TORSDOF 0
ENDMDL
