MODEL 1
REMARK minimizedAffinity 1.28348434
REMARK minimizedRMSD -1
REMARK  0 active torsions:
REMARK  status: ('A' for Active; 'I' for Inactive)
ROOT
ATOM      1  C   UNL d   1       3.231   2.300  -0.514  0.00  0.00     0.172 C 
ATOM      2  N   UNL d   1       4.001   3.299  -1.217  0.00  0.00    -0.070 N 
ATOM      3  C1  UNL d   1       5.087   3.055  -2.014  0.00  0.00    -0.004 A 
ATOM      4  C2  UNL d   1       5.535   4.265  -2.498  0.00  0.00    -0.047 A 
ATOM      5  C3  UNL d   1       4.690   5.271  -1.973  0.00  0.00    -0.047 A 
ATOM      6  C4  UNL d   1       3.748   4.645  -1.183  0.00  0.00    -0.004 A 
ENDROOT
TORSDOF 0
ENDMDL
