MODEL 1
REMARK minimizedAffinity 4.78549385
REMARK minimizedRMSD -1
REMARK  0 active torsions:
REMARK  status: ('A' for Active; 'I' for Inactive)
ROOT
ATOM      1  C   UNL d   1       2.385   2.266  -5.242  0.00  0.00     0.172 C 
ATOM      2  N   UNL d   1       3.811   2.282  -5.013  0.00  0.00    -0.070 N 
ATOM      3  C1  UNL d   1       4.422   2.299  -3.787  0.00  0.00    -0.004 A 
ATOM      4  C2  UNL d   1       5.785   2.310  -3.995  0.00  0.00    -0.047 A 
ATOM      5  C3  UNL d   1       5.999   2.302  -5.394  0.00  0.00    -0.047 A 
ATOM      6  C4  UNL d   1       4.761   2.284  -6.000  0.00  0.00    -0.004 A 
ENDROOT
TORSDOF 0
ENDMDL
