MODEL 1
REMARK minimizedAffinity 6.46325541
REMARK minimizedRMSD -1
REMARK  0 active torsions:
REMARK  status: ('A' for Active; 'I' for Inactive)
ROOT
ATOM      1  C   UNL d   1      -0.249   0.344   0.963  0.00  0.00     0.172 C 
ATOM      2  N   UNL d   1       0.353   1.644   1.141  0.00  0.00    -0.070 N 
ATOM      3  C1  UNL d   1       1.689   1.926   1.035  0.00  0.00    -0.004 A 
ATOM      4  C2  UNL d   1       1.856   3.273   1.273  0.00  0.00    -0.047 A 
ATOM      5  C3  UNL d   1       0.577   3.819   1.533  0.00  0.00    -0.047 A 
ATOM      6  C4  UNL d   1      -0.335   2.789   1.445  0.00  0.00    -0.004 A 
ENDROOT
TORSDOF 0
ENDMDL
