MODEL 1
REMARK minimizedAffinity 0.544848859
REMARK minimizedRMSD -1
REMARK  0 active torsions:
REMARK  status: ('A' for Active; 'I' for Inactive)
ROOT
ATOM      1  C   UNL d   1      -1.009  -1.518  -0.170  0.00  0.00     0.172 C 
ATOM      2  N   UNL d   1      -1.657  -2.781   0.096  0.00  0.00    -0.070 N 
ATOM      3  C1  UNL d   1      -2.999  -3.028  -0.016  0.00  0.00    -0.004 A 
ATOM      4  C2  UNL d   1      -3.215  -4.346   0.323  0.00  0.00    -0.047 A 
ATOM      5  C3  UNL d   1      -1.959  -4.910   0.651  0.00  0.00    -0.047 A 
ATOM      6  C4  UNL d   1      -1.012  -3.919   0.502  0.00  0.00    -0.004 A 
ENDROOT
TORSDOF 0
ENDMDL
