MODEL 1
REMARK minimizedAffinity -0.657346487
REMARK minimizedRMSD -1
REMARK  0 active torsions:
REMARK  status: ('A' for Active; 'I' for Inactive)
ROOT
ATOM      1  C   UNL d   1       5.968   2.716   3.277  0.00  0.00     0.172 C 
ATOM      2  N   UNL d   1       5.972   3.886   4.124  0.00  0.00    -0.070 N 
ATOM      3  C1  UNL d   1       5.999   5.185   3.691  0.00  0.00    -0.004 A 
ATOM      4  C2  UNL d   1       5.992   6.000   4.802  0.00  0.00    -0.047 A 
ATOM      5  C3  UNL d   1       5.960   5.162   5.942  0.00  0.00    -0.047 A 
ATOM      6  C4  UNL d   1       5.948   3.858   5.493  0.00  0.00    -0.004 A 
ENDROOT
TORSDOF 0
ENDMDL
