MODEL 1
REMARK minimizedAffinity 5.03429079
REMARK minimizedRMSD -1
REMARK  0 active torsions:
REMARK  status: ('A' for Active; 'I' for Inactive)
ROOT
ATOM      1  C   UNL d   1      -4.065   2.421   5.989  0.00  0.00     0.172 C 
ATOM      2  N   UNL d   1      -3.925   3.827   5.690  0.00  0.00    -0.070 N 
ATOM      3  C1  UNL d   1      -2.857   4.406   5.060  0.00  0.00    -0.004 A 
ATOM      4  C2  UNL d   1      -3.106   5.758   4.964  0.00  0.00    -0.047 A 
ATOM      5  C3  UNL d   1      -4.367   6.000   5.559  0.00  0.00    -0.047 A 
ATOM      6  C4  UNL d   1      -4.852   4.787   6.000  0.00  0.00    -0.004 A 
ENDROOT
TORSDOF 0
ENDMDL
