MODEL 1
REMARK minimizedAffinity 7.77621555
REMARK minimizedRMSD -1
REMARK  0 active torsions:
REMARK  status: ('A' for Active; 'I' for Inactive)
ROOT
ATOM      1  C   UNL d   1       4.214  -5.978   3.161  0.00  0.00     0.172 C 
ATOM      2  N   UNL d   1       3.206  -5.984   2.126  0.00  0.00    -0.070 N 
ATOM      3  C1  UNL d   1       1.852  -5.976   2.330  0.00  0.00    -0.004 A 
ATOM      4  C2  UNL d   1       1.239  -5.985   1.096  0.00  0.00    -0.047 A 
ATOM      5  C3  UNL d   1       2.260  -6.000   0.116  0.00  0.00    -0.047 A 
ATOM      6  C4  UNL d   1       3.468  -5.999   0.781  0.00  0.00    -0.004 A 
ENDROOT
TORSDOF 0
ENDMDL
