MODEL 1
REMARK minimizedAffinity -4.02542639
REMARK minimizedRMSD -1
REMARK  1 active torsions:
REMARK  status: ('A' for Active; 'I' for Inactive)
REMARK    1  A    between atoms: C3_4  and  O_7 
ROOT
ATOM      1  C   UNL d   1      -1.625  -2.288   1.880  0.00  0.00    -0.033 A 
ATOM      2  C1  UNL d   1      -2.185  -1.010   1.904  0.00  0.00     0.039 A 
ATOM      3  C2  UNL d   1      -1.697  -0.015   1.054  0.00  0.00    -0.080 A 
ATOM      4  C3  UNL d   1      -0.650  -0.312   0.186  0.00  0.00     0.150 A 
ATOM      5  C4  UNL d   1      -0.089  -1.585   0.154  0.00  0.00    -0.007 A 
ATOM      6  C5  UNL d   1      -0.578  -2.576   1.004  0.00  0.00     0.039 A 
ENDROOT
BRANCH   4   7
ATOM      7  O   UNL d   1      -0.136   0.627  -0.658  0.00  0.00    -0.526 OA
ATOM      8  H5  UNL d   1      -0.602   1.466  -0.506  0.00  0.00     0.418 HD
ENDBRANCH   4   7
TORSDOF 1
ENDMDL
