MODEL 1
REMARK minimizedAffinity -2.77072334
REMARK minimizedRMSD -1
REMARK  1 active torsions:
REMARK  status: ('A' for Active; 'I' for Inactive)
REMARK    1  A    between atoms: C3_4  and  O_7 
ROOT
ATOM      1  C   UNL d   1       1.480   2.779  -3.738  0.00  0.00    -0.033 A 
ATOM      2  C1  UNL d   1       2.545   2.322  -2.958  0.00  0.00     0.039 A 
ATOM      3  C2  UNL d   1       2.322   1.909  -1.643  0.00  0.00    -0.080 A 
ATOM      4  C3  UNL d   1       1.032   1.955  -1.122  0.00  0.00     0.150 A 
ATOM      5  C4  UNL d   1      -0.033   2.405  -1.894  0.00  0.00    -0.007 A 
ATOM      6  C5  UNL d   1       0.191   2.819  -3.206  0.00  0.00     0.039 A 
ENDROOT
BRANCH   4   7
ATOM      7  O   UNL d   1       0.767   1.566   0.158  0.00  0.00    -0.526 OA
ATOM      8  H5  UNL d   1       1.602   1.307   0.580  0.00  0.00     0.418 HD
ENDBRANCH   4   7
TORSDOF 1
ENDMDL
