MODEL 1
REMARK minimizedAffinity -4.18175364
REMARK minimizedRMSD -1
REMARK  1 active torsions:
REMARK  status: ('A' for Active; 'I' for Inactive)
REMARK    1  A    between atoms: C3_4  and  O_7 
ROOT
ATOM      1  C   UNL d   1       0.633   0.408   0.219  0.00  0.00    -0.033 A 
ATOM      2  C1  UNL d   1      -0.744   0.519   0.422  0.00  0.00     0.039 A 
ATOM      3  C2  UNL d   1      -1.485  -0.594   0.823  0.00  0.00    -0.080 A 
ATOM      4  C3  UNL d   1      -0.838  -1.811   1.019  0.00  0.00     0.150 A 
ATOM      5  C4  UNL d   1       0.534  -1.928   0.822  0.00  0.00    -0.007 A 
ATOM      6  C5  UNL d   1       1.272  -0.816   0.421  0.00  0.00     0.039 A 
ENDROOT
BRANCH   4   7
ATOM      7  O   UNL d   1      -1.519  -2.927   1.405  0.00  0.00    -0.526 OA
ATOM      8  H5  UNL d   1      -2.462  -2.703   1.475  0.00  0.00     0.418 HD
ENDBRANCH   4   7
TORSDOF 1
ENDMDL
