MODEL 1
REMARK minimizedAffinity -2.40067697
REMARK minimizedRMSD -1
REMARK  1 active torsions:
REMARK  status: ('A' for Active; 'I' for Inactive)
REMARK    1  A    between atoms: C3_4  and  O_7 
ROOT
ATOM      1  C   UNL d   1       0.825  -1.524   0.191  0.00  0.00    -0.033 A 
ATOM      2  C1  UNL d   1      -0.052  -2.085   1.121  0.00  0.00     0.039 A 
ATOM      3  C2  UNL d   1      -1.111  -1.330   1.630  0.00  0.00    -0.080 A 
ATOM      4  C3  UNL d   1      -1.281  -0.017   1.200  0.00  0.00     0.150 A 
ATOM      5  C4  UNL d   1      -0.413   0.548   0.271  0.00  0.00    -0.007 A 
ATOM      6  C5  UNL d   1       0.644  -0.208  -0.235  0.00  0.00     0.039 A 
ENDROOT
BRANCH   4   7
ATOM      7  O   UNL d   1      -2.296   0.761   1.672  0.00  0.00    -0.526 OA
ATOM      8  H5  UNL d   1      -2.798   0.248   2.328  0.00  0.00     0.418 HD
ENDBRANCH   4   7
TORSDOF 1
ENDMDL
