MODEL 1
REMARK minimizedAffinity -4.70022297
REMARK minimizedRMSD -1
REMARK  1 active torsions:
REMARK  status: ('A' for Active; 'I' for Inactive)
REMARK    1  A    between atoms: C3_4  and  O_7 
ROOT
ATOM      1  C   UNL d   1      -0.487  -2.758   1.520  0.00  0.00    -0.033 A 
ATOM      2  C1  UNL d   1       0.661  -2.707   0.726  0.00  0.00     0.039 A 
ATOM      3  C2  UNL d   1       1.096  -1.488   0.203  0.00  0.00    -0.080 A 
ATOM      4  C3  UNL d   1       0.376  -0.329   0.481  0.00  0.00     0.150 A 
ATOM      5  C4  UNL d   1      -0.765  -0.372   1.274  0.00  0.00    -0.007 A 
ATOM      6  C5  UNL d   1      -1.199  -1.590   1.795  0.00  0.00     0.039 A 
ENDROOT
BRANCH   4   7
ATOM      7  O   UNL d   1       0.760   0.883  -0.012  0.00  0.00    -0.526 OA
ATOM      8  H5  UNL d   1       1.548   0.755  -0.566  0.00  0.00     0.418 HD
ENDBRANCH   4   7
TORSDOF 1
ENDMDL
