MODEL 1
REMARK minimizedAffinity -2.86134553
REMARK minimizedRMSD -1
REMARK  1 active torsions:
REMARK  status: ('A' for Active; 'I' for Inactive)
REMARK    1  A    between atoms: C3_4  and  O_7 
ROOT
ATOM      1  C   UNL d   1      -0.377  -2.430   0.772  0.00  0.00    -0.033 A 
ATOM      2  C1  UNL d   1      -0.130  -1.316  -0.033  0.00  0.00     0.039 A 
ATOM      3  C2  UNL d   1      -0.827  -0.126   0.186  0.00  0.00    -0.080 A 
ATOM      4  C3  UNL d   1      -1.767  -0.064   1.211  0.00  0.00     0.150 A 
ATOM      5  C4  UNL d   1      -2.016  -1.169   2.018  0.00  0.00    -0.007 A 
ATOM      6  C5  UNL d   1      -1.319  -2.356   1.798  0.00  0.00     0.039 A 
ENDROOT
BRANCH   4   7
ATOM      7  O   UNL d   1      -2.476   1.074   1.459  0.00  0.00    -0.526 OA
ATOM      8  H5  UNL d   1      -2.220   1.745   0.805  0.00  0.00     0.418 HD
ENDBRANCH   4   7
TORSDOF 1
ENDMDL
