MODEL 1
REMARK minimizedAffinity -4.01281977
REMARK minimizedRMSD -1
REMARK  1 active torsions:
REMARK  status: ('A' for Active; 'I' for Inactive)
REMARK    1  A    between atoms: C3_4  and  O_7 
ROOT
ATOM      1  C   UNL d   1      -0.119  -2.448   1.058  0.00  0.00    -0.033 A 
ATOM      2  C1  UNL d   1      -1.190  -2.242   1.930  0.00  0.00     0.039 A 
ATOM      3  C2  UNL d   1      -1.805  -0.990   2.000  0.00  0.00    -0.080 A 
ATOM      4  C3  UNL d   1      -1.340   0.045   1.194  0.00  0.00     0.150 A 
ATOM      5  C4  UNL d   1      -0.276  -0.154   0.321  0.00  0.00    -0.007 A 
ATOM      6  C5  UNL d   1       0.337  -1.404   0.253  0.00  0.00     0.039 A 
ENDROOT
BRANCH   4   7
ATOM      7  O   UNL d   1      -1.905   1.286   1.231  0.00  0.00    -0.526 OA
ATOM      8  H5  UNL d   1      -2.609   1.283   1.900  0.00  0.00     0.418 HD
ENDBRANCH   4   7
TORSDOF 1
ENDMDL
