MODEL 1
REMARK minimizedAffinity -2.27420449
REMARK minimizedRMSD -1
REMARK  1 active torsions:
REMARK  status: ('A' for Active; 'I' for Inactive)
REMARK    1  A    between atoms: C3_4  and  O_7 
ROOT
ATOM      1  C   UNL d   1       1.113   0.804  -0.652  0.00  0.00    -0.033 A 
ATOM      2  C1  UNL d   1      -0.151   0.778  -0.059  0.00  0.00     0.039 A 
ATOM      3  C2  UNL d   1      -0.595  -0.375   0.590  0.00  0.00    -0.080 A 
ATOM      4  C3  UNL d   1       0.232  -1.494   0.640  0.00  0.00     0.150 A 
ATOM      5  C4  UNL d   1       1.493  -1.474   0.054  0.00  0.00    -0.007 A 
ATOM      6  C5  UNL d   1       1.936  -0.322  -0.595  0.00  0.00     0.039 A 
ENDROOT
BRANCH   4   7
ATOM      7  O   UNL d   1      -0.160  -2.644   1.258  0.00  0.00    -0.526 OA
ATOM      8  H5  UNL d   1      -1.065  -2.521   1.591  0.00  0.00     0.418 HD
ENDBRANCH   4   7
TORSDOF 1
ENDMDL
