MODEL 1
REMARK minimizedAffinity -3.49440908
REMARK minimizedRMSD -1
REMARK  1 active torsions:
REMARK  status: ('A' for Active; 'I' for Inactive)
REMARK    1  A    between atoms: C3_4  and  O_7 
ROOT
ATOM      1  C   UNL d   1       0.514   1.264  -0.947  0.00  0.00    -0.033 A 
ATOM      2  C1  UNL d   1       0.947   0.107  -1.598  0.00  0.00     0.039 A 
ATOM      3  C2  UNL d   1       0.828  -1.135  -0.972  0.00  0.00    -0.080 A 
ATOM      4  C3  UNL d   1       0.274  -1.206   0.304  0.00  0.00     0.150 A 
ATOM      5  C4  UNL d   1      -0.163  -0.059   0.956  0.00  0.00    -0.007 A 
ATOM      6  C5  UNL d   1      -0.042   1.181   0.330  0.00  0.00     0.039 A 
ENDROOT
BRANCH   4   7
ATOM      7  O   UNL d   1       0.142  -2.396   0.957  0.00  0.00    -0.526 OA
ATOM      8  H5  UNL d   1       0.512  -3.098   0.397  0.00  0.00     0.418 HD
ENDBRANCH   4   7
TORSDOF 1
ENDMDL
