MODEL 1
REMARK minimizedAffinity -2.66084146
REMARK minimizedRMSD -1
REMARK  1 active torsions:
REMARK  status: ('A' for Active; 'I' for Inactive)
REMARK    1  A    between atoms: C3_4  and  O_7 
ROOT
ATOM      1  C   UNL d   1      -0.348  -1.162   0.868  0.00  0.00    -0.033 A 
ATOM      2  C1  UNL d   1      -1.376  -0.420   0.283  0.00  0.00     0.039 A 
ATOM      3  C2  UNL d   1      -1.085   0.523  -0.705  0.00  0.00    -0.080 A 
ATOM      4  C3  UNL d   1       0.237   0.714  -1.098  0.00  0.00     0.150 A 
ATOM      5  C4  UNL d   1       1.266  -0.024  -0.522  0.00  0.00    -0.007 A 
ATOM      6  C5  UNL d   1       0.973  -0.965   0.464  0.00  0.00     0.039 A 
ENDROOT
BRANCH   4   7
ATOM      7  O   UNL d   1       0.571   1.626  -2.054  0.00  0.00    -0.526 OA
ATOM      8  H5  UNL d   1      -0.238   2.081  -2.342  0.00  0.00     0.418 HD
ENDBRANCH   4   7
TORSDOF 1
ENDMDL
