MODEL 1
REMARK minimizedAffinity -3.94291258
REMARK minimizedRMSD -1
REMARK  1 active torsions:
REMARK  status: ('A' for Active; 'I' for Inactive)
REMARK    1  A    between atoms: C3_4  and  O_7 
ROOT
ATOM      1  C   UNL d   1       0.405  -0.381  -0.076  0.00  0.00    -0.033 A 
ATOM      2  C1  UNL d   1      -0.718  -0.634  -0.866  0.00  0.00     0.039 A 
ATOM      3  C2  UNL d   1      -1.593  -1.668  -0.529  0.00  0.00    -0.080 A 
ATOM      4  C3  UNL d   1      -1.334  -2.441   0.600  0.00  0.00     0.150 A 
ATOM      5  C4  UNL d   1      -0.219  -2.192   1.394  0.00  0.00    -0.007 A 
ATOM      6  C5  UNL d   1       0.654  -1.160   1.055  0.00  0.00     0.039 A 
ENDROOT
BRANCH   4   7
ATOM      7  O   UNL d   1      -2.157  -3.464   0.966  0.00  0.00    -0.526 OA
ATOM      8  H5  UNL d   1      -2.869  -3.537   0.309  0.00  0.00     0.418 HD
ENDBRANCH   4   7
TORSDOF 1
ENDMDL
