MODEL 1
REMARK minimizedAffinity -3.91915131
REMARK minimizedRMSD -1
REMARK  1 active torsions:
REMARK  status: ('A' for Active; 'I' for Inactive)
REMARK    1  A    between atoms: C3_4  and  O_7 
ROOT
ATOM      1  C   UNL d   1      -2.350  -1.958   1.708  0.00  0.00    -0.033 A 
ATOM      2  C1  UNL d   1      -2.455  -0.571   1.589  0.00  0.00     0.039 A 
ATOM      3  C2  UNL d   1      -1.588   0.127   0.746  0.00  0.00    -0.080 A 
ATOM      4  C3  UNL d   1      -0.622  -0.574   0.029  0.00  0.00     0.150 A 
ATOM      5  C4  UNL d   1      -0.514  -1.956   0.139  0.00  0.00    -0.007 A 
ATOM      6  C5  UNL d   1      -1.381  -2.651   0.982  0.00  0.00     0.039 A 
ENDROOT
BRANCH   4   7
ATOM      7  O   UNL d   1       0.250   0.064  -0.803  0.00  0.00    -0.526 OA
ATOM      8  H5  UNL d   1       0.077   1.019  -0.757  0.00  0.00     0.418 HD
ENDBRANCH   4   7
TORSDOF 1
ENDMDL
