MODEL 1
REMARK minimizedAffinity -2.0021832
REMARK minimizedRMSD -1
REMARK  1 active torsions:
REMARK  status: ('A' for Active; 'I' for Inactive)
REMARK    1  A    between atoms: C3_4  and  O_7 
ROOT
ATOM      1  C   UNL d   1      -0.065  -2.702   1.280  0.00  0.00    -0.033 A 
ATOM      2  C1  UNL d   1       0.425  -2.866  -0.017  0.00  0.00     0.039 A 
ATOM      3  C2  UNL d   1       0.649  -1.750  -0.826  0.00  0.00    -0.080 A 
ATOM      4  C3  UNL d   1       0.380  -0.479  -0.327  0.00  0.00     0.150 A 
ATOM      5  C4  UNL d   1      -0.106  -0.308   0.965  0.00  0.00    -0.007 A 
ATOM      6  C5  UNL d   1      -0.329  -1.424   1.772  0.00  0.00     0.039 A 
ENDROOT
BRANCH   4   7
ATOM      7  O   UNL d   1       0.578   0.640  -1.081  0.00  0.00    -0.526 OA
ATOM      8  H5  UNL d   1       0.888   0.367  -1.961  0.00  0.00     0.418 HD
ENDBRANCH   4   7
TORSDOF 1
ENDMDL
