MODEL 1
REMARK minimizedAffinity -5.04953384
REMARK minimizedRMSD -1
REMARK  1 active torsions:
REMARK  status: ('A' for Active; 'I' for Inactive)
REMARK    1  A    between atoms: C3_4  and  O_7 
ROOT
ATOM      1  C   UNL d   1       0.681  -0.866  -0.947  0.00  0.00    -0.033 A 
ATOM      2  C1  UNL d   1       1.053  -1.083   0.381  0.00  0.00     0.039 A 
ATOM      3  C2  UNL d   1       0.229  -1.830   1.226  0.00  0.00    -0.080 A 
ATOM      4  C3  UNL d   1      -0.962  -2.354   0.731  0.00  0.00     0.150 A 
ATOM      5  C4  UNL d   1      -1.337  -2.145  -0.592  0.00  0.00    -0.007 A 
ATOM      6  C5  UNL d   1      -0.514  -1.399  -1.434  0.00  0.00     0.039 A 
ENDROOT
BRANCH   4   7
ATOM      7  O   UNL d   1      -1.801  -3.084   1.519  0.00  0.00    -0.526 OA
ATOM      8  H5  UNL d   1      -1.426  -3.122   2.414  0.00  0.00     0.418 HD
ENDBRANCH   4   7
TORSDOF 1
ENDMDL
