MODEL 1
REMARK minimizedAffinity 2.2381928
REMARK minimizedRMSD -1
REMARK  0 active torsions:
REMARK  status: ('A' for Active; 'I' for Inactive)
ROOT
ATOM      1  C   UNL d   1      -0.600   6.000  -2.956  0.00  0.00     0.078 C 
ATOM      2  C1  UNL d   1      -0.385   5.368  -1.614  0.00  0.00    -0.077 A 
ATOM      3  C2  UNL d   1       0.748   5.668  -0.848  0.00  0.00    -0.001 A 
ATOM      4  C3  UNL d   1       0.939   5.065   0.396  0.00  0.00     0.003 A 
ATOM      5  C4  UNL d   1       0.002   4.157   0.885  0.00  0.00    -0.005 A 
ATOM      6  C5  UNL d   1      -1.128   3.851   0.130  0.00  0.00     0.003 A 
ATOM      7  C6  UNL d   1      -1.321   4.453  -1.114  0.00  0.00    -0.001 A 
ENDROOT
TORSDOF 0
ENDMDL
