MODEL 1
REMARK minimizedAffinity 4.62443018
REMARK minimizedRMSD -1
REMARK  0 active torsions:
REMARK  status: ('A' for Active; 'I' for Inactive)
ROOT
ATOM      1  C   UNL d   1       0.743   2.948   1.810  0.00  0.00     0.078 C 
ATOM      2  C1  UNL d   1       0.527   4.012   0.776  0.00  0.00    -0.077 A 
ATOM      3  C2  UNL d   1      -0.624   4.019  -0.022  0.00  0.00    -0.001 A 
ATOM      4  C3  UNL d   1      -0.808   5.009  -0.988  0.00  0.00     0.003 A 
ATOM      5  C4  UNL d   1       0.156   6.000  -1.166  0.00  0.00    -0.005 A 
ATOM      6  C5  UNL d   1       1.306   6.000  -0.378  0.00  0.00     0.003 A 
ATOM      7  C6  UNL d   1       1.491   5.010   0.588  0.00  0.00    -0.001 A 
ENDROOT
TORSDOF 0
ENDMDL
