MODEL 1
REMARK minimizedAffinity 2.61709237
REMARK minimizedRMSD -1
REMARK  0 active torsions:
REMARK  status: ('A' for Active; 'I' for Inactive)
ROOT
ATOM      1  C   UNL d   1      -1.821  -5.372  -3.159  0.00  0.00     0.078 C 
ATOM      2  C1  UNL d   1      -3.280  -5.583  -3.435  0.00  0.00    -0.077 A 
ATOM      3  C2  UNL d   1      -4.216  -5.598  -2.393  0.00  0.00    -0.001 A 
ATOM      4  C3  UNL d   1      -5.569  -5.805  -2.664  0.00  0.00     0.003 A 
ATOM      5  C4  UNL d   1      -5.999  -6.000  -3.975  0.00  0.00    -0.005 A 
ATOM      6  C5  UNL d   1      -5.075  -5.989  -5.017  0.00  0.00     0.003 A 
ATOM      7  C6  UNL d   1      -3.721  -5.782  -4.749  0.00  0.00    -0.001 A 
ENDROOT
TORSDOF 0
ENDMDL
