MODEL 1
REMARK minimizedAffinity 5.22728157
REMARK minimizedRMSD -1
REMARK  1 active torsions:
REMARK  status: ('A' for Active; 'I' for Inactive)
REMARK    1  A    between atoms: C3_4  and  O_7 
ROOT
ATOM      1  C   UNL d   1      -5.995   5.664   3.517  0.00  0.00    -0.033 A 
ATOM      2  C1  UNL d   1      -5.412   4.507   2.996  0.00  0.00     0.039 A 
ATOM      3  C2  UNL d   1      -4.650   3.676   3.819  0.00  0.00    -0.080 A 
ATOM      4  C3  UNL d   1      -4.479   4.012   5.159  0.00  0.00     0.150 A 
ATOM      5  C4  UNL d   1      -5.060   5.161   5.686  0.00  0.00    -0.007 A 
ATOM      6  C5  UNL d   1      -5.820   5.990   4.862  0.00  0.00     0.039 A 
ENDROOT
BRANCH   4   7
ATOM      7  O   UNL d   1      -3.740   3.234   6.000  0.00  0.00    -0.526 OA
ATOM      8  H5  UNL d   1      -3.376   2.490   5.491  0.00  0.00     0.418 HD
ENDBRANCH   4   7
TORSDOF 1
ENDMDL
