MODEL 1
REMARK minimizedAffinity 4.02927828
REMARK minimizedRMSD -1
REMARK  1 active torsions:
REMARK  status: ('A' for Active; 'I' for Inactive)
REMARK    1  A    between atoms: C3_4  and  O_7 
ROOT
ATOM      1  C   UNL d   1       4.257   2.089  -0.005  0.00  0.00    -0.033 A 
ATOM      2  C1  UNL d   1       3.317   1.125   0.368  0.00  0.00     0.039 A 
ATOM      3  C2  UNL d   1       3.718  -0.001   1.089  0.00  0.00    -0.080 A 
ATOM      4  C3  UNL d   1       5.059  -0.151   1.431  0.00  0.00     0.150 A 
ATOM      5  C4  UNL d   1       6.000   0.806   1.066  0.00  0.00    -0.007 A 
ATOM      6  C5  UNL d   1       5.598   1.930   0.345  0.00  0.00     0.039 A 
ENDROOT
BRANCH   4   7
ATOM      7  O   UNL d   1       5.499  -1.236   2.130  0.00  0.00    -0.526 OA
ATOM      8  H5  UNL d   1       4.744  -1.827   2.288  0.00  0.00     0.418 HD
ENDBRANCH   4   7
TORSDOF 1
ENDMDL
