MODEL 1
REMARK minimizedAffinity 4.50985479
REMARK minimizedRMSD -1
REMARK  1 active torsions:
REMARK  status: ('A' for Active; 'I' for Inactive)
REMARK    1  A    between atoms: C3_4  and  O_7 
ROOT
ATOM      1  C   UNL d   1      -2.809  -0.236   3.185  0.00  0.00    -0.033 A 
ATOM      2  C1  UNL d   1      -1.441  -0.515   3.187  0.00  0.00     0.039 A 
ATOM      3  C2  UNL d   1      -0.525   0.469   2.810  0.00  0.00    -0.080 A 
ATOM      4  C3  UNL d   1      -0.989   1.727   2.436  0.00  0.00     0.150 A 
ATOM      5  C4  UNL d   1      -2.350   2.013   2.435  0.00  0.00    -0.007 A 
ATOM      6  C5  UNL d   1      -3.263   1.029   2.811  0.00  0.00     0.039 A 
ENDROOT
BRANCH   4   7
ATOM      7  O   UNL d   1      -0.133   2.718   2.056  0.00  0.00    -0.526 OA
ATOM      8  H5  UNL d   1       0.773   2.367   2.077  0.00  0.00     0.418 HD
ENDBRANCH   4   7
TORSDOF 1
ENDMDL
