MODEL 1
REMARK minimizedAffinity 7.07519674
REMARK minimizedRMSD -1
REMARK  1 active torsions:
REMARK  status: ('A' for Active; 'I' for Inactive)
REMARK    1  A    between atoms: C3_4  and  O_7 
ROOT
ATOM      1  C   UNL d   1       3.914   0.425   0.855  0.00  0.00    -0.033 A 
ATOM      2  C1  UNL d   1       4.263   1.698   0.400  0.00  0.00     0.039 A 
ATOM      3  C2  UNL d   1       3.314   2.722   0.391  0.00  0.00    -0.080 A 
ATOM      4  C3  UNL d   1       2.022   2.461   0.840  0.00  0.00     0.150 A 
ATOM      5  C4  UNL d   1       1.669   1.196   1.299  0.00  0.00    -0.007 A 
ATOM      6  C5  UNL d   1       2.618   0.174   1.306  0.00  0.00     0.039 A 
ENDROOT
BRANCH   4   7
ATOM      7  O   UNL d   1       1.061   3.427   0.846  0.00  0.00    -0.526 OA
ATOM      8  H5  UNL d   1       1.441   4.241   0.476  0.00  0.00     0.418 HD
ENDBRANCH   4   7
TORSDOF 1
ENDMDL
