MODEL 1
REMARK minimizedAffinity 2.44152379
REMARK minimizedRMSD -1
REMARK  1 active torsions:
REMARK  status: ('A' for Active; 'I' for Inactive)
REMARK    1  A    between atoms: C3_4  and  O_7 
ROOT
ATOM      1  C   UNL d   1       2.043   2.376   1.311  0.00  0.00    -0.033 A 
ATOM      2  C1  UNL d   1       1.541   1.179   1.825  0.00  0.00     0.039 A 
ATOM      3  C2  UNL d   1       2.361   0.050   1.897  0.00  0.00    -0.080 A 
ATOM      4  C3  UNL d   1       3.677   0.133   1.452  0.00  0.00     0.150 A 
ATOM      5  C4  UNL d   1       4.185   1.324   0.943  0.00  0.00    -0.007 A 
ATOM      6  C5  UNL d   1       3.365   2.449   0.871  0.00  0.00     0.039 A 
ENDROOT
BRANCH   4   7
ATOM      7  O   UNL d   1       4.513  -0.943   1.498  0.00  0.00    -0.526 OA
ATOM      8  H5  UNL d   1       4.018  -1.703   1.846  0.00  0.00     0.418 HD
ENDBRANCH   4   7
TORSDOF 1
ENDMDL
