MODEL 1
REMARK minimizedAffinity 7.9110117
REMARK minimizedRMSD -1
REMARK  1 active torsions:
REMARK  status: ('A' for Active; 'I' for Inactive)
REMARK    1  A    between atoms: C3_4  and  O_7 
ROOT
ATOM      1  C   UNL d   1       1.203   1.825   1.543  0.00  0.00    -0.033 A 
ATOM      2  C1  UNL d   1       2.382   2.189   0.889  0.00  0.00     0.039 A 
ATOM      3  C2  UNL d   1       3.469   1.313   0.866  0.00  0.00    -0.080 A 
ATOM      4  C3  UNL d   1       3.364   0.078   1.498  0.00  0.00     0.150 A 
ATOM      5  C4  UNL d   1       2.191  -0.293   2.149  0.00  0.00    -0.007 A 
ATOM      6  C5  UNL d   1       1.107   0.584   2.172  0.00  0.00     0.039 A 
ENDROOT
BRANCH   4   7
ATOM      7  O   UNL d   1       4.399  -0.809   1.507  0.00  0.00    -0.526 OA
ATOM      8  H5  UNL d   1       5.153  -0.406   1.044  0.00  0.00     0.418 HD
ENDBRANCH   4   7
TORSDOF 1
ENDMDL
