MODEL 1
REMARK minimizedAffinity 0.77442497
REMARK minimizedRMSD -1
REMARK  1 active torsions:
REMARK  status: ('A' for Active; 'I' for Inactive)
REMARK    1  A    between atoms: C3_4  and  O_7 
ROOT
ATOM      1  C   UNL d   1      -1.960  -2.384  -2.529  0.00  0.00    -0.033 A 
ATOM      2  C1  UNL d   1      -2.864  -2.661  -1.502  0.00  0.00     0.039 A 
ATOM      3  C2  UNL d   1      -3.943  -3.517  -1.731  0.00  0.00    -0.080 A 
ATOM      4  C3  UNL d   1      -4.105  -4.089  -2.990  0.00  0.00     0.150 A 
ATOM      5  C4  UNL d   1      -3.206  -3.821  -4.017  0.00  0.00    -0.007 A 
ATOM      6  C5  UNL d   1      -2.130  -2.965  -3.786  0.00  0.00     0.039 A 
ENDROOT
BRANCH   4   7
ATOM      7  O   UNL d   1      -5.145  -4.927  -3.263  0.00  0.00    -0.526 OA
ATOM      8  H5  UNL d   1      -5.700  -4.998  -2.469  0.00  0.00     0.418 HD
ENDBRANCH   4   7
TORSDOF 1
ENDMDL
