MODEL 1
REMARK minimizedAffinity -5.53517532
REMARK minimizedRMSD -1
REMARK  1 active torsions:
REMARK  status: ('A' for Active; 'I' for Inactive)
REMARK    1  A    between atoms: C3_4  and  O_7 
ROOT
ATOM      1  C   UNL d   1       3.984   2.448   0.777  0.00  0.00    -0.033 A 
ATOM      2  C1  UNL d   1       3.280   1.243   0.727  0.00  0.00     0.039 A 
ATOM      3  C2  UNL d   1       3.901   0.053   1.111  0.00  0.00    -0.080 A 
ATOM      4  C3  UNL d   1       5.224   0.081   1.544  0.00  0.00     0.150 A 
ATOM      5  C4  UNL d   1       5.930   1.278   1.599  0.00  0.00    -0.007 A 
ATOM      6  C5  UNL d   1       5.309   2.466   1.214  0.00  0.00     0.039 A 
ENDROOT
BRANCH   4   7
ATOM      7  O   UNL d   1       5.874  -1.055   1.924  0.00  0.00    -0.526 OA
ATOM      8  H5  UNL d   1       5.271  -1.808   1.806  0.00  0.00     0.418 HD
ENDBRANCH   4   7
TORSDOF 1
ENDMDL
