MODEL 1
REMARK minimizedAffinity -3.63012385
REMARK minimizedRMSD -1
REMARK  1 active torsions:
REMARK  status: ('A' for Active; 'I' for Inactive)
REMARK    1  A    between atoms: C3_4  and  O_7 
ROOT
ATOM      1  C   UNL d   1      -5.292   0.570   4.768  0.00  0.00    -0.033 A 
ATOM      2  C1  UNL d   1      -5.265   1.249   3.548  0.00  0.00     0.039 A 
ATOM      3  C2  UNL d   1      -5.161   2.641   3.524  0.00  0.00    -0.080 A 
ATOM      4  C3  UNL d   1      -5.083   3.341   4.725  0.00  0.00     0.150 A 
ATOM      5  C4  UNL d   1      -5.105   2.671   5.944  0.00  0.00    -0.007 A 
ATOM      6  C5  UNL d   1      -5.210   1.281   5.965  0.00  0.00     0.039 A 
ENDROOT
BRANCH   4   7
ATOM      7  O   UNL d   1      -4.985   4.701   4.752  0.00  0.00    -0.526 OA
ATOM      8  H5  UNL d   1      -5.010   5.029   3.838  0.00  0.00     0.418 HD
ENDBRANCH   4   7
TORSDOF 1
ENDMDL
