MODEL 1
REMARK minimizedAffinity 2.83648825
REMARK minimizedRMSD -1
REMARK  1 active torsions:
REMARK  status: ('A' for Active; 'I' for Inactive)
REMARK    1  A    between atoms: C3_4  and  O_7 
ROOT
ATOM      1  C   UNL d   1      -6.000  -1.860   5.254  0.00  0.00    -0.033 A 
ATOM      2  C1  UNL d   1      -5.494  -1.936   3.955  0.00  0.00     0.039 A 
ATOM      3  C2  UNL d   1      -4.859  -0.831   3.386  0.00  0.00    -0.080 A 
ATOM      4  C3  UNL d   1      -4.736   0.342   4.125  0.00  0.00     0.150 A 
ATOM      5  C4  UNL d   1      -5.234   0.424   5.421  0.00  0.00    -0.007 A 
ATOM      6  C5  UNL d   1      -5.869  -0.680   5.987  0.00  0.00     0.039 A 
ENDROOT
BRANCH   4   7
ATOM      7  O   UNL d   1      -4.128   1.449   3.610  0.00  0.00    -0.526 OA
ATOM      8  H5  UNL d   1      -3.859   1.255   2.696  0.00  0.00     0.418 HD
ENDBRANCH   4   7
TORSDOF 1
ENDMDL
