MODEL 1
REMARK minimizedAffinity 7.252244
REMARK minimizedRMSD -1
REMARK  1 active torsions:
REMARK  status: ('A' for Active; 'I' for Inactive)
REMARK    1  A    between atoms: C3_4  and  O_7 
ROOT
ATOM      1  C   UNL d   1      -1.175  -3.172   0.802  0.00  0.00    -0.033 A 
ATOM      2  C1  UNL d   1      -0.156  -3.483  -0.101  0.00  0.00     0.039 A 
ATOM      3  C2  UNL d   1      -0.421  -3.518  -1.471  0.00  0.00    -0.080 A 
ATOM      4  C3  UNL d   1      -1.707  -3.238  -1.925  0.00  0.00     0.150 A 
ATOM      5  C4  UNL d   1      -2.726  -2.923  -1.032  0.00  0.00    -0.007 A 
ATOM      6  C5  UNL d   1      -2.459  -2.891   0.336  0.00  0.00     0.039 A 
ENDROOT
BRANCH   4   7
ATOM      7  O   UNL d   1      -2.015  -3.264  -3.253  0.00  0.00    -0.526 OA
ATOM      8  H5  UNL d   1      -1.221  -3.524  -3.748  0.00  0.00     0.418 HD
ENDBRANCH   4   7
TORSDOF 1
ENDMDL
