MODEL 1
REMARK minimizedAffinity 6.69774961
REMARK minimizedRMSD -1
REMARK  1 active torsions:
REMARK  status: ('A' for Active; 'I' for Inactive)
REMARK    1  A    between atoms: C3_4  and  O_7 
ROOT
ATOM      1  C   UNL d   1       0.414  -3.000  -5.821  0.00  0.00    -0.033 A 
ATOM      2  C1  UNL d   1       0.812  -3.377  -4.537  0.00  0.00     0.039 A 
ATOM      3  C2  UNL d   1       0.051  -3.001  -3.429  0.00  0.00    -0.080 A 
ATOM      4  C3  UNL d   1      -1.106  -2.250  -3.618  0.00  0.00     0.150 A 
ATOM      5  C4  UNL d   1      -1.511  -1.874  -4.895  0.00  0.00    -0.007 A 
ATOM      6  C5  UNL d   1      -0.749  -2.250  -6.000  0.00  0.00     0.039 A 
ENDROOT
BRANCH   4   7
ATOM      7  O   UNL d   1      -1.880  -1.856  -2.567  0.00  0.00    -0.526 OA
ATOM      8  H5  UNL d   1      -1.462  -2.163  -1.745  0.00  0.00     0.418 HD
ENDBRANCH   4   7
TORSDOF 1
ENDMDL
