MODEL 1
REMARK minimizedAffinity 11.4783344
REMARK minimizedRMSD -1
REMARK  1 active torsions:
REMARK  status: ('A' for Active; 'I' for Inactive)
REMARK    1  A    between atoms: C3_4  and  O_7 
ROOT
ATOM      1  C   UNL d   1      -2.782  -4.086  -0.756  0.00  0.00    -0.033 A 
ATOM      2  C1  UNL d   1      -2.165  -2.836  -0.837  0.00  0.00     0.039 A 
ATOM      3  C2  UNL d   1      -1.856  -2.288  -2.083  0.00  0.00    -0.080 A 
ATOM      4  C3  UNL d   1      -2.171  -2.997  -3.239  0.00  0.00     0.150 A 
ATOM      5  C4  UNL d   1      -2.789  -4.241  -3.165  0.00  0.00    -0.007 A 
ATOM      6  C5  UNL d   1      -3.096  -4.788  -1.920  0.00  0.00     0.039 A 
ENDROOT
BRANCH   4   7
ATOM      7  O   UNL d   1      -1.885  -2.505  -4.477  0.00  0.00    -0.526 OA
ATOM      8  H5  UNL d   1      -1.433  -1.651  -4.372  0.00  0.00     0.418 HD
ENDBRANCH   4   7
TORSDOF 1
ENDMDL
