MODEL 1
REMARK minimizedAffinity 4.21144485
REMARK minimizedRMSD -1
REMARK  1 active torsions:
REMARK  status: ('A' for Active; 'I' for Inactive)
REMARK    1  A    between atoms: C3_4  and  O_7 
ROOT
ATOM      1  C   UNL d   1       2.016   1.352   1.030  0.00  0.00    -0.033 A 
ATOM      2  C1  UNL d   1       1.924   0.361   2.010  0.00  0.00     0.039 A 
ATOM      3  C2  UNL d   1       3.060  -0.358   2.387  0.00  0.00    -0.080 A 
ATOM      4  C3  UNL d   1       4.280  -0.076   1.779  0.00  0.00     0.150 A 
ATOM      5  C4  UNL d   1       4.380   0.912   0.805  0.00  0.00    -0.007 A 
ATOM      6  C5  UNL d   1       3.244   1.628   0.429  0.00  0.00     0.039 A 
ENDROOT
BRANCH   4   7
ATOM      7  O   UNL d   1       5.415  -0.754   2.111  0.00  0.00    -0.526 OA
ATOM      8  H5  UNL d   1       5.189  -1.426   2.776  0.00  0.00     0.418 HD
ENDBRANCH   4   7
TORSDOF 1
ENDMDL
