MODEL 1
REMARK minimizedAffinity 8.36853313
REMARK minimizedRMSD -1
REMARK  1 active torsions:
REMARK  status: ('A' for Active; 'I' for Inactive)
REMARK    1  A    between atoms: C3_4  and  O_7 
ROOT
ATOM      1  C   UNL d   1      -2.850  -2.987   0.021  0.00  0.00    -0.033 A 
ATOM      2  C1  UNL d   1      -3.644  -3.113  -1.121  0.00  0.00     0.039 A 
ATOM      3  C2  UNL d   1      -3.084  -2.930  -2.387  0.00  0.00    -0.080 A 
ATOM      4  C3  UNL d   1      -1.731  -2.624  -2.497  0.00  0.00     0.150 A 
ATOM      5  C4  UNL d   1      -0.933  -2.500  -1.364  0.00  0.00    -0.007 A 
ATOM      6  C5  UNL d   1      -1.494  -2.682  -0.101  0.00  0.00     0.039 A 
ENDROOT
BRANCH   4   7
ATOM      7  O   UNL d   1      -1.140  -2.432  -3.711  0.00  0.00    -0.526 OA
ATOM      8  H5  UNL d   1      -1.819  -2.520  -4.401  0.00  0.00     0.418 HD
ENDBRANCH   4   7
TORSDOF 1
ENDMDL
