MODEL 1
REMARK minimizedAffinity 4.77485895
REMARK minimizedRMSD -1
REMARK  1 active torsions:
REMARK  status: ('A' for Active; 'I' for Inactive)
REMARK    1  A    between atoms: C3_4  and  O_7 
ROOT
ATOM      1  C   UNL d   1      -2.590  -3.321  -2.684  0.00  0.00    -0.033 A 
ATOM      2  C1  UNL d   1      -1.371  -3.994  -2.789  0.00  0.00     0.039 A 
ATOM      3  C2  UNL d   1      -0.471  -3.981  -1.722  0.00  0.00    -0.080 A 
ATOM      4  C3  UNL d   1      -0.801  -3.294  -0.557  0.00  0.00     0.150 A 
ATOM      5  C4  UNL d   1      -2.015  -2.625  -0.444  0.00  0.00    -0.007 A 
ATOM      6  C5  UNL d   1      -2.913  -2.638  -1.511  0.00  0.00     0.039 A 
ENDROOT
BRANCH   4   7
ATOM      7  O   UNL d   1       0.048  -3.249   0.509  0.00  0.00    -0.526 OA
ATOM      8  H5  UNL d   1       0.859  -3.731   0.277  0.00  0.00     0.418 HD
ENDBRANCH   4   7
TORSDOF 1
ENDMDL
