MODEL 1
REMARK minimizedAffinity 12.2136335
REMARK minimizedRMSD -1
REMARK  0 active torsions:
REMARK  status: ('A' for Active; 'I' for Inactive)
ROOT
ATOM      1  N1  IND d   1       1.015   2.966   0.310  0.00  0.00    -0.196 N 
ATOM      2  C2  IND d   1       0.107   3.950   0.587  0.00  0.00     0.054 A 
ATOM      3  C3  IND d   1      -1.141   3.545   0.261  0.00  0.00    -0.031 A 
ATOM      4  C4  IND d   1      -1.937   1.272  -0.648  0.00  0.00     0.051 A 
ATOM      5  C5  IND d   1      -1.471   0.068  -1.097  0.00  0.00    -0.031 A 
ATOM      6  C6  IND d   1      -0.125  -0.239  -1.096  0.00  0.00     0.015 A 
ATOM      7  C7  IND d   1       0.807   0.647  -0.635  0.00  0.00    -0.016 A 
ATOM      8  C8  IND d   1       0.338   1.873  -0.186  0.00  0.00    -0.047 A 
ATOM      9  C9  IND d   1      -1.022   2.206  -0.223  0.00  0.00    -0.096 A 
ATOM     10  HN1 IND d   1       1.865   3.021   0.425  0.00  0.00     0.298 HD
ENDROOT
TORSDOF 0
ENDMDL
