MODEL 1
REMARK minimizedAffinity 15.2255306
REMARK minimizedRMSD -1
REMARK  0 active torsions:
REMARK  status: ('A' for Active; 'I' for Inactive)
ROOT
ATOM      1  N1  IND d   1      -0.365  -0.389   4.756  0.00  0.00    -0.196 N 
ATOM      2  C2  IND d   1       0.857  -0.991   4.642  0.00  0.00     0.054 A 
ATOM      3  C3  IND d   1       1.576  -0.413   3.653  0.00  0.00    -0.031 A 
ATOM      4  C4  IND d   1       0.982   1.599   2.162  0.00  0.00     0.051 A 
ATOM      5  C5  IND d   1      -0.039   2.459   1.869  0.00  0.00    -0.031 A 
ATOM      6  C6  IND d   1      -1.245   2.414   2.539  0.00  0.00     0.015 A 
ATOM      7  C7  IND d   1      -1.471   1.511   3.539  0.00  0.00    -0.016 A 
ATOM      8  C8  IND d   1      -0.438   0.632   3.834  0.00  0.00    -0.047 A 
ATOM      9  C9  IND d   1       0.772   0.645   3.129  0.00  0.00    -0.096 A 
ATOM     10  HN1 IND d   1      -0.984  -0.611   5.310  0.00  0.00     0.298 HD
ENDROOT
TORSDOF 0
ENDMDL
