MODEL 1
REMARK minimizedAffinity 9.98303699
REMARK minimizedRMSD -1
REMARK  0 active torsions:
REMARK  status: ('A' for Active; 'I' for Inactive)
ROOT
ATOM      1  N1  IND d   1       0.738   4.746  -1.506  0.00  0.00    -0.196 N 
ATOM      2  C2  IND d   1       0.340   5.996  -1.124  0.00  0.00     0.054 A 
ATOM      3  C3  IND d   1      -0.023   5.997   0.179  0.00  0.00    -0.031 A 
ATOM      4  C4  IND d   1       0.055   4.083   1.899  0.00  0.00     0.051 A 
ATOM      5  C5  IND d   1       0.312   2.745   2.011  0.00  0.00    -0.031 A 
ATOM      6  C6  IND d   1       0.736   1.992   0.935  0.00  0.00     0.015 A 
ATOM      7  C7  IND d   1       0.929   2.552  -0.295  0.00  0.00    -0.016 A 
ATOM      8  C8  IND d   1       0.662   3.909  -0.415  0.00  0.00    -0.047 A 
ATOM      9  C9  IND d   1       0.191   4.670   0.663  0.00  0.00    -0.096 A 
ATOM     10  HN1 IND d   1       0.992   4.520  -2.296  0.00  0.00     0.298 HD
ENDROOT
TORSDOF 0
ENDMDL
