MODEL 1
REMARK minimizedAffinity 20.1018715
REMARK minimizedRMSD -1
REMARK  0 active torsions:
REMARK  status: ('A' for Active; 'I' for Inactive)
ROOT
ATOM      1  N1  IND d   1       0.094   4.721  -1.798  0.00  0.00    -0.196 N 
ATOM      2  C2  IND d   1       0.009   6.000  -1.321  0.00  0.00     0.054 A 
ATOM      3  C3  IND d   1      -0.004   5.997   0.031  0.00  0.00    -0.031 A 
ATOM      4  C4  IND d   1       0.207   4.019   1.665  0.00  0.00     0.051 A 
ATOM      5  C5  IND d   1       0.270   2.654   1.702  0.00  0.00    -0.031 A 
ATOM      6  C6  IND d   1       0.280   1.894   0.551  0.00  0.00     0.015 A 
ATOM      7  C7  IND d   1       0.240   2.473  -0.686  0.00  0.00    -0.016 A 
ATOM      8  C8  IND d   1       0.168   3.858  -0.727  0.00  0.00    -0.047 A 
ATOM      9  C9  IND d   1       0.114   4.633   0.438  0.00  0.00    -0.096 A 
ATOM     10  HN1 IND d   1       0.100   4.495  -2.627  0.00  0.00     0.298 HD
ENDROOT
TORSDOF 0
ENDMDL
