MODEL 1
REMARK minimizedAffinity 13.6494865
REMARK minimizedRMSD -1
REMARK  0 active torsions:
REMARK  status: ('A' for Active; 'I' for Inactive)
ROOT
ATOM      1  N1  IND d   1       1.554   2.475   0.489  0.00  0.00    -0.196 N 
ATOM      2  C2  IND d   1       0.692   3.389   1.028  0.00  0.00     0.054 A 
ATOM      3  C3  IND d   1      -0.585   2.962   0.902  0.00  0.00    -0.031 A 
ATOM      4  C4  IND d   1      -1.482   0.751  -0.063  0.00  0.00     0.051 A 
ATOM      5  C5  IND d   1      -1.080  -0.385  -0.708  0.00  0.00    -0.031 A 
ATOM      6  C6  IND d   1       0.248  -0.632  -0.990  0.00  0.00     0.015 A 
ATOM      7  C7  IND d   1       1.229   0.247  -0.626  0.00  0.00    -0.016 A 
ATOM      8  C8  IND d   1       0.823   1.405   0.022  0.00  0.00    -0.047 A 
ATOM      9  C9  IND d   1      -0.527   1.680   0.274  0.00  0.00    -0.096 A 
ATOM     10  HN1 IND d   1       2.409   2.556   0.448  0.00  0.00     0.298 HD
ENDROOT
TORSDOF 0
ENDMDL
