MODEL 1
REMARK minimizedAffinity 6.22338057
REMARK minimizedRMSD -1
REMARK  0 active torsions:
REMARK  status: ('A' for Active; 'I' for Inactive)
ROOT
ATOM      1  N1  IND d   1       1.095   4.733  -0.534  0.00  0.00    -0.196 N 
ATOM      2  C2  IND d   1       0.068   3.847  -0.710  0.00  0.00     0.054 A 
ATOM      3  C3  IND d   1      -0.104   3.100   0.404  0.00  0.00    -0.031 A 
ATOM      4  C4  IND d   1       1.117   3.231   2.666  0.00  0.00     0.051 A 
ATOM      5  C5  IND d   1       2.156   3.859   3.295  0.00  0.00    -0.031 A 
ATOM      6  C6  IND d   1       2.908   4.831   2.668  0.00  0.00     0.015 A 
ATOM      7  C7  IND d   1       2.640   5.222   1.386  0.00  0.00    -0.016 A 
ATOM      8  C8  IND d   1       1.590   4.582   0.742  0.00  0.00    -0.047 A 
ATOM      9  C9  IND d   1       0.851   3.565   1.359  0.00  0.00    -0.096 A 
ATOM     10  HN1 IND d   1       1.382   5.290  -1.122  0.00  0.00     0.298 HD
ENDROOT
TORSDOF 0
ENDMDL
