MODEL 1
REMARK minimizedAffinity 15.7852354
REMARK minimizedRMSD -1
REMARK  0 active torsions:
REMARK  status: ('A' for Active; 'I' for Inactive)
ROOT
ATOM      1  N1  IND d   1      -2.351  -0.670  -2.729  0.00  0.00    -0.196 N 
ATOM      2  C2  IND d   1      -1.478  -1.225  -3.622  0.00  0.00     0.054 A 
ATOM      3  C3  IND d   1      -0.202  -0.987  -3.243  0.00  0.00    -0.031 A 
ATOM      4  C4  IND d   1       0.684   0.203  -1.139  0.00  0.00     0.051 A 
ATOM      5  C5  IND d   1       0.268   0.909  -0.045  0.00  0.00    -0.031 A 
ATOM      6  C6  IND d   1      -1.069   1.127   0.217  0.00  0.00     0.015 A 
ATOM      7  C7  IND d   1      -2.045   0.635  -0.603  0.00  0.00    -0.016 A 
ATOM      8  C8  IND d   1      -1.626  -0.077  -1.718  0.00  0.00    -0.047 A 
ATOM      9  C9  IND d   1      -0.270  -0.265  -2.012  0.00  0.00    -0.096 A 
ATOM     10  HN1 IND d   1      -3.209  -0.689  -2.787  0.00  0.00     0.298 HD
ENDROOT
TORSDOF 0
ENDMDL
