MODEL 1
REMARK minimizedAffinity 12.6788082
REMARK minimizedRMSD -1
REMARK  0 active torsions:
REMARK  status: ('A' for Active; 'I' for Inactive)
ROOT
ATOM      1  N1  IND d   1       1.760   4.788  -0.222  0.00  0.00    -0.196 N 
ATOM      2  C2  IND d   1       0.599   4.821  -0.943  0.00  0.00     0.054 A 
ATOM      3  C3  IND d   1      -0.371   4.130  -0.304  0.00  0.00    -0.031 A 
ATOM      4  C4  IND d   1      -0.304   2.951   1.983  0.00  0.00     0.051 A 
ATOM      5  C5  IND d   1       0.548   2.618   2.999  0.00  0.00    -0.031 A 
ATOM      6  C6  IND d   1       1.873   3.001   2.994  0.00  0.00     0.015 A 
ATOM      7  C7  IND d   1       2.396   3.745   1.974  0.00  0.00    -0.016 A 
ATOM      8  C8  IND d   1       1.536   4.079   0.938  0.00  0.00    -0.047 A 
ATOM      9  C9  IND d   1       0.200   3.657   0.916  0.00  0.00    -0.096 A 
ATOM     10  HN1 IND d   1       2.505   5.149  -0.454  0.00  0.00     0.298 HD
ENDROOT
TORSDOF 0
ENDMDL
