MODEL 1
REMARK minimizedAffinity 8.94722271
REMARK minimizedRMSD -1
REMARK  0 active torsions:
REMARK  status: ('A' for Active; 'I' for Inactive)
ROOT
ATOM      1  N1  IND d   1      -4.116  -5.923  -5.999  0.00  0.00    -0.196 N 
ATOM      2  C2  IND d   1      -5.483  -5.949  -5.999  0.00  0.00     0.054 A 
ATOM      3  C3  IND d   1      -5.952  -5.999  -4.733  0.00  0.00    -0.031 A 
ATOM      4  C4  IND d   1      -4.661  -5.946  -2.506  0.00  0.00     0.051 A 
ATOM      5  C5  IND d   1      -3.393  -5.961  -1.996  0.00  0.00    -0.031 A 
ATOM      6  C6  IND d   1      -2.279  -5.961  -2.810  0.00  0.00     0.015 A 
ATOM      7  C7  IND d   1      -2.392  -5.935  -4.172  0.00  0.00    -0.016 A 
ATOM      8  C8  IND d   1      -3.677  -5.927  -4.694  0.00  0.00    -0.047 A 
ATOM      9  C9  IND d   1      -4.812  -5.969  -3.873  0.00  0.00    -0.096 A 
ATOM     10  HN1 IND d   1      -3.615  -5.907  -6.698  0.00  0.00     0.298 HD
ENDROOT
TORSDOF 0
ENDMDL
