MODEL 1
REMARK minimizedAffinity 15.4312086
REMARK minimizedRMSD -1
REMARK  0 active torsions:
REMARK  status: ('A' for Active; 'I' for Inactive)
ROOT
ATOM      1  N1  IND d   1       1.093   1.915   0.161  0.00  0.00    -0.196 N 
ATOM      2  C2  IND d   1       0.389   2.974   0.665  0.00  0.00     0.054 A 
ATOM      3  C3  IND d   1      -0.929   2.830   0.401  0.00  0.00    -0.031 A 
ATOM      4  C4  IND d   1      -2.163   0.887  -0.753  0.00  0.00     0.051 A 
ATOM      5  C5  IND d   1      -1.942  -0.288  -1.415  0.00  0.00    -0.031 A 
ATOM      6  C6  IND d   1      -0.673  -0.800  -1.586  0.00  0.00     0.015 A 
ATOM      7  C7  IND d   1       0.427  -0.159  -1.090  0.00  0.00    -0.016 A 
ATOM      8  C8  IND d   1       0.207   1.038  -0.423  0.00  0.00    -0.047 A 
ATOM      9  C9  IND d   1      -1.075   1.584  -0.283  0.00  0.00    -0.096 A 
ATOM     10  HN1 IND d   1       1.946   1.815   0.203  0.00  0.00     0.298 HD
ENDROOT
TORSDOF 0
ENDMDL
