MODEL 1
REMARK minimizedAffinity 30.7899895
REMARK minimizedRMSD -1
REMARK  0 active torsions:
REMARK  status: ('A' for Active; 'I' for Inactive)
ROOT
ATOM      1  N1  IND d   1       1.309   3.957   0.303  0.00  0.00    -0.196 N 
ATOM      2  C2  IND d   1       0.328   4.206   1.222  0.00  0.00     0.054 A 
ATOM      3  C3  IND d   1      -0.542   3.173   1.273  0.00  0.00    -0.031 A 
ATOM      4  C4  IND d   1      -0.492   0.928   0.012  0.00  0.00     0.051 A 
ATOM      5  C5  IND d   1       0.191   0.255  -0.962  0.00  0.00    -0.031 A 
ATOM      6  C6  IND d   1       1.305   0.791  -1.574  0.00  0.00     0.015 A 
ATOM      7  C7  IND d   1       1.787   2.021  -1.226  0.00  0.00    -0.016 A 
ATOM      8  C8  IND d   1       1.092   2.710  -0.242  0.00  0.00    -0.047 A 
ATOM      9  C9  IND d   1      -0.064   2.190   0.353  0.00  0.00    -0.096 A 
ATOM     10  HN1 IND d   1       1.953   4.489   0.100  0.00  0.00     0.298 HD
ENDROOT
TORSDOF 0
ENDMDL
