MODEL 1
REMARK minimizedAffinity 17.3301659
REMARK minimizedRMSD -1
REMARK  0 active torsions:
REMARK  status: ('A' for Active; 'I' for Inactive)
ROOT
ATOM      1  N1  IND d   1       0.219  -1.134   4.668  0.00  0.00    -0.196 N 
ATOM      2  C2  IND d   1       1.346  -1.906   4.665  0.00  0.00     0.054 A 
ATOM      3  C3  IND d   1       2.300  -1.344   3.889  0.00  0.00    -0.031 A 
ATOM      4  C4  IND d   1       2.262   0.892   2.614  0.00  0.00     0.051 A 
ATOM      5  C5  IND d   1       1.437   1.932   2.287  0.00  0.00    -0.031 A 
ATOM      6  C6  IND d   1       0.139   2.006   2.749  0.00  0.00     0.015 A 
ATOM      7  C7  IND d   1      -0.382   1.044   3.567  0.00  0.00    -0.016 A 
ATOM      8  C8  IND d   1       0.450  -0.017   3.896  0.00  0.00    -0.047 A 
ATOM      9  C9  IND d   1       1.755  -0.119   3.396  0.00  0.00    -0.096 A 
ATOM     10  HN1 IND d   1      -0.512  -1.315   5.083  0.00  0.00     0.298 HD
ENDROOT
TORSDOF 0
ENDMDL
