MODEL 1
REMARK minimizedAffinity 10.7827368
REMARK minimizedRMSD -1
REMARK  0 active torsions:
REMARK  status: ('A' for Active; 'I' for Inactive)
ROOT
ATOM      1  C2' OXE d   1      -0.871  -1.086   2.546  0.00  0.00     0.078 C 
ATOM      2  C1' OXE d   1       1.479  -1.907   1.248  0.00  0.00     0.078 C 
ATOM      3  C1  OXE d   1       1.557  -1.613   2.725  0.00  0.00    -0.078 A 
ATOM      4  C2  OXE d   1       0.413  -1.166   3.342  0.00  0.00    -0.078 A 
ATOM      5  C3  OXE d   1       0.417  -0.933   4.715  0.00  0.00     0.003 A 
ATOM      6  C4  OXE d   1       1.612  -1.000   5.442  0.00  0.00    -0.002 A 
ATOM      7  C5  OXE d   1       2.796  -1.414   4.824  0.00  0.00    -0.002 A 
ATOM      8  C6  OXE d   1       2.777  -1.764   3.479  0.00  0.00     0.003 A 
ENDROOT
TORSDOF 0
ENDMDL
