MODEL 1
REMARK minimizedAffinity 2.91605163
REMARK minimizedRMSD -1
REMARK  0 active torsions:
REMARK  status: ('A' for Active; 'I' for Inactive)
ROOT
ATOM      1  C2' OXE d   1      -0.704  -5.951  -5.989  0.00  0.00     0.078 C 
ATOM      2  C1' OXE d   1      -0.719  -5.963  -3.182  0.00  0.00     0.078 C 
ATOM      3  C1  OXE d   1       0.619  -5.959  -3.878  0.00  0.00    -0.078 A 
ATOM      4  C2  OXE d   1       0.617  -6.000  -5.252  0.00  0.00    -0.078 A 
ATOM      5  C3  OXE d   1       1.823  -5.942  -5.945  0.00  0.00     0.003 A 
ATOM      6  C4  OXE d   1       3.040  -5.998  -5.256  0.00  0.00    -0.002 A 
ATOM      7  C5  OXE d   1       3.065  -5.997  -3.857  0.00  0.00    -0.002 A 
ATOM      8  C6  OXE d   1       1.866  -5.935  -3.155  0.00  0.00     0.003 A 
ENDROOT
TORSDOF 0
ENDMDL
