MODEL 1
REMARK minimizedAffinity 12.5792685
REMARK minimizedRMSD -1
REMARK  0 active torsions:
REMARK  status: ('A' for Active; 'I' for Inactive)
ROOT
ATOM      1  C2' OXE d   1      -0.748  -1.276  -5.054  0.00  0.00     0.078 C 
ATOM      2  C1' OXE d   1       0.761  -2.488  -3.021  0.00  0.00     0.078 C 
ATOM      3  C1  OXE d   1       1.496  -1.656  -4.041  0.00  0.00    -0.078 A 
ATOM      4  C2  OXE d   1       0.756  -1.105  -5.059  0.00  0.00    -0.078 A 
ATOM      5  C3  OXE d   1       1.376  -0.283  -5.996  0.00  0.00     0.003 A 
ATOM      6  C4  OXE d   1       2.769  -0.138  -6.000  0.00  0.00    -0.002 A 
ATOM      7  C5  OXE d   1       3.546  -0.723  -4.995  0.00  0.00    -0.002 A 
ATOM      8  C6  OXE d   1       2.922  -1.448  -3.986  0.00  0.00     0.003 A 
ENDROOT
TORSDOF 0
ENDMDL
