MODEL 1
REMARK minimizedAffinity 1.35346353
REMARK minimizedRMSD -1
REMARK  0 active torsions:
REMARK  status: ('A' for Active; 'I' for Inactive)
ROOT
ATOM      1  C2' OXE d   1      -0.018  -3.223  -3.130  0.00  0.00     0.078 C 
ATOM      2  C1' OXE d   1       2.542  -2.290  -2.454  0.00  0.00     0.078 C 
ATOM      3  C1  OXE d   1       1.895  -1.731  -3.696  0.00  0.00    -0.078 A 
ATOM      4  C2  OXE d   1       0.662  -2.228  -4.045  0.00  0.00    -0.078 A 
ATOM      5  C3  OXE d   1      -0.004  -1.706  -5.151  0.00  0.00     0.003 A 
ATOM      6  C4  OXE d   1       0.636  -0.793  -5.997  0.00  0.00    -0.002 A 
ATOM      7  C5  OXE d   1       1.908  -0.304  -5.683  0.00  0.00    -0.002 A 
ATOM      8  C6  OXE d   1       2.532  -0.730  -4.515  0.00  0.00     0.003 A 
ENDROOT
TORSDOF 0
ENDMDL
