MODEL 1
REMARK minimizedAffinity -0.127958789
REMARK minimizedRMSD -1
REMARK  0 active torsions:
REMARK  status: ('A' for Active; 'I' for Inactive)
ROOT
ATOM      1  C2' OXE d   1      -1.358  -0.870  -5.138  0.00  0.00     0.078 C 
ATOM      2  C1' OXE d   1      -0.023  -2.435  -3.228  0.00  0.00     0.078 C 
ATOM      3  C1  OXE d   1       0.815  -1.612  -4.174  0.00  0.00    -0.078 A 
ATOM      4  C2  OXE d   1       0.155  -0.886  -5.135  0.00  0.00    -0.078 A 
ATOM      5  C3  OXE d   1       0.879  -0.067  -5.998  0.00  0.00     0.003 A 
ATOM      6  C4  OXE d   1       2.278  -0.095  -5.995  0.00  0.00    -0.002 A 
ATOM      7  C5  OXE d   1       2.971  -0.859  -5.050  0.00  0.00    -0.002 A 
ATOM      8  C6  OXE d   1       2.256  -1.588  -4.107  0.00  0.00     0.003 A 
ENDROOT
TORSDOF 0
ENDMDL
