MODEL 1
REMARK minimizedAffinity 4.33183336
REMARK minimizedRMSD -1
REMARK  0 active torsions:
REMARK  status: ('A' for Active; 'I' for Inactive)
ROOT
ATOM      1  C2' OXE d   1      -1.265  -1.498  -5.221  0.00  0.00     0.078 C 
ATOM      2  C1' OXE d   1       0.227  -2.824  -3.246  0.00  0.00     0.078 C 
ATOM      3  C1  OXE d   1       0.960  -1.880  -4.166  0.00  0.00    -0.078 A 
ATOM      4  C2  OXE d   1       0.231  -1.271  -5.159  0.00  0.00    -0.078 A 
ATOM      5  C3  OXE d   1       0.847  -0.348  -6.000  0.00  0.00     0.003 A 
ATOM      6  C4  OXE d   1       2.232  -0.152  -5.942  0.00  0.00    -0.002 A 
ATOM      7  C5  OXE d   1       3.000  -0.792  -4.964  0.00  0.00    -0.002 A 
ATOM      8  C6  OXE d   1       2.374  -1.625  -4.043  0.00  0.00     0.003 A 
ENDROOT
TORSDOF 0
ENDMDL
