MODEL 1
REMARK minimizedAffinity 2.2594583
REMARK minimizedRMSD -1
REMARK  0 active torsions:
REMARK  status: ('A' for Active; 'I' for Inactive)
ROOT
ATOM      1  C2' OXE d   1       1.571   0.321  -6.000  0.00  0.00     0.078 C 
ATOM      2  C1' OXE d   1      -0.708  -1.108  -5.196  0.00  0.00     0.078 C 
ATOM      3  C1  OXE d   1       0.554  -1.283  -4.388  0.00  0.00    -0.078 A 
ATOM      4  C2  OXE d   1       1.677  -0.616  -4.816  0.00  0.00    -0.078 A 
ATOM      5  C3  OXE d   1       2.852  -0.700  -4.076  0.00  0.00     0.003 A 
ATOM      6  C4  OXE d   1       2.945  -1.577  -2.989  0.00  0.00    -0.002 A 
ATOM      7  C5  OXE d   1       1.824  -2.296  -2.559  0.00  0.00    -0.002 A 
ATOM      8  C6  OXE d   1       0.613  -2.129  -3.221  0.00  0.00     0.003 A 
ENDROOT
TORSDOF 0
ENDMDL
