MODEL 1
REMARK minimizedAffinity 8.24784184
REMARK minimizedRMSD -1
REMARK  0 active torsions:
REMARK  status: ('A' for Active; 'I' for Inactive)
ROOT
ATOM      1  C2' OXE d   1       3.707  -1.344   3.880  0.00  0.00     0.078 C 
ATOM      2  C1' OXE d   1       1.873  -1.489   5.999  0.00  0.00     0.078 C 
ATOM      3  C1  OXE d   1       1.336  -1.608   4.595  0.00  0.00    -0.078 A 
ATOM      4  C2  OXE d   1       2.235  -1.490   3.562  0.00  0.00    -0.078 A 
ATOM      5  C3  OXE d   1       1.801  -1.647   2.249  0.00  0.00     0.003 A 
ATOM      6  C4  OXE d   1       0.436  -1.772   1.964  0.00  0.00    -0.002 A 
ATOM      7  C5  OXE d   1      -0.501  -1.855   2.999  0.00  0.00    -0.002 A 
ATOM      8  C6  OXE d   1      -0.064  -1.818   4.319  0.00  0.00     0.003 A 
ENDROOT
TORSDOF 0
ENDMDL
