MODEL 1
REMARK minimizedAffinity -0.077982299
REMARK minimizedRMSD -1
REMARK  0 active torsions:
REMARK  status: ('A' for Active; 'I' for Inactive)
ROOT
ATOM      1  C2' OXE d   1      -1.151  -0.713  -5.096  0.00  0.00     0.078 C 
ATOM      2  C1' OXE d   1       0.105  -2.100  -3.003  0.00  0.00     0.078 C 
ATOM      3  C1  OXE d   1       0.983  -1.408  -4.016  0.00  0.00    -0.078 A 
ATOM      4  C2  OXE d   1       0.361  -0.771  -5.062  0.00  0.00    -0.078 A 
ATOM      5  C3  OXE d   1       1.122  -0.071  -5.994  0.00  0.00     0.003 A 
ATOM      6  C4  OXE d   1       2.520  -0.138  -5.961  0.00  0.00    -0.002 A 
ATOM      7  C5  OXE d   1       3.175  -0.815  -4.926  0.00  0.00    -0.002 A 
ATOM      8  C6  OXE d   1       2.423  -1.417  -3.924  0.00  0.00     0.003 A 
ENDROOT
TORSDOF 0
ENDMDL
