MODEL 1
REMARK minimizedAffinity 5.99656248
REMARK minimizedRMSD -1
REMARK  0 active torsions:
REMARK  status: ('A' for Active; 'I' for Inactive)
ROOT
ATOM      1  C2' OXE d   1      -1.168  -0.775  -5.123  0.00  0.00     0.078 C 
ATOM      2  C1' OXE d   1       0.037  -2.411  -3.185  0.00  0.00     0.078 C 
ATOM      3  C1  OXE d   1       0.939  -1.678  -4.147  0.00  0.00    -0.078 A 
ATOM      4  C2  OXE d   1       0.339  -0.917  -5.121  0.00  0.00    -0.078 A 
ATOM      5  C3  OXE d   1       1.126  -0.177  -5.999  0.00  0.00     0.003 A 
ATOM      6  C4  OXE d   1       2.518  -0.321  -5.997  0.00  0.00    -0.002 A 
ATOM      7  C5  OXE d   1       3.147  -1.123  -5.039  0.00  0.00    -0.002 A 
ATOM      8  C6  OXE d   1       2.376  -1.773  -4.081  0.00  0.00     0.003 A 
ENDROOT
TORSDOF 0
ENDMDL
