MODEL 1
REMARK minimizedAffinity 7.82139874
REMARK minimizedRMSD -1
REMARK  0 active torsions:
REMARK  status: ('A' for Active; 'I' for Inactive)
ROOT
ATOM      1  C2' OXE d   1       5.130  -0.205  -4.878  0.00  0.00     0.078 C 
ATOM      2  C1' OXE d   1       3.849  -1.687  -2.868  0.00  0.00     0.078 C 
ATOM      3  C1  OXE d   1       2.994  -1.099  -3.962  0.00  0.00    -0.078 A 
ATOM      4  C2  OXE d   1       3.623  -0.337  -4.916  0.00  0.00    -0.078 A 
ATOM      5  C3  OXE d   1       2.888   0.183  -5.978  0.00  0.00     0.003 A 
ATOM      6  C4  OXE d   1       1.493   0.065  -6.000  0.00  0.00    -0.002 A 
ATOM      7  C5  OXE d   1       0.828  -0.674  -5.016  0.00  0.00    -0.002 A 
ATOM      8  C6  OXE d   1       1.566  -1.297  -4.016  0.00  0.00     0.003 A 
ENDROOT
TORSDOF 0
ENDMDL
