MODEL 1
REMARK minimizedAffinity 4.8852911
REMARK minimizedRMSD -1
REMARK  0 active torsions:
REMARK  status: ('A' for Active; 'I' for Inactive)
ROOT
ATOM      1  C2' OXE d   1      -1.158  -1.125  -4.973  0.00  0.00     0.078 C 
ATOM      2  C1' OXE d   1       0.307  -2.067  -2.771  0.00  0.00     0.078 C 
ATOM      3  C1  OXE d   1       1.066  -1.381  -3.879  0.00  0.00    -0.078 A 
ATOM      4  C2  OXE d   1       0.347  -0.965  -4.974  0.00  0.00    -0.078 A 
ATOM      5  C3  OXE d   1       0.990  -0.279  -6.000  0.00  0.00     0.003 A 
ATOM      6  C4  OXE d   1       2.384  -0.144  -5.998  0.00  0.00    -0.002 A 
ATOM      7  C5  OXE d   1       3.139  -0.595  -4.911  0.00  0.00    -0.002 A 
ATOM      8  C6  OXE d   1       2.492  -1.177  -3.826  0.00  0.00     0.003 A 
ENDROOT
TORSDOF 0
ENDMDL
