MODEL 1
REMARK minimizedAffinity 6.03500128
REMARK minimizedRMSD -1
REMARK  0 active torsions:
REMARK  status: ('A' for Active; 'I' for Inactive)
ROOT
ATOM      1  C2' OXE d   1       0.367  -2.257  -2.824  0.00  0.00     0.078 C 
ATOM      2  C1' OXE d   1      -1.139  -1.061  -4.868  0.00  0.00     0.078 C 
ATOM      3  C1  OXE d   1       0.361  -0.923  -4.928  0.00  0.00    -0.078 A 
ATOM      4  C2  OXE d   1       1.088  -1.472  -3.898  0.00  0.00    -0.078 A 
ATOM      5  C3  OXE d   1       2.479  -1.421  -3.932  0.00  0.00     0.003 A 
ATOM      6  C4  OXE d   1       3.137  -0.684  -4.924  0.00  0.00    -0.002 A 
ATOM      7  C5  OXE d   1       2.413  -0.083  -5.960  0.00  0.00    -0.002 A 
ATOM      8  C6  OXE d   1       1.031  -0.230  -6.000  0.00  0.00     0.003 A 
ENDROOT
TORSDOF 0
ENDMDL
