MODEL 1
REMARK minimizedAffinity -3.52434134
REMARK minimizedRMSD -1
REMARK  0 active torsions:
REMARK  status: ('A' for Active; 'I' for Inactive)
ROOT
ATOM      1  C2' OXE d   1       1.687  -1.421   3.278  0.00  0.00     0.078 C 
ATOM      2  C1' OXE d   1       2.171   0.611   1.403  0.00  0.00     0.078 C 
ATOM      3  C1  OXE d   1       0.752   0.126   1.565  0.00  0.00    -0.078 A 
ATOM      4  C2  OXE d   1       0.532  -0.901   2.451  0.00  0.00    -0.078 A 
ATOM      5  C3  OXE d   1      -0.766  -1.349   2.678  0.00  0.00     0.003 A 
ATOM      6  C4  OXE d   1      -1.828  -0.869   1.901  0.00  0.00    -0.002 A 
ATOM      7  C5  OXE d   1      -1.619   0.149   0.965  0.00  0.00    -0.002 A 
ATOM      8  C6  OXE d   1      -0.345   0.686   0.815  0.00  0.00     0.003 A 
ENDROOT
TORSDOF 0
ENDMDL
