MODEL 1
REMARK minimizedAffinity 2.6510787
REMARK minimizedRMSD -1
REMARK  0 active torsions:
REMARK  status: ('A' for Active; 'I' for Inactive)
ROOT
ATOM      1  C   UNL d   1       3.337   1.805   5.415  0.00  0.00    -0.002 A 
ATOM      2  C1  UNL d   1       2.567   2.368   4.408  0.00  0.00     0.010 A 
ATOM      3  C2  UNL d   1       2.822   3.666   3.961  0.00  0.00     0.041 A 
ATOM      4  C3  UNL d   1       3.875   4.395   4.548  0.00  0.00    -0.075 A 
ATOM      5  S   UNL d   1       4.371   6.000   4.161  0.00  0.00     0.015 SA
ATOM      6  C4  UNL d   1       5.617   5.975   5.323  0.00  0.00     0.022 A 
ATOM      7  C5  UNL d   1       5.668   4.779   6.000  0.00  0.00     0.026 A 
ATOM      8  C6  UNL d   1       4.665   3.849   5.564  0.00  0.00    -0.082 A 
ATOM      9  C7  UNL d   1       4.381   2.531   5.996  0.00  0.00     0.045 A 
ENDROOT
TORSDOF 0
ENDMDL
