MODEL 1
REMARK minimizedAffinity 8.08545208
REMARK minimizedRMSD -1
REMARK  0 active torsions:
REMARK  status: ('A' for Active; 'I' for Inactive)
ROOT
ATOM      1  C   UNL d   1       4.893   5.297   5.206  0.00  0.00    -0.002 A 
ATOM      2  C1  UNL d   1       4.735   5.256   3.828  0.00  0.00     0.010 A 
ATOM      3  C2  UNL d   1       4.142   4.151   3.214  0.00  0.00     0.041 A 
ATOM      4  C3  UNL d   1       3.705   3.079   4.016  0.00  0.00    -0.075 A 
ATOM      5  S   UNL d   1       2.950   1.623   3.484  0.00  0.00     0.015 SA
ATOM      6  C4  UNL d   1       2.820   1.021   5.073  0.00  0.00     0.022 A 
ATOM      7  C5  UNL d   1       3.335   1.897   6.000  0.00  0.00     0.026 A 
ATOM      8  C6  UNL d   1       3.853   3.097   5.406  0.00  0.00    -0.082 A 
ATOM      9  C7  UNL d   1       4.459   4.231   5.998  0.00  0.00     0.045 A 
ENDROOT
TORSDOF 0
ENDMDL
