MODEL 1
REMARK minimizedAffinity -5.07690954
REMARK minimizedRMSD -1
REMARK  0 active torsions:
REMARK  status: ('A' for Active; 'I' for Inactive)
ROOT
ATOM      1  C   UNL d   1       0.458   5.196   2.936  0.00  0.00    -0.002 A 
ATOM      2  C1  UNL d   1       0.133   5.393   4.271  0.00  0.00     0.010 A 
ATOM      3  C2  UNL d   1       0.942   4.873   5.283  0.00  0.00     0.041 A 
ATOM      4  C3  UNL d   1       2.096   4.147   4.928  0.00  0.00    -0.075 A 
ATOM      5  S   UNL d   1       3.235   3.418   5.998  0.00  0.00     0.015 SA
ATOM      6  C4  UNL d   1       4.182   2.830   4.708  0.00  0.00     0.022 A 
ATOM      7  C5  UNL d   1       3.655   3.171   3.485  0.00  0.00     0.026 A 
ATOM      8  C6  UNL d   1       2.445   3.936   3.591  0.00  0.00    -0.082 A 
ATOM      9  C7  UNL d   1       1.604   4.475   2.588  0.00  0.00     0.045 A 
ENDROOT
TORSDOF 0
ENDMDL
