MODEL 1
REMARK minimizedAffinity -3.15913653
REMARK minimizedRMSD -1
REMARK  0 active torsions:
REMARK  status: ('A' for Active; 'I' for Inactive)
ROOT
ATOM      1  C   UNL d   1       0.811   5.998   4.254  0.00  0.00    -0.002 A 
ATOM      2  C1  UNL d   1       0.539   5.251   5.391  0.00  0.00     0.010 A 
ATOM      3  C2  UNL d   1       1.538   4.484   5.993  0.00  0.00     0.041 A 
ATOM      4  C3  UNL d   1       2.829   4.483   5.429  0.00  0.00    -0.075 A 
ATOM      5  S   UNL d   1       4.210   3.620   5.996  0.00  0.00     0.015 SA
ATOM      6  C4  UNL d   1       5.194   4.224   4.742  0.00  0.00     0.022 A 
ATOM      7  C5  UNL d   1       4.502   5.065   3.902  0.00  0.00     0.026 A 
ATOM      8  C6  UNL d   1       3.128   5.228   4.285  0.00  0.00    -0.082 A 
ATOM      9  C7  UNL d   1       2.093   5.994   3.697  0.00  0.00     0.045 A 
ENDROOT
TORSDOF 0
ENDMDL
