MODEL 1
REMARK minimizedAffinity -4.39026213
REMARK minimizedRMSD -1
REMARK  0 active torsions:
REMARK  status: ('A' for Active; 'I' for Inactive)
ROOT
ATOM      1  C2' OXE d   1      -0.093  -0.151  -1.218  0.00  0.00     0.078 C 
ATOM      2  C1' OXE d   1       1.898  -1.286   0.403  0.00  0.00     0.078 C 
ATOM      3  C1  OXE d   1       0.810  -0.488   1.079  0.00  0.00    -0.078 A 
ATOM      4  C2  OXE d   1      -0.133   0.102   0.274  0.00  0.00    -0.078 A 
ATOM      5  C3  OXE d   1      -1.189   0.804   0.849  0.00  0.00     0.003 A 
ATOM      6  C4  OXE d   1      -1.214   1.042   2.229  0.00  0.00    -0.002 A 
ATOM      7  C5  OXE d   1      -0.240   0.483   3.063  0.00  0.00    -0.002 A 
ATOM      8  C6  OXE d   1       0.753  -0.319   2.510  0.00  0.00     0.003 A 
ENDROOT
TORSDOF 0
ENDMDL
