MODEL 1
REMARK minimizedAffinity -2.84702921
REMARK minimizedRMSD -1
REMARK  0 active torsions:
REMARK  status: ('A' for Active; 'I' for Inactive)
ROOT
ATOM      1  C2' OXE d   1       1.056   0.137  -0.893  0.00  0.00     0.078 C 
ATOM      2  C1' OXE d   1      -1.148  -1.342   0.022  0.00  0.00     0.078 C 
ATOM      3  C1  OXE d   1      -0.681  -0.182   0.865  0.00  0.00    -0.078 A 
ATOM      4  C2  OXE d   1       0.427   0.507   0.433  0.00  0.00    -0.078 A 
ATOM      5  C3  OXE d   1       0.867   1.620   1.145  0.00  0.00     0.003 A 
ATOM      6  C4  OXE d   1       0.286   1.950   2.375  0.00  0.00    -0.002 A 
ATOM      7  C5  OXE d   1      -0.819   1.236   2.853  0.00  0.00    -0.002 A 
ATOM      8  C6  OXE d   1      -1.340   0.197   2.090  0.00  0.00     0.003 A 
ENDROOT
TORSDOF 0
ENDMDL
