MODEL 1
REMARK minimizedAffinity -3.93248415
REMARK minimizedRMSD -1
REMARK  0 active torsions:
REMARK  status: ('A' for Active; 'I' for Inactive)
ROOT
ATOM      1  C2' OXE d   1       0.547  -0.751  -0.786  0.00  0.00     0.078 C 
ATOM      2  C1' OXE d   1       2.030  -0.287   1.553  0.00  0.00     0.078 C 
ATOM      3  C1  OXE d   1       0.599   0.189   1.521  0.00  0.00    -0.078 A 
ATOM      4  C2  OXE d   1      -0.105  -0.001   0.356  0.00  0.00    -0.078 A 
ATOM      5  C3  OXE d   1      -1.445   0.370   0.292  0.00  0.00     0.003 A 
ATOM      6  C4  OXE d   1      -2.037   1.073   1.349  0.00  0.00    -0.002 A 
ATOM      7  C5  OXE d   1      -1.326   1.311   2.529  0.00  0.00    -0.002 A 
ATOM      8  C6  OXE d   1      -0.023   0.839   2.648  0.00  0.00     0.003 A 
ENDROOT
TORSDOF 0
ENDMDL
