MODEL 1
REMARK minimizedAffinity 3.8928225
REMARK minimizedRMSD -1
REMARK  1 active torsions:
REMARK  status: ('A' for Active; 'I' for Inactive)
REMARK    1  A    between atoms: C1_2  and  C2_3 
ROOT
ATOM      1  C2  UNL d   1       3.449   0.365  -0.731  0.00  0.00    -0.077 A 
ATOM      2  C3  UNL d   1       4.556  -0.380  -0.300  0.00  0.00     0.002 A 
ATOM      3  C4  UNL d   1       5.826   0.200  -0.262  0.00  0.00     0.002 A 
ATOM      4  C5  UNL d   1       6.000   1.527  -0.650  0.00  0.00    -0.004 A 
ATOM      5  C6  UNL d   1       4.905   2.275  -1.082  0.00  0.00     0.002 A 
ATOM      6  C7  UNL d   1       3.636   1.697  -1.122  0.00  0.00     0.002 A 
ENDROOT
BRANCH   1   7
ATOM      7  C1  UNL d   1       2.071  -0.244  -0.726  0.00  0.00     0.055 C 
ATOM      8  C   UNL d   1       1.035   0.736  -0.194  0.00  0.00     0.019 C 
ENDBRANCH   1   7
TORSDOF 1
ENDMDL
