MODEL 1
REMARK minimizedAffinity 7.61726284
REMARK minimizedRMSD -1
REMARK  1 active torsions:
REMARK  status: ('A' for Active; 'I' for Inactive)
REMARK    1  A    between atoms: C1_2  and  C2_3 
ROOT
ATOM      1  C2  UNL d   1       3.030  -0.722  -1.037  0.00  0.00    -0.077 A 
ATOM      2  C3  UNL d   1       2.634   0.097   0.029  0.00  0.00     0.002 A 
ATOM      3  C4  UNL d   1       3.397   1.211   0.386  0.00  0.00     0.002 A 
ATOM      4  C5  UNL d   1       4.557   1.518  -0.321  0.00  0.00    -0.004 A 
ATOM      5  C6  UNL d   1       4.961   0.709  -1.382  0.00  0.00     0.002 A 
ATOM      6  C7  UNL d   1       4.201  -0.405  -1.739  0.00  0.00     0.002 A 
ENDROOT
BRANCH   1   7
ATOM      7  C1  UNL d   1       2.183  -1.895  -1.455  0.00  0.00     0.055 C 
ATOM      8  C   UNL d   1       2.046  -2.908  -0.328  0.00  0.00     0.019 C 
ENDBRANCH   1   7
TORSDOF 1
ENDMDL
