MODEL 1
REMARK minimizedAffinity 10.1297169
REMARK minimizedRMSD -1
REMARK  1 active torsions:
REMARK  status: ('A' for Active; 'I' for Inactive)
REMARK    1  A    between atoms: C1_2  and  C2_3 
ROOT
ATOM      1  C2  UNL d   1       3.380  -0.614  -1.286  0.00  0.00    -0.077 A 
ATOM      2  C3  UNL d   1       3.965   0.330  -2.142  0.00  0.00     0.002 A 
ATOM      3  C4  UNL d   1       4.852   1.285  -1.641  0.00  0.00     0.002 A 
ATOM      4  C5  UNL d   1       5.166   1.301  -0.283  0.00  0.00    -0.004 A 
ATOM      5  C6  UNL d   1       4.588   0.368   0.577  0.00  0.00     0.002 A 
ATOM      6  C7  UNL d   1       3.700  -0.586   0.077  0.00  0.00     0.002 A 
ENDROOT
BRANCH   1   7
ATOM      7  C1  UNL d   1       2.461  -1.674  -1.833  0.00  0.00     0.055 C 
ATOM      8  C   UNL d   1       2.319  -2.838  -0.863  0.00  0.00     0.019 C 
ENDBRANCH   1   7
TORSDOF 1
ENDMDL
