MODEL 1
REMARK minimizedAffinity 4.81824017
REMARK minimizedRMSD -1
REMARK  1 active torsions:
REMARK  status: ('A' for Active; 'I' for Inactive)
REMARK    1  A    between atoms: C1_2  and  C2_3 
ROOT
ATOM      1  C2  UNL d   1       2.303  -1.835  -0.614  0.00  0.00    -0.077 A 
ATOM      2  C3  UNL d   1       1.661  -0.589  -0.664  0.00  0.00     0.002 A 
ATOM      3  C4  UNL d   1       2.404   0.591  -0.601  0.00  0.00     0.002 A 
ATOM      4  C5  UNL d   1       3.792   0.538  -0.493  0.00  0.00    -0.004 A 
ATOM      5  C6  UNL d   1       4.440  -0.696  -0.440  0.00  0.00     0.002 A 
ATOM      6  C7  UNL d   1       3.699  -1.877  -0.501  0.00  0.00     0.002 A 
ENDROOT
BRANCH   1   7
ATOM      7  C1  UNL d   1       1.508  -3.109  -0.730  0.00  0.00     0.055 C 
ATOM      8  C   UNL d   1       0.382  -2.967  -1.745  0.00  0.00     0.019 C 
ENDBRANCH   1   7
TORSDOF 1
ENDMDL
