MODEL 1
REMARK minimizedAffinity 11.8132887
REMARK minimizedRMSD -1
REMARK  1 active torsions:
REMARK  status: ('A' for Active; 'I' for Inactive)
REMARK    1  A    between atoms: C1_2  and  C2_3 
ROOT
ATOM      1  C2  UNL d   1      -2.566  -0.396  -4.182  0.00  0.00    -0.077 A 
ATOM      2  C3  UNL d   1      -1.790   0.341  -5.088  0.00  0.00     0.002 A 
ATOM      3  C4  UNL d   1      -2.398   1.213  -5.993  0.00  0.00     0.002 A 
ATOM      4  C5  UNL d   1      -3.783   1.359  -5.998  0.00  0.00    -0.004 A 
ATOM      5  C6  UNL d   1      -4.564   0.629  -5.103  0.00  0.00     0.002 A 
ATOM      6  C7  UNL d   1      -3.958  -0.244  -4.199  0.00  0.00     0.002 A 
ENDROOT
BRANCH   1   7
ATOM      7  C1  UNL d   1      -1.908  -1.300  -3.173  0.00  0.00     0.055 C 
ATOM      8  C   UNL d   1      -2.940  -2.112  -2.402  0.00  0.00     0.019 C 
ENDBRANCH   1   7
TORSDOF 1
ENDMDL
