MODEL 1
REMARK minimizedAffinity 2.4199667
REMARK minimizedRMSD -1
REMARK  1 active torsions:
REMARK  status: ('A' for Active; 'I' for Inactive)
REMARK    1  A    between atoms: C1_2  and  C2_3 
ROOT
ATOM      1  C2  UNL d   1       5.089   1.942   0.028  0.00  0.00    -0.077 A 
ATOM      2  C3  UNL d   1       4.593   1.195   1.106  0.00  0.00     0.002 A 
ATOM      3  C4  UNL d   1       3.793   0.073   0.879  0.00  0.00     0.002 A 
ATOM      4  C5  UNL d   1       3.486  -0.313  -0.424  0.00  0.00    -0.004 A 
ATOM      5  C6  UNL d   1       3.973   0.424  -1.502  0.00  0.00     0.002 A 
ATOM      6  C7  UNL d   1       4.771   1.547  -1.277  0.00  0.00     0.002 A 
ENDROOT
BRANCH   1   7
ATOM      7  C1  UNL d   1       5.992   3.124   0.269  0.00  0.00     0.055 C 
ATOM      8  C   UNL d   1       5.565   4.326  -0.560  0.00  0.00     0.019 C 
ENDBRANCH   1   7
TORSDOF 1
ENDMDL
