MODEL 1
REMARK minimizedAffinity -3.5256238
REMARK minimizedRMSD -1
REMARK  1 active torsions:
REMARK  status: ('A' for Active; 'I' for Inactive)
REMARK    1  A    between atoms: C1_2  and  C2_3 
ROOT
ATOM      1  C2  UNL d   1      -4.825   1.480  -3.488  0.00  0.00    -0.077 A 
ATOM      2  C3  UNL d   1      -3.571   1.111  -2.983  0.00  0.00     0.002 A 
ATOM      3  C4  UNL d   1      -2.570   0.651  -3.842  0.00  0.00     0.002 A 
ATOM      4  C5  UNL d   1      -2.813   0.561  -5.211  0.00  0.00    -0.004 A 
ATOM      5  C6  UNL d   1      -4.058   0.924  -5.723  0.00  0.00     0.002 A 
ATOM      6  C7  UNL d   1      -5.059   1.382  -4.866  0.00  0.00     0.002 A 
ENDROOT
BRANCH   1   7
ATOM      7  C1  UNL d   1      -5.888   2.023  -2.569  0.00  0.00     0.055 C 
ATOM      8  C   UNL d   1      -5.988   3.538  -2.671  0.00  0.00     0.019 C 
ENDBRANCH   1   7
TORSDOF 1
ENDMDL
