MODEL 1
REMARK minimizedAffinity 6.89354277
REMARK minimizedRMSD -1
REMARK  0 active torsions:
REMARK  status: ('A' for Active; 'I' for Inactive)
ROOT
ATOM      1  C1  DEN d   1       1.175   3.666  -0.077  0.00  0.00     0.130 A 
ATOM      2  C2  DEN d   1       0.117   4.666  -0.188  0.00  0.00    -0.031 A 
ATOM      3  C3  DEN d   1      -0.797   4.491   0.959  0.00  0.00     0.027 A 
ATOM      4  C4  DEN d   1      -0.675   2.782   2.886  0.00  0.00     0.027 A 
ATOM      5  C5  DEN d   1       0.037   1.722   3.403  0.00  0.00    -0.003 A 
ATOM      6  C6  DEN d   1       1.149   1.218   2.783  0.00  0.00     0.001 A 
ATOM      7  C7  DEN d   1       1.609   1.803   1.633  0.00  0.00     0.017 A 
ATOM      8  C8  DEN d   1       0.893   2.868   1.102  0.00  0.00    -0.094 A 
ATOM      9  C9  DEN d   1      -0.223   3.370   1.750  0.00  0.00    -0.072 A 
ENDROOT
TORSDOF 0
ENDMDL
