MODEL 1
REMARK minimizedAffinity 7.77424097
REMARK minimizedRMSD -1
REMARK  0 active torsions:
REMARK  status: ('A' for Active; 'I' for Inactive)
ROOT
ATOM      1  C1  DEN d   1      -1.491   3.804  -2.363  0.00  0.00     0.130 A 
ATOM      2  C2  DEN d   1      -2.057   4.995  -1.736  0.00  0.00    -0.031 A 
ATOM      3  C3  DEN d   1      -1.465   5.126  -0.389  0.00  0.00     0.027 A 
ATOM      4  C4  DEN d   1       0.266   3.612   0.778  0.00  0.00     0.027 A 
ATOM      5  C5  DEN d   1       1.031   2.474   0.647  0.00  0.00    -0.003 A 
ATOM      6  C6  DEN d   1       0.984   1.688  -0.473  0.00  0.00     0.001 A 
ATOM      7  C7  DEN d   1       0.188   2.053  -1.526  0.00  0.00     0.017 A 
ATOM      8  C8  DEN d   1      -0.592   3.195  -1.399  0.00  0.00    -0.094 A 
ATOM      9  C9  DEN d   1      -0.521   3.983  -0.263  0.00  0.00    -0.072 A 
ENDROOT
TORSDOF 0
ENDMDL
