MODEL 1
REMARK minimizedAffinity 5.03101587
REMARK minimizedRMSD -1
REMARK  0 active torsions:
REMARK  status: ('A' for Active; 'I' for Inactive)
ROOT
ATOM      1  C1  DEN d   1      -1.553   2.654  -0.616  0.00  0.00     0.130 A 
ATOM      2  C2  DEN d   1      -0.499   1.961   0.121  0.00  0.00    -0.031 A 
ATOM      3  C3  DEN d   1       0.731   2.771   0.027  0.00  0.00     0.027 A 
ATOM      4  C4  DEN d   1       1.104   5.022  -1.176  0.00  0.00     0.027 A 
ATOM      5  C5  DEN d   1       0.508   5.995  -1.947  0.00  0.00    -0.003 A 
ATOM      6  C6  DEN d   1      -0.797   5.906  -2.354  0.00  0.00     0.001 A 
ATOM      7  C7  DEN d   1      -1.562   4.843  -1.953  0.00  0.00     0.017 A 
ATOM      8  C8  DEN d   1      -0.966   3.855  -1.182  0.00  0.00    -0.094 A 
ATOM      9  C9  DEN d   1       0.351   3.969  -0.770  0.00  0.00    -0.072 A 
ENDROOT
TORSDOF 0
ENDMDL
