MODEL 1
REMARK minimizedAffinity 2.55618715
REMARK minimizedRMSD -1
REMARK  0 active torsions:
REMARK  status: ('A' for Active; 'I' for Inactive)
ROOT
ATOM      1  C1  DEN d   1      -5.999   3.850  -5.012  0.00  0.00     0.130 A 
ATOM      2  C2  DEN d   1      -4.939   4.048  -5.998  0.00  0.00    -0.031 A 
ATOM      3  C3  DEN d   1      -3.696   3.467  -5.454  0.00  0.00     0.027 A 
ATOM      4  C4  DEN d   1      -3.310   2.283  -3.195  0.00  0.00     0.027 A 
ATOM      5  C5  DEN d   1      -3.908   1.887  -2.018  0.00  0.00    -0.003 A 
ATOM      6  C6  DEN d   1      -5.225   2.146  -1.745  0.00  0.00     0.001 A 
ATOM      7  C7  DEN d   1      -6.000   2.780  -2.680  0.00  0.00     0.017 A 
ATOM      8  C8  DEN d   1      -5.403   3.188  -3.866  0.00  0.00    -0.094 A 
ATOM      9  C9  DEN d   1      -4.073   2.906  -4.128  0.00  0.00    -0.072 A 
ENDROOT
TORSDOF 0
ENDMDL
