MODEL 1
REMARK minimizedAffinity 2.21452856
REMARK minimizedRMSD -1
REMARK  0 active torsions:
REMARK  status: ('A' for Active; 'I' for Inactive)
ROOT
ATOM      1  C4' PXY d   1       5.260  -5.298   0.380  0.00  0.00     0.077 C 
ATOM      2  C1' PXY d   1       0.793  -1.927   1.831  0.00  0.00     0.077 C 
ATOM      3  C1  PXY d   1       1.971  -2.808   1.462  0.00  0.00    -0.082 A 
ATOM      4  C2  PXY d   1       2.176  -3.127   0.194  0.00  0.00     0.003 A 
ATOM      5  C3  PXY d   1       3.217  -3.948  -0.154  0.00  0.00     0.003 A 
ATOM      6  C4  PXY d   1       4.089  -4.404   0.798  0.00  0.00    -0.082 A 
ATOM      7  C5  PXY d   1       3.893  -4.074   2.093  0.00  0.00     0.003 A 
ATOM      8  C6  PXY d   1       2.806  -3.273   2.430  0.00  0.00     0.003 A 
ENDROOT
TORSDOF 0
ENDMDL
