MODEL 1
REMARK minimizedAffinity 7.88253736
REMARK minimizedRMSD -1
REMARK  0 active torsions:
REMARK  status: ('A' for Active; 'I' for Inactive)
ROOT
ATOM      1  C4' PXY d   1       4.450  -3.338  -1.166  0.00  0.00     0.077 C 
ATOM      2  C1' PXY d   1       0.210  -1.226   2.148  0.00  0.00     0.077 C 
ATOM      3  C1  PXY d   1       1.318  -1.773   1.269  0.00  0.00    -0.082 A 
ATOM      4  C2  PXY d   1       1.894  -2.922   1.581  0.00  0.00     0.003 A 
ATOM      5  C3  PXY d   1       2.918  -3.416   0.815  0.00  0.00     0.003 A 
ATOM      6  C4  PXY d   1       3.321  -2.752  -0.312  0.00  0.00    -0.082 A 
ATOM      7  C5  PXY d   1       2.732  -1.584  -0.644  0.00  0.00     0.003 A 
ATOM      8  C6  PXY d   1       1.721  -1.080   0.170  0.00  0.00     0.003 A 
ENDROOT
TORSDOF 0
ENDMDL
