MODEL 1
REMARK minimizedAffinity 9.88508415
REMARK minimizedRMSD -1
REMARK  0 active torsions:
REMARK  status: ('A' for Active; 'I' for Inactive)
ROOT
ATOM      1  C4' PXY d   1       5.090  -2.514   4.941  0.00  0.00     0.077 C 
ATOM      2  C1' PXY d   1       1.922  -2.435   0.106  0.00  0.00     0.077 C 
ATOM      3  C1  PXY d   1       2.752  -2.443   1.375  0.00  0.00    -0.082 A 
ATOM      4  C2  PXY d   1       3.621  -3.419   1.583  0.00  0.00     0.003 A 
ATOM      5  C3  PXY d   1       4.356  -3.459   2.740  0.00  0.00     0.003 A 
ATOM      6  C4  PXY d   1       4.238  -2.461   3.669  0.00  0.00    -0.082 A 
ATOM      7  C5  PXY d   1       3.362  -1.456   3.460  0.00  0.00     0.003 A 
ATOM      8  C6  PXY d   1       2.595  -1.456   2.298  0.00  0.00     0.003 A 
ENDROOT
TORSDOF 0
ENDMDL
