MODEL 1
REMARK minimizedAffinity 4.49416113
REMARK minimizedRMSD -1
REMARK  0 active torsions:
REMARK  status: ('A' for Active; 'I' for Inactive)
ROOT
ATOM      1  C4' PXY d   1       0.900   5.787  -5.627  0.00  0.00     0.077 C 
ATOM      2  C1' PXY d   1       5.530   2.338  -5.914  0.00  0.00     0.077 C 
ATOM      3  C1  PXY d   1       4.323   3.251  -5.832  0.00  0.00    -0.082 A 
ATOM      4  C2  PXY d   1       3.107   2.736  -5.904  0.00  0.00     0.003 A 
ATOM      5  C3  PXY d   1       2.004   3.550  -5.864  0.00  0.00     0.003 A 
ATOM      6  C4  PXY d   1       2.148   4.902  -5.695  0.00  0.00    -0.082 A 
ATOM      7  C5  PXY d   1       3.385   5.434  -5.611  0.00  0.00     0.003 A 
ATOM      8  C6  PXY d   1       4.492   4.594  -5.695  0.00  0.00     0.003 A 
ENDROOT
TORSDOF 0
ENDMDL
