MODEL 1
REMARK minimizedAffinity 8.29024601
REMARK minimizedRMSD -1
REMARK  0 active torsions:
REMARK  status: ('A' for Active; 'I' for Inactive)
ROOT
ATOM      1  C4' PXY d   1       4.489   1.931  -6.000  0.00  0.00     0.077 C 
ATOM      2  C1' PXY d   1      -1.021   2.767  -4.464  0.00  0.00     0.077 C 
ATOM      3  C1  PXY d   1       0.423   2.556  -4.877  0.00  0.00    -0.082 A 
ATOM      4  C2  PXY d   1       1.053   1.452  -4.511  0.00  0.00     0.003 A 
ATOM      5  C3  PXY d   1       2.368   1.259  -4.849  0.00  0.00     0.003 A 
ATOM      6  C4  PXY d   1       3.029   2.182  -5.614  0.00  0.00    -0.082 A 
ATOM      7  C5  PXY d   1       2.390   3.307  -6.000  0.00  0.00     0.003 A 
ATOM      8  C6  PXY d   1       1.067   3.502  -5.612  0.00  0.00     0.003 A 
ENDROOT
TORSDOF 0
ENDMDL
