MODEL 1
REMARK minimizedAffinity 4.07362652
REMARK minimizedRMSD -1
REMARK  0 active torsions:
REMARK  status: ('A' for Active; 'I' for Inactive)
ROOT
ATOM      1  C4' PXY d   1       3.721  -2.137  -0.565  0.00  0.00     0.077 C 
ATOM      2  C1' PXY d   1      -0.366  -0.758   3.283  0.00  0.00     0.077 C 
ATOM      3  C1  PXY d   1       0.710  -1.129   2.282  0.00  0.00    -0.082 A 
ATOM      4  C2  PXY d   1       1.156  -0.218   1.432  0.00  0.00     0.003 A 
ATOM      5  C3  PXY d   1       2.105  -0.545   0.499  0.00  0.00     0.003 A 
ATOM      6  C4  PXY d   1       2.643  -1.804   0.469  0.00  0.00    -0.082 A 
ATOM      7  C5  PXY d   1       2.201  -2.737   1.339  0.00  0.00     0.003 A 
ATOM      8  C6  PXY d   1       1.207  -2.396   2.252  0.00  0.00     0.003 A 
ENDROOT
TORSDOF 0
ENDMDL
