MODEL 1
REMARK minimizedAffinity 8.58628559
REMARK minimizedRMSD -1
REMARK  0 active torsions:
REMARK  status: ('A' for Active; 'I' for Inactive)
ROOT
ATOM      1  C4' PXY d   1      -0.761   2.293  -5.429  0.00  0.00     0.077 C 
ATOM      2  C1' PXY d   1       4.985   2.830  -5.750  0.00  0.00     0.077 C 
ATOM      3  C1  PXY d   1       3.479   2.677  -5.670  0.00  0.00    -0.082 A 
ATOM      4  C2  PXY d   1       2.710   3.753  -5.701  0.00  0.00     0.003 A 
ATOM      5  C3  PXY d   1       1.348   3.635  -5.598  0.00  0.00     0.003 A 
ATOM      6  C4  PXY d   1       0.764   2.399  -5.516  0.00  0.00    -0.082 A 
ATOM      7  C5  PXY d   1       1.541   1.296  -5.494  0.00  0.00     0.003 A 
ATOM      8  C6  PXY d   1       2.924   1.440  -5.559  0.00  0.00     0.003 A 
ENDROOT
TORSDOF 0
ENDMDL
