MODEL 1
REMARK minimizedAffinity -4.172019
REMARK minimizedRMSD -1
REMARK  1 active torsions:
REMARK  status: ('A' for Active; 'I' for Inactive)
REMARK    1  A    between atoms: C1_2  and  C2_3 
ROOT
ATOM      1  C2  UNL d   1      -0.183  -0.347  -0.253  0.00  0.00    -0.073 A 
ATOM      2  C3  UNL d   1      -0.559  -1.085   0.875  0.00  0.00    -0.002 A 
ATOM      3  C4  UNL d   1      -0.874  -2.439   0.759  0.00  0.00     0.004 A 
ATOM      4  C5  UNL d   1      -0.809  -3.071  -0.483  0.00  0.00    -0.004 A 
ATOM      5  C6  UNL d   1      -0.424  -2.353  -1.620  0.00  0.00    -0.075 A 
ATOM      6  C7  UNL d   1      -0.351  -3.017  -2.964  0.00  0.00     0.076 C 
ATOM      7  C8  UNL d   1      -0.112  -0.993  -1.496  0.00  0.00     0.001 A 
ENDROOT
BRANCH   1   8
ATOM      8  C1  UNL d   1       0.164   1.114  -0.131  0.00  0.00     0.053 C 
ATOM      9  C   UNL d   1       1.075   1.387   1.055  0.00  0.00     0.018 C 
ENDBRANCH   1   8
TORSDOF 1
ENDMDL
