MODEL 1
REMARK minimizedAffinity -3.66674161
REMARK minimizedRMSD -1
REMARK  1 active torsions:
REMARK  status: ('A' for Active; 'I' for Inactive)
REMARK    1  A    between atoms: C1_2  and  C2_3 
ROOT
ATOM      1  C2  UNL d   1       1.023   1.576   0.398  0.00  0.00    -0.073 A 
ATOM      2  C3  UNL d   1       0.162   1.834  -0.674  0.00  0.00    -0.002 A 
ATOM      3  C4  UNL d   1      -0.888   0.960  -0.961  0.00  0.00     0.004 A 
ATOM      4  C5  UNL d   1      -1.092  -0.174  -0.175  0.00  0.00    -0.004 A 
ATOM      5  C6  UNL d   1      -0.249  -0.442   0.908  0.00  0.00    -0.075 A 
ATOM      6  C7  UNL d   1      -0.453  -1.659   1.762  0.00  0.00     0.076 C 
ATOM      7  C8  UNL d   1       0.805   0.438   1.188  0.00  0.00     0.001 A 
ENDROOT
BRANCH   1   8
ATOM      8  C1  UNL d   1       2.154   2.520   0.715  0.00  0.00     0.053 C 
ATOM      9  C   UNL d   1       1.703   3.972   0.711  0.00  0.00     0.018 C 
ENDBRANCH   1   8
TORSDOF 1
ENDMDL
