MODEL 1
REMARK minimizedAffinity -3.36014938
REMARK minimizedRMSD -1
REMARK  1 active torsions:
REMARK  status: ('A' for Active; 'I' for Inactive)
REMARK    1  A    between atoms: C1_2  and  C2_3 
ROOT
ATOM      1  C2  UNL d   1       0.273   0.710   0.642  0.00  0.00    -0.073 A 
ATOM      2  C3  UNL d   1       0.739   0.544   1.951  0.00  0.00    -0.002 A 
ATOM      3  C4  UNL d   1       0.257  -0.497   2.744  0.00  0.00     0.004 A 
ATOM      4  C5  UNL d   1      -0.690  -1.386   2.236  0.00  0.00    -0.004 A 
ATOM      5  C6  UNL d   1      -1.159  -1.245   0.926  0.00  0.00    -0.075 A 
ATOM      6  C7  UNL d   1      -2.179  -2.192   0.366  0.00  0.00     0.076 C 
ATOM      7  C8  UNL d   1      -0.672  -0.195   0.137  0.00  0.00     0.001 A 
ENDROOT
BRANCH   1   8
ATOM      8  C1  UNL d   1       0.796   1.829  -0.221  0.00  0.00     0.053 C 
ATOM      9  C   UNL d   1       1.593   2.844   0.583  0.00  0.00     0.018 C 
ENDBRANCH   1   8
TORSDOF 1
ENDMDL
