MODEL 1
REMARK minimizedAffinity -1.72755909
REMARK minimizedRMSD -1
REMARK  1 active torsions:
REMARK  status: ('A' for Active; 'I' for Inactive)
REMARK    1  A    between atoms: C1_2  and  C2_3 
ROOT
ATOM      1  C2  UNL d   1      -0.279   0.572   0.252  0.00  0.00    -0.073 A 
ATOM      2  C3  UNL d   1       1.092   0.507   0.528  0.00  0.00    -0.002 A 
ATOM      3  C4  UNL d   1       1.853   1.675   0.596  0.00  0.00     0.004 A 
ATOM      4  C5  UNL d   1       1.251   2.918   0.398  0.00  0.00    -0.004 A 
ATOM      5  C6  UNL d   1      -0.120   3.003   0.134  0.00  0.00    -0.075 A 
ATOM      6  C7  UNL d   1      -0.782   4.332  -0.084  0.00  0.00     0.076 C 
ATOM      7  C8  UNL d   1      -0.877   1.826   0.063  0.00  0.00     0.001 A 
ENDROOT
BRANCH   1   8
ATOM      8  C1  UNL d   1      -1.106  -0.686   0.184  0.00  0.00     0.053 C 
ATOM      9  C   UNL d   1      -1.095  -1.448   1.499  0.00  0.00     0.018 C 
ENDBRANCH   1   8
TORSDOF 1
ENDMDL
