MODEL 1
REMARK minimizedAffinity -0.0450833589
REMARK minimizedRMSD -1
REMARK  1 active torsions:
REMARK  status: ('A' for Active; 'I' for Inactive)
REMARK    1  A    between atoms: C1_2  and  C2_3 
ROOT
ATOM      1  C2  UNL d   1       0.037   1.194  -0.138  0.00  0.00    -0.073 A 
ATOM      2  C3  UNL d   1       0.175   1.336  -1.523  0.00  0.00    -0.002 A 
ATOM      3  C4  UNL d   1       0.148   0.214  -2.353  0.00  0.00     0.004 A 
ATOM      4  C5  UNL d   1      -0.024  -1.058  -1.808  0.00  0.00    -0.004 A 
ATOM      5  C6  UNL d   1      -0.175  -1.219  -0.427  0.00  0.00    -0.075 A 
ATOM      6  C7  UNL d   1      -0.359  -2.582   0.175  0.00  0.00     0.076 C 
ATOM      7  C8  UNL d   1      -0.145  -0.088   0.400  0.00  0.00     0.001 A 
ENDROOT
BRANCH   1   8
ATOM      8  C1  UNL d   1       0.059   2.403   0.761  0.00  0.00     0.053 C 
ATOM      9  C   UNL d   1       0.976   3.493   0.229  0.00  0.00     0.018 C 
ENDBRANCH   1   8
TORSDOF 1
ENDMDL
