MODEL 1
REMARK minimizedAffinity -2.03861737
REMARK minimizedRMSD -1
REMARK  1 active torsions:
REMARK  status: ('A' for Active; 'I' for Inactive)
REMARK    1  A    between atoms: C1_2  and  C2_3 
ROOT
ATOM      1  C2  UNL d   1       0.696   1.726   0.036  0.00  0.00    -0.073 A 
ATOM      2  C3  UNL d   1       0.611   1.566  -1.351  0.00  0.00    -0.002 A 
ATOM      3  C4  UNL d   1      -0.049   0.462  -1.894  0.00  0.00     0.004 A 
ATOM      4  C5  UNL d   1      -0.635  -0.487  -1.057  0.00  0.00    -0.004 A 
ATOM      5  C6  UNL d   1      -0.571  -0.337   0.332  0.00  0.00    -0.075 A 
ATOM      6  C7  UNL d   1      -1.195  -1.350   1.246  0.00  0.00     0.076 C 
ATOM      7  C8  UNL d   1       0.095   0.772   0.870  0.00  0.00     0.001 A 
ENDROOT
BRANCH   1   8
ATOM      8  C1  UNL d   1       1.402   2.919   0.627  0.00  0.00     0.053 C 
ATOM      9  C   UNL d   1       2.819   3.064   0.095  0.00  0.00     0.018 C 
ENDBRANCH   1   8
TORSDOF 1
ENDMDL
