MODEL 1
REMARK minimizedAffinity -3.37375069
REMARK minimizedRMSD -1
REMARK  1 active torsions:
REMARK  status: ('A' for Active; 'I' for Inactive)
REMARK    1  A    between atoms: C1_2  and  C2_3 
ROOT
ATOM      1  C2  UNL d   1      -0.454  -2.103  -0.445  0.00  0.00    -0.073 A 
ATOM      2  C3  UNL d   1      -0.657  -2.555   0.864  0.00  0.00    -0.002 A 
ATOM      3  C4  UNL d   1      -0.606  -1.661   1.934  0.00  0.00     0.004 A 
ATOM      4  C5  UNL d   1      -0.358  -0.307   1.706  0.00  0.00    -0.004 A 
ATOM      5  C6  UNL d   1      -0.165   0.166   0.405  0.00  0.00    -0.075 A 
ATOM      6  C7  UNL d   1       0.105   1.619   0.143  0.00  0.00     0.076 C 
ATOM      7  C8  UNL d   1      -0.215  -0.739  -0.665  0.00  0.00     0.001 A 
ENDROOT
BRANCH   1   8
ATOM      8  C1  UNL d   1      -0.515  -3.064  -1.605  0.00  0.00     0.053 C 
ATOM      9  C   UNL d   1      -0.145  -2.395  -2.919  0.00  0.00     0.018 C 
ENDBRANCH   1   8
TORSDOF 1
ENDMDL
