MODEL 1
REMARK minimizedAffinity -3.53694224
REMARK minimizedRMSD -1
REMARK  1 active torsions:
REMARK  status: ('A' for Active; 'I' for Inactive)
REMARK    1  A    between atoms: C1_2  and  C2_3 
ROOT
ATOM      1  C2  UNL d   1       0.148   1.062   0.712  0.00  0.00    -0.073 A 
ATOM      2  C3  UNL d   1       0.493   0.961   2.064  0.00  0.00    -0.002 A 
ATOM      3  C4  UNL d   1       0.060  -0.128   2.822  0.00  0.00     0.004 A 
ATOM      4  C5  UNL d   1      -0.715  -1.128   2.236  0.00  0.00    -0.004 A 
ATOM      5  C6  UNL d   1      -1.060  -1.051   0.883  0.00  0.00    -0.075 A 
ATOM      6  C7  UNL d   1      -1.895  -2.117   0.237  0.00  0.00     0.076 C 
ATOM      7  C8  UNL d   1      -0.624   0.047   0.128  0.00  0.00     0.001 A 
ENDROOT
BRANCH   1   8
ATOM      8  C1  UNL d   1       0.619   2.232  -0.113  0.00  0.00     0.053 C 
ATOM      9  C   UNL d   1       0.851   3.471   0.737  0.00  0.00     0.018 C 
ENDBRANCH   1   8
TORSDOF 1
ENDMDL
