MODEL 1
REMARK minimizedAffinity -2.83289838
REMARK minimizedRMSD -1
REMARK  1 active torsions:
REMARK  status: ('A' for Active; 'I' for Inactive)
REMARK    1  A    between atoms: C1_2  and  C2_3 
ROOT
ATOM      1  C2  UNL d   1       0.256   1.210   0.401  0.00  0.00    -0.077 A 
ATOM      2  C3  UNL d   1       0.122   2.291  -0.481  0.00  0.00     0.002 A 
ATOM      3  C4  UNL d   1       0.304   3.599  -0.028  0.00  0.00     0.002 A 
ATOM      4  C5  UNL d   1       0.625   3.838   1.306  0.00  0.00    -0.004 A 
ATOM      5  C6  UNL d   1       0.759   2.769   2.192  0.00  0.00     0.002 A 
ATOM      6  C7  UNL d   1       0.576   1.461   1.741  0.00  0.00     0.002 A 
ENDROOT
BRANCH   1   7
ATOM      7  C1  UNL d   1       0.109  -0.205  -0.096  0.00  0.00     0.055 C 
ATOM      8  C   UNL d   1       1.446  -0.931  -0.102  0.00  0.00     0.019 C 
ENDBRANCH   1   7
TORSDOF 1
ENDMDL
