MODEL 1
REMARK minimizedAffinity -5.59929419
REMARK minimizedRMSD -1
REMARK  1 active torsions:
REMARK  status: ('A' for Active; 'I' for Inactive)
REMARK    1  A    between atoms: C1_2  and  C2_3 
ROOT
ATOM      1  C2  UNL d   1      -1.682   3.541   1.844  0.00  0.00    -0.077 A 
ATOM      2  C3  UNL d   1      -1.429   3.691   0.473  0.00  0.00     0.002 A 
ATOM      3  C4  UNL d   1      -0.621   2.773  -0.200  0.00  0.00     0.002 A 
ATOM      4  C5  UNL d   1      -0.062   1.698   0.488  0.00  0.00    -0.004 A 
ATOM      5  C6  UNL d   1      -0.306   1.542   1.851  0.00  0.00     0.002 A 
ATOM      6  C7  UNL d   1      -1.113   2.459   2.526  0.00  0.00     0.002 A 
ENDROOT
BRANCH   1   7
ATOM      7  C1  UNL d   1      -2.594   4.502   2.561  0.00  0.00     0.055 C 
ATOM      8  C   UNL d   1      -2.897   5.723   1.704  0.00  0.00     0.019 C 
ENDBRANCH   1   7
TORSDOF 1
ENDMDL
