MODEL 1
REMARK minimizedAffinity 2.10068774
REMARK minimizedRMSD -1
REMARK  1 active torsions:
REMARK  status: ('A' for Active; 'I' for Inactive)
REMARK    1  A    between atoms: C1_2  and  C2_3 
ROOT
ATOM      1  C2  UNL d   1      -0.877   2.883   0.481  0.00  0.00    -0.077 A 
ATOM      2  C3  UNL d   1      -1.811   2.571   1.479  0.00  0.00     0.002 A 
ATOM      3  C4  UNL d   1      -1.474   1.694   2.512  0.00  0.00     0.002 A 
ATOM      4  C5  UNL d   1      -0.203   1.126   2.559  0.00  0.00    -0.004 A 
ATOM      5  C6  UNL d   1       0.733   1.429   1.571  0.00  0.00     0.002 A 
ATOM      6  C7  UNL d   1       0.397   2.304   0.537  0.00  0.00     0.002 A 
ENDROOT
BRANCH   1   7
ATOM      7  C1  UNL d   1      -1.221   3.867  -0.606  0.00  0.00     0.055 C 
ATOM      8  C   UNL d   1      -0.003   4.207  -1.452  0.00  0.00     0.019 C 
ENDBRANCH   1   7
TORSDOF 1
ENDMDL
