MODEL 1
REMARK minimizedAffinity 0.732392788
REMARK minimizedRMSD -1
REMARK  1 active torsions:
REMARK  status: ('A' for Active; 'I' for Inactive)
REMARK    1  A    between atoms: C1_2  and  C2_3 
ROOT
ATOM      1  C2  UNL d   1       3.265  -3.546  -1.725  0.00  0.00    -0.077 A 
ATOM      2  C3  UNL d   1       2.117  -3.425  -0.930  0.00  0.00     0.002 A 
ATOM      3  C4  UNL d   1       1.639  -2.164  -0.567  0.00  0.00     0.002 A 
ATOM      4  C5  UNL d   1       2.300  -1.016  -0.999  0.00  0.00    -0.004 A 
ATOM      5  C6  UNL d   1       3.444  -1.126  -1.788  0.00  0.00     0.002 A 
ATOM      6  C7  UNL d   1       3.924  -2.386  -2.150  0.00  0.00     0.002 A 
ENDROOT
BRANCH   1   7
ATOM      7  C1  UNL d   1       3.754  -4.904  -2.158  0.00  0.00     0.055 C 
ATOM      8  C   UNL d   1       2.655  -5.691  -2.857  0.00  0.00     0.019 C 
ENDBRANCH   1   7
TORSDOF 1
ENDMDL
