MODEL 1
REMARK minimizedAffinity 1.45106792
REMARK minimizedRMSD -1
REMARK  1 active torsions:
REMARK  status: ('A' for Active; 'I' for Inactive)
REMARK    1  A    between atoms: C1_2  and  C2_3 
ROOT
ATOM      1  C2  UNL d   1       0.607   0.262   0.010  0.00  0.00    -0.077 A 
ATOM      2  C3  UNL d   1       0.608   1.656   0.163  0.00  0.00     0.002 A 
ATOM      3  C4  UNL d   1       0.225   2.234   1.375  0.00  0.00     0.002 A 
ATOM      4  C5  UNL d   1      -0.158   1.426   2.444  0.00  0.00    -0.004 A 
ATOM      5  C6  UNL d   1      -0.164   0.039   2.301  0.00  0.00     0.002 A 
ATOM      6  C7  UNL d   1       0.218  -0.540   1.090  0.00  0.00     0.002 A 
ENDROOT
BRANCH   1   7
ATOM      7  C1  UNL d   1       1.068  -0.365  -1.280  0.00  0.00     0.055 C 
ATOM      8  C   UNL d   1       2.135  -1.420  -1.032  0.00  0.00     0.019 C 
ENDBRANCH   1   7
TORSDOF 1
ENDMDL
