MODEL 1
REMARK minimizedAffinity -0.0414322466
REMARK minimizedRMSD -1
REMARK  0 active torsions:
REMARK  status: ('A' for Active; 'I' for Inactive)
ROOT
ATOM      1  C1  BNZ d   1      -3.638  -3.024   5.419  0.00  0.00     0.000 A 
ATOM      2  C2  BNZ d   1      -3.649  -2.243   4.294  0.00  0.00     0.000 A 
ATOM      3  C3  BNZ d   1      -4.829  -1.823   3.745  0.00  0.00     0.000 A 
ATOM      4  C4  BNZ d   1      -5.994  -2.217   4.298  0.00  0.00     0.000 A 
ATOM      5  C5  BNZ d   1      -6.000  -3.011   5.427  0.00  0.00     0.000 A 
ATOM      6  C6  BNZ d   1      -4.810  -3.400   5.999  0.00  0.00     0.000 A 
ENDROOT
TORSDOF 0
ENDMDL
