MODEL 1
REMARK minimizedAffinity 4.07037497
REMARK minimizedRMSD -1
REMARK  0 active torsions:
REMARK  status: ('A' for Active; 'I' for Inactive)
ROOT
ATOM      1  C1  BNZ d   1      -4.468  -3.640  -5.964  0.00  0.00     0.000 A 
ATOM      2  C2  BNZ d   1      -3.099  -3.660  -5.996  0.00  0.00     0.000 A 
ATOM      3  C3  BNZ d   1      -2.415  -4.842  -5.954  0.00  0.00     0.000 A 
ATOM      4  C4  BNZ d   1      -3.098  -5.999  -5.839  0.00  0.00     0.000 A 
ATOM      5  C5  BNZ d   1      -4.478  -5.995  -5.796  0.00  0.00     0.000 A 
ATOM      6  C6  BNZ d   1      -5.165  -4.806  -5.878  0.00  0.00     0.000 A 
ENDROOT
TORSDOF 0
ENDMDL
