MODEL 1
REMARK minimizedAffinity 6.78962374
REMARK minimizedRMSD -1
REMARK  0 active torsions:
REMARK  status: ('A' for Active; 'I' for Inactive)
ROOT
ATOM      1  C1  BNZ d   1      -0.621   3.120  -0.521  0.00  0.00     0.000 A 
ATOM      2  C2  BNZ d   1       0.724   3.370  -0.466  0.00  0.00     0.000 A 
ATOM      3  C3  BNZ d   1       1.288   4.344  -1.243  0.00  0.00     0.000 A 
ATOM      4  C4  BNZ d   1       0.513   5.037  -2.102  0.00  0.00     0.000 A 
ATOM      5  C5  BNZ d   1      -0.843   4.791  -2.176  0.00  0.00     0.000 A 
ATOM      6  C6  BNZ d   1      -1.413   3.837  -1.364  0.00  0.00     0.000 A 
ENDROOT
TORSDOF 0
ENDMDL
