MODEL 1
REMARK minimizedAffinity -0.646739781
REMARK minimizedRMSD -1
REMARK  0 active torsions:
REMARK  status: ('A' for Active; 'I' for Inactive)
ROOT
ATOM      1  C1  BNZ d   1      -4.877  -3.495  -5.999  0.00  0.00     0.000 A 
ATOM      2  C2  BNZ d   1      -3.514  -3.616  -5.939  0.00  0.00     0.000 A 
ATOM      3  C3  BNZ d   1      -2.923  -4.848  -5.888  0.00  0.00     0.000 A 
ATOM      4  C4  BNZ d   1      -3.695  -5.953  -5.856  0.00  0.00     0.000 A 
ATOM      5  C5  BNZ d   1      -5.070  -5.847  -5.907  0.00  0.00     0.000 A 
ATOM      6  C6  BNZ d   1      -5.661  -4.607  -5.998  0.00  0.00     0.000 A 
ENDROOT
TORSDOF 0
ENDMDL
