MODEL 1
REMARK minimizedAffinity 0.515894949
REMARK minimizedRMSD -1
REMARK  0 active torsions:
REMARK  status: ('A' for Active; 'I' for Inactive)
ROOT
ATOM      1  C1  BNZ d   1      -3.479  -5.997  -5.724  0.00  0.00     0.000 A 
ATOM      2  C2  BNZ d   1      -2.709  -4.865  -5.727  0.00  0.00     0.000 A 
ATOM      3  C3  BNZ d   1      -3.281  -3.629  -5.840  0.00  0.00     0.000 A 
ATOM      4  C4  BNZ d   1      -4.618  -3.528  -5.989  0.00  0.00     0.000 A 
ATOM      5  C5  BNZ d   1      -5.408  -4.661  -5.997  0.00  0.00     0.000 A 
ATOM      6  C6  BNZ d   1      -4.832  -5.901  -5.844  0.00  0.00     0.000 A 
ENDROOT
TORSDOF 0
ENDMDL
