MODEL 1
REMARK minimizedAffinity 3.59425378
REMARK minimizedRMSD -1
REMARK  0 active torsions:
REMARK  status: ('A' for Active; 'I' for Inactive)
ROOT
ATOM      1  C1  BNZ d   1      -1.302   4.739  -1.622  0.00  0.00     0.000 A 
ATOM      2  C2  BNZ d   1      -0.344   4.342  -0.728  0.00  0.00     0.000 A 
ATOM      3  C3  BNZ d   1      -0.246   3.035  -0.341  0.00  0.00     0.000 A 
ATOM      4  C4  BNZ d   1      -1.130   2.135  -0.816  0.00  0.00     0.000 A 
ATOM      5  C5  BNZ d   1      -2.108   2.521  -1.711  0.00  0.00     0.000 A 
ATOM      6  C6  BNZ d   1      -2.179   3.830  -2.129  0.00  0.00     0.000 A 
ENDROOT
TORSDOF 0
ENDMDL
