MODEL 1
REMARK minimizedAffinity 0.845182538
REMARK minimizedRMSD -1
REMARK  0 active torsions:
REMARK  status: ('A' for Active; 'I' for Inactive)
ROOT
ATOM      1  C1  BNZ d   1       0.412   3.619  -0.717  0.00  0.00     0.000 A 
ATOM      2  C2  BNZ d   1       0.436   4.816  -1.383  0.00  0.00     0.000 A 
ATOM      3  C3  BNZ d   1      -0.310   5.875  -0.946  0.00  0.00     0.000 A 
ATOM      4  C4  BNZ d   1      -1.107   5.725   0.132  0.00  0.00     0.000 A 
ATOM      5  C5  BNZ d   1      -1.149   4.522   0.808  0.00  0.00     0.000 A 
ATOM      6  C6  BNZ d   1      -0.368   3.470   0.388  0.00  0.00     0.000 A 
ENDROOT
TORSDOF 0
ENDMDL
