MODEL 1
REMARK minimizedAffinity 3.95612192
REMARK minimizedRMSD -1
REMARK  0 active torsions:
REMARK  status: ('A' for Active; 'I' for Inactive)
ROOT
ATOM      1  C1  BNZ d   1       3.856  -5.781  -1.114  0.00  0.00     0.000 A 
ATOM      2  C2  BNZ d   1       3.875  -5.998  -2.466  0.00  0.00     0.000 A 
ATOM      3  C3  BNZ d   1       4.957  -5.634  -3.218  0.00  0.00     0.000 A 
ATOM      4  C4  BNZ d   1       6.000  -5.019  -2.624  0.00  0.00     0.000 A 
ATOM      5  C5  BNZ d   1       5.991  -4.784  -1.264  0.00  0.00     0.000 A 
ATOM      6  C6  BNZ d   1       4.917  -5.187  -0.504  0.00  0.00     0.000 A 
ENDROOT
TORSDOF 0
ENDMDL
