MODEL 1
REMARK minimizedAffinity 9.38462543
REMARK minimizedRMSD -1
REMARK  0 active torsions:
REMARK  status: ('A' for Active; 'I' for Inactive)
ROOT
ATOM      1  C1  BNZ d   1       2.330  -4.242   0.192  0.00  0.00     0.000 A 
ATOM      2  C2  BNZ d   1       2.437  -5.391  -0.547  0.00  0.00     0.000 A 
ATOM      3  C3  BNZ d   1       1.607  -5.620  -1.608  0.00  0.00     0.000 A 
ATOM      4  C4  BNZ d   1       0.646  -4.721  -1.905  0.00  0.00     0.000 A 
ATOM      5  C5  BNZ d   1       0.519  -3.563  -1.164  0.00  0.00     0.000 A 
ATOM      6  C6  BNZ d   1       1.382  -3.317  -0.121  0.00  0.00     0.000 A 
ENDROOT
TORSDOF 0
ENDMDL
