MODEL 1
REMARK minimizedAffinity 1.90451348
REMARK minimizedRMSD -1
REMARK  0 active torsions:
REMARK  status: ('A' for Active; 'I' for Inactive)
ROOT
ATOM      1  C   UNL d   1       5.415  -1.989   2.615  0.00  0.00     0.078 C 
ATOM      2  C1  UNL d   1       3.969  -1.598   2.560  0.00  0.00    -0.077 A 
ATOM      3  C2  UNL d   1       3.324  -1.391   1.335  0.00  0.00    -0.001 A 
ATOM      4  C3  UNL d   1       1.979  -1.018   1.299  0.00  0.00     0.003 A 
ATOM      5  C4  UNL d   1       1.269  -0.847   2.485  0.00  0.00    -0.005 A 
ATOM      6  C5  UNL d   1       1.903  -1.048   3.710  0.00  0.00     0.003 A 
ATOM      7  C6  UNL d   1       3.247  -1.421   3.748  0.00  0.00    -0.001 A 
ENDROOT
TORSDOF 0
ENDMDL
