MODEL 1
REMARK minimizedAffinity 1.86873531
REMARK minimizedRMSD -1
REMARK  0 active torsions:
REMARK  status: ('A' for Active; 'I' for Inactive)
ROOT
ATOM      1  C   UNL d   1       5.944  -5.363  -5.955  0.00  0.00     0.078 C 
ATOM      2  C1  UNL d   1       4.633  -5.592  -5.262  0.00  0.00    -0.077 A 
ATOM      3  C2  UNL d   1       3.455  -5.784  -5.994  0.00  0.00    -0.001 A 
ATOM      4  C3  UNL d   1       2.241  -5.987  -5.336  0.00  0.00     0.003 A 
ATOM      5  C4  UNL d   1       2.193  -5.998  -3.944  0.00  0.00    -0.005 A 
ATOM      6  C5  UNL d   1       3.360  -5.806  -3.207  0.00  0.00     0.003 A 
ATOM      7  C6  UNL d   1       4.575  -5.603  -3.863  0.00  0.00    -0.001 A 
ENDROOT
TORSDOF 0
ENDMDL
