MODEL 1
REMARK minimizedAffinity 1.0243901
REMARK minimizedRMSD -1
REMARK  0 active torsions:
REMARK  status: ('A' for Active; 'I' for Inactive)
ROOT
ATOM      1  C   UNL d   1       2.776   0.324   1.438  0.00  0.00     0.078 C 
ATOM      2  C1  UNL d   1       2.614  -0.851   2.355  0.00  0.00    -0.077 A 
ATOM      3  C2  UNL d   1       3.220  -2.080   2.066  0.00  0.00    -0.001 A 
ATOM      4  C3  UNL d   1       3.053  -3.168   2.924  0.00  0.00     0.003 A 
ATOM      5  C4  UNL d   1       2.280  -3.039   4.076  0.00  0.00    -0.005 A 
ATOM      6  C5  UNL d   1       1.672  -1.820   4.371  0.00  0.00     0.003 A 
ATOM      7  C6  UNL d   1       1.837  -0.731   3.514  0.00  0.00    -0.001 A 
ENDROOT
TORSDOF 0
ENDMDL
