MODEL 1
REMARK minimizedAffinity 5.31718779
REMARK minimizedRMSD -1
REMARK  0 active torsions:
REMARK  status: ('A' for Active; 'I' for Inactive)
ROOT
ATOM      1  C   UNL d   1      -5.999   4.551  -0.427  0.00  0.00     0.078 C 
ATOM      2  C1  UNL d   1      -5.262   3.793   0.637  0.00  0.00    -0.077 A 
ATOM      3  C2  UNL d   1      -5.874   3.486   1.859  0.00  0.00    -0.001 A 
ATOM      4  C3  UNL d   1      -5.173   2.788   2.844  0.00  0.00     0.003 A 
ATOM      5  C4  UNL d   1      -3.856   2.394   2.618  0.00  0.00    -0.005 A 
ATOM      6  C5  UNL d   1      -3.238   2.698   1.406  0.00  0.00     0.003 A 
ATOM      7  C6  UNL d   1      -3.937   3.395   0.420  0.00  0.00    -0.001 A 
ENDROOT
TORSDOF 0
ENDMDL
