MODEL 1
REMARK minimizedAffinity 7.87531662
REMARK minimizedRMSD -1
REMARK  0 active torsions:
REMARK  status: ('A' for Active; 'I' for Inactive)
ROOT
ATOM      1  C   UNL d   1       1.755  -3.048   4.647  0.00  0.00     0.078 C 
ATOM      2  C1  UNL d   1       2.094  -2.090   3.544  0.00  0.00    -0.077 A 
ATOM      3  C2  UNL d   1       1.088  -1.465   2.797  0.00  0.00    -0.001 A 
ATOM      4  C3  UNL d   1       1.419  -0.583   1.767  0.00  0.00     0.003 A 
ATOM      5  C4  UNL d   1       2.755  -0.319   1.474  0.00  0.00    -0.005 A 
ATOM      6  C5  UNL d   1       3.763  -0.937   2.211  0.00  0.00     0.003 A 
ATOM      7  C6  UNL d   1       3.434  -1.820   3.241  0.00  0.00    -0.001 A 
ENDROOT
TORSDOF 0
ENDMDL
