MODEL 1
REMARK minimizedAffinity 3.68013573
REMARK minimizedRMSD -1
REMARK  0 active torsions:
REMARK  status: ('A' for Active; 'I' for Inactive)
ROOT
ATOM      1  C   UNL d   1       2.560  -0.871   1.176  0.00  0.00     0.078 C 
ATOM      2  C1  UNL d   1       2.377  -1.805   2.335  0.00  0.00    -0.077 A 
ATOM      3  C2  UNL d   1       2.811  -3.135   2.265  0.00  0.00    -0.001 A 
ATOM      4  C3  UNL d   1       2.625  -3.996   3.348  0.00  0.00     0.003 A 
ATOM      5  C4  UNL d   1       2.006  -3.537   4.508  0.00  0.00    -0.005 A 
ATOM      6  C5  UNL d   1       1.569  -2.216   4.587  0.00  0.00     0.003 A 
ATOM      7  C6  UNL d   1       1.754  -1.354   3.505  0.00  0.00    -0.001 A 
ENDROOT
TORSDOF 0
ENDMDL
