MODEL 1
REMARK minimizedAffinity 8.04211426
REMARK minimizedRMSD -1
REMARK  0 active torsions:
REMARK  status: ('A' for Active; 'I' for Inactive)
ROOT
ATOM      1  C   UNL d   1      -2.260   3.709   0.517  0.00  0.00     0.078 C 
ATOM      2  C1  UNL d   1      -3.568   3.451   1.203  0.00  0.00    -0.077 A 
ATOM      3  C2  UNL d   1      -4.773   3.900   0.649  0.00  0.00    -0.001 A 
ATOM      4  C3  UNL d   1      -5.983   3.662   1.303  0.00  0.00     0.003 A 
ATOM      5  C4  UNL d   1      -5.999   2.975   2.515  0.00  0.00    -0.005 A 
ATOM      6  C5  UNL d   1      -4.805   2.527   3.075  0.00  0.00     0.003 A 
ATOM      7  C6  UNL d   1      -3.594   2.764   2.423  0.00  0.00    -0.001 A 
ENDROOT
TORSDOF 0
ENDMDL
