MODEL 1
REMARK minimizedAffinity 3.91808248
REMARK minimizedRMSD -1
REMARK  0 active torsions:
REMARK  status: ('A' for Active; 'I' for Inactive)
ROOT
ATOM      1  C   UNL d   1      -5.996   2.190  -0.947  0.00  0.00     0.078 C 
ATOM      2  C1  UNL d   1      -5.286   2.654   0.289  0.00  0.00    -0.077 A 
ATOM      3  C2  UNL d   1      -6.000   3.124   1.398  0.00  0.00    -0.001 A 
ATOM      4  C3  UNL d   1      -5.325   3.562   2.538  0.00  0.00     0.003 A 
ATOM      5  C4  UNL d   1      -3.932   3.536   2.580  0.00  0.00    -0.005 A 
ATOM      6  C5  UNL d   1      -3.213   3.072   1.481  0.00  0.00     0.003 A 
ATOM      7  C6  UNL d   1      -3.886   2.634   0.339  0.00  0.00    -0.001 A 
ENDROOT
TORSDOF 0
ENDMDL
