MODEL 1
REMARK minimizedAffinity 10.2225208
REMARK minimizedRMSD -1
REMARK  0 active torsions:
REMARK  status: ('A' for Active; 'I' for Inactive)
ROOT
ATOM      1  C4' PXY d   1      -3.934  -3.615  -0.902  0.00  0.00     0.077 C 
ATOM      2  C1' PXY d   1      -5.991  -5.979   3.956  0.00  0.00     0.077 C 
ATOM      3  C1  PXY d   1      -5.440  -5.365   2.683  0.00  0.00    -0.082 A 
ATOM      4  C2  PXY d   1      -5.929  -4.216   2.247  0.00  0.00     0.003 A 
ATOM      5  C3  PXY d   1      -5.464  -3.663   1.081  0.00  0.00     0.003 A 
ATOM      6  C4  PXY d   1      -4.453  -4.266   0.383  0.00  0.00    -0.082 A 
ATOM      7  C5  PXY d   1      -3.942  -5.434   0.827  0.00  0.00     0.003 A 
ATOM      8  C6  PXY d   1      -4.455  -5.999   1.991  0.00  0.00     0.003 A 
ENDROOT
TORSDOF 0
ENDMDL
