MODEL 1
REMARK minimizedAffinity 11.7131138
REMARK minimizedRMSD -1
REMARK  0 active torsions:
REMARK  status: ('A' for Active; 'I' for Inactive)
ROOT
ATOM      1  C4' PXY d   1       0.344   2.062   2.424  0.00  0.00     0.077 C 
ATOM      2  C1' PXY d   1      -4.230  -1.196   1.056  0.00  0.00     0.077 C 
ATOM      3  C1  PXY d   1      -3.035  -0.333   1.406  0.00  0.00    -0.082 A 
ATOM      4  C2  PXY d   1      -1.943  -0.896   1.898  0.00  0.00     0.003 A 
ATOM      5  C3  PXY d   1      -0.864  -0.126   2.250  0.00  0.00     0.003 A 
ATOM      6  C4  PXY d   1      -0.883   1.228   2.047  0.00  0.00    -0.082 A 
ATOM      7  C5  PXY d   1      -1.990   1.809   1.536  0.00  0.00     0.003 A 
ATOM      8  C6  PXY d   1      -3.090   1.015   1.224  0.00  0.00     0.003 A 
ENDROOT
TORSDOF 0
ENDMDL
