MODEL 1
REMARK minimizedAffinity 18.6154499
REMARK minimizedRMSD -1
REMARK  0 active torsions:
REMARK  status: ('A' for Active; 'I' for Inactive)
ROOT
ATOM      1  C4' PXY d   1      -0.352  -2.979   0.448  0.00  0.00     0.077 C 
ATOM      2  C1' PXY d   1      -5.660  -0.944   1.497  0.00  0.00     0.077 C 
ATOM      3  C1  PXY d   1      -4.263  -1.465   1.222  0.00  0.00    -0.082 A 
ATOM      4  C2  PXY d   1      -4.107  -2.628   0.611  0.00  0.00     0.003 A 
ATOM      5  C3  PXY d   1      -2.852  -3.130   0.383  0.00  0.00     0.003 A 
ATOM      6  C4  PXY d   1      -1.743  -2.409   0.737  0.00  0.00    -0.082 A 
ATOM      7  C5  PXY d   1      -1.893  -1.216   1.352  0.00  0.00     0.003 A 
ATOM      8  C6  PXY d   1      -3.177  -0.744   1.611  0.00  0.00     0.003 A 
ENDROOT
TORSDOF 0
ENDMDL
