MODEL 1
REMARK minimizedAffinity 19.7796879
REMARK minimizedRMSD -1
REMARK  0 active torsions:
REMARK  status: ('A' for Active; 'I' for Inactive)
ROOT
ATOM      1  C4' PXY d   1       5.238  -0.368   2.280  0.00  0.00     0.077 C 
ATOM      2  C1' PXY d   1       5.998  -4.935   5.742  0.00  0.00     0.077 C 
ATOM      3  C1  PXY d   1       5.792  -3.731   4.844  0.00  0.00    -0.082 A 
ATOM      4  C2  PXY d   1       5.837  -3.880   3.530  0.00  0.00     0.003 A 
ATOM      5  C3  PXY d   1       5.685  -2.797   2.703  0.00  0.00     0.003 A 
ATOM      6  C4  PXY d   1       5.431  -1.557   3.226  0.00  0.00    -0.082 A 
ATOM      7  C5  PXY d   1       5.372  -1.399   4.565  0.00  0.00     0.003 A 
ATOM      8  C6  PXY d   1       5.570  -2.504   5.388  0.00  0.00     0.003 A 
ENDROOT
TORSDOF 0
ENDMDL
