MODEL 1
REMARK minimizedAffinity 3.32944107
REMARK minimizedRMSD -1
REMARK  0 active torsions:
REMARK  status: ('A' for Active; 'I' for Inactive)
ROOT
ATOM      1  C4' PXY d   1      -3.602   2.970   1.718  0.00  0.00     0.077 C 
ATOM      2  C1' PXY d   1      -1.402  -2.330   1.022  0.00  0.00     0.077 C 
ATOM      3  C1  PXY d   1      -1.967  -0.936   1.209  0.00  0.00    -0.082 A 
ATOM      4  C2  PXY d   1      -3.275  -0.771   1.327  0.00  0.00     0.003 A 
ATOM      5  C3  PXY d   1      -3.806   0.486   1.465  0.00  0.00     0.003 A 
ATOM      6  C4  PXY d   1      -2.986   1.580   1.536  0.00  0.00    -0.082 A 
ATOM      7  C5  PXY d   1      -1.650   1.419   1.427  0.00  0.00     0.003 A 
ATOM      8  C6  PXY d   1      -1.134   0.139   1.247  0.00  0.00     0.003 A 
ENDROOT
TORSDOF 0
ENDMDL
