MODEL 1
REMARK minimizedAffinity 16.8436375
REMARK minimizedRMSD -1
REMARK  0 active torsions:
REMARK  status: ('A' for Active; 'I' for Inactive)
ROOT
ATOM      1  C4' PXY d   1      -4.027  -5.469  -6.000  0.00  0.00     0.077 C 
ATOM      2  C1' PXY d   1      -5.472  -0.399  -3.630  0.00  0.00     0.077 C 
ATOM      3  C1  PXY d   1      -5.102  -1.735  -4.244  0.00  0.00    -0.082 A 
ATOM      4  C2  PXY d   1      -3.906  -1.897  -4.786  0.00  0.00     0.003 A 
ATOM      5  C3  PXY d   1      -3.566  -3.088  -5.374  0.00  0.00     0.003 A 
ATOM      6  C4  PXY d   1      -4.440  -4.141  -5.360  0.00  0.00    -0.082 A 
ATOM      7  C5  PXY d   1      -5.659  -3.988  -4.800  0.00  0.00     0.003 A 
ATOM      8  C6  PXY d   1      -6.000  -2.758  -4.245  0.00  0.00     0.003 A 
ENDROOT
TORSDOF 0
ENDMDL
