MODEL 1
REMARK minimizedAffinity 7.24113226
REMARK minimizedRMSD -1
REMARK  0 active torsions:
REMARK  status: ('A' for Active; 'I' for Inactive)
ROOT
ATOM      1  C4' PXY d   1      -1.360   0.342   2.257  0.00  0.00     0.077 C 
ATOM      2  C1' PXY d   1      -5.999   3.749   1.714  0.00  0.00     0.077 C 
ATOM      3  C1  PXY d   1      -4.790   2.846   1.862  0.00  0.00    -0.082 A 
ATOM      4  C2  PXY d   1      -3.580   3.378   1.922  0.00  0.00     0.003 A 
ATOM      5  C3  PXY d   1      -2.473   2.575   2.024  0.00  0.00     0.003 A 
ATOM      6  C4  PXY d   1      -2.610   1.216   2.117  0.00  0.00    -0.082 A 
ATOM      7  C5  PXY d   1      -3.842   0.666   2.067  0.00  0.00     0.003 A 
ATOM      8  C6  PXY d   1      -4.950   1.496   1.923  0.00  0.00     0.003 A 
ENDROOT
TORSDOF 0
ENDMDL
