MODEL 1
REMARK minimizedAffinity 8.70676422
REMARK minimizedRMSD -1
REMARK  0 active torsions:
REMARK  status: ('A' for Active; 'I' for Inactive)
ROOT
ATOM      1  C4' PXY d   1      -0.805  -1.789  -5.657  0.00  0.00     0.077 C 
ATOM      2  C1' PXY d   1      -5.994  -4.336  -5.621  0.00  0.00     0.077 C 
ATOM      3  C1  PXY d   1      -4.627  -3.680  -5.629  0.00  0.00    -0.082 A 
ATOM      4  C2  PXY d   1      -4.510  -2.408  -5.282  0.00  0.00     0.003 A 
ATOM      5  C3  PXY d   1      -3.286  -1.790  -5.315  0.00  0.00     0.003 A 
ATOM      6  C4  PXY d   1      -2.163  -2.496  -5.655  0.00  0.00    -0.082 A 
ATOM      7  C5  PXY d   1      -2.273  -3.796  -6.000  0.00  0.00     0.003 A 
ATOM      8  C6  PXY d   1      -3.530  -4.394  -6.000  0.00  0.00     0.003 A 
ENDROOT
TORSDOF 0
ENDMDL
