MODEL 1
REMARK minimizedAffinity 8.24025059
REMARK minimizedRMSD -1
REMARK  0 active torsions:
REMARK  status: ('A' for Active; 'I' for Inactive)
ROOT
ATOM      1  C4' PXY d   1      -2.122  -2.640  -6.000  0.00  0.00     0.077 C 
ATOM      2  C1' PXY d   1       2.306   0.163  -3.562  0.00  0.00     0.077 C 
ATOM      3  C1  PXY d   1       1.137  -0.562  -4.198  0.00  0.00    -0.082 A 
ATOM      4  C2  PXY d   1       1.168  -1.880  -4.312  0.00  0.00     0.003 A 
ATOM      5  C3  PXY d   1       0.134  -2.549  -4.914  0.00  0.00     0.003 A 
ATOM      6  C4  PXY d   1      -0.968  -1.867  -5.356  0.00  0.00    -0.082 A 
ATOM      7  C5  PXY d   1      -1.013  -0.523  -5.234  0.00  0.00     0.003 A 
ATOM      8  C6  PXY d   1       0.066   0.141  -4.657  0.00  0.00     0.003 A 
ENDROOT
TORSDOF 0
ENDMDL
