MODEL 1
REMARK minimizedAffinity 13.2795858
REMARK minimizedRMSD -1
REMARK  0 active torsions:
REMARK  status: ('A' for Active; 'I' for Inactive)
ROOT
ATOM      1  C4' PXY d   1       0.827   5.840  -5.544  0.00  0.00     0.077 C 
ATOM      2  C1' PXY d   1       5.999   3.655  -4.169  0.00  0.00     0.077 C 
ATOM      3  C1  PXY d   1       4.644   4.224  -4.542  0.00  0.00    -0.082 A 
ATOM      4  C2  PXY d   1       4.141   5.227  -3.842  0.00  0.00     0.003 A 
ATOM      5  C3  PXY d   1       2.903   5.733  -4.146  0.00  0.00     0.003 A 
ATOM      6  C4  PXY d   1       2.196   5.241  -5.210  0.00  0.00    -0.082 A 
ATOM      7  C5  PXY d   1       2.707   4.224  -5.936  0.00  0.00     0.003 A 
ATOM      8  C6  PXY d   1       3.947   3.698  -5.586  0.00  0.00     0.003 A 
ENDROOT
TORSDOF 0
ENDMDL
