MODEL 1
REMARK minimizedAffinity 14.9463463
REMARK minimizedRMSD -1
REMARK  0 active torsions:
REMARK  status: ('A' for Active; 'I' for Inactive)
ROOT
ATOM      1  C4' PXY d   1      -4.715  -1.096   2.301  0.00  0.00     0.077 C 
ATOM      2  C1' PXY d   1       0.266   1.836   2.330  0.00  0.00     0.077 C 
ATOM      3  C1  PXY d   1      -1.046   1.077   2.329  0.00  0.00    -0.082 A 
ATOM      4  C2  PXY d   1      -1.038  -0.243   2.234  0.00  0.00     0.003 A 
ATOM      5  C3  PXY d   1      -2.217  -0.942   2.199  0.00  0.00     0.003 A 
ATOM      6  C4  PXY d   1      -3.414  -0.289   2.316  0.00  0.00    -0.082 A 
ATOM      7  C5  PXY d   1      -3.430   1.057   2.424  0.00  0.00     0.003 A 
ATOM      8  C6  PXY d   1      -2.224   1.752   2.416  0.00  0.00     0.003 A 
ENDROOT
TORSDOF 0
ENDMDL
