MODEL 1
REMARK minimizedAffinity 13.8046589
REMARK minimizedRMSD -1
REMARK  0 active torsions:
REMARK  status: ('A' for Active; 'I' for Inactive)
ROOT
ATOM      1  C4' PXY d   1       1.480   2.143   2.282  0.00  0.00     0.077 C 
ATOM      2  C1' PXY d   1      -3.789  -0.097   1.485  0.00  0.00     0.077 C 
ATOM      3  C1  PXY d   1      -2.403   0.479   1.699  0.00  0.00    -0.082 A 
ATOM      4  C2  PXY d   1      -2.249   1.788   1.812  0.00  0.00     0.003 A 
ATOM      5  C3  PXY d   1      -0.999   2.328   1.974  0.00  0.00     0.003 A 
ATOM      6  C4  PXY d   1       0.099   1.516   2.075  0.00  0.00    -0.082 A 
ATOM      7  C5  PXY d   1      -0.051   0.179   1.970  0.00  0.00     0.003 A 
ATOM      8  C6  PXY d   1      -1.324  -0.347   1.765  0.00  0.00     0.003 A 
ENDROOT
TORSDOF 0
ENDMDL
