MODEL 1
REMARK minimizedAffinity 8.14740753
REMARK minimizedRMSD -1
REMARK  0 active torsions:
REMARK  status: ('A' for Active; 'I' for Inactive)
ROOT
ATOM      1  C4' PXY d   1       1.219  -0.995  -3.933  0.00  0.00     0.077 C 
ATOM      2  C1' PXY d   1       2.223   4.233  -1.682  0.00  0.00     0.077 C 
ATOM      3  C1  PXY d   1       1.969   2.864  -2.282  0.00  0.00    -0.082 A 
ATOM      4  C2  PXY d   1       0.795   2.281  -2.105  0.00  0.00     0.003 A 
ATOM      5  C3  PXY d   1       0.559   1.029  -2.613  0.00  0.00     0.003 A 
ATOM      6  C4  PXY d   1       1.517   0.391  -3.354  0.00  0.00    -0.082 A 
ATOM      7  C5  PXY d   1       2.714   0.984  -3.548  0.00  0.00     0.003 A 
ATOM      8  C6  PXY d   1       2.948   2.237  -2.989  0.00  0.00     0.003 A 
ENDROOT
TORSDOF 0
ENDMDL
