MODEL 1
REMARK minimizedAffinity 5.59932852
REMARK minimizedRMSD -1
REMARK  0 active torsions:
REMARK  status: ('A' for Active; 'I' for Inactive)
ROOT
ATOM      1  C4' PXY d   1      -2.451   1.137   1.899  0.00  0.00     0.077 C 
ATOM      2  C1' PXY d   1       2.915  -0.316   3.483  0.00  0.00     0.077 C 
ATOM      3  C1  PXY d   1       1.511   0.078   3.067  0.00  0.00    -0.082 A 
ATOM      4  C2  PXY d   1       0.493  -0.711   3.372  0.00  0.00     0.003 A 
ATOM      5  C3  PXY d   1      -0.778  -0.386   2.976  0.00  0.00     0.003 A 
ATOM      6  C4  PXY d   1      -1.018   0.784   2.307  0.00  0.00    -0.082 A 
ATOM      7  C5  PXY d   1       0.014   1.599   2.001  0.00  0.00     0.003 A 
ATOM      8  C6  PXY d   1       1.303   1.231   2.376  0.00  0.00     0.003 A 
ENDROOT
TORSDOF 0
ENDMDL
