MODEL 1
REMARK minimizedAffinity 10.9613695
REMARK minimizedRMSD -1
REMARK  0 active torsions:
REMARK  status: ('A' for Active; 'I' for Inactive)
ROOT
ATOM      1  C4' PXY d   1      -3.066  -3.736  -0.401  0.00  0.00     0.077 C 
ATOM      2  C1' PXY d   1      -1.781   1.368   1.988  0.00  0.00     0.077 C 
ATOM      3  C1  PXY d   1      -2.106   0.028   1.358  0.00  0.00    -0.082 A 
ATOM      4  C2  PXY d   1      -3.340  -0.222   0.952  0.00  0.00     0.003 A 
ATOM      5  C3  PXY d   1      -3.658  -1.441   0.410  0.00  0.00     0.003 A 
ATOM      6  C4  PXY d   1      -2.690  -2.393   0.232  0.00  0.00    -0.082 A 
ATOM      7  C5  PXY d   1      -1.427  -2.142   0.634  0.00  0.00     0.003 A 
ATOM      8  C6  PXY d   1      -1.133  -0.914   1.220  0.00  0.00     0.003 A 
ENDROOT
TORSDOF 0
ENDMDL
