MODEL 1
REMARK minimizedAffinity 11.1588278
REMARK minimizedRMSD -1
REMARK  0 active torsions:
REMARK  status: ('A' for Active; 'I' for Inactive)
ROOT
ATOM      1  C4' PXY d   1       3.798  -1.802  -5.896  0.00  0.00     0.077 C 
ATOM      2  C1' PXY d   1       1.756   2.209  -2.268  0.00  0.00     0.077 C 
ATOM      3  C1  PXY d   1       2.290   1.165  -3.230  0.00  0.00    -0.082 A 
ATOM      4  C2  PXY d   1       2.204  -0.117  -2.917  0.00  0.00     0.003 A 
ATOM      5  C3  PXY d   1       2.711  -1.073  -3.760  0.00  0.00     0.003 A 
ATOM      6  C4  PXY d   1       3.263  -0.714  -4.960  0.00  0.00    -0.082 A 
ATOM      7  C5  PXY d   1       3.345   0.592  -5.292  0.00  0.00     0.003 A 
ATOM      8  C6  PXY d   1       2.862   1.548  -4.403  0.00  0.00     0.003 A 
ENDROOT
TORSDOF 0
ENDMDL
