MODEL 1
REMARK minimizedAffinity 8.60958958
REMARK minimizedRMSD -1
REMARK  0 active torsions:
REMARK  status: ('A' for Active; 'I' for Inactive)
ROOT
ATOM      1  C4' PXY d   1       4.358   3.756  -5.246  0.00  0.00     0.077 C 
ATOM      2  C1' PXY d   1       1.939  -1.412  -4.322  0.00  0.00     0.077 C 
ATOM      3  C1  PXY d   1       2.567  -0.053  -4.553  0.00  0.00    -0.082 A 
ATOM      4  C2  PXY d   1       2.921   0.305  -5.777  0.00  0.00     0.003 A 
ATOM      5  C3  PXY d   1       3.520   1.518  -6.000  0.00  0.00     0.003 A 
ATOM      6  C4  PXY d   1       3.711   2.396  -4.967  0.00  0.00    -0.082 A 
ATOM      7  C5  PXY d   1       3.343   2.043  -3.717  0.00  0.00     0.003 A 
ATOM      8  C6  PXY d   1       2.774   0.791  -3.506  0.00  0.00     0.003 A 
ENDROOT
TORSDOF 0
ENDMDL
