MODEL 1
REMARK minimizedAffinity 9.810256
REMARK minimizedRMSD -1
REMARK  0 active torsions:
REMARK  status: ('A' for Active; 'I' for Inactive)
ROOT
ATOM      1  C4' PXY d   1      -4.181   2.992   1.782  0.00  0.00     0.077 C 
ATOM      2  C1' PXY d   1      -0.602  -1.547   1.809  0.00  0.00     0.077 C 
ATOM      3  C1  PXY d   1      -1.531  -0.349   1.797  0.00  0.00    -0.082 A 
ATOM      4  C2  PXY d   1      -2.574  -0.322   2.611  0.00  0.00     0.003 A 
ATOM      5  C3  PXY d   1      -3.442   0.739   2.590  0.00  0.00     0.003 A 
ATOM      6  C4  PXY d   1      -3.211   1.808   1.766  0.00  0.00    -0.082 A 
ATOM      7  C5  PXY d   1      -2.143   1.792   0.941  0.00  0.00     0.003 A 
ATOM      8  C6  PXY d   1      -1.297   0.687   0.947  0.00  0.00     0.003 A 
ENDROOT
TORSDOF 0
ENDMDL
