MODEL 1
REMARK minimizedAffinity 1.16822684
REMARK minimizedRMSD -1
REMARK  0 active torsions:
REMARK  status: ('A' for Active; 'I' for Inactive)
ROOT
ATOM      1  C4' PXY d   1      -3.816  -0.516   1.453  0.00  0.00     0.077 C 
ATOM      2  C1' PXY d   1       0.058   3.419   3.165  0.00  0.00     0.077 C 
ATOM      3  C1  PXY d   1      -0.948   2.379   2.712  0.00  0.00    -0.082 A 
ATOM      4  C2  PXY d   1      -2.178   2.752   2.399  0.00  0.00     0.003 A 
ATOM      5  C3  PXY d   1      -3.110   1.821   2.018  0.00  0.00     0.003 A 
ATOM      6  C4  PXY d   1      -2.764   0.501   1.906  0.00  0.00    -0.082 A 
ATOM      7  C5  PXY d   1      -1.508   0.114   2.214  0.00  0.00     0.003 A 
ATOM      8  C6  PXY d   1      -0.589   1.069   2.637  0.00  0.00     0.003 A 
ENDROOT
TORSDOF 0
ENDMDL
