MODEL 1
REMARK minimizedAffinity 5.68693829
REMARK minimizedRMSD -1
REMARK  0 active torsions:
REMARK  status: ('A' for Active; 'I' for Inactive)
ROOT
ATOM      1  C4' PXY d   1       4.341   4.133  -4.861  0.00  0.00     0.077 C 
ATOM      2  C1' PXY d   1       2.398  -1.294  -4.431  0.00  0.00     0.077 C 
ATOM      3  C1  PXY d   1       2.914   0.126  -4.555  0.00  0.00    -0.082 A 
ATOM      4  C2  PXY d   1       3.015   0.882  -3.474  0.00  0.00     0.003 A 
ATOM      5  C3  PXY d   1       3.449   2.179  -3.572  0.00  0.00     0.003 A 
ATOM      6  C4  PXY d   1       3.835   2.691  -4.782  0.00  0.00    -0.082 A 
ATOM      7  C5  PXY d   1       3.745   1.922  -5.888  0.00  0.00     0.003 A 
ATOM      8  C6  PXY d   1       3.263   0.622  -5.773  0.00  0.00     0.003 A 
ENDROOT
TORSDOF 0
ENDMDL
