MODEL 1
REMARK minimizedAffinity -3.07095265
REMARK minimizedRMSD -1
REMARK  0 active torsions:
REMARK  status: ('A' for Active; 'I' for Inactive)
ROOT
ATOM      1  N1  IND d   1      -0.009   0.371  -0.966  0.00  0.00    -0.196 N 
ATOM      2  C2  IND d   1       0.986   1.233  -1.332  0.00  0.00     0.054 A 
ATOM      3  C3  IND d   1       1.490   1.859  -0.244  0.00  0.00    -0.031 A 
ATOM      4  C4  IND d   1       0.900   1.544   2.242  0.00  0.00     0.051 A 
ATOM      5  C5  IND d   1       0.028   0.894   3.068  0.00  0.00    -0.031 A 
ATOM      6  C6  IND d   1      -0.919   0.015   2.582  0.00  0.00     0.015 A 
ATOM      7  C7  IND d   1      -1.022  -0.255   1.247  0.00  0.00    -0.016 A 
ATOM      8  C8  IND d   1      -0.142   0.410   0.404  0.00  0.00    -0.047 A 
ATOM      9  C9  IND d   1       0.793   1.334   0.888  0.00  0.00    -0.096 A 
ATOM     10  HN1 IND d   1      -0.474  -0.115  -1.502  0.00  0.00     0.298 HD
ENDROOT
TORSDOF 0
ENDMDL
