MODEL 1
REMARK minimizedAffinity -5.7938323
REMARK minimizedRMSD -1
REMARK  0 active torsions:
REMARK  status: ('A' for Active; 'I' for Inactive)
ROOT
ATOM      1  N1  IND d   1       2.064  -0.759  -0.902  0.00  0.00    -0.196 N 
ATOM      2  C2  IND d   1       0.842  -1.369  -0.867  0.00  0.00     0.054 A 
ATOM      3  C3  IND d   1      -0.010  -0.671  -0.083  0.00  0.00    -0.031 A 
ATOM      4  C4  IND d   1       0.359   1.556   1.155  0.00  0.00     0.051 A 
ATOM      5  C5  IND d   1       1.324   2.476   1.451  0.00  0.00    -0.031 A 
ATOM      6  C6  IND d   1       2.611   2.365   0.966  0.00  0.00     0.015 A 
ATOM      7  C7  IND d   1       2.979   1.330   0.153  0.00  0.00    -0.016 A 
ATOM      8  C8  IND d   1       2.003   0.390  -0.143  0.00  0.00    -0.047 A 
ATOM      9  C9  IND d   1       0.707   0.474   0.381  0.00  0.00    -0.096 A 
ATOM     10  HN1 IND d   1       2.756  -1.044  -1.327  0.00  0.00     0.298 HD
ENDROOT
TORSDOF 0
ENDMDL
