MODEL 1
REMARK minimizedAffinity -1.18961835
REMARK minimizedRMSD -1
REMARK  0 active torsions:
REMARK  status: ('A' for Active; 'I' for Inactive)
ROOT
ATOM      1  N1  IND d   1       0.060  -0.141  -1.867  0.00  0.00    -0.196 N 
ATOM      2  C2  IND d   1       0.210  -0.310  -0.519  0.00  0.00     0.054 A 
ATOM      3  C3  IND d   1      -0.839  -0.996  -0.012  0.00  0.00    -0.031 A 
ATOM      4  C4  IND d   1      -2.861  -2.026  -1.226  0.00  0.00     0.051 A 
ATOM      5  C5  IND d   1      -3.455  -2.104  -2.454  0.00  0.00    -0.031 A 
ATOM      6  C6  IND d   1      -2.895  -1.521  -3.573  0.00  0.00     0.015 A 
ATOM      7  C7  IND d   1      -1.709  -0.846  -3.507  0.00  0.00    -0.016 A 
ATOM      8  C8  IND d   1      -1.107  -0.760  -2.260  0.00  0.00    -0.047 A 
ATOM      9  C9  IND d   1      -1.692  -1.312  -1.113  0.00  0.00    -0.096 A 
ATOM     10  HN1 IND d   1       0.602   0.282  -2.383  0.00  0.00     0.298 HD
ENDROOT
TORSDOF 0
ENDMDL
