MODEL 1
REMARK minimizedAffinity -4.21317196
REMARK minimizedRMSD -1
REMARK  0 active torsions:
REMARK  status: ('A' for Active; 'I' for Inactive)
ROOT
ATOM      1  N1  IND d   1      -0.625  -0.885   1.224  0.00  0.00    -0.196 N 
ATOM      2  C2  IND d   1      -0.789  -1.190  -0.099  0.00  0.00     0.054 A 
ATOM      3  C3  IND d   1      -0.397  -0.154  -0.873  0.00  0.00    -0.031 A 
ATOM      4  C4  IND d   1       0.641   2.100  -0.187  0.00  0.00     0.051 A 
ATOM      5  C5  IND d   1       0.954   2.852   0.911  0.00  0.00    -0.031 A 
ATOM      6  C6  IND d   1       0.756   2.386   2.194  0.00  0.00     0.015 A 
ATOM      7  C7  IND d   1       0.245   1.141   2.430  0.00  0.00    -0.016 A 
ATOM      8  C8  IND d   1      -0.081   0.378   1.318  0.00  0.00    -0.047 A 
ATOM      9  C9  IND d   1       0.079   0.861   0.013  0.00  0.00    -0.096 A 
ATOM     10  HN1 IND d   1      -0.827  -1.395   1.885  0.00  0.00     0.298 HD
ENDROOT
TORSDOF 0
ENDMDL
