MODEL 1
REMARK minimizedAffinity -0.943268776
REMARK minimizedRMSD -1
REMARK  0 active torsions:
REMARK  status: ('A' for Active; 'I' for Inactive)
ROOT
ATOM      1  N1  IND d   1       0.279  -1.003  -2.035  0.00  0.00    -0.196 N 
ATOM      2  C2  IND d   1       0.491  -1.564  -0.807  0.00  0.00     0.054 A 
ATOM      3  C3  IND d   1      -0.657  -2.093  -0.327  0.00  0.00    -0.031 A 
ATOM      4  C4  IND d   1      -2.977  -2.241  -1.433  0.00  0.00     0.051 A 
ATOM      5  C5  IND d   1      -3.671  -1.837  -2.539  0.00  0.00    -0.031 A 
ATOM      6  C6  IND d   1      -3.071  -1.122  -3.555  0.00  0.00     0.015 A 
ATOM      7  C7  IND d   1      -1.746  -0.793  -3.508  0.00  0.00    -0.016 A 
ATOM      8  C8  IND d   1      -1.039  -1.195  -2.384  0.00  0.00    -0.047 A 
ATOM      9  C9  IND d   1      -1.653  -1.884  -1.329  0.00  0.00    -0.096 A 
ATOM     10  HN1 IND d   1       0.870  -0.597  -2.510  0.00  0.00     0.298 HD
ENDROOT
TORSDOF 0
ENDMDL
