MODEL 1
REMARK minimizedAffinity -1.61986971
REMARK minimizedRMSD -1
REMARK  0 active torsions:
REMARK  status: ('A' for Active; 'I' for Inactive)
ROOT
ATOM      1  N1  IND d   1      -0.572  -0.736   1.010  0.00  0.00    -0.196 N 
ATOM      2  C2  IND d   1      -0.280  -1.242  -0.226  0.00  0.00     0.054 A 
ATOM      3  C3  IND d   1       0.426  -0.343  -0.947  0.00  0.00    -0.031 A 
ATOM      4  C4  IND d   1       1.299   1.980  -0.262  0.00  0.00     0.051 A 
ATOM      5  C5  IND d   1       1.254   2.890   0.756  0.00  0.00    -0.031 A 
ATOM      6  C6  IND d   1       0.586   2.632   1.936  0.00  0.00     0.015 A 
ATOM      7  C7  IND d   1      -0.054   1.444   2.147  0.00  0.00    -0.016 A 
ATOM      8  C8  IND d   1      -0.016   0.520   1.112  0.00  0.00    -0.047 A 
ATOM      9  C9  IND d   1       0.624   0.793  -0.104  0.00  0.00    -0.096 A 
ATOM     10  HN1 IND d   1      -1.027  -1.136   1.621  0.00  0.00     0.298 HD
ENDROOT
TORSDOF 0
ENDMDL
