MODEL 1
REMARK minimizedAffinity -2.04615259
REMARK minimizedRMSD -1
REMARK  0 active torsions:
REMARK  status: ('A' for Active; 'I' for Inactive)
ROOT
ATOM      1  N1  IND d   1       0.586  -0.377  -1.128  0.00  0.00    -0.196 N 
ATOM      2  C2  IND d   1      -0.036  -1.586  -1.277  0.00  0.00     0.054 A 
ATOM      3  C3  IND d   1      -0.856  -1.824  -0.228  0.00  0.00    -0.031 A 
ATOM      4  C4  IND d   1      -1.406  -0.326   1.792  0.00  0.00     0.051 A 
ATOM      5  C5  IND d   1      -1.056   0.855   2.384  0.00  0.00    -0.031 A 
ATOM      6  C6  IND d   1      -0.125   1.704   1.822  0.00  0.00     0.015 A 
ATOM      7  C7  IND d   1       0.486   1.408   0.637  0.00  0.00    -0.016 A 
ATOM      8  C8  IND d   1       0.139   0.206   0.037  0.00  0.00    -0.047 A 
ATOM      9  C9  IND d   1      -0.774  -0.680   0.623  0.00  0.00    -0.096 A 
ATOM     10  HN1 IND d   1       1.160  -0.039  -1.672  0.00  0.00     0.298 HD
ENDROOT
TORSDOF 0
ENDMDL
