MODEL 1
REMARK minimizedAffinity -3.71700215
REMARK minimizedRMSD -1
REMARK  0 active torsions:
REMARK  status: ('A' for Active; 'I' for Inactive)
ROOT
ATOM      1  N1  IND d   1       0.797   2.779   0.351  0.00  0.00    -0.196 N 
ATOM      2  C2  IND d   1       1.032   2.883   1.694  0.00  0.00     0.054 A 
ATOM      3  C3  IND d   1       0.642   1.755   2.329  0.00  0.00    -0.031 A 
ATOM      4  C4  IND d   1      -0.314  -0.425   1.350  0.00  0.00     0.051 A 
ATOM      5  C5  IND d   1      -0.742  -0.983   0.178  0.00  0.00    -0.031 A 
ATOM      6  C6  IND d   1      -0.676  -0.302  -1.021  0.00  0.00     0.015 A 
ATOM      7  C7  IND d   1      -0.166   0.963  -1.094  0.00  0.00    -0.016 A 
ATOM      8  C8  IND d   1       0.264   1.535   0.095  0.00  0.00    -0.047 A 
ATOM      9  C9  IND d   1       0.160   0.865   1.321  0.00  0.00    -0.096 A 
ATOM     10  HN1 IND d   1       0.955   3.389  -0.234  0.00  0.00     0.298 HD
ENDROOT
TORSDOF 0
ENDMDL
