MODEL 1
REMARK minimizedAffinity -2.02662802
REMARK minimizedRMSD -1
REMARK  0 active torsions:
REMARK  status: ('A' for Active; 'I' for Inactive)
ROOT
ATOM      1  N1  IND d   1      -4.630  -2.882  -2.697  0.00  0.00    -0.196 N 
ATOM      2  C2  IND d   1      -4.826  -3.548  -1.519  0.00  0.00     0.054 A 
ATOM      3  C3  IND d   1      -3.651  -3.716  -0.873  0.00  0.00    -0.031 A 
ATOM      4  C4  IND d   1      -1.298  -2.891  -1.515  0.00  0.00     0.051 A 
ATOM      5  C5  IND d   1      -0.612  -2.269  -2.519  0.00  0.00    -0.031 A 
ATOM      6  C6  IND d   1      -1.243  -1.807  -3.656  0.00  0.00     0.015 A 
ATOM      7  C7  IND d   1      -2.592  -1.941  -3.826  0.00  0.00    -0.016 A 
ATOM      8  C8  IND d   1      -3.291  -2.579  -2.811  0.00  0.00    -0.047 A 
ATOM      9  C9  IND d   1      -2.649  -3.087  -1.675  0.00  0.00    -0.096 A 
ATOM     10  HN1 IND d   1      -5.240  -2.685  -3.269  0.00  0.00     0.298 HD
ENDROOT
TORSDOF 0
ENDMDL
