MODEL 1
REMARK minimizedAffinity -2.9716866
REMARK minimizedRMSD -1
REMARK  0 active torsions:
REMARK  status: ('A' for Active; 'I' for Inactive)
ROOT
ATOM      1  N1  IND d   1       0.674   0.037  -1.144  0.00  0.00    -0.196 N 
ATOM      2  C2  IND d   1      -0.062  -1.079  -0.861  0.00  0.00     0.054 A 
ATOM      3  C3  IND d   1      -0.475  -1.056   0.426  0.00  0.00    -0.031 A 
ATOM      4  C4  IND d   1      -0.144   0.764   2.217  0.00  0.00     0.051 A 
ATOM      5  C5  IND d   1       0.492   1.952   2.441  0.00  0.00    -0.031 A 
ATOM      6  C6  IND d   1       1.235   2.577   1.460  0.00  0.00     0.015 A 
ATOM      7  C7  IND d   1       1.359   2.040   0.210  0.00  0.00    -0.016 A 
ATOM      8  C8  IND d   1       0.720   0.830  -0.019  0.00  0.00    -0.047 A 
ATOM      9  C9  IND d   1       0.001   0.170   0.986  0.00  0.00    -0.096 A 
ATOM     10  HN1 IND d   1       1.046   0.215  -1.899  0.00  0.00     0.298 HD
ENDROOT
TORSDOF 0
ENDMDL
