MODEL 1
REMARK minimizedAffinity -1.38489461
REMARK minimizedRMSD -1
REMARK  0 active torsions:
REMARK  status: ('A' for Active; 'I' for Inactive)
ROOT
ATOM      1  N1  IND d   1      -0.003  -0.868  -1.202  0.00  0.00    -0.196 N 
ATOM      2  C2  IND d   1      -1.177  -1.383  -0.727  0.00  0.00     0.054 A 
ATOM      3  C3  IND d   1      -1.422  -0.921   0.520  0.00  0.00    -0.031 A 
ATOM      4  C4  IND d   1      -0.084   0.767   1.931  0.00  0.00     0.051 A 
ATOM      5  C5  IND d   1       1.079   1.484   1.936  0.00  0.00    -0.031 A 
ATOM      6  C6  IND d   1       1.957   1.456   0.872  0.00  0.00     0.015 A 
ATOM      7  C7  IND d   1       1.698   0.714  -0.246  0.00  0.00    -0.016 A 
ATOM      8  C8  IND d   1       0.522  -0.021  -0.251  0.00  0.00    -0.047 A 
ATOM      9  C9  IND d   1      -0.353  -0.030   0.843  0.00  0.00    -0.096 A 
ATOM     10  HN1 IND d   1       0.348  -1.044  -1.967  0.00  0.00     0.298 HD
ENDROOT
TORSDOF 0
ENDMDL
