MODEL 1
REMARK minimizedAffinity -3.12101388
REMARK minimizedRMSD -1
REMARK  0 active torsions:
REMARK  status: ('A' for Active; 'I' for Inactive)
ROOT
ATOM      1  N1  IND d   1       0.397   0.076  -1.112  0.00  0.00    -0.196 N 
ATOM      2  C2  IND d   1       0.458  -0.283   0.205  0.00  0.00     0.054 A 
ATOM      3  C3  IND d   1      -0.540  -1.144   0.506  0.00  0.00    -0.031 A 
ATOM      4  C4  IND d   1      -2.326  -2.178  -1.033  0.00  0.00     0.051 A 
ATOM      5  C5  IND d   1      -2.808  -2.126  -2.311  0.00  0.00    -0.031 A 
ATOM      6  C6  IND d   1      -2.233  -1.323  -3.275  0.00  0.00     0.015 A 
ATOM      7  C7  IND d   1      -1.143  -0.548  -2.998  0.00  0.00    -0.016 A 
ATOM      8  C8  IND d   1      -0.655  -0.593  -1.700  0.00  0.00    -0.047 A 
ATOM      9  C9  IND d   1      -1.260  -1.373  -0.706  0.00  0.00    -0.096 A 
ATOM     10  HN1 IND d   1       0.925   0.627  -1.508  0.00  0.00     0.298 HD
ENDROOT
TORSDOF 0
ENDMDL
