MODEL 1
REMARK minimizedAffinity 5.0305171
REMARK minimizedRMSD -1
REMARK  0 active torsions:
REMARK  status: ('A' for Active; 'I' for Inactive)
ROOT
ATOM      1  N1  IND d   1      -2.106  -1.068  -3.348  0.00  0.00    -0.196 N 
ATOM      2  C2  IND d   1      -3.363  -1.555  -3.121  0.00  0.00     0.054 A 
ATOM      3  C3  IND d   1      -3.566  -1.734  -1.796  0.00  0.00    -0.031 A 
ATOM      4  C4  IND d   1      -2.010  -1.196   0.184  0.00  0.00     0.051 A 
ATOM      5  C5  IND d   1      -0.745  -0.770   0.474  0.00  0.00    -0.031 A 
ATOM      6  C6  IND d   1       0.149  -0.411  -0.514  0.00  0.00     0.015 A 
ATOM      7  C7  IND d   1      -0.195  -0.455  -1.836  0.00  0.00    -0.016 A 
ATOM      8  C8  IND d   1      -1.477  -0.894  -2.135  0.00  0.00    -0.047 A 
ATOM      9  C9  IND d   1      -2.374  -1.300  -1.138  0.00  0.00    -0.096 A 
ATOM     10  HN1 IND d   1      -1.766  -0.899  -4.119  0.00  0.00     0.298 HD
ENDROOT
TORSDOF 0
ENDMDL
