MODEL 1
REMARK minimizedAffinity -1.64984262
REMARK minimizedRMSD -1
REMARK  0 active torsions:
REMARK  status: ('A' for Active; 'I' for Inactive)
ROOT
ATOM      1  N1  IND d   1       1.699   0.490  -0.958  0.00  0.00    -0.196 N 
ATOM      2  C2  IND d   1       1.110  -0.657  -1.411  0.00  0.00     0.054 A 
ATOM      3  C3  IND d   1       0.131  -1.050  -0.564  0.00  0.00    -0.031 A 
ATOM      4  C4  IND d   1      -0.739   0.094   1.571  0.00  0.00     0.051 A 
ATOM      5  C5  IND d   1      -0.491   1.146   2.408  0.00  0.00    -0.031 A 
ATOM      6  C6  IND d   1       0.519   2.053   2.159  0.00  0.00     0.015 A 
ATOM      7  C7  IND d   1       1.314   1.948   1.053  0.00  0.00    -0.016 A 
ATOM      8  C8  IND d   1       1.069   0.877   0.205  0.00  0.00    -0.047 A 
ATOM      9  C9  IND d   1       0.074  -0.071   0.475  0.00  0.00    -0.096 A 
ATOM     10  HN1 IND d   1       2.354   0.901  -1.335  0.00  0.00     0.298 HD
ENDROOT
TORSDOF 0
ENDMDL
