MODEL 1
REMARK minimizedAffinity -1.25144494
REMARK minimizedRMSD -1
REMARK  0 active torsions:
REMARK  status: ('A' for Active; 'I' for Inactive)
ROOT
ATOM      1  N1  IND d   1      -5.612  -2.886  -2.071  0.00  0.00    -0.196 N 
ATOM      2  C2  IND d   1      -5.602  -3.687  -0.963  0.00  0.00     0.054 A 
ATOM      3  C3  IND d   1      -4.357  -3.751  -0.441  0.00  0.00    -0.031 A 
ATOM      4  C4  IND d   1      -2.208  -2.542  -1.181  0.00  0.00     0.051 A 
ATOM      5  C5  IND d   1      -1.712  -1.732  -2.164  0.00  0.00    -0.031 A 
ATOM      6  C6  IND d   1      -2.507  -1.253  -3.185  0.00  0.00     0.015 A 
ATOM      7  C7  IND d   1      -3.837  -1.559  -3.255  0.00  0.00    -0.016 A 
ATOM      8  C8  IND d   1      -4.342  -2.387  -2.263  0.00  0.00    -0.047 A 
ATOM      9  C9  IND d   1      -3.531  -2.910  -1.248  0.00  0.00    -0.096 A 
ATOM     10  HN1 IND d   1      -6.296  -2.721  -2.565  0.00  0.00     0.298 HD
ENDROOT
TORSDOF 0
ENDMDL
