MODEL 1
REMARK minimizedAffinity -3.75432658
REMARK minimizedRMSD -1
REMARK  0 active torsions:
REMARK  status: ('A' for Active; 'I' for Inactive)
ROOT
ATOM      1  N1  IND d   1       1.780   1.215   0.651  0.00  0.00    -0.196 N 
ATOM      2  C2  IND d   1       1.482   2.275   1.461  0.00  0.00     0.054 A 
ATOM      3  C3  IND d   1       0.169   2.267   1.783  0.00  0.00    -0.031 A 
ATOM      4  C4  IND d   1      -1.653   0.554   1.175  0.00  0.00     0.051 A 
ATOM      5  C5  IND d   1      -1.871  -0.566   0.423  0.00  0.00    -0.031 A 
ATOM      6  C6  IND d   1      -0.862  -1.164  -0.303  0.00  0.00     0.015 A 
ATOM      7  C7  IND d   1       0.411  -0.668  -0.296  0.00  0.00    -0.016 A 
ATOM      8  C8  IND d   1       0.634   0.474   0.460  0.00  0.00    -0.047 A 
ATOM      9  C9  IND d   1      -0.396   1.110   1.165  0.00  0.00    -0.096 A 
ATOM     10  HN1 IND d   1       2.552   1.040   0.316  0.00  0.00     0.298 HD
ENDROOT
TORSDOF 0
ENDMDL
