MODEL 1
REMARK minimizedAffinity -2.35337186
REMARK minimizedRMSD -1
REMARK  0 active torsions:
REMARK  status: ('A' for Active; 'I' for Inactive)
ROOT
ATOM      1  N1  IND d   1       2.731  -0.317  -0.916  0.00  0.00    -0.196 N 
ATOM      2  C2  IND d   1       3.059   0.942  -0.497  0.00  0.00     0.054 A 
ATOM      3  C3  IND d   1       1.971   1.569   0.004  0.00  0.00    -0.031 A 
ATOM      4  C4  IND d   1      -0.424   0.682   0.327  0.00  0.00     0.051 A 
ATOM      5  C5  IND d   1      -1.217  -0.399   0.063  0.00  0.00    -0.031 A 
ATOM      6  C6  IND d   1      -0.724  -1.532  -0.551  0.00  0.00     0.015 A 
ATOM      7  C7  IND d   1       0.589  -1.631  -0.915  0.00  0.00    -0.016 A 
ATOM      8  C8  IND d   1       1.395  -0.532  -0.654  0.00  0.00    -0.047 A 
ATOM      9  C9  IND d   1       0.891   0.637  -0.070  0.00  0.00    -0.096 A 
ATOM     10  HN1 IND d   1       3.268  -0.880  -1.281  0.00  0.00     0.298 HD
ENDROOT
TORSDOF 0
ENDMDL
