MODEL 1
REMARK minimizedAffinity -4.18572998
REMARK minimizedRMSD -1
REMARK  0 active torsions:
REMARK  status: ('A' for Active; 'I' for Inactive)
ROOT
ATOM      1  N1  IND d   1      -5.185  -3.781  -2.467  0.00  0.00    -0.196 N 
ATOM      2  C2  IND d   1      -5.213  -4.466  -1.285  0.00  0.00     0.054 A 
ATOM      3  C3  IND d   1      -4.072  -4.255  -0.591  0.00  0.00    -0.031 A 
ATOM      4  C4  IND d   1      -2.069  -2.742  -1.160  0.00  0.00     0.051 A 
ATOM      5  C5  IND d   1      -1.568  -1.944  -2.151  0.00  0.00    -0.031 A 
ATOM      6  C6  IND d   1      -2.263  -1.711  -3.320  0.00  0.00     0.015 A 
ATOM      7  C7  IND d   1      -3.495  -2.261  -3.538  0.00  0.00    -0.016 A 
ATOM      8  C8  IND d   1      -4.003  -3.077  -2.538  0.00  0.00    -0.047 A 
ATOM      9  C9  IND d   1      -3.284  -3.351  -1.367  0.00  0.00    -0.096 A 
ATOM     10  HN1 IND d   1      -5.801  -3.789  -3.067  0.00  0.00     0.298 HD
ENDROOT
TORSDOF 0
ENDMDL
