MODEL 1
REMARK minimizedAffinity -6.06376696
REMARK minimizedRMSD -1
REMARK  0 active torsions:
REMARK  status: ('A' for Active; 'I' for Inactive)
ROOT
ATOM      1  N1  IND d   1       2.666   0.434  -0.026  0.00  0.00    -0.196 N 
ATOM      2  C2  IND d   1       3.349   1.545   0.384  0.00  0.00     0.054 A 
ATOM      3  C3  IND d   1       2.531   2.371   1.074  0.00  0.00    -0.031 A 
ATOM      4  C4  IND d   1       0.065   2.052   1.739  0.00  0.00     0.051 A 
ATOM      5  C5  IND d   1      -0.998   1.211   1.562  0.00  0.00    -0.031 A 
ATOM      6  C6  IND d   1      -0.891   0.043   0.835  0.00  0.00     0.015 A 
ATOM      7  C7  IND d   1       0.291  -0.335   0.264  0.00  0.00    -0.016 A 
ATOM      8  C8  IND d   1       1.371   0.520   0.435  0.00  0.00    -0.047 A 
ATOM      9  C9  IND d   1       1.257   1.728   1.136  0.00  0.00    -0.096 A 
ATOM     10  HN1 IND d   1       2.991  -0.211  -0.493  0.00  0.00     0.298 HD
ENDROOT
TORSDOF 0
ENDMDL
