MODEL 1
REMARK minimizedAffinity -3.03092742
REMARK minimizedRMSD -1
REMARK  0 active torsions:
REMARK  status: ('A' for Active; 'I' for Inactive)
ROOT
ATOM      1  N1  IND d   1       0.257  -1.270  -0.861  0.00  0.00    -0.196 N 
ATOM      2  C2  IND d   1      -1.102  -1.417  -0.808  0.00  0.00     0.054 A 
ATOM      3  C3  IND d   1      -1.635  -0.547   0.078  0.00  0.00    -0.031 A 
ATOM      4  C4  IND d   1      -0.477   1.278   1.477  0.00  0.00     0.051 A 
ATOM      5  C5  IND d   1       0.757   1.771   1.795  0.00  0.00    -0.031 A 
ATOM      6  C6  IND d   1       1.911   1.267   1.230  0.00  0.00     0.015 A 
ATOM      7  C7  IND d   1       1.872   0.254   0.314  0.00  0.00    -0.016 A 
ATOM      8  C8  IND d   1       0.621  -0.254  -0.006  0.00  0.00    -0.047 A 
ATOM      9  C9  IND d   1      -0.550   0.225   0.596  0.00  0.00    -0.096 A 
ATOM     10  HN1 IND d   1       0.793  -1.735  -1.346  0.00  0.00     0.298 HD
ENDROOT
TORSDOF 0
ENDMDL
