MODEL 1
REMARK minimizedAffinity -3.23162413
REMARK minimizedRMSD -1
REMARK  0 active torsions:
REMARK  status: ('A' for Active; 'I' for Inactive)
ROOT
ATOM      1  C   UNL d   1      -0.490  -0.180  -0.147  0.00  0.00     0.172 C 
ATOM      2  N   UNL d   1       0.936  -0.067   0.050  0.00  0.00    -0.070 N 
ATOM      3  C1  UNL d   1       1.800   0.624  -0.757  0.00  0.00    -0.004 A 
ATOM      4  C2  UNL d   1       3.067   0.489  -0.231  0.00  0.00    -0.047 A 
ATOM      5  C3  UNL d   1       2.960  -0.312   0.931  0.00  0.00    -0.047 A 
ATOM      6  C4  UNL d   1       1.630  -0.642   1.081  0.00  0.00    -0.004 A 
ENDROOT
TORSDOF 0
ENDMDL
