MODEL 1
REMARK minimizedAffinity -2.80173302
REMARK minimizedRMSD -1
REMARK  0 active torsions:
REMARK  status: ('A' for Active; 'I' for Inactive)
ROOT
ATOM      1  C   UNL d   1       2.233   1.366   1.870  0.00  0.00     0.172 C 
ATOM      2  N   UNL d   1       1.187   0.756   1.083  0.00  0.00    -0.070 N 
ATOM      3  C1  UNL d   1      -0.076   1.255   0.910  0.00  0.00    -0.004 A 
ATOM      4  C2  UNL d   1      -0.766   0.383   0.096  0.00  0.00    -0.047 A 
ATOM      5  C3  UNL d   1       0.112  -0.677  -0.231  0.00  0.00    -0.047 A 
ATOM      6  C4  UNL d   1       1.315  -0.421   0.393  0.00  0.00    -0.004 A 
ENDROOT
TORSDOF 0
ENDMDL
