MODEL 1
REMARK minimizedAffinity -3.92465162
REMARK minimizedRMSD -1
REMARK  0 active torsions:
REMARK  status: ('A' for Active; 'I' for Inactive)
ROOT
ATOM      1  C   UNL d   1      -1.060   0.389  -0.058  0.00  0.00     0.172 C 
ATOM      2  N   UNL d   1       0.350   0.506   0.233  0.00  0.00    -0.070 N 
ATOM      3  C1  UNL d   1       1.065   1.673   0.264  0.00  0.00    -0.004 A 
ATOM      4  C2  UNL d   1       2.370   1.361   0.577  0.00  0.00    -0.047 A 
ATOM      5  C3  UNL d   1       2.442  -0.043   0.739  0.00  0.00    -0.047 A 
ATOM      6  C4  UNL d   1       1.177  -0.548   0.520  0.00  0.00    -0.004 A 
ENDROOT
TORSDOF 0
ENDMDL
