MODEL 1
REMARK minimizedAffinity -3.33846331
REMARK minimizedRMSD -1
REMARK  0 active torsions:
REMARK  status: ('A' for Active; 'I' for Inactive)
ROOT
ATOM      1  C   UNL d   1      -1.051  -0.066  -0.417  0.00  0.00     0.172 C 
ATOM      2  N   UNL d   1       0.325  -0.004   0.016  0.00  0.00    -0.070 N 
ATOM      3  C1  UNL d   1       1.135  -1.080   0.260  0.00  0.00    -0.004 A 
ATOM      4  C2  UNL d   1       2.367  -0.602   0.651  0.00  0.00    -0.047 A 
ATOM      5  C3  UNL d   1       2.294   0.811   0.643  0.00  0.00    -0.047 A 
ATOM      6  C4  UNL d   1       1.019   1.155   0.247  0.00  0.00    -0.004 A 
ENDROOT
TORSDOF 0
ENDMDL
