MODEL 1
REMARK minimizedAffinity -3.88562393
REMARK minimizedRMSD -1
REMARK  0 active torsions:
REMARK  status: ('A' for Active; 'I' for Inactive)
ROOT
ATOM      1  C   UNL d   1      -0.630   0.025   0.215  0.00  0.00     0.172 C 
ATOM      2  N   UNL d   1       0.787  -0.062   0.477  0.00  0.00    -0.070 N 
ATOM      3  C1  UNL d   1       1.391  -0.962   1.314  0.00  0.00    -0.004 A 
ATOM      4  C2  UNL d   1       2.747  -0.718   1.289  0.00  0.00    -0.047 A 
ATOM      5  C3  UNL d   1       2.966   0.367   0.407  0.00  0.00    -0.047 A 
ATOM      6  C4  UNL d   1       1.736   0.754  -0.081  0.00  0.00    -0.004 A 
ENDROOT
TORSDOF 0
ENDMDL
