MODEL 1
REMARK minimizedAffinity -3.96324182
REMARK minimizedRMSD -1
REMARK  0 active torsions:
REMARK  status: ('A' for Active; 'I' for Inactive)
ROOT
ATOM      1  C   UNL d   1      -0.284   0.154   0.065  0.00  0.00     0.172 C 
ATOM      2  N   UNL d   1       1.119   0.139   0.405  0.00  0.00    -0.070 N 
ATOM      3  C1  UNL d   1       1.865   1.230   0.764  0.00  0.00    -0.004 A 
ATOM      4  C2  UNL d   1       3.151   0.800   1.009  0.00  0.00    -0.047 A 
ATOM      5  C3  UNL d   1       3.179  -0.598   0.790  0.00  0.00    -0.047 A 
ATOM      6  C4  UNL d   1       1.908  -0.981   0.417  0.00  0.00    -0.004 A 
ENDROOT
TORSDOF 0
ENDMDL
