MODEL 1
REMARK minimizedAffinity -3.20334363
REMARK minimizedRMSD -1
REMARK  0 active torsions:
REMARK  status: ('A' for Active; 'I' for Inactive)
ROOT
ATOM      1  C   UNL d   1      -0.640   0.164   0.104  0.00  0.00     0.172 C 
ATOM      2  N   UNL d   1       0.750   0.261   0.481  0.00  0.00    -0.070 N 
ATOM      3  C1  UNL d   1       1.581   1.314   0.203  0.00  0.00    -0.004 A 
ATOM      4  C2  UNL d   1       2.821   1.023   0.730  0.00  0.00    -0.047 A 
ATOM      5  C3  UNL d   1       2.732  -0.248   1.346  0.00  0.00    -0.047 A 
ATOM      6  C4  UNL d   1       1.439  -0.697   1.177  0.00  0.00    -0.004 A 
ENDROOT
TORSDOF 0
ENDMDL
