MODEL 1
REMARK minimizedAffinity -0.778546929
REMARK minimizedRMSD -1
REMARK  0 active torsions:
REMARK  status: ('A' for Active; 'I' for Inactive)
ROOT
ATOM      1  C   UNL d   1      -0.474  -1.340   1.224  0.00  0.00     0.172 C 
ATOM      2  N   UNL d   1      -0.081  -0.139   0.525  0.00  0.00    -0.070 N 
ATOM      3  C1  UNL d   1      -0.075   0.028  -0.834  0.00  0.00    -0.004 A 
ATOM      4  C2  UNL d   1       0.362   1.308  -1.100  0.00  0.00    -0.047 A 
ATOM      5  C3  UNL d   1       0.628   1.931   0.142  0.00  0.00    -0.047 A 
ATOM      6  C4  UNL d   1       0.346   1.013   1.132  0.00  0.00    -0.004 A 
ENDROOT
TORSDOF 0
ENDMDL
