MODEL 1
REMARK minimizedAffinity 2.52830362
REMARK minimizedRMSD -1
REMARK  1 active torsions:
REMARK  status: ('A' for Active; 'I' for Inactive)
REMARK    1  A    between atoms: N_2  and  C1_3 
ROOT
ATOM      1  C1  UNL d   1       0.291   0.493   2.199  0.00  0.00     0.143 A 
ATOM      2  C2  UNL d   1       0.877   1.517   2.950  0.00  0.00    -0.057 A 
ATOM      3  C3  UNL d   1       0.120   2.596   3.424  0.00  0.00     0.033 A 
ATOM      4  C4  UNL d   1      -1.236   2.684   3.128  0.00  0.00    -0.042 A 
ATOM      5  C5  UNL d   1      -1.835   1.691   2.361  0.00  0.00     0.033 A 
ATOM      6  C6  UNL d   1      -1.075   0.613   1.897  0.00  0.00    -0.057 A 
ENDROOT
BRANCH   1   7
ATOM      7  N   UNL d   1       1.010  -0.554   1.617  0.00  0.00    -0.732 N 
ATOM      8  C   UNL d   1       2.228  -0.292   0.881  0.00  0.00     0.284 C 
ATOM      9  H3  UNL d   1       1.055  -1.375   2.216  0.00  0.00     0.395 HD
ENDBRANCH   1   7
TORSDOF 1
ENDMDL
