MODEL 1
REMARK minimizedAffinity 9.24362087
REMARK minimizedRMSD -1
REMARK  1 active torsions:
REMARK  status: ('A' for Active; 'I' for Inactive)
REMARK    1  A    between atoms: N_2  and  C1_3 
ROOT
ATOM      1  C1  UNL d   1      -1.236   0.998   1.411  0.00  0.00     0.143 A 
ATOM      2  C2  UNL d   1      -0.067   1.724   1.660  0.00  0.00    -0.057 A 
ATOM      3  C3  UNL d   1       1.114   1.085   2.058  0.00  0.00     0.033 A 
ATOM      4  C4  UNL d   1       1.137  -0.293   2.244  0.00  0.00    -0.042 A 
ATOM      5  C5  UNL d   1      -0.020  -1.032   2.026  0.00  0.00     0.033 A 
ATOM      6  C6  UNL d   1      -1.194  -0.389   1.622  0.00  0.00    -0.057 A 
ENDROOT
BRANCH   1   7
ATOM      7  N   UNL d   1      -2.467   1.586   1.108  0.00  0.00    -0.732 N 
ATOM      8  C   UNL d   1      -3.463   1.784   2.139  0.00  0.00     0.284 C 
ATOM      9  H3  UNL d   1      -2.376   2.366   0.462  0.00  0.00     0.395 HD
ENDBRANCH   1   7
TORSDOF 1
ENDMDL
