MODEL 1
REMARK minimizedAffinity 2.95081568
REMARK minimizedRMSD -1
REMARK  1 active torsions:
REMARK  status: ('A' for Active; 'I' for Inactive)
REMARK    1  A    between atoms: N_2  and  C1_3 
ROOT
ATOM      1  C1  UNL d   1      -0.723   1.178   2.601  0.00  0.00     0.143 A 
ATOM      2  C2  UNL d   1      -2.011   1.702   2.750  0.00  0.00    -0.057 A 
ATOM      3  C3  UNL d   1      -3.003   1.475   1.789  0.00  0.00     0.033 A 
ATOM      4  C4  UNL d   1      -2.715   0.740   0.644  0.00  0.00    -0.042 A 
ATOM      5  C5  UNL d   1      -1.435   0.230   0.462  0.00  0.00     0.033 A 
ATOM      6  C6  UNL d   1      -0.450   0.455   1.429  0.00  0.00    -0.057 A 
ENDROOT
BRANCH   1   7
ATOM      7  N   UNL d   1       0.334   1.452   3.473  0.00  0.00    -0.732 N 
ATOM      8  C   UNL d   1       0.672   2.816   3.816  0.00  0.00     0.284 C 
ATOM      9  H3  UNL d   1       0.368   0.805   4.257  0.00  0.00     0.395 HD
ENDBRANCH   1   7
TORSDOF 1
ENDMDL
