MODEL 1
REMARK minimizedAffinity -0.673943877
REMARK minimizedRMSD -1
REMARK  1 active torsions:
REMARK  status: ('A' for Active; 'I' for Inactive)
REMARK    1  A    between atoms: N_2  and  C1_3 
ROOT
ATOM      1  C1  UNL d   1       4.238  -0.503   2.310  0.00  0.00     0.143 A 
ATOM      2  C2  UNL d   1       3.464   0.377   1.546  0.00  0.00    -0.057 A 
ATOM      3  C3  UNL d   1       2.138   0.075   1.211  0.00  0.00     0.033 A 
ATOM      4  C4  UNL d   1       1.571  -1.131   1.611  0.00  0.00    -0.042 A 
ATOM      5  C5  UNL d   1       2.330  -2.031   2.351  0.00  0.00     0.033 A 
ATOM      6  C6  UNL d   1       3.651  -1.721   2.688  0.00  0.00    -0.057 A 
ENDROOT
BRANCH   1   7
ATOM      7  N   UNL d   1       5.592  -0.304   2.592  0.00  0.00    -0.732 N 
ATOM      8  C   UNL d   1       5.998   0.487   3.734  0.00  0.00     0.284 C 
ATOM      9  H3  UNL d   1       6.146  -1.146   2.451  0.00  0.00     0.395 HD
ENDBRANCH   1   7
TORSDOF 1
ENDMDL
