MODEL 1
REMARK minimizedAffinity -0.174304307
REMARK minimizedRMSD -1
REMARK  1 active torsions:
REMARK  status: ('A' for Active; 'I' for Inactive)
REMARK    1  A    between atoms: N_2  and  C1_3 
ROOT
ATOM      1  C1  UNL d   1      -4.134  -4.264   3.487  0.00  0.00     0.143 A 
ATOM      2  C2  UNL d   1      -3.957  -4.304   4.874  0.00  0.00    -0.057 A 
ATOM      3  C3  UNL d   1      -3.468  -3.196   5.576  0.00  0.00     0.033 A 
ATOM      4  C4  UNL d   1      -3.120  -2.033   4.896  0.00  0.00    -0.042 A 
ATOM      5  C5  UNL d   1      -3.264  -1.979   3.514  0.00  0.00     0.033 A 
ATOM      6  C6  UNL d   1      -3.759  -3.088   2.820  0.00  0.00    -0.057 A 
ENDROOT
BRANCH   1   7
ATOM      7  N   UNL d   1      -4.522  -5.366   2.720  0.00  0.00    -0.732 N 
ATOM      8  C   UNL d   1      -5.916  -5.582   2.394  0.00  0.00     0.284 C 
ATOM      9  H3  UNL d   1      -3.882  -5.549   1.952  0.00  0.00     0.395 HD
ENDBRANCH   1   7
TORSDOF 1
ENDMDL
