MODEL 1
REMARK minimizedAffinity 6.6944108
REMARK minimizedRMSD -1
REMARK  1 active torsions:
REMARK  status: ('A' for Active; 'I' for Inactive)
REMARK    1  A    between atoms: N_2  and  C1_3 
ROOT
ATOM      1  C1  UNL d   1       3.587  -0.553   2.629  0.00  0.00     0.143 A 
ATOM      2  C2  UNL d   1       2.994  -1.793   2.890  0.00  0.00    -0.057 A 
ATOM      3  C3  UNL d   1       1.893  -2.242   2.151  0.00  0.00     0.033 A 
ATOM      4  C4  UNL d   1       1.345  -1.442   1.153  0.00  0.00    -0.042 A 
ATOM      5  C5  UNL d   1       1.902  -0.195   0.893  0.00  0.00     0.033 A 
ATOM      6  C6  UNL d   1       3.006   0.244   1.630  0.00  0.00    -0.057 A 
ENDROOT
BRANCH   1   7
ATOM      7  N   UNL d   1       4.621  -0.009   3.394  0.00  0.00    -0.732 N 
ATOM      8  C   UNL d   1       5.997  -0.386   3.149  0.00  0.00     0.284 C 
ATOM      9  H3  UNL d   1       4.488   0.983   3.577  0.00  0.00     0.395 HD
ENDBRANCH   1   7
TORSDOF 1
ENDMDL
