MODEL 1
REMARK minimizedAffinity 9.85818672
REMARK minimizedRMSD -1
REMARK  1 active torsions:
REMARK  status: ('A' for Active; 'I' for Inactive)
REMARK    1  A    between atoms: N_2  and  C1_3 
ROOT
ATOM      1  C1  UNL d   1       2.530  -0.319   2.096  0.00  0.00     0.143 A 
ATOM      2  C2  UNL d   1       3.863  -0.494   2.484  0.00  0.00    -0.057 A 
ATOM      3  C3  UNL d   1       4.895   0.244   1.892  0.00  0.00     0.033 A 
ATOM      4  C4  UNL d   1       4.615   1.152   0.876  0.00  0.00    -0.042 A 
ATOM      5  C5  UNL d   1       3.301   1.324   0.457  0.00  0.00     0.033 A 
ATOM      6  C6  UNL d   1       2.273   0.590   1.057  0.00  0.00    -0.057 A 
ENDROOT
BRANCH   1   7
ATOM      7  N   UNL d   1       1.471  -1.092   2.577  0.00  0.00    -0.732 N 
ATOM      8  C   UNL d   1       0.749  -1.984   1.695  0.00  0.00     0.284 C 
ATOM      9  H3  UNL d   1       1.662  -1.482   3.497  0.00  0.00     0.395 HD
ENDBRANCH   1   7
TORSDOF 1
ENDMDL
