MODEL 1
REMARK minimizedAffinity 6.28633451
REMARK minimizedRMSD -1
REMARK  1 active torsions:
REMARK  status: ('A' for Active; 'I' for Inactive)
REMARK    1  A    between atoms: N_2  and  C1_3 
ROOT
ATOM      1  C1  UNL d   1       3.559   1.947   0.584  0.00  0.00     0.143 A 
ATOM      2  C2  UNL d   1       2.674   2.954   0.184  0.00  0.00    -0.057 A 
ATOM      3  C3  UNL d   1       3.102   4.278   0.028  0.00  0.00     0.033 A 
ATOM      4  C4  UNL d   1       4.421   4.625   0.298  0.00  0.00    -0.042 A 
ATOM      5  C5  UNL d   1       5.313   3.645   0.721  0.00  0.00     0.033 A 
ATOM      6  C6  UNL d   1       4.881   2.324   0.868  0.00  0.00    -0.057 A 
ENDROOT
BRANCH   1   7
ATOM      7  N   UNL d   1       3.172   0.632   0.851  0.00  0.00    -0.732 N 
ATOM      8  C   UNL d   1       3.476   0.019   2.127  0.00  0.00     0.284 C 
ATOM      9  H3  UNL d   1       2.240   0.422   0.501  0.00  0.00     0.395 HD
ENDBRANCH   1   7
TORSDOF 1
ENDMDL
