MODEL 1
REMARK minimizedAffinity 4.15500164
REMARK minimizedRMSD -1
REMARK  1 active torsions:
REMARK  status: ('A' for Active; 'I' for Inactive)
REMARK    1  A    between atoms: N_2  and  C1_3 
ROOT
ATOM      1  C1  UNL d   1       3.094   0.648  -5.211  0.00  0.00     0.143 A 
ATOM      2  C2  UNL d   1       2.032  -0.171  -5.611  0.00  0.00    -0.057 A 
ATOM      3  C3  UNL d   1       1.604  -1.244  -4.821  0.00  0.00     0.033 A 
ATOM      4  C4  UNL d   1       2.252  -1.537  -3.625  0.00  0.00    -0.042 A 
ATOM      5  C5  UNL d   1       3.325  -0.752  -3.219  0.00  0.00     0.033 A 
ATOM      6  C6  UNL d   1       3.744   0.323  -4.010  0.00  0.00    -0.057 A 
ENDROOT
BRANCH   1   7
ATOM      7  N   UNL d   1       3.629   1.669  -5.999  0.00  0.00    -0.732 N 
ATOM      8  C   UNL d   1       3.036   2.989  -5.998  0.00  0.00     0.284 C 
ATOM      9  H3  UNL d   1       4.647   1.670  -5.995  0.00  0.00     0.395 HD
ENDBRANCH   1   7
TORSDOF 1
ENDMDL
