MODEL 1
REMARK minimizedAffinity -0.401179254
REMARK minimizedRMSD -1
REMARK  1 active torsions:
REMARK  status: ('A' for Active; 'I' for Inactive)
REMARK    1  A    between atoms: N_2  and  C1_3 
ROOT
ATOM      1  C1  UNL d   1      -4.955   3.571   6.000  0.00  0.00     0.143 A 
ATOM      2  C2  UNL d   1      -3.562   3.449   5.961  0.00  0.00    -0.057 A 
ATOM      3  C3  UNL d   1      -2.733   4.577   5.969  0.00  0.00     0.033 A 
ATOM      4  C4  UNL d   1      -3.286   5.854   5.986  0.00  0.00    -0.042 A 
ATOM      5  C5  UNL d   1      -4.669   6.000   6.000  0.00  0.00     0.033 A 
ATOM      6  C6  UNL d   1      -5.491   4.869   5.999  0.00  0.00    -0.057 A 
ENDROOT
BRANCH   1   7
ATOM      7  N   UNL d   1      -5.834   2.491   5.895  0.00  0.00    -0.732 N 
ATOM      8  C   UNL d   1      -5.345   1.131   5.986  0.00  0.00     0.284 C 
ATOM      9  H3  UNL d   1      -6.709   2.652   6.389  0.00  0.00     0.395 HD
ENDBRANCH   1   7
TORSDOF 1
ENDMDL
