MODEL 1
REMARK minimizedAffinity 0.33985281
REMARK minimizedRMSD -1
REMARK  1 active torsions:
REMARK  status: ('A' for Active; 'I' for Inactive)
REMARK    1  A    between atoms: N_2  and  C1_3 
ROOT
ATOM      1  C1  UNL d   1       4.528  -0.084   2.057  0.00  0.00     0.143 A 
ATOM      2  C2  UNL d   1       3.408  -0.690   2.637  0.00  0.00    -0.057 A 
ATOM      3  C3  UNL d   1       2.134  -0.553   2.072  0.00  0.00     0.033 A 
ATOM      4  C4  UNL d   1       1.953   0.220   0.930  0.00  0.00    -0.042 A 
ATOM      5  C5  UNL d   1       3.048   0.853   0.351  0.00  0.00     0.033 A 
ATOM      6  C6  UNL d   1       4.318   0.706   0.916  0.00  0.00    -0.057 A 
ENDROOT
BRANCH   1   7
ATOM      7  N   UNL d   1       5.804  -0.102   2.626  0.00  0.00    -0.732 N 
ATOM      8  C   UNL d   1       5.995   0.243   4.019  0.00  0.00     0.284 C 
ATOM      9  H3  UNL d   1       6.356  -0.898   2.315  0.00  0.00     0.395 HD
ENDBRANCH   1   7
TORSDOF 1
ENDMDL
