MODEL 1
REMARK minimizedAffinity 2.81906438
REMARK minimizedRMSD -1
REMARK  1 active torsions:
REMARK  status: ('A' for Active; 'I' for Inactive)
REMARK    1  A    between atoms: N_2  and  C1_3 
ROOT
ATOM      1  C1  UNL d   1      -3.988   3.556   5.977  0.00  0.00     0.143 A 
ATOM      2  C2  UNL d   1      -2.592   3.558   5.881  0.00  0.00    -0.057 A 
ATOM      3  C3  UNL d   1      -1.869   4.756   5.835  0.00  0.00     0.033 A 
ATOM      4  C4  UNL d   1      -2.533   5.978   5.855  0.00  0.00    -0.042 A 
ATOM      5  C5  UNL d   1      -3.922   6.000   5.924  0.00  0.00     0.033 A 
ATOM      6  C6  UNL d   1      -4.638   4.800   5.976  0.00  0.00    -0.057 A 
ENDROOT
BRANCH   1   7
ATOM      7  N   UNL d   1      -4.770   2.399   5.927  0.00  0.00    -0.732 N 
ATOM      8  C   UNL d   1      -4.153   1.091   5.968  0.00  0.00     0.284 C 
ATOM      9  H3  UNL d   1      -5.616   2.478   6.486  0.00  0.00     0.395 HD
ENDBRANCH   1   7
TORSDOF 1
ENDMDL
