MODEL 1
REMARK minimizedAffinity 13.0355816
REMARK minimizedRMSD -1
REMARK  1 active torsions:
REMARK  status: ('A' for Active; 'I' for Inactive)
REMARK    1  A    between atoms: N_2  and  C1_3 
ROOT
ATOM      1  C1  UNL d   1       4.014   0.315   2.209  0.00  0.00     0.143 A 
ATOM      2  C2  UNL d   1       4.678   1.104   1.264  0.00  0.00    -0.057 A 
ATOM      3  C3  UNL d   1       3.975   1.784   0.263  0.00  0.00     0.033 A 
ATOM      4  C4  UNL d   1       2.592   1.663   0.171  0.00  0.00    -0.042 A 
ATOM      5  C5  UNL d   1       1.913   0.864   1.084  0.00  0.00     0.033 A 
ATOM      6  C6  UNL d   1       2.621   0.192   2.086  0.00  0.00    -0.057 A 
ENDROOT
BRANCH   1   7
ATOM      7  N   UNL d   1       4.666  -0.465   3.168  0.00  0.00    -0.732 N 
ATOM      8  C   UNL d   1       5.997  -0.119   3.617  0.00  0.00     0.284 C 
ATOM      9  H3  UNL d   1       4.041  -0.768   3.912  0.00  0.00     0.395 HD
ENDBRANCH   1   7
TORSDOF 1
ENDMDL
