MODEL 1
REMARK minimizedAffinity -3.55785036
REMARK minimizedRMSD -1
REMARK  0 active torsions:
REMARK  status: ('A' for Active; 'I' for Inactive)
ROOT
ATOM      1  C   UNL d   1       6.000  -3.968   1.232  0.00  0.00     0.023 A 
ATOM      2  C1  UNL d   1       5.868  -5.031   2.126  0.00  0.00     0.003 A 
ATOM      3  C2  UNL d   1       5.728  -4.783   3.493  0.00  0.00     0.048 A 
ATOM      4  C3  UNL d   1       5.720  -3.469   3.959  0.00  0.00     0.023 A 
ATOM      5  C4  UNL d   1       5.850  -2.402   3.069  0.00  0.00     0.048 A 
ATOM      6  C5  UNL d   1       5.991  -2.655   1.703  0.00  0.00     0.003 A 
ATOM      7  I   UNL d   1       5.511  -3.097   5.994  0.00  0.00    -0.146 I 
ENDROOT
TORSDOF 0
ENDMDL
