MODEL 1
REMARK minimizedAffinity -2.6568327
REMARK minimizedRMSD -1
REMARK  0 active torsions:
REMARK  status: ('A' for Active; 'I' for Inactive)
ROOT
ATOM      1  C   UNL d   1       5.675  -3.284   5.995  0.00  0.00     0.023 A 
ATOM      2  C1  UNL d   1       5.906  -4.575   5.520  0.00  0.00     0.003 A 
ATOM      3  C2  UNL d   1       5.999  -4.809   4.147  0.00  0.00     0.048 A 
ATOM      4  C3  UNL d   1       5.861  -3.747   3.254  0.00  0.00     0.023 A 
ATOM      5  C4  UNL d   1       5.631  -2.453   3.724  0.00  0.00     0.048 A 
ATOM      6  C5  UNL d   1       5.537  -2.224   5.098  0.00  0.00     0.003 A 
ATOM      7  I   UNL d   1       6.000  -4.093   1.209  0.00  0.00    -0.146 I 
ENDROOT
TORSDOF 0
ENDMDL
