MODEL 1
REMARK minimizedAffinity -3.0474596
REMARK minimizedRMSD -1
REMARK  0 active torsions:
REMARK  status: ('A' for Active; 'I' for Inactive)
ROOT
ATOM      1  C   UNL d   1       6.000  -2.733   2.379  0.00  0.00     0.023 A 
ATOM      2  C1  UNL d   1       5.746  -4.063   2.044  0.00  0.00     0.003 A 
ATOM      3  C2  UNL d   1       5.493  -5.001   3.046  0.00  0.00     0.048 A 
ATOM      4  C3  UNL d   1       5.494  -4.602   4.382  0.00  0.00     0.023 A 
ATOM      5  C4  UNL d   1       5.746  -3.272   4.723  0.00  0.00     0.048 A 
ATOM      6  C5  UNL d   1       6.000  -2.338   3.717  0.00  0.00     0.003 A 
ATOM      7  I   UNL d   1       5.117  -5.997   5.876  0.00  0.00    -0.146 I 
ENDROOT
TORSDOF 0
ENDMDL
