MODEL 1
REMARK minimizedAffinity -2.94833159
REMARK minimizedRMSD -1
REMARK  0 active torsions:
REMARK  status: ('A' for Active; 'I' for Inactive)
ROOT
ATOM      1  C   UNL d   1       6.000  -2.258   3.410  0.00  0.00     0.023 A 
ATOM      2  C1  UNL d   1       5.784  -3.503   2.818  0.00  0.00     0.003 A 
ATOM      3  C2  UNL d   1       5.218  -4.542   3.560  0.00  0.00     0.048 A 
ATOM      4  C3  UNL d   1       4.870  -4.329   4.893  0.00  0.00     0.023 A 
ATOM      5  C4  UNL d   1       5.084  -3.086   5.490  0.00  0.00     0.048 A 
ATOM      6  C5  UNL d   1       5.650  -2.050   4.745  0.00  0.00     0.003 A 
ATOM      7  I   UNL d   1       4.028  -5.874   5.999  0.00  0.00    -0.146 I 
ENDROOT
TORSDOF 0
ENDMDL
