MODEL 1
REMARK minimizedAffinity -3.16037154
REMARK minimizedRMSD -1
REMARK  0 active torsions:
REMARK  status: ('A' for Active; 'I' for Inactive)
ROOT
ATOM      1  C   UNL d   1       5.999  -2.295   2.590  0.00  0.00     0.023 A 
ATOM      2  C1  UNL d   1       5.966  -1.881   3.921  0.00  0.00     0.003 A 
ATOM      3  C2  UNL d   1       5.425  -2.716   4.901  0.00  0.00     0.048 A 
ATOM      4  C3  UNL d   1       4.919  -3.965   4.541  0.00  0.00     0.023 A 
ATOM      5  C4  UNL d   1       4.950  -4.384   3.210  0.00  0.00     0.048 A 
ATOM      6  C5  UNL d   1       5.491  -3.545   2.235  0.00  0.00     0.003 A 
ATOM      7  I   UNL d   1       4.113  -5.210   5.997  0.00  0.00    -0.146 I 
ENDROOT
TORSDOF 0
ENDMDL
