MODEL 1
REMARK minimizedAffinity -2.10582042
REMARK minimizedRMSD -1
REMARK  0 active torsions:
REMARK  status: ('A' for Active; 'I' for Inactive)
ROOT
ATOM      1  C   UNL d   1       5.980  -3.687   1.483  0.00  0.00     0.023 A 
ATOM      2  C1  UNL d   1       5.744  -2.956   2.647  0.00  0.00     0.003 A 
ATOM      3  C2  UNL d   1       5.522  -3.618   3.856  0.00  0.00     0.048 A 
ATOM      4  C3  UNL d   1       5.539  -5.011   3.895  0.00  0.00     0.023 A 
ATOM      5  C4  UNL d   1       5.776  -5.748   2.733  0.00  0.00     0.048 A 
ATOM      6  C5  UNL d   1       5.997  -5.081   1.526  0.00  0.00     0.003 A 
ATOM      7  I   UNL d   1       5.210  -5.999   5.694  0.00  0.00    -0.146 I 
ENDROOT
TORSDOF 0
ENDMDL
