MODEL 1
REMARK minimizedAffinity -2.9379158
REMARK minimizedRMSD -1
REMARK  0 active torsions:
REMARK  status: ('A' for Active; 'I' for Inactive)
ROOT
ATOM      1  C   UNL d   1       5.989  -2.780   1.865  0.00  0.00     0.023 A 
ATOM      2  C1  UNL d   1       5.999  -2.106   3.087  0.00  0.00     0.003 A 
ATOM      3  C2  UNL d   1       5.765  -2.804   4.273  0.00  0.00     0.048 A 
ATOM      4  C3  UNL d   1       5.523  -4.177   4.231  0.00  0.00     0.023 A 
ATOM      5  C4  UNL d   1       5.513  -4.855   3.011  0.00  0.00     0.048 A 
ATOM      6  C5  UNL d   1       5.746  -4.153   1.828  0.00  0.00     0.003 A 
ATOM      7  I   UNL d   1       5.175  -5.218   5.995  0.00  0.00    -0.146 I 
ENDROOT
TORSDOF 0
ENDMDL
