MODEL 1
REMARK minimizedAffinity -3.28161716
REMARK minimizedRMSD -1
REMARK  0 active torsions:
REMARK  status: ('A' for Active; 'I' for Inactive)
ROOT
ATOM      1  C   UNL d   1       6.000  -4.026   1.147  0.00  0.00     0.023 A 
ATOM      2  C1  UNL d   1       5.805  -2.837   1.850  0.00  0.00     0.003 A 
ATOM      3  C2  UNL d   1       5.610  -2.866   3.232  0.00  0.00     0.048 A 
ATOM      4  C3  UNL d   1       5.611  -4.087   3.905  0.00  0.00     0.023 A 
ATOM      5  C4  UNL d   1       5.806  -5.279   3.206  0.00  0.00     0.048 A 
ATOM      6  C5  UNL d   1       6.000  -5.245   1.824  0.00  0.00     0.003 A 
ATOM      7  I   UNL d   1       5.320  -4.132   5.963  0.00  0.00    -0.146 I 
ENDROOT
TORSDOF 0
ENDMDL
