MODEL 1
REMARK minimizedAffinity -3.01353979
REMARK minimizedRMSD -1
REMARK  0 active torsions:
REMARK  status: ('A' for Active; 'I' for Inactive)
ROOT
ATOM      1  C   UNL d   1       5.999  -3.002   1.545  0.00  0.00     0.023 A 
ATOM      2  C1  UNL d   1       5.985  -4.391   1.678  0.00  0.00     0.003 A 
ATOM      3  C2  UNL d   1       5.971  -4.972   2.948  0.00  0.00     0.048 A 
ATOM      4  C3  UNL d   1       5.970  -4.158   4.081  0.00  0.00     0.023 A 
ATOM      5  C4  UNL d   1       5.983  -2.769   3.952  0.00  0.00     0.048 A 
ATOM      6  C5  UNL d   1       5.998  -2.192   2.681  0.00  0.00     0.003 A 
ATOM      7  I   UNL d   1       5.948  -5.021   5.971  0.00  0.00    -0.146 I 
ENDROOT
TORSDOF 0
ENDMDL
