MODEL 1
REMARK minimizedAffinity -1.18323648
REMARK minimizedRMSD -1
REMARK  0 active torsions:
REMARK  status: ('A' for Active; 'I' for Inactive)
ROOT
ATOM      1  C   UNL d   1       5.669  -2.369   2.730  0.00  0.00     0.023 A 
ATOM      2  C1  UNL d   1       6.000  -3.664   2.329  0.00  0.00     0.003 A 
ATOM      3  C2  UNL d   1       5.994  -4.707   3.258  0.00  0.00     0.048 A 
ATOM      4  C3  UNL d   1       5.654  -4.449   4.585  0.00  0.00     0.023 A 
ATOM      5  C4  UNL d   1       5.321  -3.156   4.991  0.00  0.00     0.048 A 
ATOM      6  C5  UNL d   1       5.330  -2.116   4.060  0.00  0.00     0.003 A 
ATOM      7  I   UNL d   1       5.644  -6.000   5.969  0.00  0.00    -0.146 I 
ENDROOT
TORSDOF 0
ENDMDL
