MODEL 1
REMARK minimizedAffinity -3.44218802
REMARK minimizedRMSD -1
REMARK  0 active torsions:
REMARK  status: ('A' for Active; 'I' for Inactive)
ROOT
ATOM      1  C   UNL d   1       6.000  -3.730   1.248  0.00  0.00     0.023 A 
ATOM      2  C1  UNL d   1       5.799  -2.425   1.698  0.00  0.00     0.003 A 
ATOM      3  C2  UNL d   1       5.596  -2.176   3.057  0.00  0.00     0.048 A 
ATOM      4  C3  UNL d   1       5.598  -3.237   3.961  0.00  0.00     0.023 A 
ATOM      5  C4  UNL d   1       5.799  -4.545   3.517  0.00  0.00     0.048 A 
ATOM      6  C5  UNL d   1       6.000  -4.789   2.157  0.00  0.00     0.003 A 
ATOM      7  I   UNL d   1       5.297  -2.869   5.985  0.00  0.00    -0.146 I 
ENDROOT
TORSDOF 0
ENDMDL
