MODEL 1
REMARK minimizedAffinity -3.28410411
REMARK minimizedRMSD -1
REMARK  0 active torsions:
REMARK  status: ('A' for Active; 'I' for Inactive)
ROOT
ATOM      1  C   UNL d   1       5.958  -2.606   2.162  0.00  0.00     0.023 A 
ATOM      2  C1  UNL d   1       6.000  -3.987   1.970  0.00  0.00     0.003 A 
ATOM      3  C2  UNL d   1       5.996  -4.847   3.071  0.00  0.00     0.048 A 
ATOM      4  C3  UNL d   1       5.950  -4.318   4.360  0.00  0.00     0.023 A 
ATOM      5  C4  UNL d   1       5.906  -2.937   4.557  0.00  0.00     0.048 A 
ATOM      6  C5  UNL d   1       5.911  -2.082   3.454  0.00  0.00     0.003 A 
ATOM      7  I   UNL d   1       5.944  -5.596   6.000  0.00  0.00    -0.146 I 
ENDROOT
TORSDOF 0
ENDMDL
