MODEL 1
REMARK minimizedAffinity -3.407897
REMARK minimizedRMSD -1
REMARK  0 active torsions:
REMARK  status: ('A' for Active; 'I' for Inactive)
ROOT
ATOM      1  C   UNL d   1       5.815  -2.296   2.397  0.00  0.00     0.023 A 
ATOM      2  C1  UNL d   1       5.999  -3.649   2.113  0.00  0.00     0.003 A 
ATOM      3  C2  UNL d   1       5.987  -4.589   3.146  0.00  0.00     0.048 A 
ATOM      4  C3  UNL d   1       5.790  -4.169   4.461  0.00  0.00     0.023 A 
ATOM      5  C4  UNL d   1       5.605  -2.816   4.750  0.00  0.00     0.048 A 
ATOM      6  C5  UNL d   1       5.619  -1.880   3.714  0.00  0.00     0.003 A 
ATOM      7  I   UNL d   1       5.772  -5.565   6.000  0.00  0.00    -0.146 I 
ENDROOT
TORSDOF 0
ENDMDL
