MODEL 1
REMARK minimizedAffinity -1.94969964
REMARK minimizedRMSD -1
REMARK  0 active torsions:
REMARK  status: ('A' for Active; 'I' for Inactive)
ROOT
ATOM      1  C   UNL d   1       4.180  -5.998   5.827  0.00  0.00     0.023 A 
ATOM      2  C1  UNL d   1       5.469  -5.483   5.966  0.00  0.00     0.003 A 
ATOM      3  C2  UNL d   1       5.993  -4.636   4.987  0.00  0.00     0.048 A 
ATOM      4  C3  UNL d   1       5.222  -4.307   3.873  0.00  0.00     0.023 A 
ATOM      5  C4  UNL d   1       3.931  -4.819   3.730  0.00  0.00     0.048 A 
ATOM      6  C5  UNL d   1       3.412  -5.666   4.711  0.00  0.00     0.003 A 
ATOM      7  I   UNL d   1       6.000  -3.046   2.415  0.00  0.00    -0.146 I 
ENDROOT
TORSDOF 0
ENDMDL
