MODEL 1
REMARK minimizedAffinity -2.40077925
REMARK minimizedRMSD -1
REMARK  0 active torsions:
REMARK  status: ('A' for Active; 'I' for Inactive)
ROOT
ATOM      1  C   UNL d   1       5.824  -2.247   1.681  0.00  0.00     0.023 A 
ATOM      2  C1  UNL d   1       5.654  -1.509   2.852  0.00  0.00     0.003 A 
ATOM      3  C2  UNL d   1       5.656  -2.154   4.091  0.00  0.00     0.048 A 
ATOM      4  C3  UNL d   1       5.829  -3.536   4.151  0.00  0.00     0.023 A 
ATOM      5  C4  UNL d   1       5.999  -4.278   2.981  0.00  0.00     0.048 A 
ATOM      6  C5  UNL d   1       5.996  -3.630   1.745  0.00  0.00     0.003 A 
ATOM      7  I   UNL d   1       5.832  -4.498   5.994  0.00  0.00    -0.146 I 
ENDROOT
TORSDOF 0
ENDMDL
