MODEL 1
REMARK minimizedAffinity -3.66825247
REMARK minimizedRMSD -1
REMARK  0 active torsions:
REMARK  status: ('A' for Active; 'I' for Inactive)
ROOT
ATOM      1  C   UNL d   1       5.964  -3.616   1.865  0.00  0.00     0.023 A 
ATOM      2  C1  UNL d   1       5.905  -5.009   1.905  0.00  0.00     0.003 A 
ATOM      3  C2  UNL d   1       5.508  -5.659   3.075  0.00  0.00     0.048 A 
ATOM      4  C3  UNL d   1       5.170  -4.910   4.201  0.00  0.00     0.023 A 
ATOM      5  C4  UNL d   1       5.226  -3.515   4.166  0.00  0.00     0.048 A 
ATOM      6  C5  UNL d   1       5.625  -2.870   2.994  0.00  0.00     0.003 A 
ATOM      7  I   UNL d   1       4.578  -5.875   5.944  0.00  0.00    -0.146 I 
ENDROOT
TORSDOF 0
ENDMDL
