MODEL 1
REMARK minimizedAffinity -4.44159222
REMARK minimizedRMSD -1
REMARK  2 active torsions:
REMARK  status: ('A' for Active; 'I' for Inactive)
REMARK    1  A    between atoms: C2'_3  and  C1'_4 
REMARK    2  A    between atoms: C1'_4  and  C1_5 
ROOT
ATOM      1  C1  I4B d   1       1.137   1.277   0.667  0.00  0.00    -0.075 A 
ATOM      2  C2  I4B d   1       0.132   2.198   0.505  0.00  0.00     0.003 A 
ATOM      3  C3  I4B d   1       0.434   3.580   0.455  0.00  0.00     0.002 A 
ATOM      4  C4  I4B d   1       1.739   3.997   0.622  0.00  0.00    -0.004 A 
ATOM      5  C5  I4B d   1       2.759   3.061   0.763  0.00  0.00     0.002 A 
ATOM      6  C6  I4B d   1       2.458   1.691   0.774  0.00  0.00     0.003 A 
ENDROOT
BRANCH   1   7
ATOM      7  C1' I4B d   1       0.779  -0.173   0.748  0.00  0.00     0.060 C 
BRANCH   7   8
ATOM      8  C2' I4B d   1      -0.487  -0.387  -0.057  0.00  0.00    -0.013 C 
ATOM      9  C4' I4B d   1      -0.187  -0.494  -1.528  0.00  0.00     0.013 C 
ATOM     10  C3' I4B d   1      -1.154  -1.631   0.451  0.00  0.00     0.013 C 
ENDBRANCH   7   8
ENDBRANCH   1   7
TORSDOF 2
ENDMDL
