MODEL 1
REMARK minimizedAffinity -4.30735302
REMARK minimizedRMSD -1
REMARK  2 active torsions:
REMARK  status: ('A' for Active; 'I' for Inactive)
REMARK    1  A    between atoms: C2'_3  and  C1'_4 
REMARK    2  A    between atoms: C1'_4  and  C1_5 
ROOT
ATOM      1  C1  I4B d   1       0.320   0.677   0.068  0.00  0.00    -0.075 A 
ATOM      2  C2  I4B d   1      -0.053  -0.107  -0.995  0.00  0.00     0.003 A 
ATOM      3  C3  I4B d   1      -0.902  -1.223  -0.795  0.00  0.00     0.002 A 
ATOM      4  C4  I4B d   1      -1.311  -1.545   0.482  0.00  0.00    -0.004 A 
ATOM      5  C5  I4B d   1      -0.951  -0.736   1.556  0.00  0.00     0.002 A 
ATOM      6  C6  I4B d   1      -0.141   0.389   1.347  0.00  0.00     0.003 A 
ENDROOT
BRANCH   1   7
ATOM      7  C1' I4B d   1       1.244   1.828  -0.173  0.00  0.00     0.060 C 
BRANCH   7   8
ATOM      8  C2' I4B d   1       1.142   2.765   1.013  0.00  0.00    -0.013 C 
ATOM      9  C4' I4B d   1       2.491   3.321   1.385  0.00  0.00     0.013 C 
ATOM     10  C3' I4B d   1       0.184   3.862   0.655  0.00  0.00     0.013 C 
ENDBRANCH   7   8
ENDBRANCH   1   7
TORSDOF 2
ENDMDL
