MODEL 1
REMARK minimizedAffinity -2.77492595
REMARK minimizedRMSD -1
REMARK  2 active torsions:
REMARK  status: ('A' for Active; 'I' for Inactive)
REMARK    1  A    between atoms: C2'_3  and  C1'_4 
REMARK    2  A    between atoms: C1'_4  and  C1_5 
ROOT
ATOM      1  C1  I4B d   1      -0.009   0.419  -0.148  0.00  0.00    -0.075 A 
ATOM      2  C2  I4B d   1       0.364  -0.664  -0.904  0.00  0.00     0.003 A 
ATOM      3  C3  I4B d   1       0.003  -1.973  -0.502  0.00  0.00     0.002 A 
ATOM      4  C4  I4B d   1      -0.684  -2.155   0.681  0.00  0.00    -0.004 A 
ATOM      5  C5  I4B d   1      -1.081  -1.054   1.434  0.00  0.00     0.002 A 
ATOM      6  C6  I4B d   1      -0.753   0.242   1.011  0.00  0.00     0.003 A 
ENDROOT
BRANCH   1   7
ATOM      7  C1' I4B d   1       0.418   1.785  -0.585  0.00  0.00     0.060 C 
BRANCH   7   8
ATOM      8  C2' I4B d   1       0.963   2.513   0.626  0.00  0.00    -0.013 C 
ATOM      9  C4' I4B d   1       2.381   2.967   0.397  0.00  0.00     0.013 C 
ATOM     10  C3' I4B d   1       0.061   3.677   0.911  0.00  0.00     0.013 C 
ENDBRANCH   7   8
ENDBRANCH   1   7
TORSDOF 2
ENDMDL
