MODEL 1
REMARK minimizedAffinity 3.37584972
REMARK minimizedRMSD -1
REMARK  2 active torsions:
REMARK  status: ('A' for Active; 'I' for Inactive)
REMARK    1  A    between atoms: C2'_3  and  C1'_4 
REMARK    2  A    between atoms: C1'_4  and  C1_5 
ROOT
ATOM      1  C1  I4B d   1       3.449  -1.363  -1.433  0.00  0.00    -0.075 A 
ATOM      2  C2  I4B d   1       3.370  -1.876  -2.704  0.00  0.00     0.003 A 
ATOM      3  C3  I4B d   1       4.416  -2.683  -3.213  0.00  0.00     0.002 A 
ATOM      4  C4  I4B d   1       5.537  -2.909  -2.441  0.00  0.00    -0.004 A 
ATOM      5  C5  I4B d   1       5.606  -2.406  -1.144  0.00  0.00     0.002 A 
ATOM      6  C6  I4B d   1       4.550  -1.639  -0.632  0.00  0.00     0.003 A 
ENDROOT
BRANCH   1   7
ATOM      7  C1' I4B d   1       2.342  -0.487  -0.939  0.00  0.00     0.060 C 
BRANCH   7   8
ATOM      8  C2' I4B d   1       1.035  -1.045  -1.465  0.00  0.00    -0.013 C 
ATOM      9  C4' I4B d   1      -0.034  -1.021  -0.404  0.00  0.00     0.013 C 
ATOM     10  C3' I4B d   1       0.631  -0.233  -2.659  0.00  0.00     0.013 C 
ENDBRANCH   7   8
ENDBRANCH   1   7
TORSDOF 2
ENDMDL
