MODEL 1
REMARK minimizedAffinity -1.5652287
REMARK minimizedRMSD -1
REMARK  2 active torsions:
REMARK  status: ('A' for Active; 'I' for Inactive)
REMARK    1  A    between atoms: C2'_3  and  C1'_4 
REMARK    2  A    between atoms: C1'_4  and  C1_5 
ROOT
ATOM      1  C1  I4B d   1      -0.233   0.396  -0.025  0.00  0.00    -0.075 A 
ATOM      2  C2  I4B d   1       0.236  -0.477  -0.974  0.00  0.00     0.003 A 
ATOM      3  C3  I4B d   1      -0.096  -1.852  -0.904  0.00  0.00     0.002 A 
ATOM      4  C4  I4B d   1      -0.853  -2.315   0.153  0.00  0.00    -0.004 A 
ATOM      5  C5  I4B d   1      -1.347  -1.424   1.102  0.00  0.00     0.002 A 
ATOM      6  C6  I4B d   1      -1.046  -0.058   1.006  0.00  0.00     0.003 A 
ENDROOT
BRANCH   1   7
ATOM      7  C1' I4B d   1       0.164   1.836  -0.111  0.00  0.00     0.060 C 
BRANCH   7   8
ATOM      8  C2' I4B d   1       1.569   1.966   0.443  0.00  0.00    -0.013 C 
ATOM      9  C4' I4B d   1       2.585   2.054  -0.664  0.00  0.00     0.013 C 
ATOM     10  C3' I4B d   1       1.611   3.186   1.315  0.00  0.00     0.013 C 
ENDBRANCH   7   8
ENDBRANCH   1   7
TORSDOF 2
ENDMDL
