MODEL 1
REMARK minimizedAffinity -2.367378
REMARK minimizedRMSD -1
REMARK  2 active torsions:
REMARK  status: ('A' for Active; 'I' for Inactive)
REMARK    1  A    between atoms: C2'_3  and  C1'_4 
REMARK    2  A    between atoms: C1'_4  and  C1_5 
ROOT
ATOM      1  C1  I4B d   1       0.041   0.543  -0.442  0.00  0.00    -0.075 A 
ATOM      2  C2  I4B d   1      -0.562   0.348   0.775  0.00  0.00     0.003 A 
ATOM      3  C3  I4B d   1      -0.906  -0.959   1.200  0.00  0.00     0.002 A 
ATOM      4  C4  I4B d   1      -0.675  -2.029   0.360  0.00  0.00    -0.004 A 
ATOM      5  C5  I4B d   1      -0.041  -1.832  -0.864  0.00  0.00     0.002 A 
ATOM      6  C6  I4B d   1       0.330  -0.540  -1.263  0.00  0.00     0.003 A 
ENDROOT
BRANCH   1   7
ATOM      7  C1' I4B d   1       0.360   1.939  -0.873  0.00  0.00     0.060 C 
BRANCH   7   8
ATOM      8  C2' I4B d   1       1.436   2.478   0.048  0.00  0.00    -0.013 C 
ATOM      9  C4' I4B d   1       2.729   2.697  -0.692  0.00  0.00     0.013 C 
ATOM     10  C3' I4B d   1       0.933   3.756   0.650  0.00  0.00     0.013 C 
ENDBRANCH   7   8
ENDBRANCH   1   7
TORSDOF 2
ENDMDL
