MODEL 1
REMARK minimizedAffinity -5.05632401
REMARK minimizedRMSD -1
REMARK  2 active torsions:
REMARK  status: ('A' for Active; 'I' for Inactive)
REMARK    1  A    between atoms: C2'_3  and  C1'_4 
REMARK    2  A    between atoms: C1'_4  and  C1_5 
ROOT
ATOM      1  C1  I4B d   1      -0.173   0.181  -0.186  0.00  0.00    -0.075 A 
ATOM      2  C2  I4B d   1      -0.709  -0.080   1.051  0.00  0.00     0.003 A 
ATOM      3  C3  I4B d   1      -1.006  -1.411   1.432  0.00  0.00     0.002 A 
ATOM      4  C4  I4B d   1      -0.800  -2.437   0.533  0.00  0.00    -0.004 A 
ATOM      5  C5  I4B d   1      -0.235  -2.173  -0.711  0.00  0.00     0.002 A 
ATOM      6  C6  I4B d   1       0.092  -0.857  -1.069  0.00  0.00     0.003 A 
ENDROOT
BRANCH   1   7
ATOM      7  C1' I4B d   1       0.097   1.602  -0.568  0.00  0.00     0.060 C 
BRANCH   7   8
ATOM      8  C2' I4B d   1       0.952   2.223   0.518  0.00  0.00    -0.013 C 
ATOM      9  C4' I4B d   1       2.389   2.339   0.081  0.00  0.00     0.013 C 
ATOM     10  C3' I4B d   1       0.376   3.568   0.848  0.00  0.00     0.013 C 
ENDBRANCH   7   8
ENDBRANCH   1   7
TORSDOF 2
ENDMDL
