MODEL 1
REMARK minimizedAffinity -3.22726059
REMARK minimizedRMSD -1
REMARK  2 active torsions:
REMARK  status: ('A' for Active; 'I' for Inactive)
REMARK    1  A    between atoms: C2'_3  and  C1'_4 
REMARK    2  A    between atoms: C1'_4  and  C1_5 
ROOT
ATOM      1  C1  I4B d   1      -0.206   0.564  -0.066  0.00  0.00    -0.075 A 
ATOM      2  C2  I4B d   1      -0.830   0.102   1.066  0.00  0.00     0.003 A 
ATOM      3  C3  I4B d   1      -0.992  -1.290   1.272  0.00  0.00     0.002 A 
ATOM      4  C4  I4B d   1      -0.564  -2.175   0.303  0.00  0.00    -0.004 A 
ATOM      5  C5  I4B d   1       0.088  -1.705  -0.833  0.00  0.00     0.002 A 
ATOM      6  C6  I4B d   1       0.279  -0.327  -1.013  0.00  0.00     0.003 A 
ENDROOT
BRANCH   1   7
ATOM      7  C1' I4B d   1      -0.081   2.041  -0.267  0.00  0.00     0.060 C 
BRANCH   7   8
ATOM      8  C2' I4B d   1       1.000   2.549   0.665  0.00  0.00    -0.013 C 
ATOM      9  C4' I4B d   1       2.324   2.661  -0.045  0.00  0.00     0.013 C 
ATOM     10  C3' I4B d   1       0.561   3.878   1.204  0.00  0.00     0.013 C 
ENDBRANCH   7   8
ENDBRANCH   1   7
TORSDOF 2
ENDMDL
