MODEL 1
REMARK minimizedAffinity -3.58787894
REMARK minimizedRMSD -1
REMARK  2 active torsions:
REMARK  status: ('A' for Active; 'I' for Inactive)
REMARK    1  A    between atoms: C2'_3  and  C1'_4 
REMARK    2  A    between atoms: C1'_4  and  C1_5 
ROOT
ATOM      1  C1  I4B d   1       0.549   1.485   0.466  0.00  0.00    -0.075 A 
ATOM      2  C2  I4B d   1       1.879   1.359   0.152  0.00  0.00     0.003 A 
ATOM      3  C3  I4B d   1       2.770   2.436   0.381  0.00  0.00     0.002 A 
ATOM      4  C4  I4B d   1       2.282   3.629   0.874  0.00  0.00    -0.004 A 
ATOM      5  C5  I4B d   1       0.937   3.746   1.213  0.00  0.00     0.002 A 
ATOM      6  C6  I4B d   1       0.067   2.664   1.019  0.00  0.00     0.003 A 
ENDROOT
BRANCH   1   7
ATOM      7  C1' I4B d   1      -0.370   0.339   0.180  0.00  0.00     0.060 C 
BRANCH   7   8
ATOM      8  C2' I4B d   1      -0.367  -0.573   1.390  0.00  0.00    -0.013 C 
ATOM      9  C4' I4B d   1      -1.501  -0.243   2.324  0.00  0.00     0.013 C 
ATOM     10  C3' I4B d   1      -0.462  -1.988   0.902  0.00  0.00     0.013 C 
ENDBRANCH   7   8
ENDBRANCH   1   7
TORSDOF 2
ENDMDL
