MODEL 1
REMARK minimizedAffinity 1.0023365
REMARK minimizedRMSD -1
REMARK  2 active torsions:
REMARK  status: ('A' for Active; 'I' for Inactive)
REMARK    1  A    between atoms: C2'_3  and  C1'_4 
REMARK    2  A    between atoms: C1'_4  and  C1_5 
ROOT
ATOM      1  C1  I4B d   1      -0.071   0.770  -0.053  0.00  0.00    -0.075 A 
ATOM      2  C2  I4B d   1      -0.692   0.497   1.140  0.00  0.00     0.003 A 
ATOM      3  C3  I4B d   1      -0.962  -0.842   1.513  0.00  0.00     0.002 A 
ATOM      4  C4  I4B d   1      -0.642  -1.867   0.646  0.00  0.00    -0.004 A 
ATOM      5  C5  I4B d   1       0.009  -1.590  -0.553  0.00  0.00     0.002 A 
ATOM      6  C6  I4B d   1       0.307  -0.264  -0.900  0.00  0.00     0.003 A 
ENDROOT
BRANCH   1   7
ATOM      7  C1' I4B d   1       0.170   2.197  -0.430  0.00  0.00     0.060 C 
BRANCH   7   8
ATOM      8  C2' I4B d   1       0.916   2.862   0.709  0.00  0.00    -0.013 C 
ATOM      9  C4' I4B d   1       2.265   3.359   0.260  0.00  0.00     0.013 C 
ATOM     10  C3' I4B d   1       0.069   3.986   1.224  0.00  0.00     0.013 C 
ENDBRANCH   7   8
ENDBRANCH   1   7
TORSDOF 2
ENDMDL
