MODEL 1
REMARK minimizedAffinity -2.32809758
REMARK minimizedRMSD -1
REMARK  2 active torsions:
REMARK  status: ('A' for Active; 'I' for Inactive)
REMARK    1  A    between atoms: C2'_3  and  C1'_4 
REMARK    2  A    between atoms: C1'_4  and  C1_5 
ROOT
ATOM      1  C1  I4B d   1      -0.245   0.999   0.233  0.00  0.00    -0.075 A 
ATOM      2  C2  I4B d   1       0.441  -0.137  -0.118  0.00  0.00     0.003 A 
ATOM      3  C3  I4B d   1      -0.048  -1.411   0.262  0.00  0.00     0.002 A 
ATOM      4  C4  I4B d   1      -1.191  -1.499   1.029  0.00  0.00    -0.004 A 
ATOM      5  C5  I4B d   1      -1.897  -0.348   1.365  0.00  0.00     0.002 A 
ATOM      6  C6  I4B d   1      -1.429   0.908   0.954  0.00  0.00     0.003 A 
ENDROOT
BRANCH   1   7
ATOM      7  C1' I4B d   1       0.317   2.329  -0.156  0.00  0.00     0.060 C 
BRANCH   7   8
ATOM      8  C2' I4B d   1       1.081   2.878   1.032  0.00  0.00    -0.013 C 
ATOM      9  C4' I4B d   1       2.497   3.227   0.655  0.00  0.00     0.013 C 
ATOM     10  C3' I4B d   1       0.344   4.081   1.540  0.00  0.00     0.013 C 
ENDBRANCH   7   8
ENDBRANCH   1   7
TORSDOF 2
ENDMDL
