MODEL 1
REMARK minimizedAffinity -3.67773581
REMARK minimizedRMSD -1
REMARK  2 active torsions:
REMARK  status: ('A' for Active; 'I' for Inactive)
REMARK    1  A    between atoms: C2'_3  and  C1'_4 
REMARK    2  A    between atoms: C1'_4  and  C1_5 
ROOT
ATOM      1  C1  I4B d   1       0.401  -1.508  -0.053  0.00  0.00    -0.075 A 
ATOM      2  C2  I4B d   1      -0.083  -2.651   0.533  0.00  0.00     0.003 A 
ATOM      3  C3  I4B d   1      -0.621  -3.689  -0.266  0.00  0.00     0.002 A 
ATOM      4  C4  I4B d   1      -0.701  -3.521  -1.633  0.00  0.00    -0.004 A 
ATOM      5  C5  I4B d   1      -0.189  -2.372  -2.228  0.00  0.00     0.002 A 
ATOM      6  C6  I4B d   1       0.377  -1.364  -1.434  0.00  0.00     0.003 A 
ENDROOT
BRANCH   1   7
ATOM      7  C1' I4B d   1       0.932  -0.418   0.824  0.00  0.00     0.060 C 
BRANCH   7   8
ATOM      8  C2' I4B d   1       0.759   0.896   0.091  0.00  0.00    -0.013 C 
ATOM      9  C4' I4B d   1      -0.689   1.308   0.044  0.00  0.00     0.013 C 
ATOM     10  C3' I4B d   1       1.593   1.929   0.788  0.00  0.00     0.013 C 
ENDBRANCH   7   8
ENDBRANCH   1   7
TORSDOF 2
ENDMDL
