MODEL 1
REMARK minimizedAffinity 9.77429199
REMARK minimizedRMSD -1
REMARK  0 active torsions:
REMARK  status: ('A' for Active; 'I' for Inactive)
ROOT
ATOM      1  C   UNL d   1       5.844   4.236  -5.085  0.00  0.00     0.020 A 
ATOM      2  C1  UNL d   1       5.724   5.469  -5.726  0.00  0.00     0.020 A 
ATOM      3  C2  UNL d   1       4.459   5.994  -5.999  0.00  0.00     0.034 A 
ATOM      4  C3  UNL d   1       3.309   5.286  -5.631  0.00  0.00     0.017 A 
ATOM      5  C4  UNL d   1       3.430   4.049  -4.988  0.00  0.00     0.017 A 
ATOM      6  C5  UNL d   1       4.699   3.528  -4.718  0.00  0.00     0.034 A 
ATOM      7 Cl   UNL d   1       2.057   3.117  -4.505  0.00  0.00    -0.070 Cl
ATOM      8 Cl1  UNL d   1       1.777   5.996  -6.000  0.00  0.00    -0.070 Cl
ENDROOT
TORSDOF 0
ENDMDL
