MODEL 1
REMARK minimizedAffinity -3.01307297
REMARK minimizedRMSD -1
REMARK  0 active torsions:
REMARK  status: ('A' for Active; 'I' for Inactive)
ROOT
ATOM      1  C   UNL d   1       0.001   5.996  -3.841  0.00  0.00     0.020 A 
ATOM      2  C1  UNL d   1      -0.373   5.998  -5.184  0.00  0.00     0.020 A 
ATOM      3  C2  UNL d   1      -1.725   5.999  -5.533  0.00  0.00     0.034 A 
ATOM      4  C3  UNL d   1      -2.709   5.998  -4.538  0.00  0.00     0.017 A 
ATOM      5  C4  UNL d   1      -2.333   5.996  -3.189  0.00  0.00     0.017 A 
ATOM      6  C5  UNL d   1      -0.978   5.995  -2.846  0.00  0.00     0.034 A 
ATOM      7 Cl   UNL d   1      -3.490   5.995  -1.905  0.00  0.00    -0.070 Cl
ATOM      8 Cl1  UNL d   1      -4.361   6.000  -5.041  0.00  0.00    -0.070 Cl
ENDROOT
TORSDOF 0
ENDMDL
