MODEL 1
REMARK minimizedAffinity 0.419893503
REMARK minimizedRMSD -1
REMARK  0 active torsions:
REMARK  status: ('A' for Active; 'I' for Inactive)
ROOT
ATOM      1  C   UNL d   1       2.477   5.774  -4.856  0.00  0.00     0.020 A 
ATOM      2  C1  UNL d   1       1.695   5.933  -6.000  0.00  0.00     0.020 A 
ATOM      3  C2  UNL d   1       0.304   6.000  -5.890  0.00  0.00     0.034 A 
ATOM      4  C3  UNL d   1      -0.308   5.908  -4.635  0.00  0.00     0.017 A 
ATOM      5  C4  UNL d   1       0.478   5.749  -3.488  0.00  0.00     0.017 A 
ATOM      6  C5  UNL d   1       1.870   5.682  -3.603  0.00  0.00     0.034 A 
ATOM      7 Cl   UNL d   1      -0.205   5.629  -1.905  0.00  0.00    -0.070 Cl
ATOM      8 Cl1  UNL d   1      -2.033   6.000  -4.574  0.00  0.00    -0.070 Cl
ENDROOT
TORSDOF 0
ENDMDL
