MODEL 1
REMARK minimizedAffinity 4.85548878
REMARK minimizedRMSD -1
REMARK  0 active torsions:
REMARK  status: ('A' for Active; 'I' for Inactive)
ROOT
ATOM      1  C   UNL d   1       0.652  -0.563  -0.159  0.00  0.00     0.020 A 
ATOM      2  C1  UNL d   1       0.241   0.145   0.970  0.00  0.00     0.020 A 
ATOM      3  C2  UNL d   1       0.451   1.523   1.045  0.00  0.00     0.034 A 
ATOM      4  C3  UNL d   1       1.075   2.198  -0.011  0.00  0.00     0.017 A 
ATOM      5  C4  UNL d   1       1.487   1.487  -1.144  0.00  0.00     0.017 A 
ATOM      6  C5  UNL d   1       1.274   0.107  -1.213  0.00  0.00     0.034 A 
ATOM      7 Cl   UNL d   1       2.263   2.250  -2.486  0.00  0.00    -0.070 Cl
ATOM      8 Cl1  UNL d   1       1.303   3.904   0.149  0.00  0.00    -0.070 Cl
ENDROOT
TORSDOF 0
ENDMDL
