MODEL 1
REMARK minimizedAffinity -2.39732909
REMARK minimizedRMSD -1
REMARK  0 active torsions:
REMARK  status: ('A' for Active; 'I' for Inactive)
ROOT
ATOM      1  C   UNL d   1       0.544   5.937  -6.000  0.00  0.00     0.020 A 
ATOM      2  C1  UNL d   1       1.547   5.724  -5.054  0.00  0.00     0.020 A 
ATOM      3  C2  UNL d   1       1.215   5.573  -3.706  0.00  0.00     0.034 A 
ATOM      4  C3  UNL d   1      -0.123   5.633  -3.300  0.00  0.00     0.017 A 
ATOM      5  C4  UNL d   1      -1.129   5.847  -4.250  0.00  0.00     0.017 A 
ATOM      6  C5  UNL d   1      -0.791   5.998  -5.598  0.00  0.00     0.034 A 
ATOM      7 Cl   UNL d   1      -2.802   5.933  -3.825  0.00  0.00    -0.070 Cl
ATOM      8 Cl1  UNL d   1      -0.461   5.436  -1.617  0.00  0.00    -0.070 Cl
ENDROOT
TORSDOF 0
ENDMDL
