MODEL 1
REMARK minimizedAffinity 2.61890459
REMARK minimizedRMSD -1
REMARK  0 active torsions:
REMARK  status: ('A' for Active; 'I' for Inactive)
ROOT
ATOM      1  C   UNL d   1      -3.727   5.996  -2.708  0.00  0.00     0.020 A 
ATOM      2  C1  UNL d   1      -3.540   5.996  -4.090  0.00  0.00     0.020 A 
ATOM      3  C2  UNL d   1      -2.248   5.998  -4.619  0.00  0.00     0.034 A 
ATOM      4  C3  UNL d   1      -1.138   5.998  -3.767  0.00  0.00     0.017 A 
ATOM      5  C4  UNL d   1      -1.327   5.998  -2.380  0.00  0.00     0.017 A 
ATOM      6  C5  UNL d   1      -2.623   5.996  -1.855  0.00  0.00     0.034 A 
ATOM      7 Cl   UNL d   1      -0.006   5.999  -1.265  0.00  0.00    -0.070 Cl
ATOM      8 Cl1  UNL d   1       0.431   6.000  -4.491  0.00  0.00    -0.070 Cl
ENDROOT
TORSDOF 0
ENDMDL
