MODEL 1
REMARK minimizedAffinity -0.801072955
REMARK minimizedRMSD -1
REMARK  0 active torsions:
REMARK  status: ('A' for Active; 'I' for Inactive)
ROOT
ATOM      1  C   UNL d   1       2.069   5.987  -4.448  0.00  0.00     0.020 A 
ATOM      2  C1  UNL d   1       1.591   5.979  -5.758  0.00  0.00     0.020 A 
ATOM      3  C2  UNL d   1       0.215   5.977  -5.999  0.00  0.00     0.034 A 
ATOM      4  C3  UNL d   1      -0.687   5.983  -4.929  0.00  0.00     0.017 A 
ATOM      5  C4  UNL d   1      -0.206   5.991  -3.615  0.00  0.00     0.017 A 
ATOM      6  C5  UNL d   1       1.172   5.993  -3.379  0.00  0.00     0.034 A 
ATOM      7 Cl   UNL d   1      -1.258   5.999  -2.243  0.00  0.00    -0.070 Cl
ATOM      8 Cl1  UNL d   1      -2.374   5.981  -5.301  0.00  0.00    -0.070 Cl
ENDROOT
TORSDOF 0
ENDMDL
