MODEL 1
REMARK minimizedAffinity 2.33961701
REMARK minimizedRMSD -1
REMARK  0 active torsions:
REMARK  status: ('A' for Active; 'I' for Inactive)
ROOT
ATOM      1  C   UNL d   1       1.602   2.073   1.229  0.00  0.00     0.020 A 
ATOM      2  C1  UNL d   1       1.825   2.545  -0.064  0.00  0.00     0.020 A 
ATOM      3  C2  UNL d   1       1.428   1.781  -1.164  0.00  0.00     0.034 A 
ATOM      4  C3  UNL d   1       0.806   0.542  -0.972  0.00  0.00     0.017 A 
ATOM      5  C4  UNL d   1       0.583   0.069   0.326  0.00  0.00     0.017 A 
ATOM      6  C5  UNL d   1       0.982   0.838   1.424  0.00  0.00     0.034 A 
ATOM      7 Cl   UNL d   1      -0.179  -1.450   0.641  0.00  0.00    -0.070 Cl
ATOM      8 Cl1  UNL d   1       0.340  -0.349  -2.378  0.00  0.00    -0.070 Cl
ENDROOT
TORSDOF 0
ENDMDL
