MODEL 1
REMARK minimizedAffinity 6.70487928
REMARK minimizedRMSD -1
REMARK  0 active torsions:
REMARK  status: ('A' for Active; 'I' for Inactive)
ROOT
ATOM      1  C   UNL d   1       1.439   3.320   1.000  0.00  0.00     0.020 A 
ATOM      2  C1  UNL d   1       1.670   2.438  -0.056  0.00  0.00     0.020 A 
ATOM      3  C2  UNL d   1       1.202   1.124   0.017  0.00  0.00     0.034 A 
ATOM      4  C3  UNL d   1       0.502   0.688   1.147  0.00  0.00     0.017 A 
ATOM      5  C4  UNL d   1       0.271   1.573   2.206  0.00  0.00     0.017 A 
ATOM      6  C5  UNL d   1       0.741   2.888   2.128  0.00  0.00     0.034 A 
ATOM      7 Cl   UNL d   1      -0.586   1.107   3.633  0.00  0.00    -0.070 Cl
ATOM      8 Cl1  UNL d   1      -0.047  -0.950   1.169  0.00  0.00    -0.070 Cl
ENDROOT
TORSDOF 0
ENDMDL
