MODEL 1
REMARK minimizedAffinity 5.21725559
REMARK minimizedRMSD -1
REMARK  0 active torsions:
REMARK  status: ('A' for Active; 'I' for Inactive)
ROOT
ATOM      1  C   UNL d   1       1.409   2.137  -0.681  0.00  0.00     0.020 A 
ATOM      2  C1  UNL d   1       1.291   3.092   0.328  0.00  0.00     0.020 A 
ATOM      3  C2  UNL d   1       0.758   2.735   1.568  0.00  0.00     0.034 A 
ATOM      4  C3  UNL d   1       0.343   1.419   1.804  0.00  0.00     0.017 A 
ATOM      5  C4  UNL d   1       0.463   0.461   0.790  0.00  0.00     0.017 A 
ATOM      6  C5  UNL d   1       0.996   0.824  -0.450  0.00  0.00     0.034 A 
ATOM      7 Cl   UNL d   1      -0.028  -1.182   1.006  0.00  0.00    -0.070 Cl
ATOM      8 Cl1  UNL d   1      -0.306   1.047   3.361  0.00  0.00    -0.070 Cl
ENDROOT
TORSDOF 0
ENDMDL
