MODEL 1
REMARK minimizedAffinity 5.26823425
REMARK minimizedRMSD -1
REMARK  0 active torsions:
REMARK  status: ('A' for Active; 'I' for Inactive)
ROOT
ATOM      1  C   UNL d   1       0.668   2.892   1.390  0.00  0.00     0.020 A 
ATOM      2  C1  UNL d   1       0.274   1.642   1.867  0.00  0.00     0.020 A 
ATOM      3  C2  UNL d   1       0.545   0.493   1.122  0.00  0.00     0.034 A 
ATOM      4  C3  UNL d   1       1.212   0.590  -0.104  0.00  0.00     0.017 A 
ATOM      5  C4  UNL d   1       1.607   1.845  -0.583  0.00  0.00     0.017 A 
ATOM      6  C5  UNL d   1       1.334   2.992   0.168  0.00  0.00     0.034 A 
ATOM      7 Cl   UNL d   1       2.434   2.044  -2.087  0.00  0.00    -0.070 Cl
ATOM      8 Cl1  UNL d   1       1.514  -0.873  -0.973  0.00  0.00    -0.070 Cl
ENDROOT
TORSDOF 0
ENDMDL
