MODEL 1
REMARK minimizedAffinity -1.19115579
REMARK minimizedRMSD -1
REMARK  0 active torsions:
REMARK  status: ('A' for Active; 'I' for Inactive)
ROOT
ATOM      1  C   UNL d   1      -4.152   6.000  -3.732  0.00  0.00     0.020 A 
ATOM      2  C1  UNL d   1      -4.173   6.000  -2.338  0.00  0.00     0.020 A 
ATOM      3  C2  UNL d   1      -2.974   5.993  -1.622  0.00  0.00     0.034 A 
ATOM      4  C3  UNL d   1      -1.749   5.986  -2.300  0.00  0.00     0.017 A 
ATOM      5  C4  UNL d   1      -1.729   5.987  -3.699  0.00  0.00     0.017 A 
ATOM      6  C5  UNL d   1      -2.933   5.994  -4.411  0.00  0.00     0.034 A 
ATOM      7 Cl   UNL d   1      -0.257   5.979  -4.605  0.00  0.00    -0.070 Cl
ATOM      8 Cl1  UNL d   1      -0.306   5.978  -1.350  0.00  0.00    -0.070 Cl
ENDROOT
TORSDOF 0
ENDMDL
