MODEL 1
REMARK minimizedAffinity -1.82596016
REMARK minimizedRMSD -1
REMARK  0 active torsions:
REMARK  status: ('A' for Active; 'I' for Inactive)
ROOT
ATOM      1  C   UNL d   1       1.333   5.999  -5.869  0.00  0.00     0.020 A 
ATOM      2  C1  UNL d   1       2.110   5.937  -4.712  0.00  0.00     0.020 A 
ATOM      3  C2  UNL d   1       1.494   5.874  -3.460  0.00  0.00     0.034 A 
ATOM      4  C3  UNL d   1       0.098   5.874  -3.362  0.00  0.00     0.017 A 
ATOM      5  C4  UNL d   1      -0.680   5.937  -4.523  0.00  0.00     0.017 A 
ATOM      6  C5  UNL d   1      -0.059   6.000  -5.774  0.00  0.00     0.034 A 
ATOM      7 Cl   UNL d   1      -2.408   5.941  -4.481  0.00  0.00    -0.070 Cl
ATOM      8 Cl1  UNL d   1      -0.596   5.794  -1.781  0.00  0.00    -0.070 Cl
ENDROOT
TORSDOF 0
ENDMDL
