MODEL 1
REMARK minimizedAffinity -0.506609559
REMARK minimizedRMSD -1
REMARK  0 active torsions:
REMARK  status: ('A' for Active; 'I' for Inactive)
ROOT
ATOM      1  C   UNL d   1       1.311   2.458  -0.363  0.00  0.00     0.020 A 
ATOM      2  C1  UNL d   1       1.088   3.323   0.708  0.00  0.00     0.020 A 
ATOM      3  C2  UNL d   1       0.487   2.849   1.876  0.00  0.00     0.034 A 
ATOM      4  C3  UNL d   1       0.107   1.505   1.976  0.00  0.00     0.017 A 
ATOM      5  C4  UNL d   1       0.332   0.637   0.902  0.00  0.00     0.017 A 
ATOM      6  C5  UNL d   1       0.934   1.118  -0.266  0.00  0.00     0.034 A 
ATOM      7 Cl   UNL d   1      -0.109  -1.033   0.951  0.00  0.00    -0.070 Cl
ATOM      8 Cl1  UNL d   1      -0.630   0.987   3.450  0.00  0.00    -0.070 Cl
ENDROOT
TORSDOF 0
ENDMDL
