MODEL 1
REMARK minimizedAffinity 4.42731047
REMARK minimizedRMSD -1
REMARK  0 active torsions:
REMARK  status: ('A' for Active; 'I' for Inactive)
ROOT
ATOM      1  C   UNL d   1      -0.716   5.978  -4.042  0.00  0.00     0.020 A 
ATOM      2  C1  UNL d   1      -0.513   5.979  -2.663  0.00  0.00     0.020 A 
ATOM      3  C2  UNL d   1      -1.608   5.985  -1.796  0.00  0.00     0.034 A 
ATOM      4  C3  UNL d   1      -2.910   5.992  -2.308  0.00  0.00     0.017 A 
ATOM      5  C4  UNL d   1      -3.113   5.991  -3.693  0.00  0.00     0.017 A 
ATOM      6  C5  UNL d   1      -2.013   5.984  -4.556  0.00  0.00     0.034 A 
ATOM      7 Cl   UNL d   1      -4.691   5.999  -4.399  0.00  0.00    -0.070 Cl
ATOM      8 Cl1  UNL d   1      -4.217   5.999  -1.178  0.00  0.00    -0.070 Cl
ENDROOT
TORSDOF 0
ENDMDL
