MODEL 1
REMARK minimizedAffinity 10.5911369
REMARK minimizedRMSD -1
REMARK  0 active torsions:
REMARK  status: ('A' for Active; 'I' for Inactive)
ROOT
ATOM      1  C   UNL d   1       2.206   2.800   0.114  0.00  0.00     0.020 A 
ATOM      2  C1  UNL d   1       1.696   2.594  -1.167  0.00  0.00     0.020 A 
ATOM      3  C2  UNL d   1       0.613   1.732  -1.358  0.00  0.00     0.034 A 
ATOM      4  C3  UNL d   1       0.037   1.073  -0.266  0.00  0.00     0.017 A 
ATOM      5  C4  UNL d   1       0.550   1.281   1.020  0.00  0.00     0.017 A 
ATOM      6  C5  UNL d   1       1.634   2.144   1.205  0.00  0.00     0.034 A 
ATOM      7 Cl   UNL d   1      -0.108   0.503   2.417  0.00  0.00    -0.070 Cl
ATOM      8 Cl1  UNL d   1      -1.299   0.023  -0.575  0.00  0.00    -0.070 Cl
ENDROOT
TORSDOF 0
ENDMDL
