MODEL 1
REMARK minimizedAffinity -0.399058133
REMARK minimizedRMSD -1
REMARK  0 active torsions:
REMARK  status: ('A' for Active; 'I' for Inactive)
ROOT
ATOM      1  C   UNL d   1       5.377  -4.993  -2.724  0.00  0.00     0.023 A 
ATOM      2  C1  UNL d   1       5.713  -5.630  -3.918  0.00  0.00     0.003 A 
ATOM      3  C2  UNL d   1       4.723  -5.921  -4.859  0.00  0.00     0.048 A 
ATOM      4  C3  UNL d   1       3.399  -5.569  -4.599  0.00  0.00     0.023 A 
ATOM      5  C4  UNL d   1       3.058  -4.930  -3.406  0.00  0.00     0.048 A 
ATOM      6  C5  UNL d   1       4.051  -4.643  -2.468  0.00  0.00     0.003 A 
ATOM      7  I   UNL d   1       1.923  -6.000  -5.998  0.00  0.00    -0.146 I 
ENDROOT
TORSDOF 0
ENDMDL
