MODEL 1
REMARK minimizedAffinity 5.10513163
REMARK minimizedRMSD -1
REMARK  0 active torsions:
REMARK  status: ('A' for Active; 'I' for Inactive)
ROOT
ATOM      1  C   UNL d   1       6.000  -5.768  -3.813  0.00  0.00     0.023 A 
ATOM      2  C1  UNL d   1       5.916  -5.952  -5.193  0.00  0.00     0.003 A 
ATOM      3  C2  UNL d   1       4.669  -5.999  -5.818  0.00  0.00     0.048 A 
ATOM      4  C3  UNL d   1       3.508  -5.862  -5.057  0.00  0.00     0.023 A 
ATOM      5  C4  UNL d   1       3.587  -5.677  -3.676  0.00  0.00     0.048 A 
ATOM      6  C5  UNL d   1       4.836  -5.631  -3.055  0.00  0.00     0.003 A 
ATOM      7  I   UNL d   1       1.650  -5.932  -5.986  0.00  0.00    -0.146 I 
ENDROOT
TORSDOF 0
ENDMDL
