MODEL 1
REMARK minimizedAffinity 2.51354671
REMARK minimizedRMSD -1
REMARK  0 active torsions:
REMARK  status: ('A' for Active; 'I' for Inactive)
ROOT
ATOM      1  C   UNL d   1       4.215  -5.261  -6.000  0.00  0.00     0.023 A 
ATOM      2  C1  UNL d   1       2.940  -5.043  -5.478  0.00  0.00     0.003 A 
ATOM      3  C2  UNL d   1       2.695  -5.254  -4.119  0.00  0.00     0.048 A 
ATOM      4  C3  UNL d   1       3.730  -5.682  -3.288  0.00  0.00     0.023 A 
ATOM      5  C4  UNL d   1       5.007  -5.901  -3.806  0.00  0.00     0.048 A 
ATOM      6  C5  UNL d   1       5.247  -5.690  -5.165  0.00  0.00     0.003 A 
ATOM      7  I   UNL d   1       3.368  -5.996  -1.266  0.00  0.00    -0.146 I 
ENDROOT
TORSDOF 0
ENDMDL
