MODEL 1
REMARK minimizedAffinity 1.00333905
REMARK minimizedRMSD -1
REMARK  0 active torsions:
REMARK  status: ('A' for Active; 'I' for Inactive)
ROOT
ATOM      1  C   UNL d   1       4.730  -5.783  -5.905  0.00  0.00     0.023 A 
ATOM      2  C1  UNL d   1       5.534  -5.688  -4.769  0.00  0.00     0.003 A 
ATOM      3  C2  UNL d   1       4.960  -5.748  -3.498  0.00  0.00     0.048 A 
ATOM      4  C3  UNL d   1       3.580  -5.903  -3.369  0.00  0.00     0.023 A 
ATOM      5  C4  UNL d   1       2.771  -6.000  -4.503  0.00  0.00     0.048 A 
ATOM      6  C5  UNL d   1       3.350  -5.939  -5.772  0.00  0.00     0.003 A 
ATOM      7  I   UNL d   1       2.722  -5.993  -1.478  0.00  0.00    -0.146 I 
ENDROOT
TORSDOF 0
ENDMDL
