MODEL 1
REMARK minimizedAffinity 0.313357145
REMARK minimizedRMSD -1
REMARK  0 active torsions:
REMARK  status: ('A' for Active; 'I' for Inactive)
ROOT
ATOM      1  C   UNL d   1       5.055  -5.182  -6.000  0.00  0.00     0.023 A 
ATOM      2  C1  UNL d   1       3.672  -5.356  -5.962  0.00  0.00     0.003 A 
ATOM      3  C2  UNL d   1       3.011  -5.446  -4.736  0.00  0.00     0.048 A 
ATOM      4  C3  UNL d   1       3.739  -5.359  -3.550  0.00  0.00     0.023 A 
ATOM      5  C4  UNL d   1       5.124  -5.184  -3.582  0.00  0.00     0.048 A 
ATOM      6  C5  UNL d   1       5.780  -5.096  -4.811  0.00  0.00     0.003 A 
ATOM      7  I   UNL d   1       2.758  -5.493  -1.723  0.00  0.00    -0.146 I 
ENDROOT
TORSDOF 0
ENDMDL
