MODEL 1
REMARK minimizedAffinity -1.3687079
REMARK minimizedRMSD -1
REMARK  0 active torsions:
REMARK  status: ('A' for Active; 'I' for Inactive)
ROOT
ATOM      1  C   UNL d   1       5.569  -5.929  -2.431  0.00  0.00     0.023 A 
ATOM      2  C1  UNL d   1       4.205  -5.999  -2.147  0.00  0.00     0.003 A 
ATOM      3  C2  UNL d   1       3.268  -5.838  -3.170  0.00  0.00     0.048 A 
ATOM      4  C3  UNL d   1       3.702  -5.608  -4.475  0.00  0.00     0.023 A 
ATOM      5  C4  UNL d   1       5.066  -5.539  -4.764  0.00  0.00     0.048 A 
ATOM      6  C5  UNL d   1       5.999  -5.699  -3.738  0.00  0.00     0.003 A 
ATOM      7  I   UNL d   1       2.310  -5.368  -5.999  0.00  0.00    -0.146 I 
ENDROOT
TORSDOF 0
ENDMDL
