MODEL 1
REMARK minimizedAffinity -0.0652076304
REMARK minimizedRMSD -1
REMARK  0 active torsions:
REMARK  status: ('A' for Active; 'I' for Inactive)
ROOT
ATOM      1  C   UNL d   1       4.444  -5.841  -5.999  0.00  0.00     0.023 A 
ATOM      2  C1  UNL d   1       5.456  -5.798  -5.040  0.00  0.00     0.003 A 
ATOM      3  C2  UNL d   1       5.136  -5.842  -3.681  0.00  0.00     0.048 A 
ATOM      4  C3  UNL d   1       3.800  -5.931  -3.289  0.00  0.00     0.023 A 
ATOM      5  C4  UNL d   1       2.784  -5.975  -4.245  0.00  0.00     0.048 A 
ATOM      6  C5  UNL d   1       3.110  -5.930  -5.602  0.00  0.00     0.003 A 
ATOM      7  I   UNL d   1       3.321  -5.997  -1.268  0.00  0.00    -0.146 I 
ENDROOT
TORSDOF 0
ENDMDL
