MODEL 1
REMARK minimizedAffinity 5.26717043
REMARK minimizedRMSD -1
REMARK  0 active torsions:
REMARK  status: ('A' for Active; 'I' for Inactive)
ROOT
ATOM      1  C   UNL d   1       2.685  -4.937  -5.749  0.00  0.00     0.023 A 
ATOM      2  C1  UNL d   1       2.311  -5.646  -4.607  0.00  0.00     0.003 A 
ATOM      3  C2  UNL d   1       3.261  -5.952  -3.631  0.00  0.00     0.048 A 
ATOM      4  C3  UNL d   1       4.584  -5.545  -3.803  0.00  0.00     0.023 A 
ATOM      5  C4  UNL d   1       4.963  -4.835  -4.943  0.00  0.00     0.048 A 
ATOM      6  C5  UNL d   1       4.009  -4.532  -5.917  0.00  0.00     0.003 A 
ATOM      7  I   UNL d   1       6.000  -5.999  -2.351  0.00  0.00    -0.146 I 
ENDROOT
TORSDOF 0
ENDMDL
