MODEL 1
REMARK minimizedAffinity -1.59917116
REMARK minimizedRMSD -1
REMARK  0 active torsions:
REMARK  status: ('A' for Active; 'I' for Inactive)
ROOT
ATOM      1  C   UNL d   1      -3.427   1.825  -5.846  0.00  0.00     0.023 A 
ATOM      2  C1  UNL d   1      -2.756   3.044  -5.950  0.00  0.00     0.003 A 
ATOM      3  C2  UNL d   1      -3.478   4.239  -5.993  0.00  0.00     0.048 A 
ATOM      4  C3  UNL d   1      -4.870   4.208  -5.929  0.00  0.00     0.023 A 
ATOM      5  C4  UNL d   1      -5.546   2.991  -5.824  0.00  0.00     0.048 A 
ATOM      6  C5  UNL d   1      -4.821   1.799  -5.783  0.00  0.00     0.003 A 
ATOM      7  I   UNL d   1      -5.946   5.985  -5.992  0.00  0.00    -0.146 I 
ENDROOT
TORSDOF 0
ENDMDL
