MODEL 1
REMARK minimizedAffinity 1.31877863
REMARK minimizedRMSD -1
REMARK  0 active torsions:
REMARK  status: ('A' for Active; 'I' for Inactive)
ROOT
ATOM      1  C   UNL d   1       5.344  -4.873  -3.191  0.00  0.00     0.023 A 
ATOM      2  C1  UNL d   1       4.249  -5.544  -2.646  0.00  0.00     0.003 A 
ATOM      3  C2  UNL d   1       3.155  -5.868  -3.450  0.00  0.00     0.048 A 
ATOM      4  C3  UNL d   1       3.162  -5.518  -4.800  0.00  0.00     0.023 A 
ATOM      5  C4  UNL d   1       4.255  -4.847  -5.351  0.00  0.00     0.048 A 
ATOM      6  C5  UNL d   1       5.347  -4.525  -4.542  0.00  0.00     0.003 A 
ATOM      7  I   UNL d   1       1.535  -5.999  -6.000  0.00  0.00    -0.146 I 
ENDROOT
TORSDOF 0
ENDMDL
