MODEL 1
REMARK minimizedAffinity 1.18811429
REMARK minimizedRMSD -1
REMARK  0 active torsions:
REMARK  status: ('A' for Active; 'I' for Inactive)
ROOT
ATOM      1  C   UNL d   1      -6.000   3.377  -5.501  0.00  0.00     0.023 A 
ATOM      2  C1  UNL d   1      -5.203   4.407  -5.999  0.00  0.00     0.003 A 
ATOM      3  C2  UNL d   1      -3.812   4.320  -5.912  0.00  0.00     0.048 A 
ATOM      4  C3  UNL d   1      -3.225   3.199  -5.326  0.00  0.00     0.023 A 
ATOM      5  C4  UNL d   1      -4.018   2.165  -4.827  0.00  0.00     0.048 A 
ATOM      6  C5  UNL d   1      -5.409   2.257  -4.916  0.00  0.00     0.003 A 
ATOM      7  I   UNL d   1      -1.155   3.066  -5.196  0.00  0.00    -0.146 I 
ENDROOT
TORSDOF 0
ENDMDL
