MODEL 1
REMARK minimizedAffinity -2.76657295
REMARK minimizedRMSD -1
REMARK  0 active torsions:
REMARK  status: ('A' for Active; 'I' for Inactive)
ROOT
ATOM      1  C   UNL d   1       2.516  -5.349  -2.645  0.00  0.00     0.023 A 
ATOM      2  C1  UNL d   1       3.859  -5.238  -2.285  0.00  0.00     0.003 A 
ATOM      3  C2  UNL d   1       4.859  -5.425  -3.242  0.00  0.00     0.048 A 
ATOM      4  C3  UNL d   1       4.508  -5.721  -4.558  0.00  0.00     0.023 A 
ATOM      5  C4  UNL d   1       3.165  -5.833  -4.924  0.00  0.00     0.048 A 
ATOM      6  C5  UNL d   1       2.170  -5.646  -3.963  0.00  0.00     0.003 A 
ATOM      7  I   UNL d   1       5.993  -6.000  -5.985  0.00  0.00    -0.146 I 
ENDROOT
TORSDOF 0
ENDMDL
