MODEL 1
REMARK minimizedAffinity 1.11839354
REMARK minimizedRMSD -1
REMARK  0 active torsions:
REMARK  status: ('A' for Active; 'I' for Inactive)
ROOT
ATOM      1  C   UNL d   1      -1.186   2.904   2.157  0.00  0.00     0.023 A 
ATOM      2  C1  UNL d   1      -0.005   3.151   2.858  0.00  0.00     0.003 A 
ATOM      3  C2  UNL d   1       1.214   2.686   2.361  0.00  0.00     0.048 A 
ATOM      4  C3  UNL d   1       1.245   1.976   1.161  0.00  0.00     0.023 A 
ATOM      5  C4  UNL d   1       0.067   1.727   0.456  0.00  0.00     0.048 A 
ATOM      6  C5  UNL d   1      -1.150   2.193   0.958  0.00  0.00     0.003 A 
ATOM      7  I   UNL d   1       3.058   1.283   0.418  0.00  0.00    -0.146 I 
ENDROOT
TORSDOF 0
ENDMDL
