MODEL 1
REMARK minimizedAffinity 2.12731457
REMARK minimizedRMSD -1
REMARK  0 active torsions:
REMARK  status: ('A' for Active; 'I' for Inactive)
ROOT
ATOM      1  C   UNL d   1      -3.036   1.984  -4.488  0.00  0.00     0.023 A 
ATOM      2  C1  UNL d   1      -2.561   2.966  -5.358  0.00  0.00     0.003 A 
ATOM      3  C2  UNL d   1      -3.411   3.986  -5.793  0.00  0.00     0.048 A 
ATOM      4  C3  UNL d   1      -4.734   4.018  -5.354  0.00  0.00     0.023 A 
ATOM      5  C4  UNL d   1      -5.213   3.038  -4.483  0.00  0.00     0.048 A 
ATOM      6  C5  UNL d   1      -4.360   2.020  -4.051  0.00  0.00     0.003 A 
ATOM      7  I   UNL d   1      -6.000   5.534  -6.000  0.00  0.00    -0.146 I 
ENDROOT
TORSDOF 0
ENDMDL
