MODEL 1
REMARK minimizedAffinity -2.71484184
REMARK minimizedRMSD -1
REMARK  0 active torsions:
REMARK  status: ('A' for Active; 'I' for Inactive)
ROOT
ATOM      1  C   UNL d   1       1.615   2.258  -4.518  0.00  0.00     0.023 A 
ATOM      2  C1  UNL d   1       1.120   2.643  -5.764  0.00  0.00     0.003 A 
ATOM      3  C2  UNL d   1      -0.256   2.646  -6.000  0.00  0.00     0.048 A 
ATOM      4  C3  UNL d   1      -1.132   2.264  -4.984  0.00  0.00     0.023 A 
ATOM      5  C4  UNL d   1      -0.641   1.878  -3.736  0.00  0.00     0.048 A 
ATOM      6  C5  UNL d   1       0.736   1.876  -3.505  0.00  0.00     0.003 A 
ATOM      7  I   UNL d   1      -3.181   2.267  -5.332  0.00  0.00    -0.146 I 
ENDROOT
TORSDOF 0
ENDMDL
