MODEL 1
REMARK minimizedAffinity -2.45347929
REMARK minimizedRMSD -1
REMARK  1 active torsions:
REMARK  status: ('A' for Active; 'I' for Inactive)
REMARK    1  A    between atoms: C1_2  and  C2_3 
ROOT
ATOM      1  C2  UNL d   1       1.587  -1.225   0.055  0.00  0.00    -0.073 A 
ATOM      2  C3  UNL d   1       2.823  -1.195   0.711  0.00  0.00    -0.002 A 
ATOM      3  C4  UNL d   1       3.217  -0.061   1.421  0.00  0.00     0.004 A 
ATOM      4  C5  UNL d   1       2.379   1.052   1.489  0.00  0.00    -0.004 A 
ATOM      5  C6  UNL d   1       1.135   1.037   0.850  0.00  0.00    -0.075 A 
ATOM      6  C7  UNL d   1       0.222   2.227   0.911  0.00  0.00     0.076 C 
ATOM      7  C8  UNL d   1       0.747  -0.105   0.136  0.00  0.00     0.001 A 
ENDROOT
BRANCH   1   8
ATOM      8  C1  UNL d   1       1.154  -2.450  -0.708  0.00  0.00     0.053 C 
ATOM      9  C   UNL d   1       0.598  -3.527   0.211  0.00  0.00     0.018 C 
ENDBRANCH   1   8
TORSDOF 1
ENDMDL
