MODEL 1
REMARK minimizedAffinity -4.92002821
REMARK minimizedRMSD -1
REMARK  1 active torsions:
REMARK  status: ('A' for Active; 'I' for Inactive)
REMARK    1  A    between atoms: C1_2  and  C2_3 
ROOT
ATOM      1  C2  UNL d   1      -1.305  -0.110  -0.059  0.00  0.00    -0.073 A 
ATOM      2  C3  UNL d   1      -1.614  -1.284   0.637  0.00  0.00    -0.002 A 
ATOM      3  C4  UNL d   1      -0.629  -1.953   1.364  0.00  0.00     0.004 A 
ATOM      4  C5  UNL d   1       0.672  -1.451   1.409  0.00  0.00    -0.004 A 
ATOM      5  C6  UNL d   1       0.998  -0.272   0.731  0.00  0.00    -0.075 A 
ATOM      6  C7  UNL d   1       2.393   0.279   0.767  0.00  0.00     0.076 C 
ATOM      7  C8  UNL d   1       0.003   0.392   0.000  0.00  0.00     0.001 A 
ENDROOT
BRANCH   1   8
ATOM      8  C1  UNL d   1      -2.368   0.619  -0.840  0.00  0.00     0.053 C 
ATOM      9  C   UNL d   1      -2.780  -0.142  -2.090  0.00  0.00     0.018 C 
ENDBRANCH   1   8
TORSDOF 1
ENDMDL
