MODEL 1
REMARK minimizedAffinity -5.16742468
REMARK minimizedRMSD -1
REMARK  1 active torsions:
REMARK  status: ('A' for Active; 'I' for Inactive)
REMARK    1  A    between atoms: C1_2  and  C2_3 
ROOT
ATOM      1  C2  UNL d   1       1.285   0.776   0.755  0.00  0.00    -0.073 A 
ATOM      2  C3  UNL d   1       2.429   0.404   1.470  0.00  0.00    -0.002 A 
ATOM      3  C4  UNL d   1       2.436  -0.768   2.228  0.00  0.00     0.004 A 
ATOM      4  C5  UNL d   1       1.304  -1.582   2.273  0.00  0.00    -0.004 A 
ATOM      5  C6  UNL d   1       0.155  -1.232   1.556  0.00  0.00    -0.075 A 
ATOM      6  C7  UNL d   1      -1.072  -2.096   1.596  0.00  0.00     0.076 C 
ATOM      7  C8  UNL d   1       0.155  -0.053   0.799  0.00  0.00     0.001 A 
ENDROOT
BRANCH   1   8
ATOM      8  C1  UNL d   1       1.274   2.037  -0.070  0.00  0.00     0.053 C 
ATOM      9  C   UNL d   1       0.277   3.056   0.458  0.00  0.00     0.018 C 
ENDBRANCH   1   8
TORSDOF 1
ENDMDL
