MODEL 1
REMARK minimizedAffinity 3.14422393
REMARK minimizedRMSD -1
REMARK  0 active torsions:
REMARK  status: ('A' for Active; 'I' for Inactive)
ROOT
ATOM      1  O1  BZF d   1      -3.914  -2.645   4.004  0.00  0.00    -0.204 OA
ATOM      2  C2  BZF d   1      -4.125  -1.797   5.074  0.00  0.00     0.174 A 
ATOM      3  C3  BZF d   1      -4.916  -2.380   5.998  0.00  0.00    -0.012 A 
ATOM      4  C3A BZF d   1      -5.143  -3.708   5.515  0.00  0.00    -0.107 A 
ATOM      5  C4  BZF d   1      -5.840  -4.777   6.000  0.00  0.00     0.055 A 
ATOM      6  C5  BZF d   1      -5.925  -5.906   5.249  0.00  0.00    -0.016 A 
ATOM      7  C6  BZF d   1      -5.330  -5.999   4.007  0.00  0.00     0.022 A 
ATOM      8  C7  BZF d   1      -4.624  -4.966   3.486  0.00  0.00     0.029 A 
ATOM      9  C7A BZF d   1      -4.509  -3.835   4.257  0.00  0.00     0.058 A 
ENDROOT
TORSDOF 0
ENDMDL
