MODEL 1
REMARK minimizedAffinity 14.1553812
REMARK minimizedRMSD -1
REMARK  0 active torsions:
REMARK  status: ('A' for Active; 'I' for Inactive)
ROOT
ATOM      1  O1  BZF d   1      -0.383   0.495   5.005  0.00  0.00    -0.204 OA
ATOM      2  C2  BZF d   1      -1.462   1.101   4.390  0.00  0.00     0.174 A 
ATOM      3  C3  BZF d   1      -1.653   0.597   3.154  0.00  0.00    -0.012 A 
ATOM      4  C3A BZF d   1      -0.687  -0.450   3.022  0.00  0.00    -0.107 A 
ATOM      5  C4  BZF d   1      -0.390  -1.334   2.023  0.00  0.00     0.055 A 
ATOM      6  C5  BZF d   1       0.660  -2.181   2.181  0.00  0.00    -0.016 A 
ATOM      7  C6  BZF d   1       1.438  -2.169   3.320  0.00  0.00     0.022 A 
ATOM      8  C7  BZF d   1       1.180  -1.314   4.340  0.00  0.00     0.029 A 
ATOM      9  C7A BZF d   1       0.099  -0.479   4.197  0.00  0.00     0.058 A 
ENDROOT
TORSDOF 0
ENDMDL
