MODEL 1
REMARK minimizedAffinity 13.4462099
REMARK minimizedRMSD -1
REMARK  0 active torsions:
REMARK  status: ('A' for Active; 'I' for Inactive)
ROOT
ATOM      1  O1  BZF d   1       2.546   1.910  -3.706  0.00  0.00    -0.204 OA
ATOM      2  C2  BZF d   1       1.743   2.097  -2.597  0.00  0.00     0.174 A 
ATOM      3  C3  BZF d   1       2.077   3.233  -1.951  0.00  0.00    -0.012 A 
ATOM      4  C3A BZF d   1       3.095   3.837  -2.755  0.00  0.00    -0.107 A 
ATOM      5  C4  BZF d   1       3.815   4.993  -2.645  0.00  0.00     0.055 A 
ATOM      6  C5  BZF d   1       4.785   5.255  -3.560  0.00  0.00    -0.016 A 
ATOM      7  C6  BZF d   1       5.065   4.384  -4.592  0.00  0.00     0.022 A 
ATOM      8  C7  BZF d   1       4.374   3.228  -4.745  0.00  0.00     0.029 A 
ATOM      9  C7A BZF d   1       3.371   2.975  -3.841  0.00  0.00     0.058 A 
ENDROOT
TORSDOF 0
ENDMDL
