MODEL 1
REMARK minimizedAffinity 11.786005
REMARK minimizedRMSD -1
REMARK  0 active torsions:
REMARK  status: ('A' for Active; 'I' for Inactive)
ROOT
ATOM      1  O1  BZF d   1       3.360   1.211   2.253  0.00  0.00    -0.204 OA
ATOM      2  C2  BZF d   1       2.754   0.633   1.154  0.00  0.00     0.174 A 
ATOM      3  C3  BZF d   1       3.244   1.152   0.009  0.00  0.00    -0.012 A 
ATOM      4  C3A BZF d   1       4.282   2.048   0.417  0.00  0.00    -0.107 A 
ATOM      5  C4  BZF d   1       5.151   2.851  -0.265  0.00  0.00     0.055 A 
ATOM      6  C5  BZF d   1       5.992   3.658   0.433  0.00  0.00    -0.016 A 
ATOM      7  C6  BZF d   1       5.989   3.690   1.812  0.00  0.00     0.022 A 
ATOM      8  C7  BZF d   1       5.149   2.908   2.533  0.00  0.00     0.029 A 
ATOM      9  C7A BZF d   1       4.320   2.067   1.830  0.00  0.00     0.058 A 
ENDROOT
TORSDOF 0
ENDMDL
