MODEL 1
REMARK minimizedAffinity 1.41496742
REMARK minimizedRMSD -1
REMARK  0 active torsions:
REMARK  status: ('A' for Active; 'I' for Inactive)
ROOT
ATOM      1  O1  BZF d   1       4.353  -6.000  -0.525  0.00  0.00    -0.204 OA
ATOM      2  C2  BZF d   1       5.657  -5.919  -0.975  0.00  0.00     0.174 A 
ATOM      3  C3  BZF d   1       6.000  -4.638  -1.219  0.00  0.00    -0.012 A 
ATOM      4  C3A BZF d   1       4.868  -3.861  -0.814  0.00  0.00    -0.107 A 
ATOM      5  C4  BZF d   1       4.607  -2.521  -0.797  0.00  0.00     0.055 A 
ATOM      6  C5  BZF d   1       3.377  -2.093  -0.409  0.00  0.00    -0.016 A 
ATOM      7  C6  BZF d   1       2.384  -2.976  -0.038  0.00  0.00     0.022 A 
ATOM      8  C7  BZF d   1       2.598  -4.315  -0.034  0.00  0.00     0.029 A 
ATOM      9  C7A BZF d   1       3.851  -4.748  -0.394  0.00  0.00     0.058 A 
ENDROOT
TORSDOF 0
ENDMDL
