MODEL 1
REMARK minimizedAffinity 17.0508022
REMARK minimizedRMSD -1
REMARK  0 active torsions:
REMARK  status: ('A' for Active; 'I' for Inactive)
ROOT
ATOM      1  O1  BZF d   1      -3.544  -1.042   0.206  0.00  0.00    -0.204 OA
ATOM      2  C2  BZF d   1      -4.524  -0.072   0.294  0.00  0.00     0.174 A 
ATOM      3  C3  BZF d   1      -4.251   0.794   1.291  0.00  0.00    -0.012 A 
ATOM      4  C3A BZF d   1      -2.976   0.392   1.801  0.00  0.00    -0.107 A 
ATOM      5  C4  BZF d   1      -2.166   0.874   2.789  0.00  0.00     0.055 A 
ATOM      6  C5  BZF d   1      -1.019   0.208   3.086  0.00  0.00    -0.016 A 
ATOM      7  C6  BZF d   1      -0.655  -0.944   2.420  0.00  0.00     0.022 A 
ATOM      8  C7  BZF d   1      -1.425  -1.458   1.429  0.00  0.00     0.029 A 
ATOM      9  C7A BZF d   1      -2.567  -0.768   1.104  0.00  0.00     0.058 A 
ENDROOT
TORSDOF 0
ENDMDL
