MODEL 1
REMARK minimizedAffinity 7.97490597
REMARK minimizedRMSD -1
REMARK  0 active torsions:
REMARK  status: ('A' for Active; 'I' for Inactive)
ROOT
ATOM      1  O1  BZF d   1      -2.095   1.068   5.314  0.00  0.00    -0.204 OA
ATOM      2  C2  BZF d   1      -1.537   0.533   4.169  0.00  0.00     0.174 A 
ATOM      3  C3  BZF d   1      -2.472   0.372   3.211  0.00  0.00    -0.012 A 
ATOM      4  C3A BZF d   1      -3.674   0.920   3.762  0.00  0.00    -0.107 A 
ATOM      5  C4  BZF d   1      -4.945   1.066   3.285  0.00  0.00     0.055 A 
ATOM      6  C5  BZF d   1      -5.903   1.575   4.102  0.00  0.00    -0.016 A 
ATOM      7  C6  BZF d   1      -5.628   1.942   5.403  0.00  0.00     0.022 A 
ATOM      8  C7  BZF d   1      -4.381   1.821   5.920  0.00  0.00     0.029 A 
ATOM      9  C7A BZF d   1      -3.403   1.338   5.086  0.00  0.00     0.058 A 
ENDROOT
TORSDOF 0
ENDMDL
