MODEL 1
REMARK minimizedAffinity 17.7404575
REMARK minimizedRMSD -1
REMARK  0 active torsions:
REMARK  status: ('A' for Active; 'I' for Inactive)
ROOT
ATOM      1  O1  BZF d   1       0.764   6.000  -1.484  0.00  0.00    -0.204 OA
ATOM      2  C2  BZF d   1      -0.411   5.293  -1.653  0.00  0.00     0.174 A 
ATOM      3  C3  BZF d   1      -0.170   4.095  -2.223  0.00  0.00    -0.012 A 
ATOM      4  C3A BZF d   1       1.253   4.012  -2.339  0.00  0.00    -0.107 A 
ATOM      5  C4  BZF d   1       2.102   3.054  -2.815  0.00  0.00     0.055 A 
ATOM      6  C5  BZF d   1       3.436   3.314  -2.854  0.00  0.00    -0.016 A 
ATOM      7  C6  BZF d   1       3.953   4.521  -2.432  0.00  0.00     0.022 A 
ATOM      8  C7  BZF d   1       3.151   5.500  -1.948  0.00  0.00     0.029 A 
ATOM      9  C7A BZF d   1       1.806   5.228  -1.876  0.00  0.00     0.058 A 
ENDROOT
TORSDOF 0
ENDMDL
