MODEL 1
REMARK minimizedAffinity 6.93869734
REMARK minimizedRMSD -1
REMARK  0 active torsions:
REMARK  status: ('A' for Active; 'I' for Inactive)
ROOT
ATOM      1  O1  BZF d   1      -5.920   0.408  -3.523  0.00  0.00    -0.204 OA
ATOM      2  C2  BZF d   1      -6.000  -0.871  -4.039  0.00  0.00     0.174 A 
ATOM      3  C3  BZF d   1      -5.989  -1.787  -3.049  0.00  0.00    -0.012 A 
ATOM      4  C3A BZF d   1      -5.991  -1.029  -1.835  0.00  0.00    -0.107 A 
ATOM      5  C4  BZF d   1      -5.999  -1.374  -0.514  0.00  0.00     0.055 A 
ATOM      6  C5  BZF d   1      -5.923  -0.394   0.425  0.00  0.00    -0.016 A 
ATOM      7  C6  BZF d   1      -5.834   0.939   0.078  0.00  0.00     0.022 A 
ATOM      8  C7  BZF d   1      -5.828   1.329  -1.220  0.00  0.00     0.029 A 
ATOM      9  C7A BZF d   1      -5.937   0.343  -2.170  0.00  0.00     0.058 A 
ENDROOT
TORSDOF 0
ENDMDL
