MODEL 1
REMARK minimizedAffinity 16.3742104
REMARK minimizedRMSD -1
REMARK  0 active torsions:
REMARK  status: ('A' for Active; 'I' for Inactive)
ROOT
ATOM      1  O1  BZF d   1       0.916   2.272  -3.505  0.00  0.00    -0.204 OA
ATOM      2  C2  BZF d   1       1.450   2.151  -2.237  0.00  0.00     0.174 A 
ATOM      3  C3  BZF d   1       0.944   3.090  -1.412  0.00  0.00    -0.012 A 
ATOM      4  C3A BZF d   1      -0.033   3.788  -2.191  0.00  0.00    -0.107 A 
ATOM      5  C4  BZF d   1      -0.885   4.820  -1.923  0.00  0.00     0.055 A 
ATOM      6  C5  BZF d   1      -1.659   5.316  -2.924  0.00  0.00    -0.016 A 
ATOM      7  C6  BZF d   1      -1.602   4.807  -4.205  0.00  0.00     0.022 A 
ATOM      8  C7  BZF d   1      -0.775   3.780  -4.519  0.00  0.00     0.029 A 
ATOM      9  C7A BZF d   1      -0.016   3.255  -3.501  0.00  0.00     0.058 A 
ENDROOT
TORSDOF 0
ENDMDL
