MODEL 1
REMARK minimizedAffinity 19.5946503
REMARK minimizedRMSD -1
REMARK  0 active torsions:
REMARK  status: ('A' for Active; 'I' for Inactive)
ROOT
ATOM      1  O1  BZF d   1      -5.124  -1.066  -2.644  0.00  0.00    -0.204 OA
ATOM      2  C2  BZF d   1      -5.544  -0.574  -3.865  0.00  0.00     0.174 A 
ATOM      3  C3  BZF d   1      -5.998   0.690  -3.740  0.00  0.00    -0.012 A 
ATOM      4  C3A BZF d   1      -5.767   1.040  -2.372  0.00  0.00    -0.107 A 
ATOM      5  C4  BZF d   1      -5.992   2.171  -1.641  0.00  0.00     0.055 A 
ATOM      6  C5  BZF d   1      -5.720   2.162  -0.310  0.00  0.00    -0.016 A 
ATOM      7  C6  BZF d   1      -5.229   1.040   0.324  0.00  0.00     0.022 A 
ATOM      8  C7  BZF d   1      -4.985  -0.105  -0.360  0.00  0.00     0.029 A 
ATOM      9  C7A BZF d   1      -5.227  -0.089  -1.712  0.00  0.00     0.058 A 
ENDROOT
TORSDOF 0
ENDMDL
