MODEL 1
REMARK minimizedAffinity 17.5348396
REMARK minimizedRMSD -1
REMARK  0 active torsions:
REMARK  status: ('A' for Active; 'I' for Inactive)
ROOT
ATOM      1  O1  BZF d   1       2.892   3.020  -4.408  0.00  0.00    -0.204 OA
ATOM      2  C2  BZF d   1       2.078   2.952  -3.295  0.00  0.00     0.174 A 
ATOM      3  C3  BZF d   1       2.628   3.617  -2.258  0.00  0.00    -0.012 A 
ATOM      4  C3A BZF d   1       3.820   4.211  -2.782  0.00  0.00    -0.107 A 
ATOM      5  C4  BZF d   1       4.788   5.008  -2.241  0.00  0.00     0.055 A 
ATOM      6  C5  BZF d   1       5.859   5.355  -3.002  0.00  0.00    -0.016 A 
ATOM      7  C6  BZF d   1       5.996   4.921  -4.305  0.00  0.00     0.022 A 
ATOM      8  C7  BZF d   1       5.059   4.134  -4.886  0.00  0.00     0.029 A 
ATOM      9  C7A BZF d   1       3.959   3.808  -4.130  0.00  0.00     0.058 A 
ENDROOT
TORSDOF 0
ENDMDL
