MODEL 1
REMARK minimizedAffinity 16.9230003
REMARK minimizedRMSD -1
REMARK  0 active torsions:
REMARK  status: ('A' for Active; 'I' for Inactive)
ROOT
ATOM      1  O1  BZF d   1      -5.286   3.333  -2.023  0.00  0.00    -0.204 OA
ATOM      2  C2  BZF d   1      -4.952   4.335  -1.133  0.00  0.00     0.174 A 
ATOM      3  C3  BZF d   1      -4.858   3.848   0.122  0.00  0.00    -0.012 A 
ATOM      4  C3A BZF d   1      -5.061   2.437  -0.006  0.00  0.00    -0.107 A 
ATOM      5  C4  BZF d   1      -5.071   1.406   0.888  0.00  0.00     0.055 A 
ATOM      6  C5  BZF d   1      -5.373   0.155   0.451  0.00  0.00    -0.016 A 
ATOM      7  C6  BZF d   1      -5.676  -0.098  -0.871  0.00  0.00     0.022 A 
ATOM      8  C7  BZF d   1      -5.675   0.892  -1.796  0.00  0.00     0.029 A 
ATOM      9  C7A BZF d   1      -5.337   2.151  -1.363  0.00  0.00     0.058 A 
ENDROOT
TORSDOF 0
ENDMDL
