MODEL 1
REMARK minimizedAffinity 14.4319687
REMARK minimizedRMSD -1
REMARK  0 active torsions:
REMARK  status: ('A' for Active; 'I' for Inactive)
ROOT
ATOM      1  O1  BZF d   1      -0.325   5.311  -5.183  0.00  0.00    -0.204 OA
ATOM      2  C2  BZF d   1      -1.552   5.465  -5.800  0.00  0.00     0.174 A 
ATOM      3  C3  BZF d   1      -2.555   5.156  -4.953  0.00  0.00    -0.012 A 
ATOM      4  C3A BZF d   1      -1.919   4.875  -3.702  0.00  0.00    -0.107 A 
ATOM      5  C4  BZF d   1      -2.388   4.523  -2.469  0.00  0.00     0.055 A 
ATOM      6  C5  BZF d   1      -1.499   4.251  -1.478  0.00  0.00    -0.016 A 
ATOM      7  C6  BZF d   1      -0.137   4.315  -1.687  0.00  0.00     0.022 A 
ATOM      8  C7  BZF d   1       0.376   4.664  -2.892  0.00  0.00     0.029 A 
ATOM      9  C7A BZF d   1      -0.520   4.973  -3.886  0.00  0.00     0.058 A 
ENDROOT
TORSDOF 0
ENDMDL
