MODEL 1
REMARK minimizedAffinity 11.825491
REMARK minimizedRMSD -1
REMARK  0 active torsions:
REMARK  status: ('A' for Active; 'I' for Inactive)
ROOT
ATOM      1  O1  BZF d   1      -1.973   0.681   4.693  0.00  0.00    -0.204 OA
ATOM      2  C2  BZF d   1      -3.106   1.433   4.448  0.00  0.00     0.174 A 
ATOM      3  C3  BZF d   1      -3.587   1.185   3.213  0.00  0.00    -0.012 A 
ATOM      4  C3A BZF d   1      -2.753   0.149   2.685  0.00  0.00    -0.107 A 
ATOM      5  C4  BZF d   1      -2.739  -0.534   1.503  0.00  0.00     0.055 A 
ATOM      6  C5  BZF d   1      -1.747  -1.433   1.271  0.00  0.00    -0.016 A 
ATOM      7  C6  BZF d   1      -0.751  -1.670   2.196  0.00  0.00     0.022 A 
ATOM      8  C7  BZF d   1      -0.726  -1.020   3.386  0.00  0.00     0.029 A 
ATOM      9  C7A BZF d   1      -1.746  -0.135   3.636  0.00  0.00     0.058 A 
ENDROOT
TORSDOF 0
ENDMDL
