MODEL 1
REMARK minimizedAffinity 13.4044418
REMARK minimizedRMSD -1
REMARK  0 active torsions:
REMARK  status: ('A' for Active; 'I' for Inactive)
ROOT
ATOM      1  O1  BZF d   1       2.948   5.648  -1.620  0.00  0.00    -0.204 OA
ATOM      2  C2  BZF d   1       4.298   5.373  -1.720  0.00  0.00     0.174 A 
ATOM      3  C3  BZF d   1       4.500   4.106  -2.136  0.00  0.00    -0.012 A 
ATOM      4  C3A BZF d   1       3.193   3.583  -2.396  0.00  0.00    -0.107 A 
ATOM      5  C4  BZF d   1       2.737   2.378  -2.848  0.00  0.00     0.055 A 
ATOM      6  C5  BZF d   1       1.397   2.165  -2.921  0.00  0.00    -0.016 A 
ATOM      7  C6  BZF d   1       0.486   3.130  -2.546  0.00  0.00     0.022 A 
ATOM      8  C7  BZF d   1       0.891   4.343  -2.096  0.00  0.00     0.029 A 
ATOM      9  C7A BZF d   1       2.244   4.574  -2.052  0.00  0.00     0.058 A 
ENDROOT
TORSDOF 0
ENDMDL
