MODEL 1
REMARK minimizedAffinity 11.048892
REMARK minimizedRMSD -1
REMARK  0 active torsions:
REMARK  status: ('A' for Active; 'I' for Inactive)
ROOT
ATOM      1  O1  BZF d   1       0.990   5.892  -2.016  0.00  0.00    -0.204 OA
ATOM      2  C2  BZF d   1      -0.257   5.317  -2.167  0.00  0.00     0.174 A 
ATOM      3  C3  BZF d   1      -0.150   4.056  -2.634  0.00  0.00    -0.012 A 
ATOM      4  C3A BZF d   1       1.256   3.797  -2.697  0.00  0.00    -0.107 A 
ATOM      5  C4  BZF d   1       1.995   2.710  -3.068  0.00  0.00     0.055 A 
ATOM      6  C5  BZF d   1       3.350   2.807  -3.084  0.00  0.00    -0.016 A 
ATOM      7  C6  BZF d   1       3.999   3.975  -2.740  0.00  0.00     0.022 A 
ATOM      8  C7  BZF d   1       3.309   5.078  -2.360  0.00  0.00     0.029 A 
ATOM      9  C7A BZF d   1       1.940   4.973  -2.312  0.00  0.00     0.058 A 
ENDROOT
TORSDOF 0
ENDMDL
