MODEL 1
REMARK minimizedAffinity -2.88482809
REMARK minimizedRMSD -1
REMARK  0 active torsions:
REMARK  status: ('A' for Active; 'I' for Inactive)
ROOT
ATOM      1  C   UNL d   1      -0.720   2.170   1.953  0.00  0.00     0.023 A 
ATOM      2  C1  UNL d   1       0.205   1.223   2.392  0.00  0.00     0.003 A 
ATOM      3  C2  UNL d   1       0.566   0.160   1.562  0.00  0.00     0.048 A 
ATOM      4  C3  UNL d   1      -0.001   0.051   0.293  0.00  0.00     0.023 A 
ATOM      5  C4  UNL d   1      -0.926   0.997  -0.152  0.00  0.00     0.048 A 
ATOM      6  C5  UNL d   1      -1.285   2.057   0.683  0.00  0.00     0.003 A 
ATOM      7  I   UNL d   1       0.535  -1.530  -0.946  0.00  0.00    -0.146 I 
ENDROOT
TORSDOF 0
ENDMDL
