MODEL 1
REMARK minimizedAffinity -1.33399594
REMARK minimizedRMSD -1
REMARK  0 active torsions:
REMARK  status: ('A' for Active; 'I' for Inactive)
ROOT
ATOM      1  C   UNL d   1      -0.625   2.048   1.520  0.00  0.00     0.023 A 
ATOM      2  C1  UNL d   1       0.411   1.392   0.855  0.00  0.00     0.003 A 
ATOM      3  C2  UNL d   1       1.117   0.371   1.494  0.00  0.00     0.048 A 
ATOM      4  C3  UNL d   1       0.780   0.010   2.798  0.00  0.00     0.023 A 
ATOM      5  C4  UNL d   1      -0.257   0.662   3.467  0.00  0.00     0.048 A 
ATOM      6  C5  UNL d   1      -0.958   1.684   2.824  0.00  0.00     0.003 A 
ATOM      7  I   UNL d   1       1.828  -1.511   3.752  0.00  0.00    -0.146 I 
ENDROOT
TORSDOF 0
ENDMDL
