MODEL 1
REMARK minimizedAffinity -4.22216797
REMARK minimizedRMSD -1
REMARK  0 active torsions:
REMARK  status: ('A' for Active; 'I' for Inactive)
ROOT
ATOM      1  C   UNL d   1      -0.882   1.995   1.871  0.00  0.00     0.023 A 
ATOM      2  C1  UNL d   1      -1.754   1.651   0.838  0.00  0.00     0.003 A 
ATOM      3  C2  UNL d   1      -1.458   0.573   0.002  0.00  0.00     0.048 A 
ATOM      4  C3  UNL d   1      -0.288  -0.158   0.205  0.00  0.00     0.023 A 
ATOM      5  C4  UNL d   1       0.588   0.181   1.238  0.00  0.00     0.048 A 
ATOM      6  C5  UNL d   1       0.288   1.261   2.071  0.00  0.00     0.003 A 
ATOM      7  I   UNL d   1       0.155  -1.764  -1.038  0.00  0.00    -0.146 I 
ENDROOT
TORSDOF 0
ENDMDL
