MODEL 1
REMARK minimizedAffinity -3.80115771
REMARK minimizedRMSD -1
REMARK  0 active torsions:
REMARK  status: ('A' for Active; 'I' for Inactive)
ROOT
ATOM      1  C   UNL d   1      -0.847   2.373   1.974  0.00  0.00     0.023 A 
ATOM      2  C1  UNL d   1       0.117   1.486   2.453  0.00  0.00     0.003 A 
ATOM      3  C2  UNL d   1       0.455   0.352   1.711  0.00  0.00     0.048 A 
ATOM      4  C3  UNL d   1      -0.174   0.113   0.490  0.00  0.00     0.023 A 
ATOM      5  C4  UNL d   1      -1.139   0.998   0.006  0.00  0.00     0.048 A 
ATOM      6  C5  UNL d   1      -1.474   2.129   0.752  0.00  0.00     0.003 A 
ATOM      7  I   UNL d   1       0.327  -1.574  -0.617  0.00  0.00    -0.146 I 
ENDROOT
TORSDOF 0
ENDMDL
