MODEL 1
REMARK minimizedAffinity -2.95582485
REMARK minimizedRMSD -1
REMARK  0 active torsions:
REMARK  status: ('A' for Active; 'I' for Inactive)
ROOT
ATOM      1  C   UNL d   1      -1.148   2.834   1.512  0.00  0.00     0.023 A 
ATOM      2  C1  UNL d   1      -0.099   2.166   2.144  0.00  0.00     0.003 A 
ATOM      3  C2  UNL d   1       0.374   0.959   1.625  0.00  0.00     0.048 A 
ATOM      4  C3  UNL d   1      -0.205   0.427   0.473  0.00  0.00     0.023 A 
ATOM      5  C4  UNL d   1      -1.254   1.093  -0.163  0.00  0.00     0.048 A 
ATOM      6  C5  UNL d   1      -1.724   2.299   0.360  0.00  0.00     0.003 A 
ATOM      7  I   UNL d   1       0.498  -1.369  -0.301  0.00  0.00    -0.146 I 
ENDROOT
TORSDOF 0
ENDMDL
