MODEL 1
REMARK minimizedAffinity -3.08257866
REMARK minimizedRMSD -1
REMARK  0 active torsions:
REMARK  status: ('A' for Active; 'I' for Inactive)
ROOT
ATOM      1  C   UNL d   1      -0.184   1.481   1.146  0.00  0.00     0.023 A 
ATOM      2  C1  UNL d   1      -0.966   1.243   0.016  0.00  0.00     0.003 A 
ATOM      3  C2  UNL d   1      -0.877   0.019  -0.651  0.00  0.00     0.048 A 
ATOM      4  C3  UNL d   1      -0.005  -0.963  -0.181  0.00  0.00     0.023 A 
ATOM      5  C4  UNL d   1       0.778  -0.729   0.951  0.00  0.00     0.048 A 
ATOM      6  C5  UNL d   1       0.686   0.496   1.613  0.00  0.00     0.003 A 
ATOM      7  I   UNL d   1       0.128  -2.786  -1.171  0.00  0.00    -0.146 I 
ENDROOT
TORSDOF 0
ENDMDL
