MODEL 1
REMARK minimizedAffinity -1.21553159
REMARK minimizedRMSD -1
REMARK  1 active torsions:
REMARK  status: ('A' for Active; 'I' for Inactive)
REMARK    1  A    between atoms: C1_2  and  C2_3 
ROOT
ATOM      1  C2  UNL d   1      -1.693  -2.797  -3.331  0.00  0.00    -0.073 A 
ATOM      2  C3  UNL d   1      -2.084  -1.630  -2.666  0.00  0.00    -0.002 A 
ATOM      3  C4  UNL d   1      -1.689  -1.404  -1.347  0.00  0.00     0.004 A 
ATOM      4  C5  UNL d   1      -0.894  -2.338  -0.682  0.00  0.00    -0.004 A 
ATOM      5  C6  UNL d   1      -0.483  -3.505  -1.334  0.00  0.00    -0.075 A 
ATOM      6  C7  UNL d   1       0.370  -4.521  -0.633  0.00  0.00     0.076 C 
ATOM      7  C8  UNL d   1      -0.886  -3.726  -2.658  0.00  0.00     0.001 A 
ENDROOT
BRANCH   1   8
ATOM      8  C1  UNL d   1      -2.111  -3.042  -4.758  0.00  0.00     0.053 C 
ATOM      9  C   UNL d   1      -0.934  -2.970  -5.718  0.00  0.00     0.018 C 
ENDBRANCH   1   8
TORSDOF 1
ENDMDL
