MODEL 1
REMARK minimizedAffinity 12.2297249
REMARK minimizedRMSD -1
REMARK  1 active torsions:
REMARK  status: ('A' for Active; 'I' for Inactive)
REMARK    1  A    between atoms: C1_2  and  C2_3 
ROOT
ATOM      1  C2  UNL d   1       1.039   3.053  -0.312  0.00  0.00    -0.073 A 
ATOM      2  C3  UNL d   1       1.234   3.136   1.071  0.00  0.00    -0.002 A 
ATOM      3  C4  UNL d   1       0.332   3.840   1.870  0.00  0.00     0.004 A 
ATOM      4  C5  UNL d   1      -0.776   4.462   1.295  0.00  0.00    -0.004 A 
ATOM      5  C6  UNL d   1      -0.996   4.381  -0.084  0.00  0.00    -0.075 A 
ATOM      6  C7  UNL d   1      -2.182   5.046  -0.717  0.00  0.00     0.076 C 
ATOM      7  C8  UNL d   1      -0.084   3.674  -0.879  0.00  0.00     0.001 A 
ENDROOT
BRANCH   1   8
ATOM      8  C1  UNL d   1       2.007   2.288  -1.177  0.00  0.00     0.053 C 
ATOM      9  C   UNL d   1       2.865   3.212  -2.026  0.00  0.00     0.018 C 
ENDBRANCH   1   8
TORSDOF 1
ENDMDL
