MODEL 1
REMARK minimizedAffinity 7.38144732
REMARK minimizedRMSD -1
REMARK  1 active torsions:
REMARK  status: ('A' for Active; 'I' for Inactive)
REMARK    1  A    between atoms: C1_2  and  C2_3 
ROOT
ATOM      1  C2  UNL d   1       0.799  -0.331   1.695  0.00  0.00    -0.073 A 
ATOM      2  C3  UNL d   1       0.083  -1.208   0.872  0.00  0.00    -0.002 A 
ATOM      3  C4  UNL d   1      -0.954  -1.979   1.398  0.00  0.00     0.004 A 
ATOM      4  C5  UNL d   1      -1.291  -1.876   2.747  0.00  0.00    -0.004 A 
ATOM      5  C6  UNL d   1      -0.595  -0.997   3.583  0.00  0.00    -0.075 A 
ATOM      6  C7  UNL d   1      -0.943  -0.877   5.038  0.00  0.00     0.076 C 
ATOM      7  C8  UNL d   1       0.448  -0.228   3.048  0.00  0.00     0.001 A 
ENDROOT
BRANCH   1   8
ATOM      8  C1  UNL d   1       1.916   0.508   1.130  0.00  0.00     0.053 C 
ATOM      9  C   UNL d   1       3.211  -0.278   1.001  0.00  0.00     0.018 C 
ENDBRANCH   1   8
TORSDOF 1
ENDMDL
