MODEL 1
REMARK minimizedAffinity 8.36360741
REMARK minimizedRMSD -1
REMARK  1 active torsions:
REMARK  status: ('A' for Active; 'I' for Inactive)
REMARK    1  A    between atoms: C1_2  and  C2_3 
ROOT
ATOM      1  C2  UNL d   1       3.151   0.488  -5.326  0.00  0.00    -0.073 A 
ATOM      2  C3  UNL d   1       4.330   0.910  -4.701  0.00  0.00    -0.002 A 
ATOM      3  C4  UNL d   1       5.173  -0.018  -4.088  0.00  0.00     0.004 A 
ATOM      4  C5  UNL d   1       4.851  -1.375  -4.100  0.00  0.00    -0.004 A 
ATOM      5  C6  UNL d   1       3.684  -1.817  -4.731  0.00  0.00    -0.075 A 
ATOM      6  C7  UNL d   1       3.322  -3.273  -4.751  0.00  0.00     0.076 C 
ATOM      7  C8  UNL d   1       2.841  -0.879  -5.342  0.00  0.00     0.001 A 
ENDROOT
BRANCH   1   8
ATOM      8  C1  UNL d   1       2.241   1.486  -5.995  0.00  0.00     0.053 C 
ATOM      9  C   UNL d   1       2.827   2.889  -5.985  0.00  0.00     0.018 C 
ENDBRANCH   1   8
TORSDOF 1
ENDMDL
