MODEL 1
REMARK minimizedAffinity 6.81362772
REMARK minimizedRMSD -1
REMARK  1 active torsions:
REMARK  status: ('A' for Active; 'I' for Inactive)
REMARK    1  A    between atoms: C1_2  and  C2_3 
ROOT
ATOM      1  C2  UNL d   1      -1.749  -2.319  -0.745  0.00  0.00    -0.073 A 
ATOM      2  C3  UNL d   1      -0.562  -3.051  -0.869  0.00  0.00    -0.002 A 
ATOM      3  C4  UNL d   1       0.001  -3.674   0.244  0.00  0.00     0.004 A 
ATOM      4  C5  UNL d   1      -0.618  -3.579   1.491  0.00  0.00    -0.004 A 
ATOM      5  C6  UNL d   1      -1.811  -2.862   1.633  0.00  0.00    -0.075 A 
ATOM      6  C7  UNL d   1      -2.488  -2.748   2.967  0.00  0.00     0.076 C 
ATOM      7  C8  UNL d   1      -2.369  -2.237   0.510  0.00  0.00     0.001 A 
ENDROOT
BRANCH   1   8
ATOM      8  C1  UNL d   1      -2.365  -1.649  -1.946  0.00  0.00     0.053 C 
ATOM      9  C   UNL d   1      -2.252  -2.506  -3.197  0.00  0.00     0.018 C 
ENDBRANCH   1   8
TORSDOF 1
ENDMDL
