MODEL 1
REMARK minimizedAffinity 5.96244955
REMARK minimizedRMSD -1
REMARK  1 active torsions:
REMARK  status: ('A' for Active; 'I' for Inactive)
REMARK    1  A    between atoms: C1_2  and  C2_3 
ROOT
ATOM      1  C2  UNL d   1      -1.932  -2.822  -3.072  0.00  0.00    -0.073 A 
ATOM      2  C3  UNL d   1      -2.306  -1.576  -2.555  0.00  0.00    -0.002 A 
ATOM      3  C4  UNL d   1      -1.825  -1.155  -1.314  0.00  0.00     0.004 A 
ATOM      4  C5  UNL d   1      -0.962  -1.971  -0.582  0.00  0.00    -0.004 A 
ATOM      5  C6  UNL d   1      -0.568  -3.214  -1.088  0.00  0.00    -0.075 A 
ATOM      6  C7  UNL d   1       0.358  -4.104  -0.312  0.00  0.00     0.076 C 
ATOM      7  C8  UNL d   1      -1.057  -3.631  -2.333  0.00  0.00     0.001 A 
ENDROOT
BRANCH   1   8
ATOM      8  C1  UNL d   1      -2.443  -3.277  -4.415  0.00  0.00     0.053 C 
ATOM      9  C   UNL d   1      -1.804  -2.507  -5.559  0.00  0.00     0.018 C 
ENDBRANCH   1   8
TORSDOF 1
ENDMDL
