MODEL 1
REMARK minimizedAffinity 4.67207861
REMARK minimizedRMSD -1
REMARK  1 active torsions:
REMARK  status: ('A' for Active; 'I' for Inactive)
REMARK    1  A    between atoms: C1_2  and  C2_3 
ROOT
ATOM      1  C2  UNL d   1      -2.083  -3.360  -2.421  0.00  0.00    -0.073 A 
ATOM      2  C3  UNL d   1      -2.715  -2.245  -1.858  0.00  0.00    -0.002 A 
ATOM      3  C4  UNL d   1      -2.330  -1.777  -0.601  0.00  0.00     0.004 A 
ATOM      4  C5  UNL d   1      -1.306  -2.413   0.101  0.00  0.00    -0.004 A 
ATOM      5  C6  UNL d   1      -0.654  -3.521  -0.450  0.00  0.00    -0.075 A 
ATOM      6  C7  UNL d   1       0.448  -4.217   0.293  0.00  0.00     0.076 C 
ATOM      7  C8  UNL d   1      -1.049  -3.986  -1.712  0.00  0.00     0.001 A 
ENDROOT
BRANCH   1   8
ATOM      8  C1  UNL d   1      -2.491  -3.865  -3.781  0.00  0.00     0.053 C 
ATOM      9  C   UNL d   1      -1.855  -3.059  -4.903  0.00  0.00     0.018 C 
ENDBRANCH   1   8
TORSDOF 1
ENDMDL
