MODEL 1
REMARK minimizedAffinity 9.54986858
REMARK minimizedRMSD -1
REMARK  1 active torsions:
REMARK  status: ('A' for Active; 'I' for Inactive)
REMARK    1  A    between atoms: C1_2  and  C2_3 
ROOT
ATOM      1  C2  UNL d   1      -2.120  -2.242  -1.786  0.00  0.00    -0.073 A 
ATOM      2  C3  UNL d   1      -2.899  -1.638  -0.792  0.00  0.00    -0.002 A 
ATOM      3  C4  UNL d   1      -2.501  -1.690   0.544  0.00  0.00     0.004 A 
ATOM      4  C5  UNL d   1      -1.318  -2.339   0.900  0.00  0.00    -0.004 A 
ATOM      5  C6  UNL d   1      -0.520  -2.938  -0.080  0.00  0.00    -0.075 A 
ATOM      6  C7  UNL d   1       0.753  -3.642   0.286  0.00  0.00     0.076 C 
ATOM      7  C8  UNL d   1      -0.928  -2.884  -1.420  0.00  0.00     0.001 A 
ENDROOT
BRANCH   1   8
ATOM      8  C1  UNL d   1      -2.543  -2.183  -3.231  0.00  0.00     0.053 C 
ATOM      9  C   UNL d   1      -2.261  -3.486  -3.961  0.00  0.00     0.018 C 
ENDBRANCH   1   8
TORSDOF 1
ENDMDL
