MODEL 1
REMARK minimizedAffinity 8.64960766
REMARK minimizedRMSD -1
REMARK  1 active torsions:
REMARK  status: ('A' for Active; 'I' for Inactive)
REMARK    1  A    between atoms: C1_2  and  C2_3 
ROOT
ATOM      1  C2  UNL d   1       1.656   3.416  -3.244  0.00  0.00    -0.073 A 
ATOM      2  C3  UNL d   1       1.626   2.243  -4.007  0.00  0.00    -0.002 A 
ATOM      3  C4  UNL d   1       1.878   2.288  -5.379  0.00  0.00     0.004 A 
ATOM      4  C5  UNL d   1       2.168   3.503  -6.000  0.00  0.00    -0.004 A 
ATOM      5  C6  UNL d   1       2.214   4.684  -5.252  0.00  0.00    -0.075 A 
ATOM      6  C7  UNL d   1       2.522   5.999  -5.906  0.00  0.00     0.076 C 
ATOM      7  C8  UNL d   1       1.957   4.631  -3.876  0.00  0.00     0.001 A 
ENDROOT
BRANCH   1   8
ATOM      8  C1  UNL d   1       1.391   3.372  -1.761  0.00  0.00     0.053 C 
ATOM      9  C   UNL d   1       2.636   3.695  -0.950  0.00  0.00     0.018 C 
ENDBRANCH   1   8
TORSDOF 1
ENDMDL
