MODEL 1
REMARK minimizedAffinity 12.430336
REMARK minimizedRMSD -1
REMARK  1 active torsions:
REMARK  status: ('A' for Active; 'I' for Inactive)
REMARK    1  A    between atoms: C1_2  and  C2_3 
ROOT
ATOM      1  C2  UNL d   1       1.263   3.784   1.462  0.00  0.00    -0.073 A 
ATOM      2  C3  UNL d   1       0.124   4.597   1.448  0.00  0.00    -0.002 A 
ATOM      3  C4  UNL d   1      -1.054   4.171   2.062  0.00  0.00     0.004 A 
ATOM      4  C5  UNL d   1      -1.104   2.932   2.701  0.00  0.00    -0.004 A 
ATOM      5  C6  UNL d   1       0.027   2.110   2.736  0.00  0.00    -0.075 A 
ATOM      6  C7  UNL d   1      -0.012   0.774   3.417  0.00  0.00     0.076 C 
ATOM      7  C8  UNL d   1       1.205   2.544   2.115  0.00  0.00     0.001 A 
ENDROOT
BRANCH   1   8
ATOM      8  C1  UNL d   1       2.539   4.243   0.806  0.00  0.00     0.053 C 
ATOM      9  C   UNL d   1       3.242   5.319   1.618  0.00  0.00     0.018 C 
ENDBRANCH   1   8
TORSDOF 1
ENDMDL
