MODEL 1
REMARK minimizedAffinity 9.80126762
REMARK minimizedRMSD -1
REMARK  1 active torsions:
REMARK  status: ('A' for Active; 'I' for Inactive)
REMARK    1  A    between atoms: C1_2  and  C2_3 
ROOT
ATOM      1  C2  UNL d   1       2.082   4.045  -3.216  0.00  0.00    -0.073 A 
ATOM      2  C3  UNL d   1       1.133   3.317  -3.943  0.00  0.00    -0.002 A 
ATOM      3  C4  UNL d   1       1.043   3.463  -5.328  0.00  0.00     0.004 A 
ATOM      4  C5  UNL d   1       1.902   4.332  -6.000  0.00  0.00    -0.004 A 
ATOM      5  C6  UNL d   1       2.865   5.059  -5.292  0.00  0.00    -0.075 A 
ATOM      6  C7  UNL d   1       3.796   6.000  -6.000  0.00  0.00     0.076 C 
ATOM      7  C8  UNL d   1       2.948   4.909  -3.902  0.00  0.00     0.001 A 
ENDROOT
BRANCH   1   8
ATOM      8  C1  UNL d   1       2.188   3.885  -1.721  0.00  0.00     0.053 C 
ATOM      9  C   UNL d   1       3.524   3.290  -1.305  0.00  0.00     0.018 C 
ENDBRANCH   1   8
TORSDOF 1
ENDMDL
