MODEL 1
REMARK minimizedAffinity 2.79142833
REMARK minimizedRMSD -1
REMARK  1 active torsions:
REMARK  status: ('A' for Active; 'I' for Inactive)
REMARK    1  A    between atoms: C1_2  and  C2_3 
ROOT
ATOM      1  C2  UNL d   1      -2.978  -2.978  -3.510  0.00  0.00    -0.073 A 
ATOM      2  C3  UNL d   1      -4.136  -3.728  -3.277  0.00  0.00    -0.002 A 
ATOM      3  C4  UNL d   1      -4.770  -3.679  -2.035  0.00  0.00     0.004 A 
ATOM      4  C5  UNL d   1      -4.256  -2.876  -1.016  0.00  0.00    -0.004 A 
ATOM      5  C6  UNL d   1      -3.106  -2.110  -1.233  0.00  0.00    -0.075 A 
ATOM      6  C7  UNL d   1      -2.540  -1.243  -0.148  0.00  0.00     0.076 C 
ATOM      7  C8  UNL d   1      -2.474  -2.167  -2.483  0.00  0.00     0.001 A 
ENDROOT
BRANCH   1   8
ATOM      8  C1  UNL d   1      -2.294  -3.023  -4.852  0.00  0.00     0.053 C 
ATOM      9  C   UNL d   1      -3.291  -3.038  -6.000  0.00  0.00     0.018 C 
ENDBRANCH   1   8
TORSDOF 1
ENDMDL
