MODEL 1
REMARK minimizedAffinity 4.13970137
REMARK minimizedRMSD -1
REMARK  1 active torsions:
REMARK  status: ('A' for Active; 'I' for Inactive)
REMARK    1  A    between atoms: C1_2  and  C2_3 
ROOT
ATOM      1  C2  UNL d   1       0.093   4.532  -0.617  0.00  0.00    -0.073 A 
ATOM      2  C3  UNL d   1       0.110   4.925   0.726  0.00  0.00    -0.002 A 
ATOM      3  C4  UNL d   1       1.257   4.744   1.499  0.00  0.00     0.004 A 
ATOM      4  C5  UNL d   1       2.401   4.177   0.936  0.00  0.00    -0.004 A 
ATOM      5  C6  UNL d   1       2.408   3.789  -0.407  0.00  0.00    -0.075 A 
ATOM      6  C7  UNL d   1       3.629   3.176  -1.027  0.00  0.00     0.076 C 
ATOM      7  C8  UNL d   1       1.250   3.972  -1.177  0.00  0.00     0.001 A 
ENDROOT
BRANCH   1   8
ATOM      8  C1  UNL d   1      -1.141   4.732  -1.458  0.00  0.00     0.053 C 
ATOM      9  C   UNL d   1      -1.891   5.999  -1.078  0.00  0.00     0.018 C 
ENDBRANCH   1   8
TORSDOF 1
ENDMDL
