MODEL 1
REMARK minimizedAffinity -4.29480028
REMARK minimizedRMSD -1
REMARK  3 active torsions:
REMARK  status: ('A' for Active; 'I' for Inactive)
REMARK    1  A    between atoms: C3'_2  and  C2'_3 
REMARK    2  A    between atoms: C2'_3  and  C1'_4 
REMARK    3  A    between atoms: C1'_4  and  C1_5 
ROOT
ATOM      1  C1  N4B d   1       0.646  -1.513  -0.941  0.00  0.00    -0.075 A 
ATOM      2  C2  N4B d   1      -0.517  -1.682  -1.725  0.00  0.00     0.002 A 
ATOM      3  C3  N4B d   1      -0.599  -2.724  -2.615  0.00  0.00     0.002 A 
ATOM      4  C4  N4B d   1       0.471  -3.595  -2.752  0.00  0.00    -0.004 A 
ATOM      5  C5  N4B d   1       1.580  -3.441  -1.973  0.00  0.00     0.002 A 
ATOM      6  C6  N4B d   1       1.675  -2.400  -1.071  0.00  0.00     0.002 A 
ENDROOT
BRANCH   1   7
ATOM      7  C1' N4B d   1       0.817  -0.339  -0.016  0.00  0.00     0.057 C 
BRANCH   7   8
ATOM      8  C2' N4B d   1       0.345  -0.730   1.381  0.00  0.00     0.009 C 
BRANCH   8   9
ATOM      9  C3' N4B d   1      -1.060  -0.228   1.667  0.00  0.00     0.004 C 
ATOM     10  C4' N4B d   1      -1.080   1.177   2.190  0.00  0.00     0.003 C 
ENDBRANCH   8   9
ENDBRANCH   7   8
ENDBRANCH   1   7
TORSDOF 3
ENDMDL
