MODEL 1
REMARK minimizedAffinity -0.701674402
REMARK minimizedRMSD -1
REMARK  3 active torsions:
REMARK  status: ('A' for Active; 'I' for Inactive)
REMARK    1  A    between atoms: C3'_2  and  C2'_3 
REMARK    2  A    between atoms: C2'_3  and  C1'_4 
REMARK    3  A    between atoms: C1'_4  and  C1_5 
ROOT
ATOM      1  C1  N4B d   1       0.077   1.210  -0.204  0.00  0.00    -0.075 A 
ATOM      2  C2  N4B d   1      -0.564   0.844   1.000  0.00  0.00     0.002 A 
ATOM      3  C3  N4B d   1      -1.096   1.811   1.816  0.00  0.00     0.002 A 
ATOM      4  C4  N4B d   1      -0.983   3.147   1.461  0.00  0.00    -0.004 A 
ATOM      5  C5  N4B d   1      -0.385   3.491   0.284  0.00  0.00     0.002 A 
ATOM      6  C6  N4B d   1       0.151   2.529  -0.548  0.00  0.00     0.002 A 
ENDROOT
BRANCH   1   7
ATOM      7  C1' N4B d   1       0.749   0.194  -1.087  0.00  0.00     0.057 C 
BRANCH   7   8
ATOM      8  C2' N4B d   1       1.048  -1.059  -0.270  0.00  0.00     0.009 C 
BRANCH   8   9
ATOM      9  C3' N4B d   1       1.667  -2.156  -1.119  0.00  0.00     0.004 C 
ATOM     10  C4' N4B d   1       0.645  -2.947  -1.881  0.00  0.00     0.003 C 
ENDBRANCH   8   9
ENDBRANCH   7   8
ENDBRANCH   1   7
TORSDOF 3
ENDMDL
