MODEL 1
REMARK minimizedAffinity -4.92963839
REMARK minimizedRMSD -1
REMARK  3 active torsions:
REMARK  status: ('A' for Active; 'I' for Inactive)
REMARK    1  A    between atoms: C3'_2  and  C2'_3 
REMARK    2  A    between atoms: C2'_3  and  C1'_4 
REMARK    3  A    between atoms: C1'_4  and  C1_5 
ROOT
ATOM      1  C1  N4B d   1      -0.224   0.499   0.434  0.00  0.00    -0.075 A 
ATOM      2  C2  N4B d   1      -0.953   0.787   1.609  0.00  0.00     0.002 A 
ATOM      3  C3  N4B d   1      -1.347   2.075   1.874  0.00  0.00     0.002 A 
ATOM      4  C4  N4B d   1      -1.008   3.091   0.993  0.00  0.00    -0.004 A 
ATOM      5  C5  N4B d   1      -0.326   2.801  -0.152  0.00  0.00     0.002 A 
ATOM      6  C6  N4B d   1       0.073   1.510  -0.434  0.00  0.00     0.002 A 
ENDROOT
BRANCH   1   7
ATOM      7  C1' N4B d   1       0.303  -0.880   0.143  0.00  0.00     0.057 C 
BRANCH   7   8
ATOM      8  C2' N4B d   1       1.052  -0.860  -1.186  0.00  0.00     0.009 C 
BRANCH   8   9
ATOM      9  C3' N4B d   1       1.036  -2.217  -1.868  0.00  0.00     0.004 C 
ATOM     10  C4' N4B d   1       0.707  -2.129  -3.328  0.00  0.00     0.003 C 
ENDBRANCH   8   9
ENDBRANCH   7   8
ENDBRANCH   1   7
TORSDOF 3
ENDMDL
