MODEL 1
REMARK minimizedAffinity -5.31234789
REMARK minimizedRMSD -1
REMARK  3 active torsions:
REMARK  status: ('A' for Active; 'I' for Inactive)
REMARK    1  A    between atoms: C3'_2  and  C2'_3 
REMARK    2  A    between atoms: C2'_3  and  C1'_4 
REMARK    3  A    between atoms: C1'_4  and  C1_5 
ROOT
ATOM      1  C1  N4B d   1      -0.453   0.619   0.676  0.00  0.00    -0.075 A 
ATOM      2  C2  N4B d   1      -1.230   1.054   1.773  0.00  0.00     0.002 A 
ATOM      3  C3  N4B d   1      -1.722   2.335   1.800  0.00  0.00     0.002 A 
ATOM      4  C4  N4B d   1      -1.436   3.202   0.756  0.00  0.00    -0.004 A 
ATOM      5  C5  N4B d   1      -0.707   2.766  -0.312  0.00  0.00     0.002 A 
ATOM      6  C6  N4B d   1      -0.209   1.480  -0.354  0.00  0.00     0.002 A 
ENDROOT
BRANCH   1   7
ATOM      7  C1' N4B d   1       0.179  -0.746   0.642  0.00  0.00     0.057 C 
BRANCH   7   8
ATOM      8  C2' N4B d   1       1.041  -0.868  -0.611  0.00  0.00     0.009 C 
BRANCH   8   9
ATOM      9  C3' N4B d   1       1.043  -2.282  -1.164  0.00  0.00     0.004 C 
ATOM     10  C4' N4B d   1       0.521  -2.358  -2.567  0.00  0.00     0.003 C 
ENDBRANCH   8   9
ENDBRANCH   7   8
ENDBRANCH   1   7
TORSDOF 3
ENDMDL
