MODEL 1
REMARK minimizedAffinity -4.2936821
REMARK minimizedRMSD -1
REMARK  3 active torsions:
REMARK  status: ('A' for Active; 'I' for Inactive)
REMARK    1  A    between atoms: C3'_2  and  C2'_3 
REMARK    2  A    between atoms: C2'_3  and  C1'_4 
REMARK    3  A    between atoms: C1'_4  and  C1_5 
ROOT
ATOM      1  C1  N4B d   1      -0.172   0.622   0.306  0.00  0.00    -0.075 A 
ATOM      2  C2  N4B d   1       0.271   1.803  -0.330  0.00  0.00     0.002 A 
ATOM      3  C3  N4B d   1       0.041   3.024   0.254  0.00  0.00     0.002 A 
ATOM      4  C4  N4B d   1      -0.641   3.091   1.459  0.00  0.00    -0.004 A 
ATOM      5  C5  N4B d   1      -1.043   1.945   2.080  0.00  0.00     0.002 A 
ATOM      6  C6  N4B d   1      -0.816   0.710   1.506  0.00  0.00     0.002 A 
ENDROOT
BRANCH   1   7
ATOM      7  C1' N4B d   1      -0.020  -0.730  -0.335  0.00  0.00     0.057 C 
BRANCH   7   8
ATOM      8  C2' N4B d   1       1.370  -0.837  -0.955  0.00  0.00     0.009 C 
BRANCH   8   9
ATOM      9  C3' N4B d   1       1.551  -2.135  -1.723  0.00  0.00     0.004 C 
ATOM     10  C4' N4B d   1       0.260  -2.676  -2.263  0.00  0.00     0.003 C 
ENDBRANCH   8   9
ENDBRANCH   7   8
ENDBRANCH   1   7
TORSDOF 3
ENDMDL
