MODEL 1
REMARK minimizedAffinity -1.85657394
REMARK minimizedRMSD -1
REMARK  3 active torsions:
REMARK  status: ('A' for Active; 'I' for Inactive)
REMARK    1  A    between atoms: C3'_2  and  C2'_3 
REMARK    2  A    between atoms: C2'_3  and  C1'_4 
REMARK    3  A    between atoms: C1'_4  and  C1_5 
ROOT
ATOM      1  C1  N4B d   1       0.183  -0.673   0.209  0.00  0.00    -0.075 A 
ATOM      2  C2  N4B d   1       0.092  -1.355   1.442  0.00  0.00     0.002 A 
ATOM      3  C3  N4B d   1      -0.546  -0.767   2.506  0.00  0.00     0.002 A 
ATOM      4  C4  N4B d   1      -1.083   0.504   2.367  0.00  0.00    -0.004 A 
ATOM      5  C5  N4B d   1      -1.013   1.146   1.165  0.00  0.00     0.002 A 
ATOM      6  C6  N4B d   1      -0.378   0.566   0.086  0.00  0.00     0.002 A 
ENDROOT
BRANCH   1   7
ATOM      7  C1' N4B d   1       0.945  -1.239  -0.958  0.00  0.00     0.057 C 
BRANCH   7   8
ATOM      8  C2' N4B d   1       1.167  -2.732  -0.734  0.00  0.00     0.009 C 
BRANCH   8   9
ATOM      9  C3' N4B d   1       0.424  -3.576  -1.756  0.00  0.00     0.004 C 
ATOM     10  C4' N4B d   1      -0.126  -2.764  -2.890  0.00  0.00     0.003 C 
ENDBRANCH   8   9
ENDBRANCH   7   8
ENDBRANCH   1   7
TORSDOF 3
ENDMDL
