MODEL 1
REMARK minimizedAffinity -3.13653111
REMARK minimizedRMSD -1
REMARK  3 active torsions:
REMARK  status: ('A' for Active; 'I' for Inactive)
REMARK    1  A    between atoms: C3'_2  and  C2'_3 
REMARK    2  A    between atoms: C2'_3  and  C1'_4 
REMARK    3  A    between atoms: C1'_4  and  C1_5 
ROOT
ATOM      1  C1  N4B d   1      -0.184   0.551   1.446  0.00  0.00    -0.075 A 
ATOM      2  C2  N4B d   1       0.332   0.903   0.180  0.00  0.00     0.002 A 
ATOM      3  C3  N4B d   1       1.029  -0.021  -0.559  0.00  0.00     0.002 A 
ATOM      4  C4  N4B d   1       1.238  -1.293  -0.046  0.00  0.00    -0.004 A 
ATOM      5  C5  N4B d   1       0.715  -1.632   1.167  0.00  0.00     0.002 A 
ATOM      6  C6  N4B d   1       0.009  -0.715   1.919  0.00  0.00     0.002 A 
ENDROOT
BRANCH   1   7
ATOM      7  C1' N4B d   1      -0.878   1.553   2.328  0.00  0.00     0.057 C 
BRANCH   7   8
ATOM      8  C2' N4B d   1      -0.030   2.818   2.412  0.00  0.00     0.009 C 
BRANCH   8   9
ATOM      9  C3' N4B d   1      -0.618   3.953   1.591  0.00  0.00     0.004 C 
ATOM     10  C4' N4B d   1       0.300   4.418   0.500  0.00  0.00     0.003 C 
ENDBRANCH   8   9
ENDBRANCH   7   8
ENDBRANCH   1   7
TORSDOF 3
ENDMDL
