MODEL 1
REMARK minimizedAffinity -5.35148239
REMARK minimizedRMSD -1
REMARK  3 active torsions:
REMARK  status: ('A' for Active; 'I' for Inactive)
REMARK    1  A    between atoms: C3'_2  and  C2'_3 
REMARK    2  A    between atoms: C2'_3  and  C1'_4 
REMARK    3  A    between atoms: C1'_4  and  C1_5 
ROOT
ATOM      1  C1  N4B d   1       0.501  -1.507  -0.172  0.00  0.00    -0.075 A 
ATOM      2  C2  N4B d   1       1.573  -2.251  -0.712  0.00  0.00     0.002 A 
ATOM      3  C3  N4B d   1       1.407  -2.938  -1.889  0.00  0.00     0.002 A 
ATOM      4  C4  N4B d   1       0.178  -2.911  -2.532  0.00  0.00    -0.004 A 
ATOM      5  C5  N4B d   1      -0.844  -2.170  -2.017  0.00  0.00     0.002 A 
ATOM      6  C6  N4B d   1      -0.691  -1.471  -0.836  0.00  0.00     0.002 A 
ENDROOT
BRANCH   1   7
ATOM      7  C1' N4B d   1       0.608  -0.810   1.157  0.00  0.00     0.057 C 
BRANCH   7   8
ATOM      8  C2' N4B d   1      -0.632  -1.124   1.989  0.00  0.00     0.009 C 
BRANCH   8   9
ATOM      9  C3' N4B d   1      -1.390   0.135   2.375  0.00  0.00     0.004 C 
ATOM     10  C4' N4B d   1      -0.718   1.387   1.899  0.00  0.00     0.003 C 
ENDBRANCH   8   9
ENDBRANCH   7   8
ENDBRANCH   1   7
TORSDOF 3
ENDMDL
