MODEL 1
REMARK minimizedAffinity -4.65079832
REMARK minimizedRMSD -1
REMARK  3 active torsions:
REMARK  status: ('A' for Active; 'I' for Inactive)
REMARK    1  A    between atoms: C3'_2  and  C2'_3 
REMARK    2  A    between atoms: C2'_3  and  C1'_4 
REMARK    3  A    between atoms: C1'_4  and  C1_5 
ROOT
ATOM      1  C1  N4B d   1       0.874  -1.679  -1.401  0.00  0.00    -0.075 A 
ATOM      2  C2  N4B d   1       0.961  -2.915  -0.723  0.00  0.00     0.002 A 
ATOM      3  C3  N4B d   1       0.350  -4.029  -1.245  0.00  0.00     0.002 A 
ATOM      4  C4  N4B d   1      -0.366  -3.927  -2.428  0.00  0.00    -0.004 A 
ATOM      5  C5  N4B d   1      -0.425  -2.736  -3.090  0.00  0.00     0.002 A 
ATOM      6  C6  N4B d   1       0.188  -1.609  -2.579  0.00  0.00     0.002 A 
ENDROOT
BRANCH   1   7
ATOM      7  C1' N4B d   1       1.452  -0.416  -0.825  0.00  0.00     0.057 C 
BRANCH   7   8
ATOM      8  C2' N4B d   1       0.364   0.330  -0.059  0.00  0.00     0.009 C 
BRANCH   8   9
ATOM      9  C3' N4B d   1       0.382  -0.004   1.423  0.00  0.00     0.004 C 
ATOM     10  C4' N4B d   1      -0.886  -0.658   1.886  0.00  0.00     0.003 C 
ENDBRANCH   8   9
ENDBRANCH   7   8
ENDBRANCH   1   7
TORSDOF 3
ENDMDL
