MODEL 1
REMARK minimizedAffinity -3.78845501
REMARK minimizedRMSD -1
REMARK  3 active torsions:
REMARK  status: ('A' for Active; 'I' for Inactive)
REMARK    1  A    between atoms: C3'_2  and  C2'_3 
REMARK    2  A    between atoms: C2'_3  and  C1'_4 
REMARK    3  A    between atoms: C1'_4  and  C1_5 
ROOT
ATOM      1  C1  N4B d   1       0.662  -1.339  -0.990  0.00  0.00    -0.075 A 
ATOM      2  C2  N4B d   1       1.563  -2.421  -0.877  0.00  0.00     0.002 A 
ATOM      3  C3  N4B d   1       1.296  -3.606  -1.517  0.00  0.00     0.002 A 
ATOM      4  C4  N4B d   1       0.130  -3.740  -2.256  0.00  0.00    -0.004 A 
ATOM      5  C5  N4B d   1      -0.723  -2.682  -2.381  0.00  0.00     0.002 A 
ATOM      6  C6  N4B d   1      -0.465  -1.483  -1.747  0.00  0.00     0.002 A 
ENDROOT
BRANCH   1   7
ATOM      7  C1' N4B d   1       0.868  -0.052  -0.239  0.00  0.00     0.057 C 
BRANCH   7   8
ATOM      8  C2' N4B d   1       0.502  -0.264   1.227  0.00  0.00     0.009 C 
BRANCH   8   9
ATOM      9  C3' N4B d   1      -0.895   0.241   1.543  0.00  0.00     0.004 C 
ATOM     10  C4' N4B d   1      -0.903   1.658   2.036  0.00  0.00     0.003 C 
ENDBRANCH   8   9
ENDBRANCH   7   8
ENDBRANCH   1   7
TORSDOF 3
ENDMDL
