MODEL 1
REMARK minimizedAffinity -4.48464966
REMARK minimizedRMSD -1
REMARK  2 active torsions:
REMARK  status: ('A' for Active; 'I' for Inactive)
REMARK    1  A    between atoms: C1_2  and  C2_3 
REMARK    2  A    between atoms: C2_3  and  C3_4 
ROOT
ATOM      1  C3  UNL d   1       0.340  -0.652   0.172  0.00  0.00    -0.075 A 
ATOM      2  C4  UNL d   1      -0.951  -0.637  -0.374  0.00  0.00     0.002 A 
ATOM      3  C5  UNL d   1      -2.001  -0.018   0.305  0.00  0.00     0.002 A 
ATOM      4  C6  UNL d   1      -1.776   0.585   1.540  0.00  0.00    -0.004 A 
ATOM      5  C7  UNL d   1      -0.501   0.562   2.100  0.00  0.00     0.002 A 
ATOM      6  C8  UNL d   1       0.553  -0.053   1.421  0.00  0.00     0.002 A 
ENDROOT
BRANCH   1   7
ATOM      7  C2  UNL d   1       1.487  -1.295  -0.571  0.00  0.00     0.056 C 
BRANCH   7   8
ATOM      8  C1  UNL d   1       1.496  -1.004  -2.075  0.00  0.00     0.007 C 
ATOM      9  C   UNL d   1       1.908   0.424  -2.408  0.00  0.00     0.009 C 
ENDBRANCH   7   8
ENDBRANCH   1   7
TORSDOF 2
ENDMDL
