MODEL 1
REMARK minimizedAffinity -6.56581688
REMARK minimizedRMSD -1
REMARK  2 active torsions:
REMARK  status: ('A' for Active; 'I' for Inactive)
REMARK    1  A    between atoms: C1_2  and  C2_3 
REMARK    2  A    between atoms: C2_3  and  C3_4 
ROOT
ATOM      1  C3  UNL d   1       0.639   0.132  -0.544  0.00  0.00    -0.075 A 
ATOM      2  C4  UNL d   1       0.480   1.246  -1.380  0.00  0.00     0.002 A 
ATOM      3  C5  UNL d   1       1.483   1.605  -2.281  0.00  0.00     0.002 A 
ATOM      4  C6  UNL d   1       2.660   0.863  -2.350  0.00  0.00    -0.004 A 
ATOM      5  C7  UNL d   1       2.836  -0.237  -1.512  0.00  0.00     0.002 A 
ATOM      6  C8  UNL d   1       1.832  -0.601  -0.613  0.00  0.00     0.002 A 
ENDROOT
BRANCH   1   7
ATOM      7  C2  UNL d   1      -0.455  -0.280   0.412  0.00  0.00     0.056 C 
BRANCH   7   8
ATOM      8  C1  UNL d   1      -1.697   0.616   0.361  0.00  0.00     0.007 C 
ATOM      9  C   UNL d   1      -2.443   0.684   1.687  0.00  0.00     0.009 C 
ENDBRANCH   7   8
ENDBRANCH   1   7
TORSDOF 2
ENDMDL
