MODEL 1
REMARK minimizedAffinity -6.31569004
REMARK minimizedRMSD -1
REMARK  2 active torsions:
REMARK  status: ('A' for Active; 'I' for Inactive)
REMARK    1  A    between atoms: C1_2  and  C2_3 
REMARK    2  A    between atoms: C2_3  and  C3_4 
ROOT
ATOM      1  C3  UNL d   1       0.858   0.106  -0.445  0.00  0.00    -0.075 A 
ATOM      2  C4  UNL d   1       0.592   0.938  -1.543  0.00  0.00     0.002 A 
ATOM      3  C5  UNL d   1       1.628   1.370  -2.371  0.00  0.00     0.002 A 
ATOM      4  C6  UNL d   1       2.941   0.986  -2.107  0.00  0.00    -0.004 A 
ATOM      5  C7  UNL d   1       3.218   0.174  -1.010  0.00  0.00     0.002 A 
ATOM      6  C8  UNL d   1       2.183  -0.264  -0.182  0.00  0.00     0.002 A 
ENDROOT
BRANCH   1   7
ATOM      7  C2  UNL d   1      -0.263  -0.389   0.438  0.00  0.00     0.056 C 
BRANCH   7   8
ATOM      8  C1  UNL d   1      -1.375   0.640   0.670  0.00  0.00     0.007 C 
ATOM      9  C   UNL d   1      -1.459   1.119   2.113  0.00  0.00     0.009 C 
ENDBRANCH   7   8
ENDBRANCH   1   7
TORSDOF 2
ENDMDL
