MODEL 1
REMARK minimizedAffinity -4.97416592
REMARK minimizedRMSD -1
REMARK  2 active torsions:
REMARK  status: ('A' for Active; 'I' for Inactive)
REMARK    1  A    between atoms: C1_2  and  C2_3 
REMARK    2  A    between atoms: C2_3  and  C3_4 
ROOT
ATOM      1  C3  UNL d   1      -0.460  -0.017  -0.300  0.00  0.00    -0.075 A 
ATOM      2  C4  UNL d   1       0.424  -1.089  -0.482  0.00  0.00     0.002 A 
ATOM      3  C5  UNL d   1       1.417  -1.031  -1.460  0.00  0.00     0.002 A 
ATOM      4  C6  UNL d   1       1.532   0.094  -2.274  0.00  0.00    -0.004 A 
ATOM      5  C7  UNL d   1       0.648   1.159  -2.113  0.00  0.00     0.002 A 
ATOM      6  C8  UNL d   1      -0.344   1.105  -1.132  0.00  0.00     0.002 A 
ENDROOT
BRANCH   1   7
ATOM      7  C2  UNL d   1      -1.518  -0.061   0.777  0.00  0.00     0.056 C 
BRANCH   7   8
ATOM      8  C1  UNL d   1      -1.156   0.726   2.040  0.00  0.00     0.007 C 
ATOM      9  C   UNL d   1      -2.246   0.690   3.103  0.00  0.00     0.009 C 
ENDBRANCH   7   8
ENDBRANCH   1   7
TORSDOF 2
ENDMDL
