MODEL 1
REMARK minimizedAffinity -5.78060818
REMARK minimizedRMSD -1
REMARK  2 active torsions:
REMARK  status: ('A' for Active; 'I' for Inactive)
REMARK    1  A    between atoms: C1_2  and  C2_3 
REMARK    2  A    between atoms: C2_3  and  C3_4 
ROOT
ATOM      1  C3  UNL d   1       1.500  -0.092  -0.782  0.00  0.00    -0.075 A 
ATOM      2  C4  UNL d   1       1.289   1.154  -1.392  0.00  0.00     0.002 A 
ATOM      3  C5  UNL d   1       2.226   1.671  -2.287  0.00  0.00     0.002 A 
ATOM      4  C6  UNL d   1       3.387   0.958  -2.575  0.00  0.00    -0.004 A 
ATOM      5  C7  UNL d   1       3.614  -0.273  -1.963  0.00  0.00     0.002 A 
ATOM      6  C8  UNL d   1       2.677  -0.795  -1.070  0.00  0.00     0.002 A 
ENDROOT
BRANCH   1   7
ATOM      7  C2  UNL d   1       0.476  -0.671   0.165  0.00  0.00     0.056 C 
BRANCH   7   8
ATOM      8  C1  UNL d   1      -0.849   0.098   0.197  0.00  0.00     0.007 C 
ATOM      9  C   UNL d   1      -1.093   0.818   1.516  0.00  0.00     0.009 C 
ENDBRANCH   7   8
ENDBRANCH   1   7
TORSDOF 2
ENDMDL
