MODEL 1
REMARK minimizedAffinity -5.58876085
REMARK minimizedRMSD -1
REMARK  2 active torsions:
REMARK  status: ('A' for Active; 'I' for Inactive)
REMARK    1  A    between atoms: C1_2  and  C2_3 
REMARK    2  A    between atoms: C2_3  and  C3_4 
ROOT
ATOM      1  C3  UNL d   1       1.084  -0.173  -1.003  0.00  0.00    -0.075 A 
ATOM      2  C4  UNL d   1       0.602   0.937  -1.711  0.00  0.00     0.002 A 
ATOM      3  C5  UNL d   1       1.464   1.709  -2.491  0.00  0.00     0.002 A 
ATOM      4  C6  UNL d   1       2.817   1.387  -2.565  0.00  0.00    -0.004 A 
ATOM      5  C7  UNL d   1       3.310   0.296  -1.853  0.00  0.00     0.002 A 
ATOM      6  C8  UNL d   1       2.449  -0.480  -1.075  0.00  0.00     0.002 A 
ENDROOT
BRANCH   1   7
ATOM      7  C2  UNL d   1       0.151  -1.030  -0.181  0.00  0.00     0.056 C 
BRANCH   7   8
ATOM      8  C1  UNL d   1      -1.122  -0.308   0.272  0.00  0.00     0.007 C 
ATOM      9  C   UNL d   1      -0.946   0.461   1.574  0.00  0.00     0.009 C 
ENDBRANCH   7   8
ENDBRANCH   1   7
TORSDOF 2
ENDMDL
