MODEL 1
REMARK minimizedAffinity -6.38251638
REMARK minimizedRMSD -1
REMARK  2 active torsions:
REMARK  status: ('A' for Active; 'I' for Inactive)
REMARK    1  A    between atoms: C1_2  and  C2_3 
REMARK    2  A    between atoms: C2_3  and  C3_4 
ROOT
ATOM      1  C3  UNL d   1       0.798   0.181  -0.518  0.00  0.00    -0.075 A 
ATOM      2  C4  UNL d   1       1.942  -0.605  -0.317  0.00  0.00     0.002 A 
ATOM      3  C5  UNL d   1       3.056  -0.458  -1.143  0.00  0.00     0.002 A 
ATOM      4  C6  UNL d   1       3.038   0.467  -2.184  0.00  0.00    -0.004 A 
ATOM      5  C7  UNL d   1       1.901   1.242  -2.404  0.00  0.00     0.002 A 
ATOM      6  C8  UNL d   1       0.786   1.100  -1.576  0.00  0.00     0.002 A 
ENDROOT
BRANCH   1   7
ATOM      7  C2  UNL d   1      -0.401   0.047   0.391  0.00  0.00     0.056 C 
BRANCH   7   8
ATOM      8  C1  UNL d   1      -0.483   1.124   1.477  0.00  0.00     0.007 C 
ATOM      9  C   UNL d   1      -1.085   0.617   2.781  0.00  0.00     0.009 C 
ENDBRANCH   7   8
ENDBRANCH   1   7
TORSDOF 2
ENDMDL
