MODEL 1
REMARK minimizedAffinity -0.189505443
REMARK minimizedRMSD -1
REMARK  0 active torsions:
REMARK  status: ('A' for Active; 'I' for Inactive)
ROOT
ATOM      1  C   UNL d   1      -2.168   1.134   2.217  0.00  0.00    -0.002 A 
ATOM      2  C1  UNL d   1      -1.157   0.545   2.963  0.00  0.00     0.010 A 
ATOM      3  C2  UNL d   1      -0.062  -0.049   2.332  0.00  0.00     0.041 A 
ATOM      4  C3  UNL d   1       0.001  -0.039   0.924  0.00  0.00    -0.075 A 
ATOM      5  S   UNL d   1       1.246  -0.705  -0.065  0.00  0.00     0.015 SA
ATOM      6  C4  UNL d   1       0.465  -0.222  -1.501  0.00  0.00     0.022 A 
ATOM      7  C5  UNL d   1      -0.718   0.432  -1.251  0.00  0.00     0.026 A 
ATOM      8  C6  UNL d   1      -1.005   0.549   0.151  0.00  0.00    -0.082 A 
ATOM      9  C7  UNL d   1      -2.102   1.142   0.821  0.00  0.00     0.045 A 
ENDROOT
TORSDOF 0
ENDMDL
