MODEL 1
REMARK minimizedAffinity -0.526639521
REMARK minimizedRMSD -1
REMARK  0 active torsions:
REMARK  status: ('A' for Active; 'I' for Inactive)
ROOT
ATOM      1  C   UNL d   1       0.382  -1.005  -1.566  0.00  0.00    -0.002 A 
ATOM      2  C1  UNL d   1       0.932  -0.002  -2.353  0.00  0.00     0.010 A 
ATOM      3  C2  UNL d   1       0.755  -0.009  -3.738  0.00  0.00     0.041 A 
ATOM      4  C3  UNL d   1       0.008  -1.049  -4.325  0.00  0.00    -0.075 A 
ATOM      5  S   UNL d   1      -0.339  -1.262  -6.000  0.00  0.00     0.015 SA
ATOM      6  C4  UNL d   1      -1.227  -2.688  -5.711  0.00  0.00     0.022 A 
ATOM      7  C5  UNL d   1      -1.267  -3.008  -4.375  0.00  0.00     0.026 A 
ATOM      8  C6  UNL d   1      -0.556  -2.069  -3.554  0.00  0.00    -0.082 A 
ATOM      9  C7  UNL d   1      -0.359  -2.035  -2.152  0.00  0.00     0.045 A 
ENDROOT
TORSDOF 0
ENDMDL
