MODEL 1
REMARK minimizedAffinity 3.15450215
REMARK minimizedRMSD -1
REMARK  0 active torsions:
REMARK  status: ('A' for Active; 'I' for Inactive)
ROOT
ATOM      1  C   UNL d   1      -3.900   0.704  -1.022  0.00  0.00    -0.002 A 
ATOM      2  C1  UNL d   1      -3.159  -0.420  -1.361  0.00  0.00     0.010 A 
ATOM      3  C2  UNL d   1      -2.108  -0.849  -0.548  0.00  0.00     0.041 A 
ATOM      4  C3  UNL d   1      -1.813  -0.124   0.623  0.00  0.00    -0.075 A 
ATOM      5  S   UNL d   1      -0.572  -0.464   1.771  0.00  0.00     0.015 SA
ATOM      6  C4  UNL d   1      -0.996   0.874   2.738  0.00  0.00     0.022 A 
ATOM      7  C5  UNL d   1      -2.057   1.574   2.213  0.00  0.00     0.026 A 
ATOM      8  C6  UNL d   1      -2.545   1.010   0.986  0.00  0.00    -0.082 A 
ATOM      9  C7  UNL d   1      -3.604   1.420   0.140  0.00  0.00     0.045 A 
ENDROOT
TORSDOF 0
ENDMDL
