MODEL 1
REMARK minimizedAffinity -1.7326715
REMARK minimizedRMSD -1
REMARK  0 active torsions:
REMARK  status: ('A' for Active; 'I' for Inactive)
ROOT
ATOM      1  C   UNL d   1      -4.882   2.372   1.173  0.00  0.00     0.172 C 
ATOM      2  N   UNL d   1      -5.191   3.735   1.537  0.00  0.00    -0.070 N 
ATOM      3  C1  UNL d   1      -5.937   4.123   2.618  0.00  0.00    -0.004 A 
ATOM      4  C2  UNL d   1      -6.000   5.499   2.616  0.00  0.00    -0.047 A 
ATOM      5  C3  UNL d   1      -5.266   5.955   1.495  0.00  0.00    -0.047 A 
ATOM      6  C4  UNL d   1      -4.777   4.842   0.845  0.00  0.00    -0.004 A 
ENDROOT
TORSDOF 0
ENDMDL
