MODEL 1
REMARK minimizedAffinity -1.6434989
REMARK minimizedRMSD -1
REMARK  0 active torsions:
REMARK  status: ('A' for Active; 'I' for Inactive)
ROOT
ATOM      1  C   UNL d   1      -4.502   3.751   4.765  0.00  0.00     0.172 C 
ATOM      2  N   UNL d   1      -5.010   4.154   3.475  0.00  0.00    -0.070 N 
ATOM      3  C1  UNL d   1      -5.690   5.313   3.212  0.00  0.00    -0.004 A 
ATOM      4  C2  UNL d   1      -6.000   5.325   1.869  0.00  0.00    -0.047 A 
ATOM      5  C3  UNL d   1      -5.489   4.131   1.306  0.00  0.00    -0.047 A 
ATOM      6  C4  UNL d   1      -4.881   3.425   2.322  0.00  0.00    -0.004 A 
ENDROOT
TORSDOF 0
ENDMDL
