MODEL 1
REMARK minimizedAffinity -1.44522691
REMARK minimizedRMSD -1
REMARK  0 active torsions:
REMARK  status: ('A' for Active; 'I' for Inactive)
ROOT
ATOM      1  C   UNL d   1      -3.647  -0.757   0.194  0.00  0.00     0.172 C 
ATOM      2  N   UNL d   1      -2.222  -0.579   0.042  0.00  0.00    -0.070 N 
ATOM      3  C1  UNL d   1      -1.435  -1.202  -0.890  0.00  0.00    -0.004 A 
ATOM      4  C2  UNL d   1      -0.140  -0.766  -0.707  0.00  0.00    -0.047 A 
ATOM      5  C3  UNL d   1      -0.150   0.149   0.372  0.00  0.00    -0.047 A 
ATOM      6  C4  UNL d   1      -1.451   0.246   0.817  0.00  0.00    -0.004 A 
ENDROOT
TORSDOF 0
ENDMDL
