MODEL 1
REMARK minimizedAffinity -1.85207045
REMARK minimizedRMSD -1
REMARK  0 active torsions:
REMARK  status: ('A' for Active; 'I' for Inactive)
ROOT
ATOM      1  C   UNL d   1      -5.995   5.353   2.276  0.00  0.00     0.172 C 
ATOM      2  N   UNL d   1      -5.996   5.067   3.692  0.00  0.00    -0.070 N 
ATOM      3  C1  UNL d   1      -5.999   5.999   4.695  0.00  0.00    -0.004 A 
ATOM      4  C2  UNL d   1      -6.000   5.326   5.897  0.00  0.00    -0.047 A 
ATOM      5  C3  UNL d   1      -5.995   3.941   5.607  0.00  0.00    -0.047 A 
ATOM      6  C4  UNL d   1      -5.993   3.809   4.234  0.00  0.00    -0.004 A 
ENDROOT
TORSDOF 0
ENDMDL
