MODEL 1
REMARK minimizedAffinity -1.55638587
REMARK minimizedRMSD -1
REMARK  0 active torsions:
REMARK  status: ('A' for Active; 'I' for Inactive)
ROOT
ATOM      1  C   UNL d   1      -5.998   4.928   2.278  0.00  0.00     0.172 C 
ATOM      2  N   UNL d   1      -5.998   4.899   3.722  0.00  0.00    -0.070 N 
ATOM      3  C1  UNL d   1      -5.997   5.995   4.542  0.00  0.00    -0.004 A 
ATOM      4  C2  UNL d   1      -5.999   5.547   5.846  0.00  0.00    -0.047 A 
ATOM      5  C3  UNL d   1      -6.000   4.132   5.807  0.00  0.00    -0.047 A 
ATOM      6  C4  UNL d   1      -6.000   3.758   4.480  0.00  0.00    -0.004 A 
ENDROOT
TORSDOF 0
ENDMDL
