MODEL 1
REMARK minimizedAffinity -2.45968342
REMARK minimizedRMSD -1
REMARK  0 active torsions:
REMARK  status: ('A' for Active; 'I' for Inactive)
ROOT
ATOM      1  C   UNL d   1      -4.918   4.470   5.814  0.00  0.00     0.172 C 
ATOM      2  N   UNL d   1      -5.007   4.764   4.403  0.00  0.00    -0.070 N 
ATOM      3  C1  UNL d   1      -4.219   5.652   3.721  0.00  0.00    -0.004 A 
ATOM      4  C2  UNL d   1      -4.618   5.644   2.402  0.00  0.00    -0.047 A 
ATOM      5  C3  UNL d   1      -5.683   4.719   2.287  0.00  0.00    -0.047 A 
ATOM      6  C4  UNL d   1      -5.904   4.189   3.541  0.00  0.00    -0.004 A 
ENDROOT
TORSDOF 0
ENDMDL
