MODEL 1
REMARK minimizedAffinity -2.7100606
REMARK minimizedRMSD -1
REMARK  0 active torsions:
REMARK  status: ('A' for Active; 'I' for Inactive)
ROOT
ATOM      1  C   UNL d   1      -6.000   5.251   1.008  0.00  0.00     0.172 C 
ATOM      2  N   UNL d   1      -5.516   4.901   2.323  0.00  0.00    -0.070 N 
ATOM      3  C1  UNL d   1      -4.511   5.540   2.999  0.00  0.00    -0.004 A 
ATOM      4  C2  UNL d   1      -4.352   4.908   4.213  0.00  0.00    -0.047 A 
ATOM      5  C3  UNL d   1      -5.292   3.852   4.268  0.00  0.00    -0.047 A 
ATOM      6  C4  UNL d   1      -6.000   3.871   3.084  0.00  0.00    -0.004 A 
ENDROOT
TORSDOF 0
ENDMDL
