MODEL 1
REMARK minimizedAffinity -2.66394973
REMARK minimizedRMSD -1
REMARK  0 active torsions:
REMARK  status: ('A' for Active; 'I' for Inactive)
ROOT
ATOM      1  C   UNL d   1      -4.451   5.978   3.073  0.00  0.00     0.172 C 
ATOM      2  N   UNL d   1      -4.985   4.697   3.472  0.00  0.00    -0.070 N 
ATOM      3  C1  UNL d   1      -4.921   3.542   2.740  0.00  0.00    -0.004 A 
ATOM      4  C2  UNL d   1      -5.543   2.548   3.464  0.00  0.00    -0.047 A 
ATOM      5  C3  UNL d   1      -5.997   3.126   4.673  0.00  0.00    -0.047 A 
ATOM      6  C4  UNL d   1      -5.639   4.457   4.652  0.00  0.00    -0.004 A 
ENDROOT
TORSDOF 0
ENDMDL
