MODEL 1
REMARK minimizedAffinity -2.47214532
REMARK minimizedRMSD -1
REMARK  0 active torsions:
REMARK  status: ('A' for Active; 'I' for Inactive)
ROOT
ATOM      1  C   UNL d   1      -5.258   5.997   0.751  0.00  0.00     0.172 C 
ATOM      2  N   UNL d   1      -5.408   5.419   2.066  0.00  0.00    -0.070 N 
ATOM      3  C1  UNL d   1      -6.000   4.216   2.347  0.00  0.00    -0.004 A 
ATOM      4  C2  UNL d   1      -5.942   4.026   3.710  0.00  0.00    -0.047 A 
ATOM      5  C3  UNL d   1      -5.294   5.153   4.268  0.00  0.00    -0.047 A 
ATOM      6  C4  UNL d   1      -4.974   6.000   3.228  0.00  0.00    -0.004 A 
ENDROOT
TORSDOF 0
ENDMDL
