MODEL 1
REMARK minimizedAffinity -2.9090879
REMARK minimizedRMSD -1
REMARK  0 active torsions:
REMARK  status: ('A' for Active; 'I' for Inactive)
ROOT
ATOM      1  C   UNL d   1      -4.793   5.395   1.591  0.00  0.00     0.172 C 
ATOM      2  N   UNL d   1      -5.125   4.652   2.784  0.00  0.00    -0.070 N 
ATOM      3  C1  UNL d   1      -4.706   3.381   3.075  0.00  0.00    -0.004 A 
ATOM      4  C2  UNL d   1      -5.235   3.032   4.298  0.00  0.00    -0.047 A 
ATOM      5  C3  UNL d   1      -6.000   4.130   4.758  0.00  0.00    -0.047 A 
ATOM      6  C4  UNL d   1      -5.915   5.119   3.801  0.00  0.00    -0.004 A 
ENDROOT
TORSDOF 0
ENDMDL
