MODEL 1
REMARK minimizedAffinity -3.06768394
REMARK minimizedRMSD -1
REMARK  0 active torsions:
REMARK  status: ('A' for Active; 'I' for Inactive)
ROOT
ATOM      1  C   UNL d   1      -4.957   5.695   1.312  0.00  0.00     0.172 C 
ATOM      2  N   UNL d   1      -5.177   5.019   2.569  0.00  0.00    -0.070 N 
ATOM      3  C1  UNL d   1      -5.327   5.628   3.787  0.00  0.00    -0.004 A 
ATOM      4  C2  UNL d   1      -5.516   4.641   4.731  0.00  0.00    -0.047 A 
ATOM      5  C3  UNL d   1      -5.479   3.397   4.057  0.00  0.00    -0.047 A 
ATOM      6  C4  UNL d   1      -5.267   3.661   2.720  0.00  0.00    -0.004 A 
ENDROOT
TORSDOF 0
ENDMDL
