MODEL 1
REMARK minimizedAffinity -2.44225144
REMARK minimizedRMSD -1
REMARK  0 active torsions:
REMARK  status: ('A' for Active; 'I' for Inactive)
ROOT
ATOM      1  C   UNL d   1      -5.290   5.882   0.455  0.00  0.00     0.172 C 
ATOM      2  N   UNL d   1      -5.283   5.368   1.804  0.00  0.00    -0.070 N 
ATOM      3  C1  UNL d   1      -4.750   5.999   2.896  0.00  0.00    -0.004 A 
ATOM      4  C2  UNL d   1      -4.945   5.185   3.991  0.00  0.00    -0.047 A 
ATOM      5  C3  UNL d   1      -5.617   4.023   3.541  0.00  0.00    -0.047 A 
ATOM      6  C4  UNL d   1      -5.814   4.163   2.184  0.00  0.00    -0.004 A 
ENDROOT
TORSDOF 0
ENDMDL
