MODEL 1
REMARK minimizedAffinity -1.83446383
REMARK minimizedRMSD -1
REMARK  0 active torsions:
REMARK  status: ('A' for Active; 'I' for Inactive)
ROOT
ATOM      1  C   UNL d   1      -5.642   5.366   0.085  0.00  0.00     0.172 C 
ATOM      2  N   UNL d   1      -5.506   5.158   1.508  0.00  0.00    -0.070 N 
ATOM      3  C1  UNL d   1      -4.872   4.101   2.103  0.00  0.00    -0.004 A 
ATOM      4  C2  UNL d   1      -4.961   4.270   3.468  0.00  0.00    -0.047 A 
ATOM      5  C3  UNL d   1      -5.673   5.470   3.701  0.00  0.00    -0.047 A 
ATOM      6  C4  UNL d   1      -5.999   6.000   2.470  0.00  0.00    -0.004 A 
ENDROOT
TORSDOF 0
ENDMDL
