MODEL 1
REMARK minimizedAffinity -2.52368021
REMARK minimizedRMSD -1
REMARK  0 active torsions:
REMARK  status: ('A' for Active; 'I' for Inactive)
ROOT
ATOM      1  C   UNL d   1      -5.999   5.252   5.806  0.00  0.00     0.172 C 
ATOM      2  N   UNL d   1      -5.875   4.683   4.485  0.00  0.00    -0.070 N 
ATOM      3  C1  UNL d   1      -5.818   3.346   4.193  0.00  0.00    -0.004 A 
ATOM      4  C2  UNL d   1      -5.701   3.216   2.826  0.00  0.00    -0.047 A 
ATOM      5  C3  UNL d   1      -5.687   4.521   2.277  0.00  0.00    -0.047 A 
ATOM      6  C4  UNL d   1      -5.796   5.409   3.326  0.00  0.00    -0.004 A 
ENDROOT
TORSDOF 0
ENDMDL
