MODEL 1
REMARK minimizedAffinity -3.20995688
REMARK minimizedRMSD -1
REMARK  0 active torsions:
REMARK  status: ('A' for Active; 'I' for Inactive)
ROOT
ATOM      1  C   UNL d   1      -0.020   0.059  -0.011  0.00  0.00     0.078 C 
ATOM      2  C1  UNL d   1       0.679   1.344   0.315  0.00  0.00    -0.077 A 
ATOM      3  C2  UNL d   1      -0.001   2.567   0.270  0.00  0.00    -0.001 A 
ATOM      4  C3  UNL d   1       0.666   3.757   0.567  0.00  0.00     0.003 A 
ATOM      5  C4  UNL d   1       2.016   3.736   0.910  0.00  0.00    -0.005 A 
ATOM      6  C5  UNL d   1       2.702   2.524   0.955  0.00  0.00     0.003 A 
ATOM      7  C6  UNL d   1       2.037   1.333   0.659  0.00  0.00    -0.001 A 
ENDROOT
TORSDOF 0
ENDMDL
