MODEL 1
REMARK minimizedAffinity -4.20993614
REMARK minimizedRMSD -1
REMARK  0 active torsions:
REMARK  status: ('A' for Active; 'I' for Inactive)
ROOT
ATOM      1  C   UNL d   1      -1.548  -2.511   0.682  0.00  0.00     0.078 C 
ATOM      2  C1  UNL d   1      -0.896  -1.224   0.271  0.00  0.00    -0.077 A 
ATOM      3  C2  UNL d   1      -0.537  -0.991  -1.063  0.00  0.00    -0.001 A 
ATOM      4  C3  UNL d   1       0.077   0.207  -1.429  0.00  0.00     0.003 A 
ATOM      5  C4  UNL d   1       0.339   1.182  -0.469  0.00  0.00    -0.005 A 
ATOM      6  C5  UNL d   1      -0.013   0.958   0.861  0.00  0.00     0.003 A 
ATOM      7  C6  UNL d   1      -0.627  -0.240   1.230  0.00  0.00    -0.001 A 
ENDROOT
TORSDOF 0
ENDMDL
