MODEL 1
REMARK minimizedAffinity -2.22411275
REMARK minimizedRMSD -1
REMARK  0 active torsions:
REMARK  status: ('A' for Active; 'I' for Inactive)
ROOT
ATOM      1  C   UNL d   1       0.192   0.586   0.366  0.00  0.00     0.078 C 
ATOM      2  C1  UNL d   1      -0.020  -0.897   0.284  0.00  0.00    -0.077 A 
ATOM      3  C2  UNL d   1       0.868  -1.714  -0.426  0.00  0.00    -0.001 A 
ATOM      4  C3  UNL d   1       0.653  -3.091  -0.502  0.00  0.00     0.003 A 
ATOM      5  C4  UNL d   1      -0.451  -3.663   0.128  0.00  0.00    -0.005 A 
ATOM      6  C5  UNL d   1      -1.341  -2.857   0.834  0.00  0.00     0.003 A 
ATOM      7  C6  UNL d   1      -1.128  -1.480   0.912  0.00  0.00    -0.001 A 
ENDROOT
TORSDOF 0
ENDMDL
