MODEL 1
REMARK minimizedAffinity -2.24373269
REMARK minimizedRMSD -1
REMARK  0 active torsions:
REMARK  status: ('A' for Active; 'I' for Inactive)
ROOT
ATOM      1  C   UNL d   1      -0.768  -2.773   0.766  0.00  0.00     0.078 C 
ATOM      2  C1  UNL d   1      -0.631  -1.314   0.445  0.00  0.00    -0.077 A 
ATOM      3  C2  UNL d   1       0.156  -0.883  -0.630  0.00  0.00    -0.001 A 
ATOM      4  C3  UNL d   1       0.282   0.478  -0.912  0.00  0.00     0.003 A 
ATOM      5  C4  UNL d   1      -0.376   1.419  -0.122  0.00  0.00    -0.005 A 
ATOM      6  C5  UNL d   1      -1.159   1.000   0.951  0.00  0.00     0.003 A 
ATOM      7  C6  UNL d   1      -1.286  -0.361   1.234  0.00  0.00    -0.001 A 
ENDROOT
TORSDOF 0
ENDMDL
