MODEL 1
REMARK minimizedAffinity -4.8152914
REMARK minimizedRMSD -1
REMARK  0 active torsions:
REMARK  status: ('A' for Active; 'I' for Inactive)
ROOT
ATOM      1  C   UNL d   1       0.235  -3.105   0.374  0.00  0.00     0.078 C 
ATOM      2  C1  UNL d   1       0.254  -1.664  -0.041  0.00  0.00    -0.077 A 
ATOM      3  C2  UNL d   1      -0.219  -0.661   0.814  0.00  0.00    -0.001 A 
ATOM      4  C3  UNL d   1      -0.204   0.675   0.411  0.00  0.00     0.003 A 
ATOM      5  C4  UNL d   1       0.282   1.021  -0.848  0.00  0.00    -0.005 A 
ATOM      6  C5  UNL d   1       0.753   0.030  -1.707  0.00  0.00     0.003 A 
ATOM      7  C6  UNL d   1       0.739  -1.307  -1.305  0.00  0.00    -0.001 A 
ENDROOT
TORSDOF 0
ENDMDL
