MODEL 1
REMARK minimizedAffinity -3.36012983
REMARK minimizedRMSD -1
REMARK  0 active torsions:
REMARK  status: ('A' for Active; 'I' for Inactive)
ROOT
ATOM      1  C   UNL d   1       0.326   1.928   0.077  0.00  0.00     0.078 C 
ATOM      2  C1  UNL d   1       0.050   0.455   0.023  0.00  0.00    -0.077 A 
ATOM      3  C2  UNL d   1      -0.590  -0.198   1.084  0.00  0.00    -0.001 A 
ATOM      4  C3  UNL d   1      -0.833  -1.571   1.024  0.00  0.00     0.003 A 
ATOM      5  C4  UNL d   1      -0.438  -2.303  -0.094  0.00  0.00    -0.005 A 
ATOM      6  C5  UNL d   1       0.201  -1.662  -1.154  0.00  0.00     0.003 A 
ATOM      7  C6  UNL d   1       0.445  -0.289  -1.096  0.00  0.00    -0.001 A 
ENDROOT
TORSDOF 0
ENDMDL
