MODEL 1
REMARK minimizedAffinity -0.739412606
REMARK minimizedRMSD -1
REMARK  0 active torsions:
REMARK  status: ('A' for Active; 'I' for Inactive)
ROOT
ATOM      1  C   UNL d   1       4.705  -1.893  -3.651  0.00  0.00     0.078 C 
ATOM      2  C1  UNL d   1       5.148  -2.378  -2.303  0.00  0.00    -0.077 A 
ATOM      3  C2  UNL d   1       5.160  -1.520  -1.196  0.00  0.00    -0.001 A 
ATOM      4  C3  UNL d   1       5.584  -1.982   0.050  0.00  0.00     0.003 A 
ATOM      5  C4  UNL d   1       6.000  -3.303   0.203  0.00  0.00    -0.005 A 
ATOM      6  C5  UNL d   1       5.993  -4.164  -0.893  0.00  0.00     0.003 A 
ATOM      7  C6  UNL d   1       5.570  -3.703  -2.141  0.00  0.00    -0.001 A 
ENDROOT
TORSDOF 0
ENDMDL
