MODEL 1
REMARK minimizedAffinity -1.22627687
REMARK minimizedRMSD -1
REMARK  0 active torsions:
REMARK  status: ('A' for Active; 'I' for Inactive)
ROOT
ATOM      1  C   UNL d   1      -1.102  -2.579   0.424  0.00  0.00     0.078 C 
ATOM      2  C1  UNL d   1      -0.681  -1.192   0.038  0.00  0.00    -0.077 A 
ATOM      3  C2  UNL d   1      -0.795  -0.127   0.939  0.00  0.00    -0.001 A 
ATOM      4  C3  UNL d   1      -0.408   1.161   0.562  0.00  0.00     0.003 A 
ATOM      5  C4  UNL d   1       0.094   1.394  -0.716  0.00  0.00    -0.005 A 
ATOM      6  C5  UNL d   1       0.209   0.341  -1.621  0.00  0.00     0.003 A 
ATOM      7  C6  UNL d   1      -0.177  -0.947  -1.246  0.00  0.00    -0.001 A 
ENDROOT
TORSDOF 0
ENDMDL
