MODEL 1
REMARK minimizedAffinity -3.83150363
REMARK minimizedRMSD -1
REMARK  0 active torsions:
REMARK  status: ('A' for Active; 'I' for Inactive)
ROOT
ATOM      1  C   UNL d   1      -0.252  -2.935   0.302  0.00  0.00     0.078 C 
ATOM      2  C1  UNL d   1      -0.410  -1.476  -0.008  0.00  0.00    -0.077 A 
ATOM      3  C2  UNL d   1      -1.148  -0.636   0.834  0.00  0.00    -0.001 A 
ATOM      4  C3  UNL d   1      -1.294   0.718   0.528  0.00  0.00     0.003 A 
ATOM      5  C4  UNL d   1      -0.707   1.244  -0.621  0.00  0.00    -0.005 A 
ATOM      6  C5  UNL d   1       0.027   0.415  -1.466  0.00  0.00     0.003 A 
ATOM      7  C6  UNL d   1       0.175  -0.940  -1.162  0.00  0.00    -0.001 A 
ENDROOT
TORSDOF 0
ENDMDL
