MODEL 1
REMARK minimizedAffinity -3.37585998
REMARK minimizedRMSD -1
REMARK  0 active torsions:
REMARK  status: ('A' for Active; 'I' for Inactive)
ROOT
ATOM      1  C   UNL d   1       0.417   1.168  -0.711  0.00  0.00     0.078 C 
ATOM      2  C1  UNL d   1      -0.002  -0.265  -0.576  0.00  0.00    -0.077 A 
ATOM      3  C2  UNL d   1       0.096  -1.149  -1.658  0.00  0.00    -0.001 A 
ATOM      4  C3  UNL d   1      -0.307  -2.479  -1.521  0.00  0.00     0.003 A 
ATOM      5  C4  UNL d   1      -0.812  -2.936  -0.306  0.00  0.00    -0.005 A 
ATOM      6  C5  UNL d   1      -0.915  -2.063   0.775  0.00  0.00     0.003 A 
ATOM      7  C6  UNL d   1      -0.513  -0.733   0.641  0.00  0.00    -0.001 A 
ENDROOT
TORSDOF 0
ENDMDL
