MODEL 1
REMARK minimizedAffinity -3.40087557
REMARK minimizedRMSD -1
REMARK  0 active torsions:
REMARK  status: ('A' for Active; 'I' for Inactive)
ROOT
ATOM      1  C   UNL d   1       0.127   0.401   0.123  0.00  0.00     0.078 C 
ATOM      2  C1  UNL d   1       0.974   1.598   0.436  0.00  0.00    -0.077 A 
ATOM      3  C2  UNL d   1       2.236   1.453   1.027  0.00  0.00    -0.001 A 
ATOM      4  C3  UNL d   1       3.010   2.577   1.322  0.00  0.00     0.003 A 
ATOM      5  C4  UNL d   1       2.531   3.853   1.030  0.00  0.00    -0.005 A 
ATOM      6  C5  UNL d   1       1.277   4.006   0.443  0.00  0.00     0.003 A 
ATOM      7  C6  UNL d   1       0.501   2.884   0.148  0.00  0.00    -0.001 A 
ENDROOT
TORSDOF 0
ENDMDL
