MODEL 1
REMARK minimizedAffinity -4.47520208
REMARK minimizedRMSD -1
REMARK  0 active torsions:
REMARK  status: ('A' for Active; 'I' for Inactive)
ROOT
ATOM      1  C   UNL d   1       0.099  -2.590  -2.560  0.00  0.00     0.078 C 
ATOM      2  C1  UNL d   1      -0.213  -1.988  -1.222  0.00  0.00    -0.077 A 
ATOM      3  C2  UNL d   1       0.060  -0.640  -0.957  0.00  0.00    -0.001 A 
ATOM      4  C3  UNL d   1      -0.226  -0.095   0.295  0.00  0.00     0.003 A 
ATOM      5  C4  UNL d   1      -0.786  -0.891   1.293  0.00  0.00    -0.005 A 
ATOM      6  C5  UNL d   1      -1.059  -2.233   1.039  0.00  0.00     0.003 A 
ATOM      7  C6  UNL d   1      -0.774  -2.780  -0.213  0.00  0.00    -0.001 A 
ENDROOT
TORSDOF 0
ENDMDL
