MODEL 1
REMARK minimizedAffinity -3.36523294
REMARK minimizedRMSD -1
REMARK  0 active torsions:
REMARK  status: ('A' for Active; 'I' for Inactive)
ROOT
ATOM      1  C   UNL d   1      -0.164   1.725   0.007  0.00  0.00     0.078 C 
ATOM      2  C1  UNL d   1      -0.241   0.230  -0.080  0.00  0.00    -0.077 A 
ATOM      3  C2  UNL d   1       0.177  -0.447  -1.233  0.00  0.00    -0.001 A 
ATOM      4  C3  UNL d   1       0.091  -1.838  -1.304  0.00  0.00     0.003 A 
ATOM      5  C4  UNL d   1      -0.414  -2.564  -0.227  0.00  0.00    -0.005 A 
ATOM      6  C5  UNL d   1      -0.834  -1.899   0.923  0.00  0.00     0.003 A 
ATOM      7  C6  UNL d   1      -0.748  -0.507   0.996  0.00  0.00    -0.001 A 
ENDROOT
TORSDOF 0
ENDMDL
