MODEL 1
REMARK minimizedAffinity -2.66707277
REMARK minimizedRMSD -1
REMARK  0 active torsions:
REMARK  status: ('A' for Active; 'I' for Inactive)
ROOT
ATOM      1  C   UNL d   1       0.879   1.909   0.417  0.00  0.00     0.078 C 
ATOM      2  C1  UNL d   1       0.247   0.559   0.583  0.00  0.00    -0.077 A 
ATOM      3  C2  UNL d   1       0.325  -0.403  -0.430  0.00  0.00    -0.001 A 
ATOM      4  C3  UNL d   1      -0.276  -1.652  -0.266  0.00  0.00     0.003 A 
ATOM      5  C4  UNL d   1      -0.961  -1.949   0.911  0.00  0.00    -0.005 A 
ATOM      6  C5  UNL d   1      -1.046  -0.997   1.924  0.00  0.00     0.003 A 
ATOM      7  C6  UNL d   1      -0.445   0.253   1.762  0.00  0.00    -0.001 A 
ENDROOT
TORSDOF 0
ENDMDL
