MODEL 1
REMARK minimizedAffinity -0.817293406
REMARK minimizedRMSD -1
REMARK  0 active torsions:
REMARK  status: ('A' for Active; 'I' for Inactive)
ROOT
ATOM      1  C   UNL d   1      -0.742  -2.922   0.267  0.00  0.00     0.078 C 
ATOM      2  C1  UNL d   1      -0.490  -1.444   0.230  0.00  0.00    -0.077 A 
ATOM      3  C2  UNL d   1       0.138  -0.847  -0.869  0.00  0.00    -0.001 A 
ATOM      4  C3  UNL d   1       0.375   0.529  -0.886  0.00  0.00     0.003 A 
ATOM      5  C4  UNL d   1      -0.012   1.318   0.195  0.00  0.00    -0.005 A 
ATOM      6  C5  UNL d   1      -0.636   0.733   1.295  0.00  0.00     0.003 A 
ATOM      7  C6  UNL d   1      -0.874  -0.642   1.313  0.00  0.00    -0.001 A 
ENDROOT
TORSDOF 0
ENDMDL
