MODEL 1
REMARK minimizedAffinity -1.53472745
REMARK minimizedRMSD -1
REMARK  0 active torsions:
REMARK  status: ('A' for Active; 'I' for Inactive)
ROOT
ATOM      1  C   UNL d   1      -3.733  -2.976   0.740  0.00  0.00     0.078 C 
ATOM      2  C1  UNL d   1      -2.574  -2.027   0.795  0.00  0.00    -0.077 A 
ATOM      3  C2  UNL d   1      -2.761  -0.678   1.123  0.00  0.00    -0.001 A 
ATOM      4  C3  UNL d   1      -1.675   0.196   1.161  0.00  0.00     0.003 A 
ATOM      5  C4  UNL d   1      -0.393  -0.267   0.871  0.00  0.00    -0.005 A 
ATOM      6  C5  UNL d   1      -0.197  -1.607   0.541  0.00  0.00     0.003 A 
ATOM      7  C6  UNL d   1      -1.283  -2.483   0.503  0.00  0.00    -0.001 A 
ENDROOT
TORSDOF 0
ENDMDL
