MODEL 1
REMARK minimizedAffinity -1.23396969
REMARK minimizedRMSD -1
REMARK  0 active torsions:
REMARK  status: ('A' for Active; 'I' for Inactive)
ROOT
ATOM      1  C   UNL d   1      -1.003  -2.786   0.741  0.00  0.00     0.078 C 
ATOM      2  C1  UNL d   1      -0.615  -1.368   0.445  0.00  0.00    -0.077 A 
ATOM      3  C2  UNL d   1      -0.939  -0.332   1.331  0.00  0.00    -0.001 A 
ATOM      4  C3  UNL d   1      -0.580   0.985   1.038  0.00  0.00     0.003 A 
ATOM      5  C4  UNL d   1       0.102   1.278  -0.141  0.00  0.00    -0.005 A 
ATOM      6  C5  UNL d   1       0.426   0.255  -1.030  0.00  0.00     0.003 A 
ATOM      7  C6  UNL d   1       0.068  -1.062  -0.738  0.00  0.00    -0.001 A 
ENDROOT
TORSDOF 0
ENDMDL
