MODEL 1
REMARK minimizedAffinity -5.17284727
REMARK minimizedRMSD -1
REMARK  0 active torsions:
REMARK  status: ('A' for Active; 'I' for Inactive)
ROOT
ATOM      1  C   UNL d   1       0.477   0.567   0.067  0.00  0.00     0.078 C 
ATOM      2  C1  UNL d   1       0.122  -0.855  -0.251  0.00  0.00    -0.077 A 
ATOM      3  C2  UNL d   1       0.152  -1.328  -1.569  0.00  0.00    -0.001 A 
ATOM      4  C3  UNL d   1      -0.191  -2.651  -1.852  0.00  0.00     0.003 A 
ATOM      5  C4  UNL d   1      -0.566  -3.512  -0.822  0.00  0.00    -0.005 A 
ATOM      6  C5  UNL d   1      -0.601  -3.050   0.492  0.00  0.00     0.003 A 
ATOM      7  C6  UNL d   1      -0.259  -1.727   0.776  0.00  0.00    -0.001 A 
ENDROOT
TORSDOF 0
ENDMDL
