MODEL 1
REMARK minimizedAffinity 6.73028374
REMARK minimizedRMSD -1
REMARK  1 active torsions:
REMARK  status: ('A' for Active; 'I' for Inactive)
REMARK    1  A    between atoms: C1_2  and  C2_3 
ROOT
ATOM      1  C2  UNL d   1      -1.784  -0.903   1.339  0.00  0.00    -0.073 A 
ATOM      2  C3  UNL d   1      -0.692  -1.717   1.019  0.00  0.00    -0.002 A 
ATOM      3  C4  UNL d   1      -0.847  -2.791   0.141  0.00  0.00     0.004 A 
ATOM      4  C5  UNL d   1      -2.091  -3.057  -0.430  0.00  0.00    -0.004 A 
ATOM      5  C6  UNL d   1      -3.192  -2.248  -0.131  0.00  0.00    -0.075 A 
ATOM      6  C7  UNL d   1      -4.538  -2.522  -0.735  0.00  0.00     0.076 C 
ATOM      7  C8  UNL d   1      -3.029  -1.173   0.754  0.00  0.00     0.001 A 
ENDROOT
BRANCH   1   8
ATOM      8  C1  UNL d   1      -1.620   0.261   2.282  0.00  0.00     0.053 C 
ATOM      9  C   UNL d   1      -0.324   0.177   3.072  0.00  0.00     0.018 C 
ENDBRANCH   1   8
TORSDOF 1
ENDMDL
