MODEL 1
REMARK minimizedAffinity 3.74599791
REMARK minimizedRMSD -1
REMARK  1 active torsions:
REMARK  status: ('A' for Active; 'I' for Inactive)
REMARK    1  A    between atoms: C1_2  and  C2_3 
ROOT
ATOM      1  C2  UNL d   1      -1.743  -1.050   1.068  0.00  0.00    -0.073 A 
ATOM      2  C3  UNL d   1      -2.149   0.215   1.507  0.00  0.00    -0.002 A 
ATOM      3  C4  UNL d   1      -1.629   0.753   2.684  0.00  0.00     0.004 A 
ATOM      4  C5  UNL d   1      -0.693   0.037   3.430  0.00  0.00    -0.004 A 
ATOM      5  C6  UNL d   1      -0.265  -1.224   3.002  0.00  0.00    -0.075 A 
ATOM      6  C7  UNL d   1       0.739  -2.009   3.794  0.00  0.00     0.076 C 
ATOM      7  C8  UNL d   1      -0.795  -1.759   1.820  0.00  0.00     0.001 A 
ENDROOT
BRANCH   1   8
ATOM      8  C1  UNL d   1      -2.298  -1.633  -0.206  0.00  0.00     0.053 C 
ATOM      9  C   UNL d   1      -1.200  -1.979  -1.200  0.00  0.00     0.018 C 
ENDBRANCH   1   8
TORSDOF 1
ENDMDL
