MODEL 1
REMARK minimizedAffinity 4.00538731
REMARK minimizedRMSD -1
REMARK  0 active torsions:
REMARK  status: ('A' for Active; 'I' for Inactive)
ROOT
ATOM      1  C   UNL d   1      -0.562   0.319   1.588  0.00  0.00     0.124 A 
ATOM      2  C1  UNL d   1       0.753  -0.123   1.534  0.00  0.00     0.062 A 
ATOM      3  C2  UNL d   1       1.355  -0.383   0.307  0.00  0.00     0.162 A 
ATOM      4  C3  UNL d   1       0.643  -0.200  -0.879  0.00  0.00    -0.034 A 
ATOM      5  C4  UNL d   1      -0.679   0.244  -0.817  0.00  0.00     0.162 A 
ATOM      6  C5  UNL d   1      -1.276   0.502   0.412  0.00  0.00     0.062 A 
ATOM      7  F   UNL d   1      -2.546   0.930   0.461  0.00  0.00    -0.097 F 
ATOM      8  F1  UNL d   1      -1.392   0.430  -1.938  0.00  0.00    -0.096 F 
ATOM      9  I   UNL d   1       1.540  -0.588  -2.717  0.00  0.00    -0.060 I 
ATOM     10  F2  UNL d   1       2.627  -0.810   0.285  0.00  0.00    -0.096 F 
ATOM     11  F3  UNL d   1       1.445  -0.302   2.669  0.00  0.00    -0.097 F 
ATOM     12  F4  UNL d   1      -1.139   0.568   2.770  0.00  0.00    -0.092 F 
ENDROOT
TORSDOF 0
ENDMDL
