MODEL 1
REMARK minimizedAffinity 1.85186613
REMARK minimizedRMSD -1
REMARK  0 active torsions:
REMARK  status: ('A' for Active; 'I' for Inactive)
ROOT
ATOM      1  C   UNL d   1      -0.782   0.423   1.892  0.00  0.00     0.124 A 
ATOM      2  C1  UNL d   1      -1.587   0.669   0.788  0.00  0.00     0.062 A 
ATOM      3  C2  UNL d   1      -1.110   0.420  -0.495  0.00  0.00     0.162 A 
ATOM      4  C3  UNL d   1       0.179  -0.079  -0.683  0.00  0.00    -0.034 A 
ATOM      5  C4  UNL d   1       0.983  -0.323   0.431  0.00  0.00     0.162 A 
ATOM      6  C5  UNL d   1       0.502  -0.073   1.712  0.00  0.00     0.062 A 
ATOM      7  F   UNL d   1       1.281  -0.311   2.777  0.00  0.00    -0.097 F 
ATOM      8  F1  UNL d   1       2.227  -0.803   0.287  0.00  0.00    -0.096 F 
ATOM      9  I   UNL d   1       0.895  -0.452  -2.601  0.00  0.00    -0.060 I 
ATOM     10  F2  UNL d   1      -1.910   0.667  -1.543  0.00  0.00    -0.096 F 
ATOM     11  F3  UNL d   1      -2.827   1.149   0.959  0.00  0.00    -0.097 F 
ATOM     12  F4  UNL d   1      -1.242   0.664   3.126  0.00  0.00    -0.092 F 
ENDROOT
TORSDOF 0
ENDMDL
