MODEL 1
REMARK minimizedAffinity -1.63819051
REMARK minimizedRMSD -1
REMARK  0 active torsions:
REMARK  status: ('A' for Active; 'I' for Inactive)
ROOT
ATOM      1  C   UNL d   1      -1.365  -0.447   2.341  0.00  0.00     0.124 A 
ATOM      2  C1  UNL d   1      -0.005  -0.219   2.182  0.00  0.00     0.062 A 
ATOM      3  C2  UNL d   1       0.507   0.116   0.931  0.00  0.00     0.162 A 
ATOM      4  C3  UNL d   1      -0.342   0.228  -0.170  0.00  0.00    -0.034 A 
ATOM      5  C4  UNL d   1      -1.709  -0.003  -0.002  0.00  0.00     0.162 A 
ATOM      6  C5  UNL d   1      -2.215  -0.339   1.250  0.00  0.00     0.062 A 
ATOM      7  F   UNL d   1      -3.529  -0.558   1.402  0.00  0.00    -0.097 F 
ATOM      8  F1  UNL d   1      -2.553   0.095  -1.039  0.00  0.00    -0.096 F 
ATOM      9  I   UNL d   1       0.419   0.729  -2.041  0.00  0.00    -0.060 I 
ATOM     10  F2  UNL d   1       1.825   0.330   0.806  0.00  0.00    -0.096 F 
ATOM     11  F3  UNL d   1       0.819  -0.324   3.234  0.00  0.00    -0.097 F 
ATOM     12  F4  UNL d   1      -1.854  -0.770   3.545  0.00  0.00    -0.092 F 
ENDROOT
TORSDOF 0
ENDMDL
