MODEL 1
REMARK minimizedAffinity -3.32321596
REMARK minimizedRMSD -1
REMARK  0 active torsions:
REMARK  status: ('A' for Active; 'I' for Inactive)
ROOT
ATOM      1  C   UNL d   1      -1.978   0.193   2.659  0.00  0.00     0.124 A 
ATOM      2  C1  UNL d   1      -0.645  -0.192   2.614  0.00  0.00     0.062 A 
ATOM      3  C2  UNL d   1       0.052  -0.164   1.410  0.00  0.00     0.162 A 
ATOM      4  C3  UNL d   1      -0.582   0.251   0.239  0.00  0.00    -0.034 A 
ATOM      5  C4  UNL d   1      -1.923   0.636   0.291  0.00  0.00     0.162 A 
ATOM      6  C5  UNL d   1      -2.616   0.606   1.497  0.00  0.00     0.062 A 
ATOM      7  F   UNL d   1      -3.903   0.978   1.538  0.00  0.00    -0.097 F 
ATOM      8  F1  UNL d   1      -2.564   1.040  -0.816  0.00  0.00    -0.096 F 
ATOM      9  I   UNL d   1       0.456   0.294  -1.564  0.00  0.00    -0.060 I 
ATOM     10  F2  UNL d   1       1.339  -0.542   1.397  0.00  0.00    -0.096 F 
ATOM     11  F3  UNL d   1      -0.027  -0.593   3.735  0.00  0.00    -0.097 F 
ATOM     12  F4  UNL d   1      -2.647   0.164   3.819  0.00  0.00    -0.092 F 
ENDROOT
TORSDOF 0
ENDMDL
