MODEL 1
REMARK minimizedAffinity -1.50734794
REMARK minimizedRMSD -1
REMARK  0 active torsions:
REMARK  status: ('A' for Active; 'I' for Inactive)
ROOT
ATOM      1  C   UNL d   1       1.165   0.669   0.459  0.00  0.00     0.124 A 
ATOM      2  C1  UNL d   1       0.722   0.472   1.759  0.00  0.00     0.062 A 
ATOM      3  C2  UNL d   1      -0.633   0.578   2.061  0.00  0.00     0.162 A 
ATOM      4  C3  UNL d   1      -1.555   0.882   1.060  0.00  0.00    -0.034 A 
ATOM      5  C4  UNL d   1      -1.102   1.081  -0.245  0.00  0.00     0.162 A 
ATOM      6  C5  UNL d   1       0.253   0.973  -0.542  0.00  0.00     0.062 A 
ATOM      7  F   UNL d   1       0.679   1.164  -1.799  0.00  0.00    -0.097 F 
ATOM      8  F1  UNL d   1      -1.962   1.375  -1.232  0.00  0.00    -0.096 F 
ATOM      9  I   UNL d   1      -3.581   1.042   1.508  0.00  0.00    -0.060 I 
ATOM     10  F2  UNL d   1      -1.032   0.382   3.327  0.00  0.00    -0.096 F 
ATOM     11  F3  UNL d   1       1.601   0.179   2.728  0.00  0.00    -0.097 F 
ATOM     12  F4  UNL d   1       2.469   0.567   0.171  0.00  0.00    -0.092 F 
ENDROOT
TORSDOF 0
ENDMDL
