MODEL 1
REMARK minimizedAffinity -1.36189902
REMARK minimizedRMSD -1
REMARK  0 active torsions:
REMARK  status: ('A' for Active; 'I' for Inactive)
ROOT
ATOM      1  C   UNL d   1      -2.336   0.372   2.860  0.00  0.00     0.124 A 
ATOM      2  C1  UNL d   1      -1.160  -0.364   2.802  0.00  0.00     0.062 A 
ATOM      3  C2  UNL d   1      -0.434  -0.430   1.617  0.00  0.00     0.162 A 
ATOM      4  C3  UNL d   1      -0.881   0.242   0.479  0.00  0.00    -0.034 A 
ATOM      5  C4  UNL d   1      -2.065   0.979   0.545  0.00  0.00     0.162 A 
ATOM      6  C5  UNL d   1      -2.787   1.042   1.732  0.00  0.00     0.062 A 
ATOM      7  F   UNL d   1      -3.923   1.753   1.786  0.00  0.00    -0.097 F 
ATOM      8  F1  UNL d   1      -2.523   1.637  -0.530  0.00  0.00    -0.096 F 
ATOM      9  I   UNL d   1       0.202   0.145  -1.295  0.00  0.00    -0.060 I 
ATOM     10  F2  UNL d   1       0.699  -1.148   1.589  0.00  0.00    -0.096 F 
ATOM     11  F3  UNL d   1      -0.723  -1.013   3.891  0.00  0.00    -0.097 F 
ATOM     12  F4  UNL d   1      -3.034   0.433   4.002  0.00  0.00    -0.092 F 
ENDROOT
TORSDOF 0
ENDMDL
