MODEL 1
REMARK minimizedAffinity 0.919876873
REMARK minimizedRMSD -1
REMARK  0 active torsions:
REMARK  status: ('A' for Active; 'I' for Inactive)
ROOT
ATOM      1  C   UNL d   1      -0.750   0.834   1.594  0.00  0.00     0.124 A 
ATOM      2  C1  UNL d   1      -1.561   0.449   0.536  0.00  0.00     0.062 A 
ATOM      3  C2  UNL d   1      -1.008   0.213  -0.719  0.00  0.00     0.162 A 
ATOM      4  C3  UNL d   1       0.364   0.359  -0.923  0.00  0.00    -0.034 A 
ATOM      5  C4  UNL d   1       1.173   0.748   0.146  0.00  0.00     0.162 A 
ATOM      6  C5  UNL d   1       0.616   0.983   1.399  0.00  0.00     0.062 A 
ATOM      7  F   UNL d   1       1.401   1.355   2.421  0.00  0.00    -0.097 F 
ATOM      8  F1  UNL d   1       2.496   0.898  -0.014  0.00  0.00    -0.096 F 
ATOM      9  I   UNL d   1       1.195   0.006  -2.798  0.00  0.00    -0.060 I 
ATOM     10  F2  UNL d   1      -1.815  -0.158  -1.724  0.00  0.00    -0.096 F 
ATOM     11  F3  UNL d   1      -2.881   0.306   0.722  0.00  0.00    -0.097 F 
ATOM     12  F4  UNL d   1      -1.285   1.062   2.801  0.00  0.00    -0.092 F 
ENDROOT
TORSDOF 0
ENDMDL
