MODEL 1
REMARK minimizedAffinity 0.732194901
REMARK minimizedRMSD -1
REMARK  0 active torsions:
REMARK  status: ('A' for Active; 'I' for Inactive)
ROOT
ATOM      1  C   UNL d   1      -1.468   0.635   1.853  0.00  0.00     0.124 A 
ATOM      2  C1  UNL d   1      -0.105   0.375   1.883  0.00  0.00     0.062 A 
ATOM      3  C2  UNL d   1       0.608   0.239   0.696  0.00  0.00     0.162 A 
ATOM      4  C3  UNL d   1      -0.041   0.362  -0.533  0.00  0.00    -0.034 A 
ATOM      5  C4  UNL d   1      -1.412   0.622  -0.555  0.00  0.00     0.162 A 
ATOM      6  C5  UNL d   1      -2.120   0.757   0.635  0.00  0.00     0.062 A 
ATOM      7  F   UNL d   1      -3.437   1.008   0.603  0.00  0.00    -0.097 F 
ATOM      8  F1  UNL d   1      -2.067   0.746  -1.719  0.00  0.00    -0.096 F 
ATOM      9  I   UNL d   1       1.022   0.158  -2.311  0.00  0.00    -0.060 I 
ATOM     10  F2  UNL d   1       1.925  -0.012   0.755  0.00  0.00    -0.096 F 
ATOM     11  F3  UNL d   1       0.528   0.255   3.060  0.00  0.00    -0.097 F 
ATOM     12  F4  UNL d   1      -2.152   0.765   2.997  0.00  0.00    -0.092 F 
ENDROOT
TORSDOF 0
ENDMDL
