MODEL 1
REMARK minimizedAffinity 2.97317839
REMARK minimizedRMSD -1
REMARK  0 active torsions:
REMARK  status: ('A' for Active; 'I' for Inactive)
ROOT
ATOM      1  C   UNL d   1      -1.729   0.294   1.065  0.00  0.00     0.124 A 
ATOM      2  C1  UNL d   1      -0.999   0.202  -0.112  0.00  0.00     0.062 A 
ATOM      3  C2  UNL d   1       0.389   0.307  -0.084  0.00  0.00     0.162 A 
ATOM      4  C3  UNL d   1       1.056   0.505   1.125  0.00  0.00    -0.034 A 
ATOM      5  C4  UNL d   1       0.314   0.598   2.304  0.00  0.00     0.162 A 
ATOM      6  C5  UNL d   1      -1.072   0.492   2.271  0.00  0.00     0.062 A 
ATOM      7  F   UNL d   1      -1.776   0.581   3.409  0.00  0.00    -0.097 F 
ATOM      8  F1  UNL d   1       0.924   0.788   3.484  0.00  0.00    -0.096 F 
ATOM      9  I   UNL d   1       3.131   0.663   1.170  0.00  0.00    -0.060 I 
ATOM     10  F2  UNL d   1       1.069   0.214  -1.236  0.00  0.00    -0.096 F 
ATOM     11  F3  UNL d   1      -1.631   0.012  -1.278  0.00  0.00    -0.097 F 
ATOM     12  F4  UNL d   1      -3.064   0.193   1.036  0.00  0.00    -0.092 F 
ENDROOT
TORSDOF 0
ENDMDL
