MODEL 1
REMARK minimizedAffinity -1.86901724
REMARK minimizedRMSD -1
REMARK  0 active torsions:
REMARK  status: ('A' for Active; 'I' for Inactive)
ROOT
ATOM      1  C   UNL d   1      -1.977   0.559   0.858  0.00  0.00     0.124 A 
ATOM      2  C1  UNL d   1      -1.223   0.483   2.021  0.00  0.00     0.062 A 
ATOM      3  C2  UNL d   1       0.160   0.628   1.970  0.00  0.00     0.162 A 
ATOM      4  C3  UNL d   1       0.799   0.851   0.750  0.00  0.00    -0.034 A 
ATOM      5  C4  UNL d   1       0.035   0.925  -0.416  0.00  0.00     0.162 A 
ATOM      6  C5  UNL d   1      -1.348   0.779  -0.359  0.00  0.00     0.062 A 
ATOM      7  F   UNL d   1      -2.074   0.853  -1.483  0.00  0.00    -0.097 F 
ATOM      8  F1  UNL d   1       0.617   1.138  -1.605  0.00  0.00    -0.096 F 
ATOM      9  I   UNL d   1       2.868   1.068   0.668  0.00  0.00    -0.060 I 
ATOM     10  F2  UNL d   1       0.863   0.550   3.109  0.00  0.00    -0.096 F 
ATOM     11  F3  UNL d   1      -1.829   0.269   3.198  0.00  0.00    -0.097 F 
ATOM     12  F4  UNL d   1      -3.308   0.418   0.911  0.00  0.00    -0.092 F 
ENDROOT
TORSDOF 0
ENDMDL
