MODEL 1
REMARK minimizedAffinity 1.4738344
REMARK minimizedRMSD -1
REMARK  0 active torsions:
REMARK  status: ('A' for Active; 'I' for Inactive)
ROOT
ATOM      1  C   UNL d   1      -1.802   0.301   0.608  0.00  0.00     0.124 A 
ATOM      2  C1  UNL d   1      -0.572   0.020   1.184  0.00  0.00     0.062 A 
ATOM      3  C2  UNL d   1       0.553  -0.155   0.384  0.00  0.00     0.162 A 
ATOM      4  C3  UNL d   1       0.453  -0.048  -1.004  0.00  0.00    -0.034 A 
ATOM      5  C4  UNL d   1      -0.788   0.234  -1.577  0.00  0.00     0.162 A 
ATOM      6  C5  UNL d   1      -1.910   0.408  -0.772  0.00  0.00     0.062 A 
ATOM      7  F   UNL d   1      -3.098   0.679  -1.331  0.00  0.00    -0.097 F 
ATOM      8  F1  UNL d   1      -0.920   0.343  -2.907  0.00  0.00    -0.096 F 
ATOM      9  I   UNL d   1       2.133  -0.309  -2.205  0.00  0.00    -0.060 I 
ATOM     10  F2  UNL d   1       1.730  -0.425   0.968  0.00  0.00    -0.096 F 
ATOM     11  F3  UNL d   1      -0.465  -0.084   2.517  0.00  0.00    -0.097 F 
ATOM     12  F4  UNL d   1      -2.883   0.468   1.381  0.00  0.00    -0.092 F 
ENDROOT
TORSDOF 0
ENDMDL
