MODEL 1
REMARK minimizedAffinity -1.14354873
REMARK minimizedRMSD -1
REMARK  0 active torsions:
REMARK  status: ('A' for Active; 'I' for Inactive)
ROOT
ATOM      1  C   UNL d   1      -0.826   0.332   1.816  0.00  0.00     0.124 A 
ATOM      2  C1  UNL d   1       0.556   0.218   1.757  0.00  0.00     0.062 A 
ATOM      3  C2  UNL d   1       1.197   0.107   0.527  0.00  0.00     0.162 A 
ATOM      4  C3  UNL d   1       0.457   0.110  -0.655  0.00  0.00    -0.034 A 
ATOM      5  C4  UNL d   1      -0.932   0.224  -0.588  0.00  0.00     0.162 A 
ATOM      6  C5  UNL d   1      -1.569   0.334   0.644  0.00  0.00     0.062 A 
ATOM      7  F   UNL d   1      -2.904   0.444   0.699  0.00  0.00    -0.097 F 
ATOM      8  F1  UNL d   1      -1.674   0.230  -1.705  0.00  0.00    -0.096 F 
ATOM      9  I   UNL d   1       1.413  -0.056  -2.497  0.00  0.00    -0.060 I 
ATOM     10  F2  UNL d   1       2.534  -0.002   0.500  0.00  0.00    -0.096 F 
ATOM     11  F3  UNL d   1       1.276   0.214   2.889  0.00  0.00    -0.097 F 
ATOM     12  F4  UNL d   1      -1.441   0.437   3.001  0.00  0.00    -0.092 F 
ENDROOT
TORSDOF 0
ENDMDL
