MODEL 1
REMARK minimizedAffinity -2.32971072
REMARK minimizedRMSD -1
REMARK  0 active torsions:
REMARK  status: ('A' for Active; 'I' for Inactive)
ROOT
ATOM      1  C   UNL d   1      -0.763   0.407   1.826  0.00  0.00     0.124 A 
ATOM      2  C1  UNL d   1      -1.498   0.422   0.648  0.00  0.00     0.062 A 
ATOM      3  C2  UNL d   1      -0.889   0.095  -0.561  0.00  0.00     0.162 A 
ATOM      4  C3  UNL d   1       0.462  -0.250  -0.597  0.00  0.00    -0.034 A 
ATOM      5  C4  UNL d   1       1.194  -0.262   0.591  0.00  0.00     0.162 A 
ATOM      6  C5  UNL d   1       0.581   0.065   1.796  0.00  0.00     0.062 A 
ATOM      7  F   UNL d   1       1.292   0.051   2.933  0.00  0.00    -0.097 F 
ATOM      8  F1  UNL d   1       2.495  -0.589   0.592  0.00  0.00    -0.096 F 
ATOM      9  I   UNL d   1       1.376  -0.740  -2.402  0.00  0.00    -0.060 I 
ATOM     10  F2  UNL d   1      -1.623   0.117  -1.683  0.00  0.00    -0.096 F 
ATOM     11  F3  UNL d   1      -2.797   0.752   0.673  0.00  0.00    -0.097 F 
ATOM     12  F4  UNL d   1      -1.351   0.723   2.987  0.00  0.00    -0.092 F 
ENDROOT
TORSDOF 0
ENDMDL
