MODEL 1
REMARK minimizedAffinity 1.26726639
REMARK minimizedRMSD -1
REMARK  0 active torsions:
REMARK  status: ('A' for Active; 'I' for Inactive)
ROOT
ATOM      1  C   UNL d   1      -0.984   0.370   1.851  0.00  0.00     0.124 A 
ATOM      2  C1  UNL d   1       0.396   0.230   1.867  0.00  0.00     0.062 A 
ATOM      3  C2  UNL d   1       1.101   0.097   0.674  0.00  0.00     0.162 A 
ATOM      4  C3  UNL d   1       0.425   0.104  -0.547  0.00  0.00    -0.034 A 
ATOM      5  C4  UNL d   1      -0.964   0.245  -0.555  0.00  0.00     0.162 A 
ATOM      6  C5  UNL d   1      -1.663   0.377   0.641  0.00  0.00     0.062 A 
ATOM      7  F   UNL d   1      -2.997   0.512   0.623  0.00  0.00    -0.097 F 
ATOM      8  F1  UNL d   1      -1.645   0.256  -1.710  0.00  0.00    -0.096 F 
ATOM      9  I   UNL d   1       1.474  -0.094  -2.333  0.00  0.00    -0.060 I 
ATOM     10  F2  UNL d   1       2.434  -0.037   0.719  0.00  0.00    -0.096 F 
ATOM     11  F3  UNL d   1       1.054   0.221   3.035  0.00  0.00    -0.097 F 
ATOM     12  F4  UNL d   1      -1.659   0.496   3.001  0.00  0.00    -0.092 F 
ENDROOT
TORSDOF 0
ENDMDL
