MODEL 1
REMARK minimizedAffinity -1.94557261
REMARK minimizedRMSD -1
REMARK  0 active torsions:
REMARK  status: ('A' for Active; 'I' for Inactive)
ROOT
ATOM      1  C   UNL d   1       2.320   0.821   1.283  0.00  0.00    -0.002 A 
ATOM      2  C1  UNL d   1       2.806  -0.181   0.454  0.00  0.00     0.010 A 
ATOM      3  C2  UNL d   1       1.965  -0.817  -0.461  0.00  0.00     0.041 A 
ATOM      4  C3  UNL d   1       0.614  -0.424  -0.531  0.00  0.00    -0.075 A 
ATOM      5  S   UNL d   1      -0.601  -1.060  -1.576  0.00  0.00     0.015 SA
ATOM      6  C4  UNL d   1      -1.794  -0.018  -0.947  0.00  0.00     0.022 A 
ATOM      7  C5  UNL d   1      -1.295   0.803   0.036  0.00  0.00     0.026 A 
ATOM      8  C6  UNL d   1       0.101   0.583   0.292  0.00  0.00    -0.082 A 
ATOM      9  C7  UNL d   1       0.979   1.208   1.210  0.00  0.00     0.045 A 
ENDROOT
TORSDOF 0
ENDMDL
