MODEL 1
REMARK minimizedAffinity -5.2260623
REMARK minimizedRMSD -1
REMARK  0 active torsions:
REMARK  status: ('A' for Active; 'I' for Inactive)
ROOT
ATOM      1  C   UNL d   1       3.018   0.228   0.457  0.00  0.00    -0.002 A 
ATOM      2  C1  UNL d   1       2.213   1.255  -0.015  0.00  0.00     0.010 A 
ATOM      3  C2  UNL d   1       0.823   1.128  -0.007  0.00  0.00     0.041 A 
ATOM      4  C3  UNL d   1       0.249  -0.059   0.490  0.00  0.00    -0.075 A 
ATOM      5  S   UNL d   1      -1.429  -0.437   0.599  0.00  0.00     0.015 SA
ATOM      6  C4  UNL d   1      -1.117  -1.970   1.275  0.00  0.00     0.022 A 
ATOM      7  C5  UNL d   1       0.230  -2.204   1.420  0.00  0.00     0.026 A 
ATOM      8  C6  UNL d   1       1.039  -1.107   0.971  0.00  0.00    -0.082 A 
ATOM      9  C7  UNL d   1       2.446  -0.948   0.949  0.00  0.00     0.045 A 
ENDROOT
TORSDOF 0
ENDMDL
