MODEL 1
REMARK minimizedAffinity -2.38696265
REMARK minimizedRMSD -1
REMARK  0 active torsions:
REMARK  status: ('A' for Active; 'I' for Inactive)
ROOT
ATOM      1  C   UNL d   1       2.959  -1.146   2.293  0.00  0.00    -0.002 A 
ATOM      2  C1  UNL d   1       3.308   0.195   2.353  0.00  0.00     0.010 A 
ATOM      3  C2  UNL d   1       2.551   1.157   1.681  0.00  0.00     0.041 A 
ATOM      4  C3  UNL d   1       1.424   0.744   0.942  0.00  0.00    -0.075 A 
ATOM      5  S   UNL d   1       0.348   1.744   0.041  0.00  0.00     0.015 SA
ATOM      6  C4  UNL d   1      -0.601   0.414  -0.444  0.00  0.00     0.022 A 
ATOM      7  C5  UNL d   1      -0.123  -0.772   0.060  0.00  0.00     0.026 A 
ATOM      8  C6  UNL d   1       1.052  -0.602   0.868  0.00  0.00    -0.082 A 
ATOM      9  C7  UNL d   1       1.841  -1.553   1.560  0.00  0.00     0.045 A 
ENDROOT
TORSDOF 0
ENDMDL
