MODEL 1
REMARK minimizedAffinity -1.55982113
REMARK minimizedRMSD -1
REMARK  0 active torsions:
REMARK  status: ('A' for Active; 'I' for Inactive)
ROOT
ATOM      1  C   UNL d   1       3.314   0.002   1.108  0.00  0.00    -0.002 A 
ATOM      2  C1  UNL d   1       2.826   1.142   0.483  0.00  0.00     0.010 A 
ATOM      3  C2  UNL d   1       1.469   1.258   0.178  0.00  0.00     0.041 A 
ATOM      4  C3  UNL d   1       0.601   0.201   0.516  0.00  0.00    -0.075 A 
ATOM      5  S   UNL d   1      -1.099   0.124   0.241  0.00  0.00     0.015 SA
ATOM      6  C4  UNL d   1      -1.218  -1.423   0.946  0.00  0.00     0.022 A 
ATOM      7  C5  UNL d   1      -0.000  -1.884   1.386  0.00  0.00     0.026 A 
ATOM      8  C6  UNL d   1       1.068  -0.955   1.146  0.00  0.00    -0.082 A 
ATOM      9  C7  UNL d   1       2.450  -1.044   1.441  0.00  0.00     0.045 A 
ENDROOT
TORSDOF 0
ENDMDL
