MODEL 1
REMARK minimizedAffinity -1.36989141
REMARK minimizedRMSD -1
REMARK  1 active torsions:
REMARK  status: ('A' for Active; 'I' for Inactive)
REMARK    1  A    between atoms: C1_2  and  C2_3 
ROOT
ATOM      1  C2  UNL d   1       0.032  -0.911  -0.684  0.00  0.00    -0.077 A 
ATOM      2  C3  UNL d   1       0.562  -2.049  -0.060  0.00  0.00     0.002 A 
ATOM      3  C4  UNL d   1       0.152  -2.405   1.226  0.00  0.00     0.002 A 
ATOM      4  C5  UNL d   1      -0.793  -1.632   1.897  0.00  0.00    -0.004 A 
ATOM      5  C6  UNL d   1      -1.325  -0.497   1.285  0.00  0.00     0.002 A 
ATOM      6  C7  UNL d   1      -0.915  -0.139   0.000  0.00  0.00     0.002 A 
ENDROOT
BRANCH   1   7
ATOM      7  C1  UNL d   1       0.437  -0.553  -2.090  0.00  0.00     0.055 C 
ATOM      8  C   UNL d   1       0.156   0.912  -2.391  0.00  0.00     0.019 C 
ENDBRANCH   1   7
TORSDOF 1
ENDMDL
