MODEL 1
REMARK minimizedAffinity -1.85006011
REMARK minimizedRMSD -1
REMARK  1 active torsions:
REMARK  status: ('A' for Active; 'I' for Inactive)
REMARK    1  A    between atoms: C1_2  and  C2_3 
ROOT
ATOM      1  C2  UNL d   1      -0.212   0.400   0.040  0.00  0.00    -0.077 A 
ATOM      2  C3  UNL d   1       0.096  -0.044  -1.253  0.00  0.00     0.002 A 
ATOM      3  C4  UNL d   1      -0.169  -1.363  -1.629  0.00  0.00     0.002 A 
ATOM      4  C5  UNL d   1      -0.746  -2.246  -0.718  0.00  0.00    -0.004 A 
ATOM      5  C6  UNL d   1      -1.053  -1.814   0.571  0.00  0.00     0.002 A 
ATOM      6  C7  UNL d   1      -0.789  -0.496   0.948  0.00  0.00     0.002 A 
ENDROOT
BRANCH   1   7
ATOM      7  C1  UNL d   1       0.027   1.835   0.431  0.00  0.00     0.055 C 
ATOM      8  C   UNL d   1       1.392   2.317  -0.038  0.00  0.00     0.019 C 
ENDBRANCH   1   7
TORSDOF 1
ENDMDL
