MODEL 1
REMARK minimizedAffinity -4.9699111
REMARK minimizedRMSD -1
REMARK  1 active torsions:
REMARK  status: ('A' for Active; 'I' for Inactive)
REMARK    1  A    between atoms: C1_2  and  C2_3 
ROOT
ATOM      1  C2  UNL d   1      -0.263   0.546   0.342  0.00  0.00    -0.077 A 
ATOM      2  C3  UNL d   1      -1.035   0.025   1.391  0.00  0.00     0.002 A 
ATOM      3  C4  UNL d   1      -1.254  -1.350   1.491  0.00  0.00     0.002 A 
ATOM      4  C5  UNL d   1      -0.703  -2.216   0.549  0.00  0.00    -0.004 A 
ATOM      5  C6  UNL d   1       0.064  -1.708  -0.499  0.00  0.00     0.002 A 
ATOM      6  C7  UNL d   1       0.284  -0.333  -0.601  0.00  0.00     0.002 A 
ENDROOT
BRANCH   1   7
ATOM      7  C1  UNL d   1       0.015   2.024   0.261  0.00  0.00     0.055 C 
ATOM      8  C   UNL d   1       1.510   2.308   0.290  0.00  0.00     0.019 C 
ENDBRANCH   1   7
TORSDOF 1
ENDMDL
