MODEL 1
REMARK minimizedAffinity -3.02427268
REMARK minimizedRMSD -1
REMARK  1 active torsions:
REMARK  status: ('A' for Active; 'I' for Inactive)
REMARK    1  A    between atoms: C1_2  and  C2_3 
ROOT
ATOM      1  C2  UNL d   1       0.237   1.174   0.361  0.00  0.00    -0.077 A 
ATOM      2  C3  UNL d   1       0.501  -0.046  -0.277  0.00  0.00     0.002 A 
ATOM      3  C4  UNL d   1      -0.104  -1.223   0.170  0.00  0.00     0.002 A 
ATOM      4  C5  UNL d   1      -0.980  -1.189   1.253  0.00  0.00    -0.004 A 
ATOM      5  C6  UNL d   1      -1.247   0.019   1.896  0.00  0.00     0.002 A 
ATOM      6  C7  UNL d   1      -0.643   1.195   1.451  0.00  0.00     0.002 A 
ENDROOT
BRANCH   1   7
ATOM      7  C1  UNL d   1       0.850   2.451  -0.150  0.00  0.00     0.055 C 
ATOM      8  C   UNL d   1       2.297   2.589   0.300  0.00  0.00     0.019 C 
ENDBRANCH   1   7
TORSDOF 1
ENDMDL
