MODEL 1
REMARK minimizedAffinity -2.48512459
REMARK minimizedRMSD -1
REMARK  1 active torsions:
REMARK  status: ('A' for Active; 'I' for Inactive)
REMARK    1  A    between atoms: C1_2  and  C2_3 
ROOT
ATOM      1  C2  UNL d   1      -0.296   0.041   0.225  0.00  0.00    -0.077 A 
ATOM      2  C3  UNL d   1      -0.633  -1.042  -0.599  0.00  0.00     0.002 A 
ATOM      3  C4  UNL d   1      -1.029  -2.258  -0.039  0.00  0.00     0.002 A 
ATOM      4  C5  UNL d   1      -1.095  -2.402   1.345  0.00  0.00    -0.004 A 
ATOM      5  C6  UNL d   1      -0.759  -1.331   2.173  0.00  0.00     0.002 A 
ATOM      6  C7  UNL d   1      -0.362  -0.115   1.615  0.00  0.00     0.002 A 
ENDROOT
BRANCH   1   7
ATOM      7  C1  UNL d   1       0.084   1.369  -0.377  0.00  0.00     0.055 C 
ATOM      8  C   UNL d   1       1.225   2.020   0.392  0.00  0.00     0.019 C 
ENDBRANCH   1   7
TORSDOF 1
ENDMDL
