MODEL 1
REMARK minimizedAffinity -0.0980312452
REMARK minimizedRMSD -1
REMARK  1 active torsions:
REMARK  status: ('A' for Active; 'I' for Inactive)
REMARK    1  A    between atoms: C1_2  and  C2_3 
ROOT
ATOM      1  C2  UNL d   1      -1.034  -1.285   0.604  0.00  0.00    -0.077 A 
ATOM      2  C3  UNL d   1      -0.150  -0.805  -0.373  0.00  0.00     0.002 A 
ATOM      3  C4  UNL d   1       0.313   0.511  -0.321  0.00  0.00     0.002 A 
ATOM      4  C5  UNL d   1      -0.099   1.356   0.707  0.00  0.00    -0.004 A 
ATOM      5  C6  UNL d   1      -0.979   0.888   1.683  0.00  0.00     0.002 A 
ATOM      6  C7  UNL d   1      -1.444  -0.426   1.631  0.00  0.00     0.002 A 
ENDROOT
BRANCH   1   7
ATOM      7  C1  UNL d   1      -1.496  -2.719   0.577  0.00  0.00     0.055 C 
ATOM      8  C   UNL d   1      -0.344  -3.666   0.275  0.00  0.00     0.019 C 
ENDBRANCH   1   7
TORSDOF 1
ENDMDL
