MODEL 1
REMARK minimizedAffinity 0.479381651
REMARK minimizedRMSD -1
REMARK  1 active torsions:
REMARK  status: ('A' for Active; 'I' for Inactive)
REMARK    1  A    between atoms: C1_2  and  C2_3 
ROOT
ATOM      1  C2  UNL d   1      -0.776  -1.560  -0.240  0.00  0.00    -0.077 A 
ATOM      2  C3  UNL d   1      -0.907  -0.379   0.504  0.00  0.00     0.002 A 
ATOM      3  C4  UNL d   1      -0.461   0.837  -0.018  0.00  0.00     0.002 A 
ATOM      4  C5  UNL d   1       0.115   0.884  -1.286  0.00  0.00    -0.004 A 
ATOM      5  C6  UNL d   1       0.251  -0.285  -2.032  0.00  0.00     0.002 A 
ATOM      6  C7  UNL d   1      -0.192  -1.502  -1.512  0.00  0.00     0.002 A 
ENDROOT
BRANCH   1   7
ATOM      7  C1  UNL d   1      -1.301  -2.864   0.300  0.00  0.00     0.055 C 
ATOM      8  C   UNL d   1      -0.200  -3.913   0.382  0.00  0.00     0.019 C 
ENDBRANCH   1   7
TORSDOF 1
ENDMDL
