MODEL 1
REMARK minimizedAffinity -2.41892171
REMARK minimizedRMSD -1
REMARK  1 active torsions:
REMARK  status: ('A' for Active; 'I' for Inactive)
REMARK    1  A    between atoms: C1_2  and  C2_3 
ROOT
ATOM      1  C2  UNL d   1      -0.536  -1.220  -0.115  0.00  0.00    -0.077 A 
ATOM      2  C3  UNL d   1      -0.508   0.118   0.304  0.00  0.00     0.002 A 
ATOM      3  C4  UNL d   1      -0.034   1.116  -0.549  0.00  0.00     0.002 A 
ATOM      4  C5  UNL d   1       0.411   0.788  -1.828  0.00  0.00    -0.004 A 
ATOM      5  C6  UNL d   1       0.389  -0.540  -2.253  0.00  0.00     0.002 A 
ATOM      6  C7  UNL d   1      -0.083  -1.539  -1.401  0.00  0.00     0.002 A 
ENDROOT
BRANCH   1   7
ATOM      7  C1  UNL d   1      -1.093  -2.291   0.786  0.00  0.00     0.055 C 
ATOM      8  C   UNL d   1      -0.417  -3.631   0.535  0.00  0.00     0.019 C 
ENDBRANCH   1   7
TORSDOF 1
ENDMDL
