MODEL 1
REMARK minimizedAffinity -2.25654435
REMARK minimizedRMSD -1
REMARK  1 active torsions:
REMARK  status: ('A' for Active; 'I' for Inactive)
REMARK    1  A    between atoms: C1_2  and  C2_3 
ROOT
ATOM      1  C2  UNL d   1      -0.368   0.321  -0.220  0.00  0.00    -0.077 A 
ATOM      2  C3  UNL d   1      -1.024   0.180   1.011  0.00  0.00     0.002 A 
ATOM      3  C4  UNL d   1      -1.337  -1.089   1.502  0.00  0.00     0.002 A 
ATOM      4  C5  UNL d   1      -0.995  -2.225   0.772  0.00  0.00    -0.004 A 
ATOM      5  C6  UNL d   1      -0.344  -2.095  -0.454  0.00  0.00     0.002 A 
ATOM      6  C7  UNL d   1      -0.031  -0.827  -0.948  0.00  0.00     0.002 A 
ENDROOT
BRANCH   1   7
ATOM      7  C1  UNL d   1       0.015   1.687  -0.728  0.00  0.00     0.055 C 
ATOM      8  C   UNL d   1       1.379   2.111  -0.203  0.00  0.00     0.019 C 
ENDBRANCH   1   7
TORSDOF 1
ENDMDL
