MODEL 1
REMARK minimizedAffinity -5.39083147
REMARK minimizedRMSD -1
REMARK  1 active torsions:
REMARK  status: ('A' for Active; 'I' for Inactive)
REMARK    1  A    between atoms: C1_2  and  C2_3 
ROOT
ATOM      1  C2  UNL d   1      -0.294  -0.894   0.071  0.00  0.00    -0.077 A 
ATOM      2  C3  UNL d   1       0.583  -0.873  -1.023  0.00  0.00     0.002 A 
ATOM      3  C4  UNL d   1       1.027   0.342  -1.548  0.00  0.00     0.002 A 
ATOM      4  C5  UNL d   1       0.603   1.544  -0.984  0.00  0.00    -0.004 A 
ATOM      5  C6  UNL d   1      -0.270   1.533   0.103  0.00  0.00     0.002 A 
ATOM      6  C7  UNL d   1      -0.716   0.320   0.629  0.00  0.00     0.002 A 
ENDROOT
BRANCH   1   7
ATOM      7  C1  UNL d   1      -0.735  -2.204   0.671  0.00  0.00     0.055 C 
ATOM      8  C   UNL d   1       0.376  -3.242   0.610  0.00  0.00     0.019 C 
ENDBRANCH   1   7
TORSDOF 1
ENDMDL
