MODEL 1
REMARK minimizedAffinity -2.29109931
REMARK minimizedRMSD -1
REMARK  1 active torsions:
REMARK  status: ('A' for Active; 'I' for Inactive)
REMARK    1  A    between atoms: C1_2  and  C2_3 
ROOT
ATOM      1  C2  UNL d   1      -0.277  -0.036   0.471  0.00  0.00    -0.077 A 
ATOM      2  C3  UNL d   1      -0.350  -1.423   0.666  0.00  0.00     0.002 A 
ATOM      3  C4  UNL d   1      -0.065  -2.299  -0.383  0.00  0.00     0.002 A 
ATOM      4  C5  UNL d   1       0.299  -1.799  -1.632  0.00  0.00    -0.004 A 
ATOM      5  C6  UNL d   1       0.372  -0.421  -1.836  0.00  0.00     0.002 A 
ATOM      6  C7  UNL d   1       0.086   0.456  -0.789  0.00  0.00     0.002 A 
ENDROOT
BRANCH   1   7
ATOM      7  C1  UNL d   1      -0.536   0.910   1.615  0.00  0.00     0.055 C 
ATOM      8  C   UNL d   1       0.070   2.280   1.348  0.00  0.00     0.019 C 
ENDBRANCH   1   7
TORSDOF 1
ENDMDL
