MODEL 1
REMARK minimizedAffinity -4.81015587
REMARK minimizedRMSD -1
REMARK  1 active torsions:
REMARK  status: ('A' for Active; 'I' for Inactive)
REMARK    1  A    between atoms: C1_2  and  C2_3 
ROOT
ATOM      1  C2  UNL d   1       0.996   2.514  -0.254  0.00  0.00    -0.077 A 
ATOM      2  C3  UNL d   1      -0.200   1.882   0.117  0.00  0.00     0.002 A 
ATOM      3  C4  UNL d   1      -0.609   0.713  -0.527  0.00  0.00     0.002 A 
ATOM      4  C5  UNL d   1       0.172   0.163  -1.541  0.00  0.00    -0.004 A 
ATOM      5  C6  UNL d   1       1.362   0.785  -1.918  0.00  0.00     0.002 A 
ATOM      6  C7  UNL d   1       1.772   1.955  -1.277  0.00  0.00     0.002 A 
ENDROOT
BRANCH   1   7
ATOM      7  C1  UNL d   1       1.464   3.748   0.472  0.00  0.00     0.055 C 
ATOM      8  C   UNL d   1       2.217   3.390   1.744  0.00  0.00     0.019 C 
ENDBRANCH   1   7
TORSDOF 1
ENDMDL
