MODEL 1
REMARK minimizedAffinity 0.771405339
REMARK minimizedRMSD -1
REMARK  1 active torsions:
REMARK  status: ('A' for Active; 'I' for Inactive)
REMARK    1  A    between atoms: C1_2  and  C2_3 
ROOT
ATOM      1  C2  UNL d   1      -0.154   1.025  -0.360  0.00  0.00    -0.077 A 
ATOM      2  C3  UNL d   1      -0.042  -0.259   0.190  0.00  0.00     0.002 A 
ATOM      3  C4  UNL d   1       0.227  -1.357  -0.629  0.00  0.00     0.002 A 
ATOM      4  C5  UNL d   1       0.391  -1.182  -2.001  0.00  0.00    -0.004 A 
ATOM      5  C6  UNL d   1       0.279   0.091  -2.558  0.00  0.00     0.002 A 
ATOM      6  C7  UNL d   1       0.009   1.190  -1.741  0.00  0.00     0.002 A 
ENDROOT
BRANCH   1   7
ATOM      7  C1  UNL d   1      -0.395   2.218   0.528  0.00  0.00     0.055 C 
ATOM      8  C   UNL d   1       0.469   3.400   0.114  0.00  0.00     0.019 C 
ENDBRANCH   1   7
TORSDOF 1
ENDMDL
