MODEL 1
REMARK minimizedAffinity 0.299345374
REMARK minimizedRMSD -1
REMARK  1 active torsions:
REMARK  status: ('A' for Active; 'I' for Inactive)
REMARK    1  A    between atoms: C1_2  and  C2_3 
ROOT
ATOM      1  C2  UNL d   1       0.447   1.892   1.034  0.00  0.00    -0.077 A 
ATOM      2  C3  UNL d   1       0.991   1.285  -0.107  0.00  0.00     0.002 A 
ATOM      3  C4  UNL d   1       0.601  -0.003  -0.476  0.00  0.00     0.002 A 
ATOM      4  C5  UNL d   1      -0.337  -0.695   0.288  0.00  0.00    -0.004 A 
ATOM      5  C6  UNL d   1      -0.883  -0.101   1.425  0.00  0.00     0.002 A 
ATOM      6  C7  UNL d   1      -0.493   1.186   1.797  0.00  0.00     0.002 A 
ENDROOT
BRANCH   1   7
ATOM      7  C1  UNL d   1       0.829   3.300   1.406  0.00  0.00     0.055 C 
ATOM      8  C   UNL d   1       2.186   3.677   0.828  0.00  0.00     0.019 C 
ENDBRANCH   1   7
TORSDOF 1
ENDMDL
