MODEL 1
REMARK minimizedAffinity -4.05624962
REMARK minimizedRMSD -1
REMARK  1 active torsions:
REMARK  status: ('A' for Active; 'I' for Inactive)
REMARK    1  A    between atoms: C1_2  and  C2_3 
ROOT
ATOM      1  C2  UNL d   1      -0.152   0.704  -0.311  0.00  0.00    -0.077 A 
ATOM      2  C3  UNL d   1      -0.363   0.004   0.885  0.00  0.00     0.002 A 
ATOM      3  C4  UNL d   1      -0.448  -1.390   0.881  0.00  0.00     0.002 A 
ATOM      4  C5  UNL d   1      -0.319  -2.094  -0.314  0.00  0.00    -0.004 A 
ATOM      5  C6  UNL d   1      -0.111  -1.406  -1.509  0.00  0.00     0.002 A 
ATOM      6  C7  UNL d   1      -0.027  -0.013  -1.507  0.00  0.00     0.002 A 
ENDROOT
BRANCH   1   7
ATOM      7  C1  UNL d   1      -0.011   2.204  -0.302  0.00  0.00     0.055 C 
ATOM      8  C   UNL d   1       1.217   2.640   0.484  0.00  0.00     0.019 C 
ENDBRANCH   1   7
TORSDOF 1
ENDMDL
