MODEL 1
REMARK minimizedAffinity 5.86433554
REMARK minimizedRMSD -1
REMARK  0 active torsions:
REMARK  status: ('A' for Active; 'I' for Inactive)
ROOT
ATOM      1  C   UNL d   1      -0.323  -2.627  -2.673  0.00  0.00    -0.002 A 
ATOM      2  C1  UNL d   1      -0.878  -1.643  -1.868  0.00  0.00     0.010 A 
ATOM      3  C2  UNL d   1      -1.123  -0.365  -2.374  0.00  0.00     0.041 A 
ATOM      4  C3  UNL d   1      -0.799  -0.091  -3.717  0.00  0.00    -0.075 A 
ATOM      5  S   UNL d   1      -1.010   1.402  -4.553  0.00  0.00     0.015 SA
ATOM      6  C4  UNL d   1      -0.370   0.768  -6.000  0.00  0.00     0.022 A 
ATOM      7  C5  UNL d   1       0.002  -0.548  -5.866  0.00  0.00     0.026 A 
ATOM      8  C6  UNL d   1      -0.239  -1.065  -4.548  0.00  0.00    -0.082 A 
ATOM      9  C7  UNL d   1      -0.003  -2.351  -4.005  0.00  0.00     0.045 A 
ENDROOT
TORSDOF 0
ENDMDL
