MODEL 1
REMARK minimizedAffinity 2.24976707
REMARK minimizedRMSD -1
REMARK  0 active torsions:
REMARK  status: ('A' for Active; 'I' for Inactive)
ROOT
ATOM      1  C   UNL d   1      -1.538  -0.863  -4.769  0.00  0.00    -0.002 A 
ATOM      2  C1  UNL d   1      -1.587   0.341  -4.080  0.00  0.00     0.010 A 
ATOM      3  C2  UNL d   1      -0.471   1.179  -4.034  0.00  0.00     0.041 A 
ATOM      4  C3  UNL d   1       0.706   0.784  -4.700  0.00  0.00    -0.075 A 
ATOM      5  S   UNL d   1       2.195   1.649  -4.780  0.00  0.00     0.015 SA
ATOM      6  C4  UNL d   1       2.931   0.442  -5.732  0.00  0.00     0.022 A 
ATOM      7  C5  UNL d   1       2.076  -0.603  -5.991  0.00  0.00     0.026 A 
ATOM      8  C6  UNL d   1       0.779  -0.423  -5.401  0.00  0.00    -0.082 A 
ATOM      9  C7  UNL d   1      -0.368  -1.251  -5.429  0.00  0.00     0.045 A 
ENDROOT
TORSDOF 0
ENDMDL
