MODEL 1
REMARK minimizedAffinity 5.34444666
REMARK minimizedRMSD -1
REMARK  0 active torsions:
REMARK  status: ('A' for Active; 'I' for Inactive)
ROOT
ATOM      1  C   UNL d   1      -1.048  -1.038   1.433  0.00  0.00    -0.002 A 
ATOM      2  C1  UNL d   1      -1.181  -0.023   2.370  0.00  0.00     0.010 A 
ATOM      3  C2  UNL d   1      -2.295   0.820   2.350  0.00  0.00     0.041 A 
ATOM      4  C3  UNL d   1      -3.282   0.621   1.365  0.00  0.00    -0.075 A 
ATOM      5  S   UNL d   1      -4.732   1.530   1.149  0.00  0.00     0.015 SA
ATOM      6  C4  UNL d   1      -5.208   0.591  -0.191  0.00  0.00     0.022 A 
ATOM      7  C5  UNL d   1      -4.296  -0.396  -0.481  0.00  0.00     0.026 A 
ATOM      8  C6  UNL d   1      -3.171  -0.395   0.412  0.00  0.00    -0.082 A 
ATOM      9  C7  UNL d   1      -2.030  -1.232   0.458  0.00  0.00     0.045 A 
ENDROOT
TORSDOF 0
ENDMDL
