MODEL 1
REMARK minimizedAffinity 0.00425123097
REMARK minimizedRMSD -1
REMARK  0 active torsions:
REMARK  status: ('A' for Active; 'I' for Inactive)
ROOT
ATOM      1  C   UNL d   1       0.042  -0.487  -1.368  0.00  0.00    -0.002 A 
ATOM      2  C1  UNL d   1      -0.945   0.426  -1.711  0.00  0.00     0.010 A 
ATOM      3  C2  UNL d   1      -1.090   0.852  -3.033  0.00  0.00     0.041 A 
ATOM      4  C3  UNL d   1      -0.219   0.338  -4.014  0.00  0.00    -0.075 A 
ATOM      5  S   UNL d   1      -0.211   0.715  -5.697  0.00  0.00     0.015 SA
ATOM      6  C4  UNL d   1       1.103  -0.327  -5.999  0.00  0.00     0.022 A 
ATOM      7  C5  UNL d   1       1.537  -0.955  -4.856  0.00  0.00     0.026 A 
ATOM      8  C6  UNL d   1       0.782  -0.583  -3.693  0.00  0.00    -0.082 A 
ATOM      9  C7  UNL d   1       0.904  -0.994  -2.344  0.00  0.00     0.045 A 
ENDROOT
TORSDOF 0
ENDMDL
