MODEL 1
REMARK minimizedAffinity 1.21519887
REMARK minimizedRMSD -1
REMARK  0 active torsions:
REMARK  status: ('A' for Active; 'I' for Inactive)
ROOT
ATOM      1  C   UNL d   1      -1.532  -0.508   1.629  0.00  0.00    -0.002 A 
ATOM      2  C1  UNL d   1      -2.269  -0.157   2.752  0.00  0.00     0.010 A 
ATOM      3  C2  UNL d   1      -3.594   0.263   2.628  0.00  0.00     0.041 A 
ATOM      4  C3  UNL d   1      -4.174   0.322   1.345  0.00  0.00    -0.075 A 
ATOM      5  S   UNL d   1      -5.781   0.805   0.952  0.00  0.00     0.015 SA
ATOM      6  C4  UNL d   1      -5.528   0.556  -0.715  0.00  0.00     0.022 A 
ATOM      7  C5  UNL d   1      -4.253   0.115  -0.983  0.00  0.00     0.026 A 
ATOM      8  C6  UNL d   1      -3.452  -0.027   0.200  0.00  0.00    -0.082 A 
ATOM      9  C7  UNL d   1      -2.110  -0.448   0.358  0.00  0.00     0.045 A 
ENDROOT
TORSDOF 0
ENDMDL
