MODEL 1
REMARK minimizedAffinity 0.734531581
REMARK minimizedRMSD -1
REMARK  0 active torsions:
REMARK  status: ('A' for Active; 'I' for Inactive)
ROOT
ATOM      1  C   UNL d   1       0.111  -2.045  -1.590  0.00  0.00    -0.002 A 
ATOM      2  C1  UNL d   1       0.654  -3.012  -2.424  0.00  0.00     0.010 A 
ATOM      3  C2  UNL d   1       0.703  -2.813  -3.806  0.00  0.00     0.041 A 
ATOM      4  C3  UNL d   1       0.192  -1.613  -4.339  0.00  0.00    -0.075 A 
ATOM      5  S   UNL d   1       0.146  -1.151  -6.000  0.00  0.00     0.015 SA
ATOM      6  C4  UNL d   1      -0.595   0.341  -5.641  0.00  0.00     0.022 A 
ATOM      7  C5  UNL d   1      -0.810   0.499  -4.292  0.00  0.00     0.026 A 
ATOM      8  C6  UNL d   1      -0.359  -0.624  -3.520  0.00  0.00    -0.082 A 
ATOM      9  C7  UNL d   1      -0.394  -0.856  -2.124  0.00  0.00     0.045 A 
ENDROOT
TORSDOF 0
ENDMDL
