MODEL 1
REMARK minimizedAffinity 1.15210724
REMARK minimizedRMSD -1
REMARK  0 active torsions:
REMARK  status: ('A' for Active; 'I' for Inactive)
ROOT
ATOM      1  C   UNL d   1      -1.117  -0.628   1.492  0.00  0.00    -0.002 A 
ATOM      2  C1  UNL d   1      -1.504   0.298   2.451  0.00  0.00     0.010 A 
ATOM      3  C2  UNL d   1      -2.743   0.935   2.364  0.00  0.00     0.041 A 
ATOM      4  C3  UNL d   1      -3.596   0.622   1.287  0.00  0.00    -0.075 A 
ATOM      5  S   UNL d   1      -5.161   1.276   0.976  0.00  0.00     0.015 SA
ATOM      6  C4  UNL d   1      -5.353   0.342  -0.436  0.00  0.00     0.022 A 
ATOM      7  C5  UNL d   1      -4.259  -0.456  -0.680  0.00  0.00     0.026 A 
ATOM      8  C6  UNL d   1      -3.229  -0.308   0.310  0.00  0.00    -0.082 A 
ATOM      9  C7  UNL d   1      -1.966  -0.936   0.426  0.00  0.00     0.045 A 
ENDROOT
TORSDOF 0
ENDMDL
