MODEL 1
REMARK minimizedAffinity 4.53345442
REMARK minimizedRMSD -1
REMARK  0 active torsions:
REMARK  status: ('A' for Active; 'I' for Inactive)
ROOT
ATOM      1  C   UNL d   1      -0.003  -2.994  -2.747  0.00  0.00    -0.002 A 
ATOM      2  C1  UNL d   1      -0.354  -2.002  -1.842  0.00  0.00     0.010 A 
ATOM      3  C2  UNL d   1      -0.702  -0.725  -2.287  0.00  0.00     0.041 A 
ATOM      4  C3  UNL d   1      -0.694  -0.460  -3.671  0.00  0.00    -0.075 A 
ATOM      5  S   UNL d   1      -1.085   1.029  -4.446  0.00  0.00     0.015 SA
ATOM      6  C4  UNL d   1      -0.797   0.384  -5.997  0.00  0.00     0.022 A 
ATOM      7  C5  UNL d   1      -0.410  -0.934  -5.943  0.00  0.00     0.026 A 
ATOM      8  C6  UNL d   1      -0.345  -1.443  -4.602  0.00  0.00    -0.082 A 
ATOM      9  C7  UNL d   1       0.004  -2.727  -4.119  0.00  0.00     0.045 A 
ENDROOT
TORSDOF 0
ENDMDL
