MODEL 1
REMARK minimizedAffinity 8.49099731
REMARK minimizedRMSD -1
REMARK  1 active torsions:
REMARK  status: ('A' for Active; 'I' for Inactive)
REMARK    1  A    between atoms: C1_2  and  C2_3 
ROOT
ATOM      1  C2  UNL d   1      -0.407   5.039  -1.439  0.00  0.00    -0.077 A 
ATOM      2  C3  UNL d   1      -1.755   5.423  -1.451  0.00  0.00     0.002 A 
ATOM      3  C4  UNL d   1      -2.342   5.903  -2.623  0.00  0.00     0.002 A 
ATOM      4  C5  UNL d   1      -1.590   6.000  -3.792  0.00  0.00    -0.004 A 
ATOM      5  C6  UNL d   1      -0.248   5.622  -3.790  0.00  0.00     0.002 A 
ATOM      6  C7  UNL d   1       0.341   5.143  -2.619  0.00  0.00     0.002 A 
ENDROOT
BRANCH   1   7
ATOM      7  C1  UNL d   1       0.215   4.475  -0.188  0.00  0.00     0.055 C 
ATOM      8  C   UNL d   1       0.873   3.129  -0.456  0.00  0.00     0.019 C 
ENDBRANCH   1   7
TORSDOF 1
ENDMDL
