MODEL 1
REMARK minimizedAffinity 1.29997289
REMARK minimizedRMSD -1
REMARK  1 active torsions:
REMARK  status: ('A' for Active; 'I' for Inactive)
REMARK    1  A    between atoms: C1_2  and  C2_3 
ROOT
ATOM      1  C2  UNL d   1       3.427   5.715  -4.828  0.00  0.00    -0.077 A 
ATOM      2  C3  UNL d   1       2.714   5.423  -5.999  0.00  0.00     0.002 A 
ATOM      3  C4  UNL d   1       1.318   5.415  -5.993  0.00  0.00     0.002 A 
ATOM      4  C5  UNL d   1       0.623   5.700  -4.820  0.00  0.00    -0.004 A 
ATOM      5  C6  UNL d   1       1.322   5.989  -3.649  0.00  0.00     0.002 A 
ATOM      6  C7  UNL d   1       2.718   5.997  -3.653  0.00  0.00     0.002 A 
ENDROOT
BRANCH   1   7
ATOM      7  C1  UNL d   1       4.932   5.773  -4.844  0.00  0.00     0.055 C 
ATOM      8  C   UNL d   1       5.541   4.397  -4.618  0.00  0.00     0.019 C 
ENDBRANCH   1   7
TORSDOF 1
ENDMDL
