MODEL 1
REMARK minimizedAffinity -1.64573956
REMARK minimizedRMSD -1
REMARK  1 active torsions:
REMARK  status: ('A' for Active; 'I' for Inactive)
REMARK    1  A    between atoms: C1_2  and  C2_3 
ROOT
ATOM      1  C2  UNL d   1       2.257   5.965  -4.621  0.00  0.00    -0.077 A 
ATOM      2  C3  UNL d   1       1.643   5.964  -5.882  0.00  0.00     0.002 A 
ATOM      3  C4  UNL d   1       0.252   5.978  -5.991  0.00  0.00     0.002 A 
ATOM      4  C5  UNL d   1      -0.538   5.998  -4.843  0.00  0.00    -0.004 A 
ATOM      5  C6  UNL d   1       0.062   5.998  -3.584  0.00  0.00     0.002 A 
ATOM      6  C7  UNL d   1       1.453   5.982  -3.474  0.00  0.00     0.002 A 
ENDROOT
BRANCH   1   7
ATOM      7  C1  UNL d   1       3.758   6.000  -4.502  0.00  0.00     0.055 C 
ATOM      8  C   UNL d   1       4.426   5.627  -5.818  0.00  0.00     0.019 C 
ENDBRANCH   1   7
TORSDOF 1
ENDMDL
