MODEL 1
REMARK minimizedAffinity -2.34432912
REMARK minimizedRMSD -1
REMARK  1 active torsions:
REMARK  status: ('A' for Active; 'I' for Inactive)
REMARK    1  A    between atoms: C1_2  and  C2_3 
ROOT
ATOM      1  C2  UNL d   1      -0.639   5.595  -3.560  0.00  0.00    -0.077 A 
ATOM      2  C3  UNL d   1       0.695   5.999  -3.406  0.00  0.00     0.002 A 
ATOM      3  C4  UNL d   1       1.594   5.889  -4.469  0.00  0.00     0.002 A 
ATOM      4  C5  UNL d   1       1.168   5.378  -5.693  0.00  0.00    -0.004 A 
ATOM      5  C6  UNL d   1      -0.156   4.971  -5.856  0.00  0.00     0.002 A 
ATOM      6  C7  UNL d   1      -1.055   5.080  -4.794  0.00  0.00     0.002 A 
ENDROOT
BRANCH   1   7
ATOM      7  C1  UNL d   1      -1.622   5.759  -2.431  0.00  0.00     0.055 C 
ATOM      8  C   UNL d   1      -3.032   5.992  -2.953  0.00  0.00     0.019 C 
ENDBRANCH   1   7
TORSDOF 1
ENDMDL
