MODEL 1
REMARK minimizedAffinity 2.47179961
REMARK minimizedRMSD -1
REMARK  1 active torsions:
REMARK  status: ('A' for Active; 'I' for Inactive)
REMARK    1  A    between atoms: C1_2  and  C2_3 
ROOT
ATOM      1  C2  UNL d   1       0.705   0.131   0.217  0.00  0.00    -0.077 A 
ATOM      2  C3  UNL d   1       1.067   1.003   1.253  0.00  0.00     0.002 A 
ATOM      3  C4  UNL d   1       1.620   2.252   0.963  0.00  0.00     0.002 A 
ATOM      4  C5  UNL d   1       1.811   2.642  -0.361  0.00  0.00    -0.004 A 
ATOM      5  C6  UNL d   1       1.456   1.780  -1.398  0.00  0.00     0.002 A 
ATOM      6  C7  UNL d   1       0.904   0.531  -1.111  0.00  0.00     0.002 A 
ENDROOT
BRANCH   1   7
ATOM      7  C1  UNL d   1       0.063  -1.196   0.526  0.00  0.00     0.055 C 
ATOM      8  C   UNL d   1      -1.455  -1.105   0.463  0.00  0.00     0.019 C 
ENDBRANCH   1   7
TORSDOF 1
ENDMDL
