MODEL 1
REMARK minimizedAffinity -3.43696618
REMARK minimizedRMSD -1
REMARK  1 active torsions:
REMARK  status: ('A' for Active; 'I' for Inactive)
REMARK    1  A    between atoms: C1_2  and  C2_3 
ROOT
ATOM      1  C2  UNL d   1      -1.521   5.921  -4.119  0.00  0.00    -0.077 A 
ATOM      2  C3  UNL d   1      -0.840   5.822  -2.898  0.00  0.00     0.002 A 
ATOM      3  C4  UNL d   1      -1.547   5.804  -1.694  0.00  0.00     0.002 A 
ATOM      4  C5  UNL d   1      -2.938   5.879  -1.700  0.00  0.00    -0.004 A 
ATOM      5  C6  UNL d   1      -3.625   5.979  -2.910  0.00  0.00     0.002 A 
ATOM      6  C7  UNL d   1      -2.920   5.999  -4.114  0.00  0.00     0.002 A 
ENDROOT
BRANCH   1   7
ATOM      7  C1  UNL d   1      -0.763   5.892  -5.420  0.00  0.00     0.055 C 
ATOM      8  C   UNL d   1       0.301   4.803  -5.417  0.00  0.00     0.019 C 
ENDBRANCH   1   7
TORSDOF 1
ENDMDL
