MODEL 1
REMARK minimizedAffinity 7.8468318
REMARK minimizedRMSD -1
REMARK  1 active torsions:
REMARK  status: ('A' for Active; 'I' for Inactive)
REMARK    1  A    between atoms: C1_2  and  C2_3 
ROOT
ATOM      1  C2  UNL d   1       0.593   1.113   0.841  0.00  0.00    -0.077 A 
ATOM      2  C3  UNL d   1       1.151   2.353   1.183  0.00  0.00     0.002 A 
ATOM      3  C4  UNL d   1       1.719   3.167   0.201  0.00  0.00     0.002 A 
ATOM      4  C5  UNL d   1       1.730   2.752  -1.129  0.00  0.00    -0.004 A 
ATOM      5  C6  UNL d   1       1.180   1.519  -1.479  0.00  0.00     0.002 A 
ATOM      6  C7  UNL d   1       0.613   0.704  -0.498  0.00  0.00     0.002 A 
ENDROOT
BRANCH   1   7
ATOM      7  C1  UNL d   1      -0.063   0.256   1.892  0.00  0.00     0.055 C 
ATOM      8  C   UNL d   1      -0.287   1.033   3.180  0.00  0.00     0.019 C 
ENDBRANCH   1   7
TORSDOF 1
ENDMDL
