MODEL 1
REMARK minimizedAffinity -4.03001928
REMARK minimizedRMSD -1
REMARK  1 active torsions:
REMARK  status: ('A' for Active; 'I' for Inactive)
REMARK    1  A    between atoms: C1_2  and  C2_3 
ROOT
ATOM      1  C2  UNL d   1      -0.677  -1.285   0.340  0.00  0.00    -0.076 A 
ATOM      2  C3  UNL d   1       0.684  -1.424   0.021  0.00  0.00     0.004 A 
ATOM      3  C4  UNL d   1       1.480  -0.308  -0.233  0.00  0.00    -0.003 A 
ATOM      4  C5  UNL d   1       0.926   0.966  -0.173  0.00  0.00     0.000 A 
ATOM      5  C6  UNL d   1      -0.419   1.124   0.160  0.00  0.00     0.000 A 
ATOM      6  C7  UNL d   1      -1.231   0.010   0.435  0.00  0.00    -0.073 A 
ATOM      7  C8  UNL d   1      -2.676   0.239   0.782  0.00  0.00     0.078 C 
ENDROOT
BRANCH   1   8
ATOM      8  C1  UNL d   1      -1.497  -2.533   0.580  0.00  0.00     0.053 C 
ATOM      9  C   UNL d   1      -1.372  -3.047   2.006  0.00  0.00     0.018 C 
ENDBRANCH   1   8
TORSDOF 1
ENDMDL
