MODEL 1
REMARK minimizedAffinity -3.18688369
REMARK minimizedRMSD -1
REMARK  1 active torsions:
REMARK  status: ('A' for Active; 'I' for Inactive)
REMARK    1  A    between atoms: C1_2  and  C2_3 
ROOT
ATOM      1  C2  UNL d   1      -1.051  -0.861   0.614  0.00  0.00    -0.076 A 
ATOM      2  C3  UNL d   1       0.278  -0.992   0.174  0.00  0.00     0.004 A 
ATOM      3  C4  UNL d   1       1.101   0.124   0.036  0.00  0.00    -0.003 A 
ATOM      4  C5  UNL d   1       0.609   1.390   0.337  0.00  0.00     0.000 A 
ATOM      5  C6  UNL d   1      -0.701   1.536   0.792  0.00  0.00     0.000 A 
ATOM      6  C7  UNL d   1      -1.539   0.419   0.952  0.00  0.00    -0.073 A 
ATOM      7  C8  UNL d   1      -2.945   0.635   1.441  0.00  0.00     0.078 C 
ENDROOT
BRANCH   1   8
ATOM      8  C1  UNL d   1      -1.905  -2.105   0.718  0.00  0.00     0.053 C 
ATOM      9  C   UNL d   1      -1.904  -2.697   2.119  0.00  0.00     0.018 C 
ENDBRANCH   1   8
TORSDOF 1
ENDMDL
