MODEL 1
REMARK minimizedAffinity -4.8144021
REMARK minimizedRMSD -1
REMARK  1 active torsions:
REMARK  status: ('A' for Active; 'I' for Inactive)
REMARK    1  A    between atoms: C1_2  and  C2_3 
ROOT
ATOM      1  C2  UNL d   1      -0.443  -0.399   0.253  0.00  0.00    -0.076 A 
ATOM      2  C3  UNL d   1      -1.817  -0.386   0.551  0.00  0.00     0.004 A 
ATOM      3  C4  UNL d   1      -2.373  -1.329   1.413  0.00  0.00    -0.003 A 
ATOM      4  C5  UNL d   1      -1.564  -2.300   1.994  0.00  0.00     0.000 A 
ATOM      5  C6  UNL d   1      -0.196  -2.317   1.724  0.00  0.00     0.000 A 
ATOM      6  C7  UNL d   1       0.383  -1.363   0.869  0.00  0.00    -0.073 A 
ATOM      7  C8  UNL d   1       1.863  -1.432   0.609  0.00  0.00     0.078 C 
ENDROOT
BRANCH   1   8
ATOM      8  C1  UNL d   1       0.099   0.632  -0.711  0.00  0.00     0.053 C 
ATOM      9  C   UNL d   1       0.528   1.913  -0.013  0.00  0.00     0.018 C 
ENDBRANCH   1   8
TORSDOF 1
ENDMDL
