MODEL 1
REMARK minimizedAffinity -4.17833948
REMARK minimizedRMSD -1
REMARK  1 active torsions:
REMARK  status: ('A' for Active; 'I' for Inactive)
REMARK    1  A    between atoms: C1_2  and  C2_3 
ROOT
ATOM      1  C2  UNL d   1       0.075   0.198   0.274  0.00  0.00    -0.076 A 
ATOM      2  C3  UNL d   1       1.150  -0.700   0.160  0.00  0.00     0.004 A 
ATOM      3  C4  UNL d   1       1.021  -2.028   0.562  0.00  0.00    -0.003 A 
ATOM      4  C5  UNL d   1      -0.186  -2.480   1.085  0.00  0.00     0.000 A 
ATOM      5  C6  UNL d   1      -1.268  -1.607   1.190  0.00  0.00     0.000 A 
ATOM      6  C7  UNL d   1      -1.160  -0.269   0.773  0.00  0.00    -0.073 A 
ATOM      7  C8  UNL d   1      -2.358   0.630   0.914  0.00  0.00     0.078 C 
ENDROOT
BRANCH   1   8
ATOM      8  C1  UNL d   1       0.282   1.634  -0.153  0.00  0.00     0.053 C 
ATOM      9  C   UNL d   1       1.052   1.748  -1.459  0.00  0.00     0.018 C 
ENDBRANCH   1   8
TORSDOF 1
ENDMDL
