MODEL 1
REMARK minimizedAffinity -5.32863569
REMARK minimizedRMSD -1
REMARK  1 active torsions:
REMARK  status: ('A' for Active; 'I' for Inactive)
REMARK    1  A    between atoms: C1_2  and  C2_3 
ROOT
ATOM      1  C2  UNL d   1      -0.726  -0.759   0.706  0.00  0.00    -0.076 A 
ATOM      2  C3  UNL d   1       0.548  -0.821   0.114  0.00  0.00     0.004 A 
ATOM      3  C4  UNL d   1       1.243   0.342  -0.215  0.00  0.00    -0.003 A 
ATOM      4  C5  UNL d   1       0.676   1.585   0.043  0.00  0.00     0.000 A 
ATOM      5  C6  UNL d   1      -0.579   1.665   0.646  0.00  0.00     0.000 A 
ATOM      6  C7  UNL d   1      -1.286   0.502   0.999  0.00  0.00    -0.073 A 
ATOM      7  C8  UNL d   1      -2.638   0.647   1.642  0.00  0.00     0.078 C 
ENDROOT
BRANCH   1   8
ATOM      8  C1  UNL d   1      -1.443  -2.054   1.016  0.00  0.00     0.053 C 
ATOM      9  C   UNL d   1      -1.234  -2.506   2.453  0.00  0.00     0.018 C 
ENDBRANCH   1   8
TORSDOF 1
ENDMDL
