MODEL 1
REMARK minimizedAffinity -3.9254992
REMARK minimizedRMSD -1
REMARK  1 active torsions:
REMARK  status: ('A' for Active; 'I' for Inactive)
REMARK    1  A    between atoms: C1_2  and  C2_3 
ROOT
ATOM      1  C2  UNL d   1       1.493   1.786  -1.563  0.00  0.00    -0.076 A 
ATOM      2  C3  UNL d   1       2.809   1.372  -1.828  0.00  0.00     0.004 A 
ATOM      3  C4  UNL d   1       3.335   1.432  -3.117  0.00  0.00    -0.003 A 
ATOM      4  C5  UNL d   1       2.552   1.909  -4.163  0.00  0.00     0.000 A 
ATOM      5  C6  UNL d   1       1.250   2.341  -3.915  0.00  0.00     0.000 A 
ATOM      6  C7  UNL d   1       0.710   2.302  -2.618  0.00  0.00    -0.073 A 
ATOM      7  C8  UNL d   1      -0.702   2.775  -2.409  0.00  0.00     0.078 C 
ENDROOT
BRANCH   1   8
ATOM      8  C1  UNL d   1       0.968   1.672  -0.149  0.00  0.00     0.053 C 
ATOM      9  C   UNL d   1       0.796   0.227   0.294  0.00  0.00     0.018 C 
ENDBRANCH   1   8
TORSDOF 1
ENDMDL
