MODEL 1
REMARK minimizedAffinity -4.11046171
REMARK minimizedRMSD -1
REMARK  1 active torsions:
REMARK  status: ('A' for Active; 'I' for Inactive)
REMARK    1  A    between atoms: C1_2  and  C2_3 
ROOT
ATOM      1  C2  UNL d   1      -0.493   0.010   0.716  0.00  0.00    -0.076 A 
ATOM      2  C3  UNL d   1      -1.452   0.913   1.208  0.00  0.00     0.004 A 
ATOM      3  C4  UNL d   1      -2.344   0.536   2.210  0.00  0.00    -0.003 A 
ATOM      4  C5  UNL d   1      -2.291  -0.750   2.737  0.00  0.00     0.000 A 
ATOM      5  C6  UNL d   1      -1.335  -1.653   2.274  0.00  0.00     0.000 A 
ATOM      6  C7  UNL d   1      -0.417  -1.283   1.275  0.00  0.00    -0.073 A 
ATOM      7  C8  UNL d   1       0.589  -2.299   0.808  0.00  0.00     0.078 C 
ENDROOT
BRANCH   1   8
ATOM      8  C1  UNL d   1       0.431   0.467  -0.391  0.00  0.00     0.053 C 
ATOM      9  C   UNL d   1       0.052   1.834  -0.940  0.00  0.00     0.018 C 
ENDBRANCH   1   8
TORSDOF 1
ENDMDL
