MODEL 1
REMARK minimizedAffinity -5.63567543
REMARK minimizedRMSD -1
REMARK  1 active torsions:
REMARK  status: ('A' for Active; 'I' for Inactive)
REMARK    1  A    between atoms: C1_2  and  C2_3 
ROOT
ATOM      1  C2  UNL d   1      -1.274  -0.412   0.351  0.00  0.00    -0.076 A 
ATOM      2  C3  UNL d   1      -0.836  -1.725   0.110  0.00  0.00     0.004 A 
ATOM      3  C4  UNL d   1      -1.436  -2.810   0.746  0.00  0.00    -0.003 A 
ATOM      4  C5  UNL d   1      -2.485  -2.599   1.634  0.00  0.00     0.000 A 
ATOM      5  C6  UNL d   1      -2.944  -1.304   1.872  0.00  0.00     0.000 A 
ATOM      6  C7  UNL d   1      -2.361  -0.201   1.227  0.00  0.00    -0.073 A 
ATOM      7  C8  UNL d   1      -2.892   1.175   1.525  0.00  0.00     0.078 C 
ENDROOT
BRANCH   1   8
ATOM      8  C1  UNL d   1      -0.567   0.728  -0.347  0.00  0.00     0.053 C 
ATOM      9  C   UNL d   1       0.917   0.458  -0.546  0.00  0.00     0.018 C 
ENDBRANCH   1   8
TORSDOF 1
ENDMDL
