MODEL 1
REMARK minimizedAffinity -4.48530769
REMARK minimizedRMSD -1
REMARK  1 active torsions:
REMARK  status: ('A' for Active; 'I' for Inactive)
REMARK    1  A    between atoms: C1_2  and  C2_3 
ROOT
ATOM      1  C2  UNL d   1      -1.373  -0.397   0.724  0.00  0.00    -0.076 A 
ATOM      2  C3  UNL d   1      -0.507   0.653   0.372  0.00  0.00     0.004 A 
ATOM      3  C4  UNL d   1       0.817   0.401   0.016  0.00  0.00    -0.003 A 
ATOM      4  C5  UNL d   1       1.296  -0.905   0.005  0.00  0.00     0.000 A 
ATOM      5  C6  UNL d   1       0.445  -1.960   0.334  0.00  0.00     0.000 A 
ATOM      6  C7  UNL d   1      -0.897  -1.724   0.680  0.00  0.00    -0.073 A 
ATOM      7  C8  UNL d   1      -1.768  -2.899   1.032  0.00  0.00     0.078 C 
ENDROOT
BRANCH   1   8
ATOM      8  C1  UNL d   1      -2.791  -0.060   1.128  0.00  0.00     0.053 C 
ATOM      9  C   UNL d   1      -2.905   1.318   1.760  0.00  0.00     0.018 C 
ENDBRANCH   1   8
TORSDOF 1
ENDMDL
