MODEL 1
REMARK minimizedAffinity -5.04617405
REMARK minimizedRMSD -1
REMARK  2 active torsions:
REMARK  status: ('A' for Active; 'I' for Inactive)
REMARK    1  A    between atoms: C1_2  and  C2_3 
REMARK    2  A    between atoms: C2_3  and  C3_4 
ROOT
ATOM      1  C3  UNL d   1      -0.219   0.146  -0.053  0.00  0.00    -0.075 A 
ATOM      2  C4  UNL d   1      -1.560   0.178   0.355  0.00  0.00     0.002 A 
ATOM      3  C5  UNL d   1      -1.928   0.841   1.526  0.00  0.00     0.002 A 
ATOM      4  C6  UNL d   1      -0.961   1.469   2.308  0.00  0.00    -0.004 A 
ATOM      5  C7  UNL d   1       0.377   1.429   1.920  0.00  0.00     0.002 A 
ATOM      6  C8  UNL d   1       0.747   0.771   0.746  0.00  0.00     0.002 A 
ENDROOT
BRANCH   1   7
ATOM      7  C2  UNL d   1       0.182  -0.545  -1.335  0.00  0.00     0.056 C 
BRANCH   7   8
ATOM      8  C1  UNL d   1       0.603   0.413  -2.454  0.00  0.00     0.007 C 
ATOM      9  C   UNL d   1       0.463  -0.190  -3.846  0.00  0.00     0.009 C 
ENDBRANCH   7   8
ENDBRANCH   1   7
TORSDOF 2
ENDMDL
