MODEL 1
REMARK minimizedAffinity -5.55377436
REMARK minimizedRMSD -1
REMARK  2 active torsions:
REMARK  status: ('A' for Active; 'I' for Inactive)
REMARK    1  A    between atoms: C1_2  and  C2_3 
REMARK    2  A    between atoms: C2_3  and  C3_4 
ROOT
ATOM      1  C3  UNL d   1       0.065  -0.141  -0.036  0.00  0.00    -0.075 A 
ATOM      2  C4  UNL d   1      -1.332  -0.161   0.089  0.00  0.00     0.002 A 
ATOM      3  C5  UNL d   1      -1.956   0.467   1.167  0.00  0.00     0.002 A 
ATOM      4  C6  UNL d   1      -1.193   1.114   2.136  0.00  0.00    -0.004 A 
ATOM      5  C7  UNL d   1       0.196   1.127   2.031  0.00  0.00     0.002 A 
ATOM      6  C8  UNL d   1       0.823   0.503   0.951  0.00  0.00     0.002 A 
ENDROOT
BRANCH   1   7
ATOM      7  C2  UNL d   1       0.745  -0.794  -1.216  0.00  0.00     0.056 C 
BRANCH   7   8
ATOM      8  C1  UNL d   1       0.433  -0.130  -2.562  0.00  0.00     0.007 C 
ATOM      9  C   UNL d   1       1.628   0.594  -3.165  0.00  0.00     0.009 C 
ENDBRANCH   7   8
ENDBRANCH   1   7
TORSDOF 2
ENDMDL
