MODEL 1
REMARK minimizedAffinity -5.17168522
REMARK minimizedRMSD -1
REMARK  2 active torsions:
REMARK  status: ('A' for Active; 'I' for Inactive)
REMARK    1  A    between atoms: C1_2  and  C2_3 
REMARK    2  A    between atoms: C2_3  and  C3_4 
ROOT
ATOM      1  C3  UNL d   1       0.277  -0.419   0.136  0.00  0.00    -0.075 A 
ATOM      2  C4  UNL d   1       1.382  -0.741   0.938  0.00  0.00     0.002 A 
ATOM      3  C5  UNL d   1       1.350  -0.511   2.314  0.00  0.00     0.002 A 
ATOM      4  C6  UNL d   1       0.220   0.051   2.903  0.00  0.00    -0.004 A 
ATOM      5  C7  UNL d   1      -0.877   0.390   2.114  0.00  0.00     0.002 A 
ATOM      6  C8  UNL d   1      -0.850   0.157   0.738  0.00  0.00     0.002 A 
ENDROOT
BRANCH   1   7
ATOM      7  C2  UNL d   1       0.294  -0.693  -1.349  0.00  0.00     0.056 C 
BRANCH   7   8
ATOM      8  C1  UNL d   1       1.063   0.351  -2.166  0.00  0.00     0.007 C 
ATOM      9  C   UNL d   1       0.920   0.159  -3.670  0.00  0.00     0.009 C 
ENDBRANCH   7   8
ENDBRANCH   1   7
TORSDOF 2
ENDMDL
