MODEL 1
REMARK minimizedAffinity -4.27099514
REMARK minimizedRMSD -1
REMARK  2 active torsions:
REMARK  status: ('A' for Active; 'I' for Inactive)
REMARK    1  A    between atoms: C1_2  and  C2_3 
REMARK    2  A    between atoms: C2_3  and  C3_4 
ROOT
ATOM      1  C3  UNL d   1      -0.798   0.559   0.195  0.00  0.00    -0.075 A 
ATOM      2  C4  UNL d   1      -1.843   0.370   1.111  0.00  0.00     0.002 A 
ATOM      3  C5  UNL d   1      -1.702   0.774   2.439  0.00  0.00     0.002 A 
ATOM      4  C6  UNL d   1      -0.514   1.361   2.870  0.00  0.00    -0.004 A 
ATOM      5  C7  UNL d   1       0.536   1.539   1.972  0.00  0.00     0.002 A 
ATOM      6  C8  UNL d   1       0.397   1.140   0.641  0.00  0.00     0.002 A 
ENDROOT
BRANCH   1   7
ATOM      7  C2  UNL d   1      -0.955   0.151  -1.251  0.00  0.00     0.056 C 
BRANCH   7   8
ATOM      8  C1  UNL d   1       0.326  -0.398  -1.886  0.00  0.00     0.007 C 
ATOM      9  C   UNL d   1       0.360  -0.240  -3.401  0.00  0.00     0.009 C 
ENDBRANCH   7   8
ENDBRANCH   1   7
TORSDOF 2
ENDMDL
