MODEL 1
REMARK minimizedAffinity -2.04111433
REMARK minimizedRMSD -1
REMARK  2 active torsions:
REMARK  status: ('A' for Active; 'I' for Inactive)
REMARK    1  A    between atoms: C1_2  and  C2_3 
REMARK    2  A    between atoms: C2_3  and  C3_4 
ROOT
ATOM      1  C3  UNL d   1      -0.146  -0.077   0.048  0.00  0.00    -0.075 A 
ATOM      2  C4  UNL d   1      -1.417   0.417  -0.281  0.00  0.00     0.002 A 
ATOM      3  C5  UNL d   1      -2.315   0.784   0.722  0.00  0.00     0.002 A 
ATOM      4  C6  UNL d   1      -1.959   0.653   2.062  0.00  0.00    -0.004 A 
ATOM      5  C7  UNL d   1      -0.705   0.148   2.400  0.00  0.00     0.002 A 
ATOM      6  C8  UNL d   1       0.197  -0.216   1.399  0.00  0.00     0.002 A 
ENDROOT
BRANCH   1   7
ATOM      7  C2  UNL d   1       0.841  -0.449  -1.033  0.00  0.00     0.056 C 
BRANCH   7   8
ATOM      8  C1  UNL d   1       0.489   0.105  -2.417  0.00  0.00     0.007 C 
ATOM      9  C   UNL d   1       1.711   0.380  -3.283  0.00  0.00     0.009 C 
ENDBRANCH   7   8
ENDBRANCH   1   7
TORSDOF 2
ENDMDL
