MODEL 1
REMARK minimizedAffinity 13.761013
REMARK minimizedRMSD -1
REMARK  0 active torsions:
REMARK  status: ('A' for Active; 'I' for Inactive)
ROOT
ATOM      1  C   UNL d   1       5.654   2.428  -0.959  0.00  0.00    -0.002 A 
ATOM      2  C1  UNL d   1       5.997   1.503  -1.936  0.00  0.00     0.010 A 
ATOM      3  C2  UNL d   1       5.193   0.386  -2.168  0.00  0.00     0.041 A 
ATOM      4  C3  UNL d   1       4.027   0.213  -1.397  0.00  0.00    -0.075 A 
ATOM      5  S   UNL d   1       2.890  -1.079  -1.506  0.00  0.00     0.015 SA
ATOM      6  C4  UNL d   1       1.923  -0.433  -0.261  0.00  0.00     0.022 A 
ATOM      7  C5  UNL d   1       2.440   0.739   0.238  0.00  0.00     0.026 A 
ATOM      8  C6  UNL d   1       3.661   1.131  -0.409  0.00  0.00    -0.082 A 
ATOM      9  C7  UNL d   1       4.497   2.253  -0.196  0.00  0.00     0.045 A 
ENDROOT
TORSDOF 0
ENDMDL
