MODEL 1
REMARK minimizedAffinity 17.1979504
REMARK minimizedRMSD -1
REMARK  0 active torsions:
REMARK  status: ('A' for Active; 'I' for Inactive)
ROOT
ATOM      1  C   UNL d   1       4.198  -0.106   0.095  0.00  0.00    -0.002 A 
ATOM      2  C1  UNL d   1       4.534   0.322  -1.181  0.00  0.00     0.010 A 
ATOM      3  C2  UNL d   1       4.205  -0.448  -2.298  0.00  0.00     0.041 A 
ATOM      4  C3  UNL d   1       3.524  -1.667  -2.109  0.00  0.00    -0.075 A 
ATOM      5  S   UNL d   1       3.018  -2.775  -3.329  0.00  0.00     0.015 SA
ATOM      6  C4  UNL d   1       2.342  -3.843  -2.185  0.00  0.00     0.022 A 
ATOM      7  C5  UNL d   1       2.491  -3.380  -0.898  0.00  0.00     0.026 A 
ATOM      8  C6  UNL d   1       3.174  -2.119  -0.834  0.00  0.00    -0.082 A 
ATOM      9  C7  UNL d   1       3.522  -1.316   0.279  0.00  0.00     0.045 A 
ENDROOT
TORSDOF 0
ENDMDL
