MODEL 1
REMARK minimizedAffinity 20.0769138
REMARK minimizedRMSD -1
REMARK  0 active torsions:
REMARK  status: ('A' for Active; 'I' for Inactive)
ROOT
ATOM      1  C   UNL d   1      -2.668  -6.000  -5.996  0.00  0.00    -0.002 A 
ATOM      2  C1  UNL d   1      -3.807  -5.221  -5.851  0.00  0.00     0.010 A 
ATOM      3  C2  UNL d   1      -3.985  -4.429  -4.715  0.00  0.00     0.041 A 
ATOM      4  C3  UNL d   1      -2.989  -4.432  -3.719  0.00  0.00    -0.075 A 
ATOM      5  S   UNL d   1      -2.991  -3.540  -2.243  0.00  0.00     0.015 SA
ATOM      6  C4  UNL d   1      -1.480  -4.171  -1.772  0.00  0.00     0.022 A 
ATOM      7  C5  UNL d   1      -0.972  -5.043  -2.706  0.00  0.00     0.026 A 
ATOM      8  C6  UNL d   1      -1.832  -5.207  -3.843  0.00  0.00    -0.082 A 
ATOM      9  C7  UNL d   1      -1.681  -6.000  -5.007  0.00  0.00     0.045 A 
ENDROOT
TORSDOF 0
ENDMDL
