MODEL 1
REMARK minimizedAffinity 14.8312359
REMARK minimizedRMSD -1
REMARK  0 active torsions:
REMARK  status: ('A' for Active; 'I' for Inactive)
ROOT
ATOM      1  C   UNL d   1      -4.108   1.536  -5.999  0.00  0.00    -0.002 A 
ATOM      2  C1  UNL d   1      -5.160   0.842  -5.419  0.00  0.00     0.010 A 
ATOM      3  C2  UNL d   1      -4.967   0.110  -4.246  0.00  0.00     0.041 A 
ATOM      4  C3  UNL d   1      -3.686   0.088  -3.659  0.00  0.00    -0.075 A 
ATOM      5  S   UNL d   1      -3.215  -0.739  -2.221  0.00  0.00     0.015 SA
ATOM      6  C4  UNL d   1      -1.606  -0.190  -2.344  0.00  0.00     0.022 A 
ATOM      7  C5  UNL d   1      -1.415   0.606  -3.448  0.00  0.00     0.026 A 
ATOM      8  C6  UNL d   1      -2.611   0.780  -4.224  0.00  0.00    -0.082 A 
ATOM      9  C7  UNL d   1      -2.839   1.512  -5.415  0.00  0.00     0.045 A 
ENDROOT
TORSDOF 0
ENDMDL
