MODEL 1
REMARK minimizedAffinity -2.99585032
REMARK minimizedRMSD -1
REMARK  1 active torsions:
REMARK  status: ('A' for Active; 'I' for Inactive)
REMARK    1  A    between atoms: N_2  and  C1_3 
ROOT
ATOM      1  C1  UNL d   1       0.609  -0.096  -0.055  0.00  0.00     0.143 A 
ATOM      2  C2  UNL d   1       0.106   1.206  -0.152  0.00  0.00    -0.057 A 
ATOM      3  C3  UNL d   1      -0.749   1.728   0.825  0.00  0.00     0.033 A 
ATOM      4  C4  UNL d   1      -1.141   0.945   1.906  0.00  0.00    -0.042 A 
ATOM      5  C5  UNL d   1      -0.674  -0.360   2.010  0.00  0.00     0.033 A 
ATOM      6  C6  UNL d   1       0.186  -0.874   1.034  0.00  0.00    -0.057 A 
ENDROOT
BRANCH   1   7
ATOM      7  N   UNL d   1       1.384  -0.706  -1.044  0.00  0.00    -0.732 N 
ATOM      8  C   UNL d   1       1.022  -2.006  -1.567  0.00  0.00     0.284 C 
ATOM      9  H3  UNL d   1       1.701  -0.047  -1.752  0.00  0.00     0.395 HD
ENDBRANCH   1   7
TORSDOF 1
ENDMDL
