MODEL 1
REMARK minimizedAffinity -2.29939675
REMARK minimizedRMSD -1
REMARK  1 active torsions:
REMARK  status: ('A' for Active; 'I' for Inactive)
REMARK    1  A    between atoms: N_2  and  C1_3 
ROOT
ATOM      1  C1  UNL d   1       0.367  -0.645  -0.064  0.00  0.00     0.143 A 
ATOM      2  C2  UNL d   1       0.168   0.590  -0.689  0.00  0.00    -0.057 A 
ATOM      3  C3  UNL d   1      -0.494   1.637  -0.036  0.00  0.00     0.033 A 
ATOM      4  C4  UNL d   1      -0.996   1.456   1.249  0.00  0.00    -0.042 A 
ATOM      5  C5  UNL d   1      -0.832   0.228   1.880  0.00  0.00     0.033 A 
ATOM      6  C6  UNL d   1      -0.164  -0.811   1.225  0.00  0.00    -0.057 A 
ENDROOT
BRANCH   1   7
ATOM      7  N   UNL d   1       0.930  -1.756  -0.697  0.00  0.00    -0.732 N 
ATOM      8  C   UNL d   1       0.252  -2.396  -1.804  0.00  0.00     0.284 C 
ATOM      9  H3  UNL d   1       1.936  -1.662  -0.824  0.00  0.00     0.395 HD
ENDBRANCH   1   7
TORSDOF 1
ENDMDL
