MODEL 1
REMARK minimizedAffinity -4.09681225
REMARK minimizedRMSD -1
REMARK  1 active torsions:
REMARK  status: ('A' for Active; 'I' for Inactive)
REMARK    1  A    between atoms: N_2  and  C1_3 
ROOT
ATOM      1  C1  UNL d   1      -0.735   1.399   0.050  0.00  0.00     0.143 A 
ATOM      2  C2  UNL d   1      -1.830   0.936   0.785  0.00  0.00    -0.057 A 
ATOM      3  C3  UNL d   1      -2.591   1.802   1.580  0.00  0.00     0.033 A 
ATOM      4  C4  UNL d   1      -2.249   3.147   1.676  0.00  0.00    -0.042 A 
ATOM      5  C5  UNL d   1      -1.149   3.625   0.974  0.00  0.00     0.033 A 
ATOM      6  C6  UNL d   1      -0.398   2.756   0.176  0.00  0.00    -0.057 A 
ENDROOT
BRANCH   1   7
ATOM      7  N   UNL d   1       0.119   0.570  -0.681  0.00  0.00    -0.732 N 
ATOM      8  C   UNL d   1       0.777  -0.553  -0.047  0.00  0.00     0.284 C 
ATOM      9  H3  UNL d   1      -0.236   0.371  -1.613  0.00  0.00     0.395 HD
ENDBRANCH   1   7
TORSDOF 1
ENDMDL
