MODEL 1
REMARK minimizedAffinity -1.25909674
REMARK minimizedRMSD -1
REMARK  1 active torsions:
REMARK  status: ('A' for Active; 'I' for Inactive)
REMARK    1  A    between atoms: N_2  and  C1_3 
ROOT
ATOM      1  C1  UNL d   1       0.011  -1.462  -1.082  0.00  0.00     0.143 A 
ATOM      2  C2  UNL d   1       0.845  -2.557  -0.832  0.00  0.00    -0.057 A 
ATOM      3  C3  UNL d   1       0.754  -3.727  -1.597  0.00  0.00     0.033 A 
ATOM      4  C4  UNL d   1      -0.195  -3.833  -2.608  0.00  0.00    -0.042 A 
ATOM      5  C5  UNL d   1      -1.050  -2.765  -2.857  0.00  0.00     0.033 A 
ATOM      6  C6  UNL d   1      -0.950  -1.597  -2.095  0.00  0.00    -0.057 A 
ENDROOT
BRANCH   1   7
ATOM      7  N   UNL d   1      -0.014  -0.309  -0.293  0.00  0.00    -0.732 N 
ATOM      8  C   UNL d   1      -0.676  -0.310   0.993  0.00  0.00     0.284 C 
ATOM      9  H3  UNL d   1       0.874   0.188  -0.304  0.00  0.00     0.395 HD
ENDBRANCH   1   7
TORSDOF 1
ENDMDL
