MODEL 1
REMARK minimizedAffinity -0.702374518
REMARK minimizedRMSD -1
REMARK  1 active torsions:
REMARK  status: ('A' for Active; 'I' for Inactive)
REMARK    1  A    between atoms: N_2  and  C1_3 
ROOT
ATOM      1  C1  UNL d   1       0.043   0.391  -0.064  0.00  0.00     0.143 A 
ATOM      2  C2  UNL d   1      -0.394  -0.220   1.116  0.00  0.00    -0.057 A 
ATOM      3  C3  UNL d   1      -1.037   0.515   2.120  0.00  0.00     0.033 A 
ATOM      4  C4  UNL d   1      -1.228   1.885   1.973  0.00  0.00    -0.042 A 
ATOM      5  C5  UNL d   1      -0.780   2.518   0.819  0.00  0.00     0.033 A 
ATOM      6  C6  UNL d   1      -0.145   1.777  -0.182  0.00  0.00    -0.057 A 
ENDROOT
BRANCH   1   7
ATOM      7  N   UNL d   1       0.775  -0.266  -1.055  0.00  0.00    -0.732 N 
ATOM      8  C   UNL d   1       0.865  -1.710  -1.070  0.00  0.00     0.284 C 
ATOM      9  H3  UNL d   1       0.647   0.152  -1.974  0.00  0.00     0.395 HD
ENDBRANCH   1   7
TORSDOF 1
ENDMDL
