MODEL 1
REMARK minimizedAffinity -2.44814205
REMARK minimizedRMSD -1
REMARK  1 active torsions:
REMARK  status: ('A' for Active; 'I' for Inactive)
REMARK    1  A    between atoms: N_2  and  C1_3 
ROOT
ATOM      1  C1  UNL d   1      -0.708   1.083   0.107  0.00  0.00     0.143 A 
ATOM      2  C2  UNL d   1      -0.242   1.728  -1.044  0.00  0.00    -0.057 A 
ATOM      3  C3  UNL d   1       0.744   1.149  -1.852  0.00  0.00     0.033 A 
ATOM      4  C4  UNL d   1       1.303  -0.077  -1.507  0.00  0.00    -0.042 A 
ATOM      5  C5  UNL d   1       0.872  -0.725  -0.355  0.00  0.00     0.033 A 
ATOM      6  C6  UNL d   1      -0.116  -0.144   0.445  0.00  0.00    -0.057 A 
ENDROOT
BRANCH   1   7
ATOM      7  N   UNL d   1      -1.614   1.652   1.005  0.00  0.00    -0.732 N 
ATOM      8  C   UNL d   1      -1.327   1.681   2.423  0.00  0.00     0.284 C 
ATOM      9  H3  UNL d   1      -2.028   2.510   0.647  0.00  0.00     0.395 HD
ENDBRANCH   1   7
TORSDOF 1
ENDMDL
