MODEL 1
REMARK minimizedAffinity -4.07185078
REMARK minimizedRMSD -1
REMARK  1 active torsions:
REMARK  status: ('A' for Active; 'I' for Inactive)
REMARK    1  A    between atoms: N_2  and  C1_3 
ROOT
ATOM      1  C1  UNL d   1       0.105  -0.546  -0.240  0.00  0.00     0.143 A 
ATOM      2  C2  UNL d   1      -0.185   0.477  -1.148  0.00  0.00    -0.057 A 
ATOM      3  C3  UNL d   1      -1.027   1.540  -0.799  0.00  0.00     0.033 A 
ATOM      4  C4  UNL d   1      -1.619   1.583   0.459  0.00  0.00    -0.042 A 
ATOM      5  C5  UNL d   1      -1.364   0.563   1.369  0.00  0.00     0.033 A 
ATOM      6  C6  UNL d   1      -0.517  -0.492   1.017  0.00  0.00    -0.057 A 
ENDROOT
BRANCH   1   7
ATOM      7  N   UNL d   1       0.856  -1.680  -0.560  0.00  0.00    -0.732 N 
ATOM      8  C   UNL d   1       0.431  -2.571  -1.618  0.00  0.00     0.284 C 
ATOM      9  H3  UNL d   1       1.857  -1.500  -0.545  0.00  0.00     0.395 HD
ENDBRANCH   1   7
TORSDOF 1
ENDMDL
