MODEL 1
REMARK minimizedAffinity -4.24682093
REMARK minimizedRMSD -1
REMARK  1 active torsions:
REMARK  status: ('A' for Active; 'I' for Inactive)
REMARK    1  A    between atoms: N_2  and  C1_3 
ROOT
ATOM      1  C1  UNL d   1       0.364   0.453   0.285  0.00  0.00     0.143 A 
ATOM      2  C2  UNL d   1       0.828   1.346  -0.686  0.00  0.00    -0.057 A 
ATOM      3  C3  UNL d   1       0.584   2.721  -0.584  0.00  0.00     0.033 A 
ATOM      4  C4  UNL d   1      -0.156   3.225   0.481  0.00  0.00    -0.042 A 
ATOM      5  C5  UNL d   1      -0.648   2.352   1.445  0.00  0.00     0.033 A 
ATOM      6  C6  UNL d   1      -0.396   0.981   1.341  0.00  0.00    -0.057 A 
ENDROOT
BRANCH   1   7
ATOM      7  N   UNL d   1       0.489  -0.935   0.188  0.00  0.00    -0.732 N 
ATOM      8  C   UNL d   1       0.564  -1.580  -1.105  0.00  0.00     0.284 C 
ATOM      9  H3  UNL d   1       1.130  -1.317   0.880  0.00  0.00     0.395 HD
ENDBRANCH   1   7
TORSDOF 1
ENDMDL
