MODEL 1
REMARK minimizedAffinity -2.85559011
REMARK minimizedRMSD -1
REMARK  1 active torsions:
REMARK  status: ('A' for Active; 'I' for Inactive)
REMARK    1  A    between atoms: N_2  and  C1_3 
ROOT
ATOM      1  C1  UNL d   1       0.546  -1.592  -0.951  0.00  0.00     0.143 A 
ATOM      2  C2  UNL d   1       1.402  -2.694  -0.856  0.00  0.00    -0.057 A 
ATOM      3  C3  UNL d   1       1.349  -3.737  -1.788  0.00  0.00     0.033 A 
ATOM      4  C4  UNL d   1       0.416  -3.709  -2.820  0.00  0.00    -0.042 A 
ATOM      5  C5  UNL d   1      -0.461  -2.635  -2.919  0.00  0.00     0.033 A 
ATOM      6  C6  UNL d   1      -0.399  -1.593  -1.989  0.00  0.00    -0.057 A 
ENDROOT
BRANCH   1   7
ATOM      7  N   UNL d   1       0.484  -0.571   0.001  0.00  0.00    -0.732 N 
ATOM      8  C   UNL d   1       0.089   0.768  -0.379  0.00  0.00     0.284 C 
ATOM      9  H3  UNL d   1       0.087  -0.887   0.884  0.00  0.00     0.395 HD
ENDBRANCH   1   7
TORSDOF 1
ENDMDL
