MODEL 1
REMARK minimizedAffinity -3.70324183
REMARK minimizedRMSD -1
REMARK  1 active torsions:
REMARK  status: ('A' for Active; 'I' for Inactive)
REMARK    1  A    between atoms: N_2  and  C1_3 
ROOT
ATOM      1  C1  UNL d   1      -0.647  -0.255   0.578  0.00  0.00     0.143 A 
ATOM      2  C2  UNL d   1      -1.493  -1.029  -0.225  0.00  0.00    -0.057 A 
ATOM      3  C3  UNL d   1      -0.984  -1.832  -1.252  0.00  0.00     0.033 A 
ATOM      4  C4  UNL d   1       0.382  -1.854  -1.515  0.00  0.00    -0.042 A 
ATOM      5  C5  UNL d   1       1.238  -1.074  -0.746  0.00  0.00     0.033 A 
ATOM      6  C6  UNL d   1       0.725  -0.279   0.283  0.00  0.00    -0.057 A 
ENDROOT
BRANCH   1   7
ATOM      7  N   UNL d   1      -1.101   0.639   1.551  0.00  0.00    -0.732 N 
ATOM      8  C   UNL d   1      -0.835   2.056   1.430  0.00  0.00     0.284 C 
ATOM      9  H3  UNL d   1      -2.041   0.418   1.873  0.00  0.00     0.395 HD
ENDBRANCH   1   7
TORSDOF 1
ENDMDL
