MODEL 1
REMARK minimizedAffinity -1.61107957
REMARK minimizedRMSD -1
REMARK  0 active torsions:
REMARK  status: ('A' for Active; 'I' for Inactive)
ROOT
ATOM      1  C4' PXY d   1       0.694  -3.000  -1.441  0.00  0.00     0.077 C 
ATOM      2  C1' PXY d   1       0.283   1.749   1.828  0.00  0.00     0.077 C 
ATOM      3  C1  PXY d   1       0.386   0.510   0.961  0.00  0.00    -0.082 A 
ATOM      4  C2  PXY d   1       0.329  -0.687   1.521  0.00  0.00     0.003 A 
ATOM      5  C3  PXY d   1       0.453  -1.818   0.755  0.00  0.00     0.003 A 
ATOM      6  C4  PXY d   1       0.584  -1.722  -0.605  0.00  0.00    -0.082 A 
ATOM      7  C5  PXY d   1       0.633  -0.504  -1.185  0.00  0.00     0.003 A 
ATOM      8  C6  PXY d   1       0.546   0.631  -0.385  0.00  0.00     0.003 A 
ENDROOT
TORSDOF 0
ENDMDL
