MODEL 1
REMARK minimizedAffinity -4.85168076
REMARK minimizedRMSD -1
REMARK  0 active torsions:
REMARK  status: ('A' for Active; 'I' for Inactive)
ROOT
ATOM      1  C4' PXY d   1       0.796  -0.311   2.478  0.00  0.00     0.077 C 
ATOM      2  C1' PXY d   1      -0.972   3.387  -1.598  0.00  0.00     0.077 C 
ATOM      3  C1  PXY d   1      -0.511   2.407  -0.537  0.00  0.00    -0.082 A 
ATOM      4  C2  PXY d   1      -0.536   2.763   0.738  0.00  0.00     0.003 A 
ATOM      5  C3  PXY d   1      -0.093   1.901   1.707  0.00  0.00     0.003 A 
ATOM      6  C4  PXY d   1       0.331   0.642   1.374  0.00  0.00    -0.082 A 
ATOM      7  C5  PXY d   1       0.349   0.268   0.077  0.00  0.00     0.003 A 
ATOM      8  C6  PXY d   1      -0.066   1.173  -0.896  0.00  0.00     0.003 A 
ENDROOT
TORSDOF 0
ENDMDL
