MODEL 1
REMARK minimizedAffinity -2.80740166
REMARK minimizedRMSD -1
REMARK  0 active torsions:
REMARK  status: ('A' for Active; 'I' for Inactive)
ROOT
ATOM      1  C4' PXY d   1       0.252  -4.384  -1.580  0.00  0.00     0.077 C 
ATOM      2  C1' PXY d   1      -0.046   1.104   0.211  0.00  0.00     0.077 C 
ATOM      3  C1  PXY d   1       0.020  -0.337  -0.255  0.00  0.00    -0.082 A 
ATOM      4  C2  PXY d   1       1.188  -0.954  -0.308  0.00  0.00     0.003 A 
ATOM      5  C3  PXY d   1       1.270  -2.247  -0.757  0.00  0.00     0.003 A 
ATOM      6  C4  PXY d   1       0.137  -2.932  -1.107  0.00  0.00    -0.082 A 
ATOM      7  C5  PXY d   1      -1.060  -2.312  -1.046  0.00  0.00     0.003 A 
ATOM      8  C6  PXY d   1      -1.117  -0.986  -0.626  0.00  0.00     0.003 A 
ENDROOT
TORSDOF 0
ENDMDL
