MODEL 1
REMARK minimizedAffinity -2.86124468
REMARK minimizedRMSD -1
REMARK  0 active torsions:
REMARK  status: ('A' for Active; 'I' for Inactive)
ROOT
ATOM      1  C4' PXY d   1       0.904  -3.047  -0.984  0.00  0.00     0.077 C 
ATOM      2  C1' PXY d   1       0.440   1.887   1.992  0.00  0.00     0.077 C 
ATOM      3  C1  PXY d   1       0.550   0.594   1.207  0.00  0.00    -0.082 A 
ATOM      4  C2  PXY d   1       1.408  -0.335   1.594  0.00  0.00     0.003 A 
ATOM      5  C3  PXY d   1       1.543  -1.496   0.878  0.00  0.00     0.003 A 
ATOM      6  C4  PXY d   1       0.753  -1.731  -0.216  0.00  0.00    -0.082 A 
ATOM      7  C5  PXY d   1      -0.133  -0.792  -0.611  0.00  0.00     0.003 A 
ATOM      8  C6  PXY d   1      -0.225   0.397   0.106  0.00  0.00     0.003 A 
ENDROOT
TORSDOF 0
ENDMDL
