MODEL 1
REMARK minimizedAffinity -4.01235437
REMARK minimizedRMSD -1
REMARK  0 active torsions:
REMARK  status: ('A' for Active; 'I' for Inactive)
ROOT
ATOM      1  C4' PXY d   1       0.569  -0.742   2.905  0.00  0.00     0.077 C 
ATOM      2  C1' PXY d   1       0.045   2.965  -1.499  0.00  0.00     0.077 C 
ATOM      3  C1  PXY d   1       0.177   1.984  -0.351  0.00  0.00    -0.082 A 
ATOM      4  C2  PXY d   1       0.222   2.434   0.892  0.00  0.00     0.003 A 
ATOM      5  C3  PXY d   1       0.374   1.562   1.940  0.00  0.00     0.003 A 
ATOM      6  C4  PXY d   1       0.427   0.212   1.716  0.00  0.00    -0.082 A 
ATOM      7  C5  PXY d   1       0.371  -0.255   0.451  0.00  0.00     0.003 A 
ATOM      8  C6  PXY d   1       0.258   0.649  -0.602  0.00  0.00     0.003 A 
ENDROOT
TORSDOF 0
ENDMDL
