MODEL 1
REMARK minimizedAffinity -3.54664469
REMARK minimizedRMSD -1
REMARK  0 active torsions:
REMARK  status: ('A' for Active; 'I' for Inactive)
ROOT
ATOM      1  C4' PXY d   1      -0.336  -3.047  -1.661  0.00  0.00     0.077 C 
ATOM      2  C1' PXY d   1       0.428   1.642   1.633  0.00  0.00     0.077 C 
ATOM      3  C1  PXY d   1       0.231   0.419   0.758  0.00  0.00    -0.082 A 
ATOM      4  C2  PXY d   1      -0.615  -0.526   1.136  0.00  0.00     0.003 A 
ATOM      5  C3  PXY d   1      -0.781  -1.653   0.373  0.00  0.00     0.003 A 
ATOM      6  C4  PXY d   1      -0.113  -1.790  -0.815  0.00  0.00    -0.082 A 
ATOM      7  C5  PXY d   1       0.744  -0.826  -1.212  0.00  0.00     0.003 A 
ATOM      8  C6  PXY d   1       0.929   0.292  -0.403  0.00  0.00     0.003 A 
ENDROOT
TORSDOF 0
ENDMDL
