MODEL 1
REMARK minimizedAffinity -1.27603495
REMARK minimizedRMSD -1
REMARK  0 active torsions:
REMARK  status: ('A' for Active; 'I' for Inactive)
ROOT
ATOM      1  C4' PXY d   1       0.546  -2.735  -1.074  0.00  0.00     0.077 C 
ATOM      2  C1' PXY d   1      -0.003   2.187   1.908  0.00  0.00     0.077 C 
ATOM      3  C1  PXY d   1       0.152   0.900   1.121  0.00  0.00    -0.082 A 
ATOM      4  C2  PXY d   1      -0.920   0.191   0.810  0.00  0.00     0.003 A 
ATOM      5  C3  PXY d   1      -0.795  -0.992   0.126  0.00  0.00     0.003 A 
ATOM      6  C4  PXY d   1       0.436  -1.425  -0.289  0.00  0.00    -0.082 A 
ATOM      7  C5  PXY d   1       1.534  -0.701   0.016  0.00  0.00     0.003 A 
ATOM      8  C6  PXY d   1       1.389   0.476   0.746  0.00  0.00     0.003 A 
ENDROOT
TORSDOF 0
ENDMDL
