MODEL 1
REMARK minimizedAffinity -3.66666007
REMARK minimizedRMSD -1
REMARK  0 active torsions:
REMARK  status: ('A' for Active; 'I' for Inactive)
ROOT
ATOM      1  C4' PXY d   1       0.375   0.966   1.150  0.00  0.00     0.077 C 
ATOM      2  C1' PXY d   1      -0.189  -3.848  -2.001  0.00  0.00     0.077 C 
ATOM      3  C1  PXY d   1      -0.054  -2.585  -1.173  0.00  0.00    -0.082 A 
ATOM      4  C2  PXY d   1       1.019  -1.823  -1.312  0.00  0.00     0.003 A 
ATOM      5  C3  PXY d   1       1.172  -0.694  -0.549  0.00  0.00     0.003 A 
ATOM      6  C4  PXY d   1       0.192  -0.313   0.329  0.00  0.00    -0.082 A 
ATOM      7  C5  PXY d   1      -0.910  -1.080   0.469  0.00  0.00     0.003 A 
ATOM      8  C6  PXY d   1      -1.028  -2.243  -0.286  0.00  0.00     0.003 A 
ENDROOT
TORSDOF 0
ENDMDL
