MODEL 1
REMARK minimizedAffinity -3.84879684
REMARK minimizedRMSD -1
REMARK  0 active torsions:
REMARK  status: ('A' for Active; 'I' for Inactive)
ROOT
ATOM      1  C4' PXY d   1      -0.677   4.245  -0.614  0.00  0.00     0.077 C 
ATOM      2  C1' PXY d   1       0.690  -0.832   1.787  0.00  0.00     0.077 C 
ATOM      3  C1  PXY d   1       0.325   0.502   1.168  0.00  0.00    -0.082 A 
ATOM      4  C2  PXY d   1       0.360   0.645  -0.147  0.00  0.00     0.003 A 
ATOM      5  C3  PXY d   1       0.064   1.854  -0.722  0.00  0.00     0.003 A 
ATOM      6  C4  PXY d   1      -0.325   2.913   0.054  0.00  0.00    -0.082 A 
ATOM      7  C5  PXY d   1      -0.374   2.773   1.396  0.00  0.00     0.003 A 
ATOM      8  C6  PXY d   1      -0.029   1.549   1.962  0.00  0.00     0.003 A 
ENDROOT
TORSDOF 0
ENDMDL
