MODEL 1
REMARK minimizedAffinity -4.38636112
REMARK minimizedRMSD -1
REMARK  0 active torsions:
REMARK  status: ('A' for Active; 'I' for Inactive)
ROOT
ATOM      1  C4' PXY d   1       0.766  -1.601  -1.143  0.00  0.00     0.077 C 
ATOM      2  C1' PXY d   1      -1.413   2.883   1.784  0.00  0.00     0.077 C 
ATOM      3  C1  PXY d   1      -0.833   1.705   1.026  0.00  0.00    -0.082 A 
ATOM      4  C2  PXY d   1      -0.976   1.638  -0.287  0.00  0.00     0.003 A 
ATOM      5  C3  PXY d   1      -0.486   0.564  -0.985  0.00  0.00     0.003 A 
ATOM      6  C4  PXY d   1       0.205  -0.425  -0.337  0.00  0.00    -0.082 A 
ATOM      7  C5  PXY d   1       0.364  -0.359   1.001  0.00  0.00     0.003 A 
ATOM      8  C6  PXY d   1      -0.177   0.719   1.696  0.00  0.00     0.003 A 
ENDROOT
TORSDOF 0
ENDMDL
