MODEL 1
REMARK minimizedAffinity -2.53575015
REMARK minimizedRMSD -1
REMARK  0 active torsions:
REMARK  status: ('A' for Active; 'I' for Inactive)
ROOT
ATOM      1  C1  BNZ d   1      -0.162   1.829  -0.637  0.00  0.00     0.000 A 
ATOM      2  C2  BNZ d   1       0.829   1.259  -1.391  0.00  0.00     0.000 A 
ATOM      3  C3  BNZ d   1       1.226  -0.030  -1.168  0.00  0.00     0.000 A 
ATOM      4  C4  BNZ d   1       0.659  -0.733  -0.166  0.00  0.00     0.000 A 
ATOM      5  C5  BNZ d   1      -0.335  -0.170   0.609  0.00  0.00     0.000 A 
ATOM      6  C6  BNZ d   1      -0.758   1.114   0.356  0.00  0.00     0.000 A 
ENDROOT
TORSDOF 0
ENDMDL
