MODEL 1
REMARK minimizedAffinity -4.55928373
REMARK minimizedRMSD -1
REMARK  0 active torsions:
REMARK  status: ('A' for Active; 'I' for Inactive)
ROOT
ATOM      1  C1  BNZ d   1      -0.840   0.253  -0.288  0.00  0.00     0.000 A 
ATOM      2  C2  BNZ d   1       0.182  -0.085   0.558  0.00  0.00     0.000 A 
ATOM      3  C3  BNZ d   1       0.140   0.260   1.880  0.00  0.00     0.000 A 
ATOM      4  C4  BNZ d   1      -0.903   0.977   2.345  0.00  0.00     0.000 A 
ATOM      5  C5  BNZ d   1      -1.937   1.334   1.502  0.00  0.00     0.000 A 
ATOM      6  C6  BNZ d   1      -1.910   0.951   0.181  0.00  0.00     0.000 A 
ENDROOT
TORSDOF 0
ENDMDL
