MODEL 1
REMARK minimizedAffinity -2.22522068
REMARK minimizedRMSD -1
REMARK  0 active torsions:
REMARK  status: ('A' for Active; 'I' for Inactive)
ROOT
ATOM      1  C1  BNZ d   1      -0.530   1.086   2.262  0.00  0.00     0.000 A 
ATOM      2  C2  BNZ d   1      -1.542   1.822   1.705  0.00  0.00     0.000 A 
ATOM      3  C3  BNZ d   1      -1.920   1.621   0.407  0.00  0.00     0.000 A 
ATOM      4  C4  BNZ d   1      -1.260   0.716  -0.344  0.00  0.00     0.000 A 
ATOM      5  C5  BNZ d   1      -0.231  -0.027   0.201  0.00  0.00     0.000 A 
ATOM      6  C6  BNZ d   1       0.121   0.150   1.519  0.00  0.00     0.000 A 
ENDROOT
TORSDOF 0
ENDMDL
