MODEL 1
REMARK minimizedAffinity -4.43280792
REMARK minimizedRMSD -1
REMARK  0 active torsions:
REMARK  status: ('A' for Active; 'I' for Inactive)
ROOT
ATOM      1  C1  BNZ d   1       0.868   0.789  -0.813  0.00  0.00     0.000 A 
ATOM      2  C2  BNZ d   1       0.110   1.926  -0.729  0.00  0.00     0.000 A 
ATOM      3  C3  BNZ d   1      -1.192   1.870  -0.316  0.00  0.00     0.000 A 
ATOM      4  C4  BNZ d   1      -1.745   0.675  -0.026  0.00  0.00     0.000 A 
ATOM      5  C5  BNZ d   1      -0.996  -0.482  -0.115  0.00  0.00     0.000 A 
ATOM      6  C6  BNZ d   1       0.325  -0.417  -0.494  0.00  0.00     0.000 A 
ENDROOT
TORSDOF 0
ENDMDL
