MODEL 1
REMARK minimizedAffinity -2.87341499
REMARK minimizedRMSD -1
REMARK  0 active torsions:
REMARK  status: ('A' for Active; 'I' for Inactive)
ROOT
ATOM      1  C1  BNZ d   1      -1.131   1.798   2.165  0.00  0.00     0.000 A 
ATOM      2  C2  BNZ d   1      -0.875   1.435   0.870  0.00  0.00     0.000 A 
ATOM      3  C3  BNZ d   1      -0.288   0.234   0.583  0.00  0.00     0.000 A 
ATOM      4  C4  BNZ d   1       0.079  -0.582   1.592  0.00  0.00     0.000 A 
ATOM      5  C5  BNZ d   1      -0.164  -0.226   2.903  0.00  0.00     0.000 A 
ATOM      6  C6  BNZ d   1      -0.791   0.966   3.186  0.00  0.00     0.000 A 
ENDROOT
TORSDOF 0
ENDMDL
