MODEL 1
REMARK minimizedAffinity -1.94335318
REMARK minimizedRMSD -1
REMARK  0 active torsions:
REMARK  status: ('A' for Active; 'I' for Inactive)
ROOT
ATOM      1  C1  BNZ d   1      -1.382   2.209   0.604  0.00  0.00     0.000 A 
ATOM      2  C2  BNZ d   1      -0.759   1.073   0.161  0.00  0.00     0.000 A 
ATOM      3  C3  BNZ d   1      -0.159   0.215   1.040  0.00  0.00     0.000 A 
ATOM      4  C4  BNZ d   1      -0.148   0.513   2.355  0.00  0.00     0.000 A 
ATOM      5  C5  BNZ d   1      -0.764   1.659   2.817  0.00  0.00     0.000 A 
ATOM      6  C6  BNZ d   1      -1.401   2.501   1.933  0.00  0.00     0.000 A 
ENDROOT
TORSDOF 0
ENDMDL
