MODEL 1
REMARK minimizedAffinity -4.25760794
REMARK minimizedRMSD -1
REMARK  0 active torsions:
REMARK  status: ('A' for Active; 'I' for Inactive)
ROOT
ATOM      1  C1  BNZ d   1       0.405   0.487   1.990  0.00  0.00     0.000 A 
ATOM      2  C2  BNZ d   1      -0.531   1.482   2.081  0.00  0.00     0.000 A 
ATOM      3  C3  BNZ d   1      -1.544   1.576   1.168  0.00  0.00     0.000 A 
ATOM      4  C4  BNZ d   1      -1.596   0.700   0.144  0.00  0.00     0.000 A 
ATOM      5  C5  BNZ d   1      -0.654  -0.303   0.033  0.00  0.00     0.000 A 
ATOM      6  C6  BNZ d   1       0.341  -0.418   0.976  0.00  0.00     0.000 A 
ENDROOT
TORSDOF 0
ENDMDL
