MODEL 1
REMARK minimizedAffinity -3.55744505
REMARK minimizedRMSD -1
REMARK  0 active torsions:
REMARK  status: ('A' for Active; 'I' for Inactive)
ROOT
ATOM      1  C1  BNZ d   1       1.552   1.293  -1.594  0.00  0.00     0.000 A 
ATOM      2  C2  BNZ d   1       0.305   1.724  -1.227  0.00  0.00     0.000 A 
ATOM      3  C3  BNZ d   1      -0.511   0.936  -0.463  0.00  0.00     0.000 A 
ATOM      4  C4  BNZ d   1      -0.095  -0.295  -0.102  0.00  0.00     0.000 A 
ATOM      5  C5  BNZ d   1       1.156  -0.747  -0.472  0.00  0.00     0.000 A 
ATOM      6  C6  BNZ d   1       1.989   0.064  -1.208  0.00  0.00     0.000 A 
ENDROOT
TORSDOF 0
ENDMDL
