MODEL 1
REMARK minimizedAffinity -3.24355888
REMARK minimizedRMSD -1
REMARK  0 active torsions:
REMARK  status: ('A' for Active; 'I' for Inactive)
ROOT
ATOM      1  C1  BNZ d   1      -1.197   1.822   1.908  0.00  0.00     0.000 A 
ATOM      2  C2  BNZ d   1      -0.637   1.710   0.663  0.00  0.00     0.000 A 
ATOM      3  C3  BNZ d   1      -0.336   0.484   0.139  0.00  0.00     0.000 A 
ATOM      4  C4  BNZ d   1      -0.558  -0.625   0.875  0.00  0.00     0.000 A 
ATOM      5  C5  BNZ d   1      -1.113  -0.528   2.135  0.00  0.00     0.000 A 
ATOM      6  C6  BNZ d   1      -1.451   0.705   2.644  0.00  0.00     0.000 A 
ENDROOT
TORSDOF 0
ENDMDL
