MODEL 1
REMARK minimizedAffinity -1.94675267
REMARK minimizedRMSD -1
REMARK  0 active torsions:
REMARK  status: ('A' for Active; 'I' for Inactive)
ROOT
ATOM      1  C1  BNZ d   1       0.708   0.874  -1.189  0.00  0.00     0.000 A 
ATOM      2  C2  BNZ d   1      -0.151   1.037  -0.135  0.00  0.00     0.000 A 
ATOM      3  C3  BNZ d   1      -0.225   0.102   0.859  0.00  0.00     0.000 A 
ATOM      4  C4  BNZ d   1       0.531  -1.013   0.778  0.00  0.00     0.000 A 
ATOM      5  C5  BNZ d   1       1.395  -1.196  -0.283  0.00  0.00     0.000 A 
ATOM      6  C6  BNZ d   1       1.495  -0.234  -1.262  0.00  0.00     0.000 A 
ENDROOT
TORSDOF 0
ENDMDL
