MODEL 1
REMARK minimizedAffinity -4.02690268
REMARK minimizedRMSD -1
REMARK  0 active torsions:
REMARK  status: ('A' for Active; 'I' for Inactive)
ROOT
ATOM      1  C1  BNZ d   1       0.182  -0.460   2.221  0.00  0.00     0.000 A 
ATOM      2  C2  BNZ d   1      -1.008   0.017   2.703  0.00  0.00     0.000 A 
ATOM      3  C3  BNZ d   1      -1.831   0.771   1.914  0.00  0.00     0.000 A 
ATOM      4  C4  BNZ d   1      -1.444   1.081   0.659  0.00  0.00     0.000 A 
ATOM      5  C5  BNZ d   1      -0.243   0.615   0.162  0.00  0.00     0.000 A 
ATOM      6  C6  BNZ d   1       0.564  -0.176   0.947  0.00  0.00     0.000 A 
ENDROOT
TORSDOF 0
ENDMDL
