MODEL 1
REMARK minimizedAffinity -3.88364339
REMARK minimizedRMSD -1
REMARK  0 active torsions:
REMARK  status: ('A' for Active; 'I' for Inactive)
ROOT
ATOM      1  C1  BNZ d   1       1.793   0.023  -1.285  0.00  0.00     0.000 A 
ATOM      2  C2  BNZ d   1       1.442   1.276  -1.712  0.00  0.00     0.000 A 
ATOM      3  C3  BNZ d   1       0.285   1.863  -1.281  0.00  0.00     0.000 A 
ATOM      4  C4  BNZ d   1      -0.537   1.182  -0.457  0.00  0.00     0.000 A 
ATOM      5  C5  BNZ d   1      -0.201  -0.086  -0.025  0.00  0.00     0.000 A 
ATOM      6  C6  BNZ d   1       0.982  -0.658  -0.430  0.00  0.00     0.000 A 
ENDROOT
TORSDOF 0
ENDMDL
