MODEL 1
REMARK minimizedAffinity -5.24435282
REMARK minimizedRMSD -1
REMARK  0 active torsions:
REMARK  status: ('A' for Active; 'I' for Inactive)
ROOT
ATOM      1  C1  BNZ d   1      -0.465   1.185  -0.428  0.00  0.00     0.000 A 
ATOM      2  C2  BNZ d   1       0.164   0.226   0.320  0.00  0.00     0.000 A 
ATOM      3  C3  BNZ d   1      -0.185   0.016   1.625  0.00  0.00     0.000 A 
ATOM      4  C4  BNZ d   1      -1.131   0.792   2.191  0.00  0.00     0.000 A 
ATOM      5  C5  BNZ d   1      -1.768   1.769   1.453  0.00  0.00     0.000 A 
ATOM      6  C6  BNZ d   1      -1.442   1.952   0.129  0.00  0.00     0.000 A 
ENDROOT
TORSDOF 0
ENDMDL
