MODEL 1
REMARK minimizedAffinity -2.37208104
REMARK minimizedRMSD -1
REMARK  0 active torsions:
REMARK  status: ('A' for Active; 'I' for Inactive)
ROOT
ATOM      1  C1  BNZ d   1      -0.827   0.894   0.939  0.00  0.00     0.000 A 
ATOM      2  C2  BNZ d   1      -0.367   1.110  -0.333  0.00  0.00     0.000 A 
ATOM      3  C3  BNZ d   1       0.525   0.250  -0.910  0.00  0.00     0.000 A 
ATOM      4  C4  BNZ d   1       0.984  -0.802  -0.203  0.00  0.00     0.000 A 
ATOM      5  C5  BNZ d   1       0.536  -1.029   1.084  0.00  0.00     0.000 A 
ATOM      6  C6  BNZ d   1      -0.391  -0.182   1.648  0.00  0.00     0.000 A 
ENDROOT
TORSDOF 0
ENDMDL
