MODEL 1
REMARK minimizedAffinity -4.15934801
REMARK minimizedRMSD -1
REMARK  0 active torsions:
REMARK  status: ('A' for Active; 'I' for Inactive)
ROOT
ATOM      1  C1  BNZ d   1      -1.715   0.988   2.495  0.00  0.00     0.000 A 
ATOM      2  C2  BNZ d   1      -1.088  -0.226   2.403  0.00  0.00     0.000 A 
ATOM      3  C3  BNZ d   1      -0.263  -0.510   1.351  0.00  0.00     0.000 A 
ATOM      4  C4  BNZ d   1      -0.097   0.404   0.374  0.00  0.00     0.000 A 
ATOM      5  C5  BNZ d   1      -0.729   1.629   0.447  0.00  0.00     0.000 A 
ATOM      6  C6  BNZ d   1      -1.529   1.926   1.527  0.00  0.00     0.000 A 
ENDROOT
TORSDOF 0
ENDMDL
