MODEL 1
REMARK minimizedAffinity 5.2295537
REMARK minimizedRMSD -1
REMARK  1 active torsions:
REMARK  status: ('A' for Active; 'I' for Inactive)
REMARK    1  A    between atoms: C1_2  and  C2_3 
ROOT
ATOM      1  C2  UNL d   1       4.032  -4.578  -2.143  0.00  0.00    -0.076 A 
ATOM      2  C3  UNL d   1       3.198  -5.662  -1.817  0.00  0.00     0.004 A 
ATOM      3  C4  UNL d   1       2.212  -5.539  -0.839  0.00  0.00    -0.003 A 
ATOM      4  C5  UNL d   1       2.045  -4.331  -0.171  0.00  0.00     0.000 A 
ATOM      5  C6  UNL d   1       2.852  -3.241  -0.494  0.00  0.00     0.000 A 
ATOM      6  C7  UNL d   1       3.840  -3.343  -1.489  0.00  0.00    -0.073 A 
ATOM      7  C8  UNL d   1       4.686  -2.137  -1.792  0.00  0.00     0.078 C 
ENDROOT
BRANCH   1   8
ATOM      8  C1  UNL d   1       5.102  -4.778  -3.193  0.00  0.00     0.053 C 
ATOM      9  C   UNL d   1       4.539  -4.776  -4.605  0.00  0.00     0.018 C 
ENDBRANCH   1   8
TORSDOF 1
ENDMDL
