MODEL 1
REMARK minimizedAffinity 6.39457083
REMARK minimizedRMSD -1
REMARK  1 active torsions:
REMARK  status: ('A' for Active; 'I' for Inactive)
REMARK    1  A    between atoms: C1_2  and  C2_3 
ROOT
ATOM      1  C2  UNL d   1      -0.587   3.041   0.777  0.00  0.00    -0.076 A 
ATOM      2  C3  UNL d   1      -0.807   4.417   0.959  0.00  0.00     0.004 A 
ATOM      3  C4  UNL d   1      -0.814   5.293  -0.125  0.00  0.00    -0.003 A 
ATOM      4  C5  UNL d   1      -0.602   4.806  -1.410  0.00  0.00     0.000 A 
ATOM      5  C6  UNL d   1      -0.400   3.441  -1.612  0.00  0.00     0.000 A 
ATOM      6  C7  UNL d   1      -0.406   2.543  -0.531  0.00  0.00    -0.073 A 
ATOM      7  C8  UNL d   1      -0.177   1.081  -0.805  0.00  0.00     0.078 C 
ENDROOT
BRANCH   1   8
ATOM      8  C1  UNL d   1      -0.563   2.144   1.994  0.00  0.00     0.053 C 
ATOM      9  C   UNL d   1       0.840   1.949   2.547  0.00  0.00     0.018 C 
ENDBRANCH   1   8
TORSDOF 1
ENDMDL
