MODEL 1
REMARK minimizedAffinity 7.59904194
REMARK minimizedRMSD -1
REMARK  1 active torsions:
REMARK  status: ('A' for Active; 'I' for Inactive)
REMARK    1  A    between atoms: C1_2  and  C2_3 
ROOT
ATOM      1  C2  UNL d   1      -0.170   2.816   0.296  0.00  0.00    -0.076 A 
ATOM      2  C3  UNL d   1      -0.295   1.769   1.226  0.00  0.00     0.004 A 
ATOM      3  C4  UNL d   1       0.153   1.918   2.538  0.00  0.00    -0.003 A 
ATOM      4  C5  UNL d   1       0.733   3.115   2.941  0.00  0.00     0.000 A 
ATOM      5  C6  UNL d   1       0.849   4.170   2.036  0.00  0.00     0.000 A 
ATOM      6  C7  UNL d   1       0.388   4.043   0.715  0.00  0.00    -0.073 A 
ATOM      7  C8  UNL d   1       0.544   5.211  -0.220  0.00  0.00     0.078 C 
ENDROOT
BRANCH   1   8
ATOM      8  C1  UNL d   1      -0.649   2.588  -1.120  0.00  0.00     0.053 C 
ATOM      9  C   UNL d   1      -0.756   1.111  -1.468  0.00  0.00     0.018 C 
ENDBRANCH   1   8
TORSDOF 1
ENDMDL
