MODEL 1
REMARK minimizedAffinity 11.4113312
REMARK minimizedRMSD -1
REMARK  1 active torsions:
REMARK  status: ('A' for Active; 'I' for Inactive)
REMARK    1  A    between atoms: C1_2  and  C2_3 
ROOT
ATOM      1  C2  UNL d   1      -0.713   1.856   1.159  0.00  0.00    -0.076 A 
ATOM      2  C3  UNL d   1      -1.213   0.569   0.895  0.00  0.00     0.004 A 
ATOM      3  C4  UNL d   1      -1.631   0.211  -0.385  0.00  0.00    -0.003 A 
ATOM      4  C5  UNL d   1      -1.556   1.133  -1.423  0.00  0.00     0.000 A 
ATOM      5  C6  UNL d   1      -1.047   2.409  -1.183  0.00  0.00     0.000 A 
ATOM      6  C7  UNL d   1      -0.605   2.781   0.099  0.00  0.00    -0.073 A 
ATOM      7  C8  UNL d   1      -0.070   4.172   0.302  0.00  0.00     0.078 C 
ENDROOT
BRANCH   1   8
ATOM      8  C1  UNL d   1      -0.299   2.196   2.573  0.00  0.00     0.053 C 
ATOM      9  C   UNL d   1       0.556   1.110   3.207  0.00  0.00     0.018 C 
ENDBRANCH   1   8
TORSDOF 1
ENDMDL
