MODEL 1
REMARK minimizedAffinity 5.09488392
REMARK minimizedRMSD -1
REMARK  1 active torsions:
REMARK  status: ('A' for Active; 'I' for Inactive)
REMARK    1  A    between atoms: C1_2  and  C2_3 
ROOT
ATOM      1  C2  UNL d   1      -1.186  -1.390  -3.125  0.00  0.00    -0.076 A 
ATOM      2  C3  UNL d   1      -2.581  -1.353  -2.959  0.00  0.00     0.004 A 
ATOM      3  C4  UNL d   1      -3.153  -0.817  -1.806  0.00  0.00    -0.003 A 
ATOM      4  C5  UNL d   1      -2.338  -0.309  -0.800  0.00  0.00     0.000 A 
ATOM      5  C6  UNL d   1      -0.952  -0.321  -0.956  0.00  0.00     0.000 A 
ATOM      6  C7  UNL d   1      -0.360  -0.843  -2.119  0.00  0.00    -0.073 A 
ATOM      7  C8  UNL d   1       1.140  -0.837  -2.231  0.00  0.00     0.078 C 
ENDROOT
BRANCH   1   8
ATOM      8  C1  UNL d   1      -0.622  -2.008  -4.384  0.00  0.00     0.053 C 
ATOM      9  C   UNL d   1      -1.633  -2.040  -5.520  0.00  0.00     0.018 C 
ENDBRANCH   1   8
TORSDOF 1
ENDMDL
