MODEL 1
REMARK minimizedAffinity 9.29827785
REMARK minimizedRMSD -1
REMARK  1 active torsions:
REMARK  status: ('A' for Active; 'I' for Inactive)
REMARK    1  A    between atoms: C1_2  and  C2_3 
ROOT
ATOM      1  C2  UNL d   1      -0.020   2.258   1.942  0.00  0.00    -0.076 A 
ATOM      2  C3  UNL d   1      -0.756   2.124   0.752  0.00  0.00     0.004 A 
ATOM      3  C4  UNL d   1      -0.725   3.117  -0.226  0.00  0.00    -0.003 A 
ATOM      4  C5  UNL d   1       0.044   4.259  -0.030  0.00  0.00     0.000 A 
ATOM      5  C6  UNL d   1       0.795   4.400   1.136  0.00  0.00     0.000 A 
ATOM      6  C7  UNL d   1       0.787   3.401   2.125  0.00  0.00    -0.073 A 
ATOM      7  C8  UNL d   1       1.611   3.608   3.366  0.00  0.00     0.078 C 
ENDROOT
BRANCH   1   8
ATOM      8  C1  UNL d   1      -0.114   1.161   2.979  0.00  0.00     0.053 C 
ATOM      9  C   UNL d   1       1.109   0.256   2.982  0.00  0.00     0.018 C 
ENDBRANCH   1   8
TORSDOF 1
ENDMDL
