MODEL 1
REMARK minimizedAffinity 4.68502903
REMARK minimizedRMSD -1
REMARK  1 active torsions:
REMARK  status: ('A' for Active; 'I' for Inactive)
REMARK    1  A    between atoms: C1_2  and  C2_3 
ROOT
ATOM      1  C2  UNL d   1      -0.176   2.389   1.736  0.00  0.00    -0.076 A 
ATOM      2  C3  UNL d   1       0.848   3.349   1.646  0.00  0.00     0.004 A 
ATOM      3  C4  UNL d   1       1.133   3.982   0.437  0.00  0.00    -0.003 A 
ATOM      4  C5  UNL d   1       0.398   3.666  -0.701  0.00  0.00     0.000 A 
ATOM      5  C6  UNL d   1      -0.632   2.730  -0.625  0.00  0.00     0.000 A 
ATOM      6  C7  UNL d   1      -0.943   2.095   0.589  0.00  0.00    -0.073 A 
ATOM      7  C8  UNL d   1      -2.061   1.088   0.612  0.00  0.00     0.078 C 
ENDROOT
BRANCH   1   8
ATOM      8  C1  UNL d   1      -0.421   1.716   3.067  0.00  0.00     0.053 C 
ATOM      9  C   UNL d   1       0.537   0.563   3.323  0.00  0.00     0.018 C 
ENDBRANCH   1   8
TORSDOF 1
ENDMDL
