MODEL 1
REMARK minimizedAffinity 7.70116711
REMARK minimizedRMSD -1
REMARK  1 active torsions:
REMARK  status: ('A' for Active; 'I' for Inactive)
REMARK    1  A    between atoms: C1_2  and  C2_3 
ROOT
ATOM      1  C2  UNL d   1      -0.678   2.728   1.014  0.00  0.00    -0.076 A 
ATOM      2  C3  UNL d   1      -0.265   4.063   1.169  0.00  0.00     0.004 A 
ATOM      3  C4  UNL d   1      -0.115   4.900   0.065  0.00  0.00    -0.003 A 
ATOM      4  C5  UNL d   1      -0.377   4.418  -1.212  0.00  0.00     0.000 A 
ATOM      5  C6  UNL d   1      -0.805   3.101  -1.383  0.00  0.00     0.000 A 
ATOM      6  C7  UNL d   1      -0.977   2.248  -0.280  0.00  0.00    -0.073 A 
ATOM      7  C8  UNL d   1      -1.435   0.836  -0.523  0.00  0.00     0.078 C 
ENDROOT
BRANCH   1   8
ATOM      8  C1  UNL d   1      -0.797   1.858   2.245  0.00  0.00     0.053 C 
ATOM      9  C   UNL d   1       0.492   1.810   3.051  0.00  0.00     0.018 C 
ENDBRANCH   1   8
TORSDOF 1
ENDMDL
