MODEL 1
REMARK minimizedAffinity 1.77618301
REMARK minimizedRMSD -1
REMARK  1 active torsions:
REMARK  status: ('A' for Active; 'I' for Inactive)
REMARK    1  A    between atoms: C1_2  and  C2_3 
ROOT
ATOM      1  C2  UNL d   1       0.338   3.938   0.754  0.00  0.00    -0.076 A 
ATOM      2  C3  UNL d   1       0.249   5.340   0.707  0.00  0.00     0.004 A 
ATOM      3  C4  UNL d   1      -0.076   6.000  -0.477  0.00  0.00    -0.003 A 
ATOM      4  C5  UNL d   1      -0.319   5.267  -1.634  0.00  0.00     0.000 A 
ATOM      5  C6  UNL d   1      -0.254   3.875  -1.601  0.00  0.00     0.000 A 
ATOM      6  C7  UNL d   1       0.057   3.194  -0.412  0.00  0.00    -0.073 A 
ATOM      7  C8  UNL d   1       0.120   1.691  -0.436  0.00  0.00     0.078 C 
ENDROOT
BRANCH   1   8
ATOM      8  C1  UNL d   1       0.721   3.280   2.060  0.00  0.00     0.053 C 
ATOM      9  C   UNL d   1       1.989   3.869   2.659  0.00  0.00     0.018 C 
ENDBRANCH   1   8
TORSDOF 1
ENDMDL
