MODEL 1
REMARK minimizedAffinity 9.33158398
REMARK minimizedRMSD -1
REMARK  0 active torsions:
REMARK  status: ('A' for Active; 'I' for Inactive)
ROOT
ATOM      1  C   UNL d   1      -4.904   5.999   5.703  0.00  0.00     0.020 A 
ATOM      2  C1  UNL d   1      -5.995   5.159   5.483  0.00  0.00     0.020 A 
ATOM      3  C2  UNL d   1      -5.999   4.292   4.387  0.00  0.00     0.034 A 
ATOM      4  C3  UNL d   1      -4.910   4.264   3.508  0.00  0.00     0.017 A 
ATOM      5  C4  UNL d   1      -3.815   5.107   3.731  0.00  0.00     0.017 A 
ATOM      6  C5  UNL d   1      -3.817   5.973   4.829  0.00  0.00     0.034 A 
ATOM      7 Cl   UNL d   1      -2.435   5.129   2.690  0.00  0.00    -0.070 Cl
ATOM      8 Cl1  UNL d   1      -4.982   3.167   2.175  0.00  0.00    -0.070 Cl
ENDROOT
TORSDOF 0
ENDMDL
