MODEL 1
REMARK minimizedAffinity 6.41148186
REMARK minimizedRMSD -1
REMARK  0 active torsions:
REMARK  status: ('A' for Active; 'I' for Inactive)
ROOT
ATOM      1  C   UNL d   1       4.563   2.445   0.309  0.00  0.00     0.020 A 
ATOM      2  C1  UNL d   1       5.240   1.322  -0.166  0.00  0.00     0.020 A 
ATOM      3  C2  UNL d   1       4.572   0.101  -0.280  0.00  0.00     0.034 A 
ATOM      4  C3  UNL d   1       3.224  -0.001   0.080  0.00  0.00     0.017 A 
ATOM      5  C4  UNL d   1       2.545   1.127   0.556  0.00  0.00     0.017 A 
ATOM      6  C5  UNL d   1       3.218   2.347   0.669  0.00  0.00     0.034 A 
ATOM      7 Cl   UNL d   1       0.881   1.079   1.020  0.00  0.00    -0.070 Cl
ATOM      8 Cl1  UNL d   1       2.461  -1.542  -0.088  0.00  0.00    -0.070 Cl
ENDROOT
TORSDOF 0
ENDMDL
