MODEL 1
REMARK minimizedAffinity 8.74782848
REMARK minimizedRMSD -1
REMARK  0 active torsions:
REMARK  status: ('A' for Active; 'I' for Inactive)
ROOT
ATOM      1  C   UNL d   1       2.037  -2.354   0.206  0.00  0.00     0.020 A 
ATOM      2  C1  UNL d   1       1.261  -3.301   0.874  0.00  0.00     0.020 A 
ATOM      3  C2  UNL d   1       0.115  -3.818   0.267  0.00  0.00     0.034 A 
ATOM      4  C3  UNL d   1      -0.259  -3.388  -1.012  0.00  0.00     0.017 A 
ATOM      5  C4  UNL d   1       0.520  -2.438  -1.681  0.00  0.00     0.017 A 
ATOM      6  C5  UNL d   1       1.667  -1.924  -1.069  0.00  0.00     0.034 A 
ATOM      7 Cl   UNL d   1       0.123  -1.859  -3.261  0.00  0.00    -0.070 Cl
ATOM      8 Cl1  UNL d   1      -1.689  -4.070  -1.702  0.00  0.00    -0.070 Cl
ENDROOT
TORSDOF 0
ENDMDL
