MODEL 1
REMARK minimizedAffinity 3.73043752
REMARK minimizedRMSD -1
REMARK  0 active torsions:
REMARK  status: ('A' for Active; 'I' for Inactive)
ROOT
ATOM      1  C   UNL d   1      -5.848   5.799   5.488  0.00  0.00     0.020 A 
ATOM      2  C1  UNL d   1      -5.988   5.996   4.115  0.00  0.00     0.020 A 
ATOM      3  C2  UNL d   1      -6.000   4.900   3.250  0.00  0.00     0.034 A 
ATOM      4  C3  UNL d   1      -5.871   3.602   3.757  0.00  0.00     0.017 A 
ATOM      5  C4  UNL d   1      -5.731   3.405   5.136  0.00  0.00     0.017 A 
ATOM      6  C5  UNL d   1      -5.720   4.506   5.997  0.00  0.00     0.034 A 
ATOM      7 Cl   UNL d   1      -5.567   1.833   5.836  0.00  0.00    -0.070 Cl
ATOM      8 Cl1  UNL d   1      -5.894   2.293   2.629  0.00  0.00    -0.070 Cl
ENDROOT
TORSDOF 0
ENDMDL
