MODEL 1
REMARK minimizedAffinity 16.8231049
REMARK minimizedRMSD -1
REMARK  0 active torsions:
REMARK  status: ('A' for Active; 'I' for Inactive)
ROOT
ATOM      1  C   UNL d   1       3.378  -1.114  -0.257  0.00  0.00     0.020 A 
ATOM      2  C1  UNL d   1       2.893  -1.724   0.900  0.00  0.00     0.020 A 
ATOM      3  C2  UNL d   1       1.927  -2.727   0.807  0.00  0.00     0.034 A 
ATOM      4  C3  UNL d   1       1.441  -3.124  -0.444  0.00  0.00     0.017 A 
ATOM      5  C4  UNL d   1       1.928  -2.511  -1.605  0.00  0.00     0.017 A 
ATOM      6  C5  UNL d   1       2.897  -1.507  -1.506  0.00  0.00     0.034 A 
ATOM      7 Cl   UNL d   1       1.378  -2.947  -3.184  0.00  0.00    -0.070 Cl
ATOM      8 Cl1  UNL d   1       0.246  -4.371  -0.484  0.00  0.00    -0.070 Cl
ENDROOT
TORSDOF 0
ENDMDL
