MODEL 1
REMARK minimizedAffinity 10.1065788
REMARK minimizedRMSD -1
REMARK  0 active torsions:
REMARK  status: ('A' for Active; 'I' for Inactive)
ROOT
ATOM      1  C   UNL d   1       4.968   2.515   0.317  0.00  0.00     0.020 A 
ATOM      2  C1  UNL d   1       5.619   1.405  -0.220  0.00  0.00     0.020 A 
ATOM      3  C2  UNL d   1       4.925   0.206  -0.395  0.00  0.00     0.034 A 
ATOM      4  C3  UNL d   1       3.576   0.114  -0.034  0.00  0.00     0.017 A 
ATOM      5  C4  UNL d   1       2.923   1.229   0.504  0.00  0.00     0.017 A 
ATOM      6  C5  UNL d   1       3.623   2.427   0.678  0.00  0.00     0.034 A 
ATOM      7 Cl   UNL d   1       1.260   1.193   0.973  0.00  0.00    -0.070 Cl
ATOM      8 Cl1  UNL d   1       2.780  -1.400  -0.279  0.00  0.00    -0.070 Cl
ENDROOT
TORSDOF 0
ENDMDL
