MODEL 1
REMARK minimizedAffinity 14.161335
REMARK minimizedRMSD -1
REMARK  0 active torsions:
REMARK  status: ('A' for Active; 'I' for Inactive)
ROOT
ATOM      1  C   UNL d   1      -5.952   5.830   5.457  0.00  0.00     0.020 A 
ATOM      2  C1  UNL d   1      -5.995   4.546   6.000  0.00  0.00     0.020 A 
ATOM      3  C2  UNL d   1      -5.881   3.431   5.166  0.00  0.00     0.034 A 
ATOM      4  C3  UNL d   1      -5.724   3.598   3.786  0.00  0.00     0.017 A 
ATOM      5  C4  UNL d   1      -5.681   4.887   3.242  0.00  0.00     0.017 A 
ATOM      6  C5  UNL d   1      -5.795   5.999   4.081  0.00  0.00     0.034 A 
ATOM      7 Cl   UNL d   1      -5.489   5.172   1.548  0.00  0.00    -0.070 Cl
ATOM      8 Cl1  UNL d   1      -5.589   2.175   2.815  0.00  0.00    -0.070 Cl
ENDROOT
TORSDOF 0
ENDMDL
