MODEL 1
REMARK minimizedAffinity 3.25989437
REMARK minimizedRMSD -1
REMARK  0 active torsions:
REMARK  status: ('A' for Active; 'I' for Inactive)
ROOT
ATOM      1  C   UNL d   1       2.194  -2.618  -0.096  0.00  0.00     0.020 A 
ATOM      2  C1  UNL d   1       2.264  -1.275  -0.466  0.00  0.00     0.020 A 
ATOM      3  C2  UNL d   1       1.195  -0.679  -1.137  0.00  0.00     0.034 A 
ATOM      4  C3  UNL d   1       0.050  -1.426  -1.441  0.00  0.00     0.017 A 
ATOM      5  C4  UNL d   1      -0.019  -2.773  -1.069  0.00  0.00     0.017 A 
ATOM      6  C5  UNL d   1       1.055  -3.365  -0.396  0.00  0.00     0.034 A 
ATOM      7 Cl   UNL d   1      -1.398  -3.759  -1.408  0.00  0.00    -0.070 Cl
ATOM      8 Cl1  UNL d   1      -1.235  -0.624  -2.273  0.00  0.00    -0.070 Cl
ENDROOT
TORSDOF 0
ENDMDL
