MODEL 1
REMARK minimizedAffinity 8.58225155
REMARK minimizedRMSD -1
REMARK  0 active torsions:
REMARK  status: ('A' for Active; 'I' for Inactive)
ROOT
ATOM      1  C   UNL d   1       5.711   0.780   0.043  0.00  0.00     0.020 A 
ATOM      2  C1  UNL d   1       5.050   1.998   0.198  0.00  0.00     0.020 A 
ATOM      3  C2  UNL d   1       3.654   2.040   0.191  0.00  0.00     0.034 A 
ATOM      4  C3  UNL d   1       2.915   0.863   0.028  0.00  0.00     0.017 A 
ATOM      5  C4  UNL d   1       3.580  -0.359  -0.127  0.00  0.00     0.017 A 
ATOM      6  C5  UNL d   1       4.977  -0.396  -0.119  0.00  0.00     0.034 A 
ATOM      7 Cl   UNL d   1       2.736  -1.854  -0.333  0.00  0.00    -0.070 Cl
ATOM      8 Cl1  UNL d   1       1.192   0.989   0.030  0.00  0.00    -0.070 Cl
ENDROOT
TORSDOF 0
ENDMDL
