MODEL 1
REMARK minimizedAffinity 16.8836079
REMARK minimizedRMSD -1
REMARK  0 active torsions:
REMARK  status: ('A' for Active; 'I' for Inactive)
ROOT
ATOM      1  C   UNL d   1       1.991  -0.544  -0.302  0.00  0.00     0.020 A 
ATOM      2  C1  UNL d   1       1.974  -0.732   1.079  0.00  0.00     0.020 A 
ATOM      3  C2  UNL d   1       2.026   0.372   1.934  0.00  0.00     0.034 A 
ATOM      4  C3  UNL d   1       2.094   1.667   1.408  0.00  0.00     0.017 A 
ATOM      5  C4  UNL d   1       2.111   1.854   0.021  0.00  0.00     0.017 A 
ATOM      6  C5  UNL d   1       2.059   0.746  -0.830  0.00  0.00     0.034 A 
ATOM      7 Cl   UNL d   1       2.194   3.421  -0.702  0.00  0.00    -0.070 Cl
ATOM      8 Cl1  UNL d   1       2.155   2.985   2.524  0.00  0.00    -0.070 Cl
ENDROOT
TORSDOF 0
ENDMDL
