MODEL 1
REMARK minimizedAffinity 19.0134296
REMARK minimizedRMSD -1
REMARK  0 active torsions:
REMARK  status: ('A' for Active; 'I' for Inactive)
ROOT
ATOM      1  C   UNL d   1       1.520   2.807   4.281  0.00  0.00     0.020 A 
ATOM      2  C1  UNL d   1       2.339   3.142   3.204  0.00  0.00     0.020 A 
ATOM      3  C2  UNL d   1       2.500   2.248   2.144  0.00  0.00     0.034 A 
ATOM      4  C3  UNL d   1       1.840   1.014   2.158  0.00  0.00     0.017 A 
ATOM      5  C4  UNL d   1       1.018   0.678   3.239  0.00  0.00     0.017 A 
ATOM      6  C5  UNL d   1       0.860   1.577   4.298  0.00  0.00     0.034 A 
ATOM      7 Cl   UNL d   1       0.171  -0.826   3.328  0.00  0.00    -0.070 Cl
ATOM      8 Cl1  UNL d   1       2.085  -0.043   0.813  0.00  0.00    -0.070 Cl
ENDROOT
TORSDOF 0
ENDMDL
