MODEL 1
REMARK minimizedAffinity 3.97320795
REMARK minimizedRMSD -1
REMARK  0 active torsions:
REMARK  status: ('A' for Active; 'I' for Inactive)
ROOT
ATOM      1  C   UNL d   1      -5.966   5.985   1.164  0.00  0.00     0.020 A 
ATOM      2  C1  UNL d   1      -4.742   5.986   0.497  0.00  0.00     0.020 A 
ATOM      3  C2  UNL d   1      -3.550   5.990   1.225  0.00  0.00     0.034 A 
ATOM      4  C3  UNL d   1      -3.580   5.995   2.624  0.00  0.00     0.017 A 
ATOM      5  C4  UNL d   1      -4.809   5.994   3.293  0.00  0.00     0.017 A 
ATOM      6  C5  UNL d   1      -6.000   5.989   2.559  0.00  0.00     0.034 A 
ATOM      7 Cl   UNL d   1      -4.927   5.999   5.017  0.00  0.00    -0.070 Cl
ATOM      8 Cl1  UNL d   1      -2.068   6.000   3.460  0.00  0.00    -0.070 Cl
ENDROOT
TORSDOF 0
ENDMDL
