MODEL 1
REMARK minimizedAffinity 8.12076664
REMARK minimizedRMSD -1
REMARK  1 active torsions:
REMARK  status: ('A' for Active; 'I' for Inactive)
REMARK    1  A    between atoms: C1_2  and  C2_3 
ROOT
ATOM      1  C2  UNL d   1       3.538   1.064  -0.020  0.00  0.00    -0.081 A 
ATOM      2  C3  UNL d   1       4.508   1.886   0.565  0.00  0.00     0.006 A 
ATOM      3  C4  UNL d   1       5.315   2.704  -0.229  0.00  0.00     0.002 A 
ATOM      4  C5  UNL d   1       5.161   2.720  -1.619  0.00  0.00    -0.080 A 
ATOM      5  C6  UNL d   1       6.000   3.616  -2.480  0.00  0.00     0.076 C 
ATOM      6  C7  UNL d   1       4.203   1.885  -2.205  0.00  0.00     0.002 A 
ATOM      7  C8  UNL d   1       3.396   1.066  -1.412  0.00  0.00     0.006 A 
ENDROOT
BRANCH   1   8
ATOM      8  C1  UNL d   1       2.622   0.228   0.838  0.00  0.00     0.054 C 
ATOM      9  C   UNL d   1       1.907  -0.832   0.014  0.00  0.00     0.018 C 
ENDBRANCH   1   8
TORSDOF 1
ENDMDL
