MODEL 1
REMARK minimizedAffinity 23.3444958
REMARK minimizedRMSD -1
REMARK  1 active torsions:
REMARK  status: ('A' for Active; 'I' for Inactive)
REMARK    1  A    between atoms: C1_2  and  C2_3 
ROOT
ATOM      1  C2  UNL d   1       5.457   2.952  -2.740  0.00  0.00    -0.081 A 
ATOM      2  C3  UNL d   1       5.996   2.351  -3.884  0.00  0.00     0.006 A 
ATOM      3  C4  UNL d   1       5.467   1.153  -4.370  0.00  0.00     0.002 A 
ATOM      4  C5  UNL d   1       4.386   0.541  -3.727  0.00  0.00    -0.080 A 
ATOM      5  C6  UNL d   1       3.789  -0.728  -4.257  0.00  0.00     0.076 C 
ATOM      6  C7  UNL d   1       3.859   1.133  -2.574  0.00  0.00     0.002 A 
ATOM      7  C8  UNL d   1       4.388   2.330  -2.086  0.00  0.00     0.006 A 
ENDROOT
BRANCH   1   8
ATOM      8  C1  UNL d   1       5.984   4.277  -2.249  0.00  0.00     0.054 C 
ATOM      9  C   UNL d   1       5.626   5.403  -3.208  0.00  0.00     0.018 C 
ENDBRANCH   1   8
TORSDOF 1
ENDMDL
