MODEL 1
REMARK minimizedAffinity 5.6669836
REMARK minimizedRMSD -1
REMARK  1 active torsions:
REMARK  status: ('A' for Active; 'I' for Inactive)
REMARK    1  A    between atoms: C1_2  and  C2_3 
ROOT
ATOM      1  C2  UNL d   1       4.124   1.980   0.110  0.00  0.00    -0.081 A 
ATOM      2  C3  UNL d   1       5.370   2.618   0.092  0.00  0.00     0.006 A 
ATOM      3  C4  UNL d   1       5.986   2.936  -1.121  0.00  0.00     0.002 A 
ATOM      4  C5  UNL d   1       5.363   2.628  -2.335  0.00  0.00    -0.080 A 
ATOM      5  C6  UNL d   1       6.000   2.991  -3.644  0.00  0.00     0.076 C 
ATOM      6  C7  UNL d   1       4.126   1.975  -2.318  0.00  0.00     0.002 A 
ATOM      7  C8  UNL d   1       3.510   1.657  -1.106  0.00  0.00     0.006 A 
ENDROOT
BRANCH   1   8
ATOM      8  C1  UNL d   1       3.427   1.694   1.416  0.00  0.00     0.054 C 
ATOM      9  C   UNL d   1       3.300   2.953   2.262  0.00  0.00     0.018 C 
ENDBRANCH   1   8
TORSDOF 1
ENDMDL
