MODEL 1
REMARK minimizedAffinity 11.0463896
REMARK minimizedRMSD -1
REMARK  1 active torsions:
REMARK  status: ('A' for Active; 'I' for Inactive)
REMARK    1  A    between atoms: C1_2  and  C2_3 
ROOT
ATOM      1  C2  UNL d   1      -1.015  -1.279  -2.097  0.00  0.00    -0.081 A 
ATOM      2  C3  UNL d   1      -1.786  -0.258  -2.666  0.00  0.00     0.006 A 
ATOM      3  C4  UNL d   1      -2.532  -0.495  -3.823  0.00  0.00     0.002 A 
ATOM      4  C5  UNL d   1      -2.526  -1.758  -4.425  0.00  0.00    -0.080 A 
ATOM      5  C6  UNL d   1      -3.346  -2.035  -5.650  0.00  0.00     0.076 C 
ATOM      6  C7  UNL d   1      -1.742  -2.773  -3.866  0.00  0.00     0.002 A 
ATOM      7  C8  UNL d   1      -0.995  -2.536  -2.710  0.00  0.00     0.006 A 
ENDROOT
BRANCH   1   8
ATOM      8  C1  UNL d   1      -0.261  -1.044  -0.813  0.00  0.00     0.054 C 
ATOM      9  C   UNL d   1       1.236  -0.933  -1.063  0.00  0.00     0.018 C 
ENDBRANCH   1   8
TORSDOF 1
ENDMDL
