MODEL 1
REMARK minimizedAffinity 4.88737583
REMARK minimizedRMSD -1
REMARK  1 active torsions:
REMARK  status: ('A' for Active; 'I' for Inactive)
REMARK    1  A    between atoms: C1_2  and  C2_3 
ROOT
ATOM      1  C2  UNL d   1       1.689   2.843   2.225  0.00  0.00    -0.081 A 
ATOM      2  C3  UNL d   1       0.782   2.961   1.164  0.00  0.00     0.006 A 
ATOM      3  C4  UNL d   1       1.015   2.299  -0.043  0.00  0.00     0.002 A 
ATOM      4  C5  UNL d   1       2.154   1.503  -0.209  0.00  0.00    -0.080 A 
ATOM      5  C6  UNL d   1       2.400   0.763  -1.490  0.00  0.00     0.076 C 
ATOM      6  C7  UNL d   1       3.069   1.400   0.845  0.00  0.00     0.002 A 
ATOM      7  C8  UNL d   1       2.836   2.062   2.052  0.00  0.00     0.006 A 
ENDROOT
BRANCH   1   8
ATOM      8  C1  UNL d   1       1.407   3.503   3.551  0.00  0.00     0.054 C 
ATOM      9  C   UNL d   1       1.316   2.477   4.671  0.00  0.00     0.018 C 
ENDBRANCH   1   8
TORSDOF 1
ENDMDL
