MODEL 1
REMARK minimizedAffinity 0.183306918
REMARK minimizedRMSD -1
REMARK  1 active torsions:
REMARK  status: ('A' for Active; 'I' for Inactive)
REMARK    1  A    between atoms: C1_2  and  C2_3 
ROOT
ATOM      1  C2  UNL d   1       5.135   3.141  -1.827  0.00  0.00    -0.081 A 
ATOM      2  C3  UNL d   1       4.203   2.338  -2.496  0.00  0.00     0.006 A 
ATOM      3  C4  UNL d   1       3.361   1.484  -1.781  0.00  0.00     0.002 A 
ATOM      4  C5  UNL d   1       3.430   1.424  -0.385  0.00  0.00    -0.080 A 
ATOM      5  C6  UNL d   1       2.511   0.533   0.397  0.00  0.00     0.076 C 
ATOM      6  C7  UNL d   1       4.373   2.213   0.283  0.00  0.00     0.002 A 
ATOM      7  C8  UNL d   1       5.216   3.067  -0.432  0.00  0.00     0.006 A 
ENDROOT
BRANCH   1   8
ATOM      8  C1  UNL d   1       6.000   4.111  -2.590  0.00  0.00     0.054 C 
ATOM      9  C   UNL d   1       5.366   5.494  -2.644  0.00  0.00     0.018 C 
ENDBRANCH   1   8
TORSDOF 1
ENDMDL
