MODEL 1
REMARK minimizedAffinity -1.95886195
REMARK minimizedRMSD -1
REMARK  1 active torsions:
REMARK  status: ('A' for Active; 'I' for Inactive)
REMARK    1  A    between atoms: C1_2  and  C2_3 
ROOT
ATOM      1  C2  UNL d   1       3.542   0.234   1.276  0.00  0.00    -0.081 A 
ATOM      2  C3  UNL d   1       2.755   0.135   0.123  0.00  0.00     0.006 A 
ATOM      3  C4  UNL d   1       3.073   0.877  -1.017  0.00  0.00     0.002 A 
ATOM      4  C5  UNL d   1       4.186   1.724  -1.026  0.00  0.00    -0.080 A 
ATOM      5  C6  UNL d   1       4.556   2.503  -2.253  0.00  0.00     0.076 C 
ATOM      6  C7  UNL d   1       4.963   1.836   0.132  0.00  0.00     0.002 A 
ATOM      7  C8  UNL d   1       4.645   1.095   1.273  0.00  0.00     0.006 A 
ENDROOT
BRANCH   1   8
ATOM      8  C1  UNL d   1       3.240  -0.614   2.486  0.00  0.00     0.054 C 
ATOM      9  C   UNL d   1       4.304  -0.442   3.561  0.00  0.00     0.018 C 
ENDBRANCH   1   8
TORSDOF 1
ENDMDL
