MODEL 1
REMARK minimizedAffinity -5.05103731
REMARK minimizedRMSD -1
REMARK  0 active torsions:
REMARK  status: ('A' for Active; 'I' for Inactive)
ROOT
ATOM      1  N1  IND d   1      -0.117  -0.138  -0.740  0.00  0.00    -0.196 N 
ATOM      2  C2  IND d   1       1.160   0.348  -0.709  0.00  0.00     0.054 A 
ATOM      3  C3  IND d   1       1.493   0.715   0.549  0.00  0.00    -0.031 A 
ATOM      4  C4  IND d   1       0.134   0.511   2.726  0.00  0.00     0.051 A 
ATOM      5  C5  IND d   1      -1.100   0.161   3.196  0.00  0.00    -0.031 A 
ATOM      6  C6  IND d   1      -2.089  -0.319   2.362  0.00  0.00     0.015 A 
ATOM      7  C7  IND d   1      -1.876  -0.478   1.022  0.00  0.00    -0.016 A 
ATOM      8  C8  IND d   1      -0.626  -0.117   0.540  0.00  0.00    -0.047 A 
ATOM      9  C9  IND d   1       0.368   0.411   1.375  0.00  0.00    -0.096 A 
ATOM     10  HN1 IND d   1      -0.533  -0.411  -1.442  0.00  0.00     0.298 HD
ENDROOT
TORSDOF 0
ENDMDL
