MODEL 1
REMARK minimizedAffinity -5.85257149
REMARK minimizedRMSD -1
REMARK  0 active torsions:
REMARK  status: ('A' for Active; 'I' for Inactive)
ROOT
ATOM      1  N1  IND d   1      -1.433   0.343  -0.570  0.00  0.00    -0.196 N 
ATOM      2  C2  IND d   1      -0.213   0.412  -1.183  0.00  0.00     0.054 A 
ATOM      3  C3  IND d   1       0.778   0.273  -0.274  0.00  0.00    -0.031 A 
ATOM      4  C4  IND d   1       0.626  -0.181   2.255  0.00  0.00     0.051 A 
ATOM      5  C5  IND d   1      -0.274  -0.289   3.278  0.00  0.00    -0.031 A 
ATOM      6  C6  IND d   1      -1.634  -0.193   3.065  0.00  0.00     0.015 A 
ATOM      7  C7  IND d   1      -2.147   0.005   1.815  0.00  0.00    -0.016 A 
ATOM      8  C8  IND d   1      -1.236   0.122   0.775  0.00  0.00    -0.047 A 
ATOM      9  C9  IND d   1       0.147   0.068   0.991  0.00  0.00    -0.096 A 
ATOM     10  HN1 IND d   1      -2.195   0.424  -0.960  0.00  0.00     0.298 HD
ENDROOT
TORSDOF 0
ENDMDL
