MODEL 1
REMARK minimizedAffinity -2.41767049
REMARK minimizedRMSD -1
REMARK  0 active torsions:
REMARK  status: ('A' for Active; 'I' for Inactive)
ROOT
ATOM      1  N1  IND d   1      -0.894  -0.452  -1.131  0.00  0.00    -0.196 N 
ATOM      2  C2  IND d   1       0.054  -0.037  -2.023  0.00  0.00     0.054 A 
ATOM      3  C3  IND d   1       1.159   0.389  -1.371  0.00  0.00    -0.031 A 
ATOM      4  C4  IND d   1       1.667   0.398   1.153  0.00  0.00     0.051 A 
ATOM      5  C5  IND d   1       1.094   0.148   2.368  0.00  0.00    -0.031 A 
ATOM      6  C6  IND d   1      -0.197  -0.327   2.481  0.00  0.00     0.015 A 
ATOM      7  C7  IND d   1      -0.962  -0.581   1.378  0.00  0.00    -0.016 A 
ATOM      8  C8  IND d   1      -0.385  -0.322   0.142  0.00  0.00    -0.047 A 
ATOM      9  C9  IND d   1       0.909   0.201   0.023  0.00  0.00    -0.096 A 
ATOM     10  HN1 IND d   1      -1.678  -0.744  -1.331  0.00  0.00     0.298 HD
ENDROOT
TORSDOF 0
ENDMDL
