MODEL 1
REMARK minimizedAffinity -4.92689705
REMARK minimizedRMSD -1
REMARK  0 active torsions:
REMARK  status: ('A' for Active; 'I' for Inactive)
ROOT
ATOM      1  N1  IND d   1      -0.861  -0.200  -0.746  0.00  0.00    -0.196 N 
ATOM      2  C2  IND d   1       0.482   0.013  -0.884  0.00  0.00     0.054 A 
ATOM      3  C3  IND d   1       1.081   0.039   0.328  0.00  0.00    -0.031 A 
ATOM      4  C4  IND d   1       0.066  -0.344   2.663  0.00  0.00     0.051 A 
ATOM      5  C5  IND d   1      -1.127  -0.538   3.300  0.00  0.00    -0.031 A 
ATOM      6  C6  IND d   1      -2.317  -0.634   2.607  0.00  0.00     0.015 A 
ATOM      7  C7  IND d   1      -2.356  -0.550   1.244  0.00  0.00    -0.016 A 
ATOM      8  C8  IND d   1      -1.147  -0.346   0.594  0.00  0.00    -0.047 A 
ATOM      9  C9  IND d   1       0.058  -0.206   1.295  0.00  0.00    -0.096 A 
ATOM     10  HN1 IND d   1      -1.432  -0.236  -1.388  0.00  0.00     0.298 HD
ENDROOT
TORSDOF 0
ENDMDL
