MODEL 1
REMARK minimizedAffinity -5.12949371
REMARK minimizedRMSD -1
REMARK  0 active torsions:
REMARK  status: ('A' for Active; 'I' for Inactive)
ROOT
ATOM      1  N1  IND d   1      -2.525   0.315   0.588  0.00  0.00    -0.196 N 
ATOM      2  C2  IND d   1      -3.146   0.136   1.792  0.00  0.00     0.054 A 
ATOM      3  C3  IND d   1      -2.235  -0.125   2.756  0.00  0.00    -0.031 A 
ATOM      4  C4  IND d   1       0.334  -0.204   2.602  0.00  0.00     0.051 A 
ATOM      5  C5  IND d   1       1.361  -0.139   1.703  0.00  0.00    -0.031 A 
ATOM      6  C6  IND d   1       1.142   0.088   0.359  0.00  0.00     0.015 A 
ATOM      7  C7  IND d   1      -0.119   0.270  -0.135  0.00  0.00    -0.016 A 
ATOM      8  C8  IND d   1      -1.165   0.198   0.773  0.00  0.00    -0.047 A 
ATOM      9  C9  IND d   1      -0.951  -0.074   2.131  0.00  0.00    -0.096 A 
ATOM     10  HN1 IND d   1      -2.918   0.475  -0.160  0.00  0.00     0.298 HD
ENDROOT
TORSDOF 0
ENDMDL
