MODEL 1
REMARK minimizedAffinity -6.38704824
REMARK minimizedRMSD -1
REMARK  0 active torsions:
REMARK  status: ('A' for Active; 'I' for Inactive)
ROOT
ATOM      1  N1  IND d   1      -0.323   0.144  -0.900  0.00  0.00    -0.196 N 
ATOM      2  C2  IND d   1       1.028  -0.009  -0.756  0.00  0.00     0.054 A 
ATOM      3  C3  IND d   1       1.345  -0.193   0.545  0.00  0.00    -0.031 A 
ATOM      4  C4  IND d   1      -0.201  -0.378   2.595  0.00  0.00     0.051 A 
ATOM      5  C5  IND d   1      -1.511  -0.267   2.970  0.00  0.00    -0.031 A 
ATOM      6  C6  IND d   1      -2.512  -0.011   2.055  0.00  0.00     0.015 A 
ATOM      7  C7  IND d   1      -2.241   0.133   0.724  0.00  0.00    -0.016 A 
ATOM      8  C8  IND d   1      -0.911   0.028   0.340  0.00  0.00    -0.047 A 
ATOM      9  C9  IND d   1       0.114  -0.190   1.270  0.00  0.00    -0.096 A 
ATOM     10  HN1 IND d   1      -0.735   0.288  -1.640  0.00  0.00     0.298 HD
ENDROOT
TORSDOF 0
ENDMDL
