MODEL 1
REMARK minimizedAffinity -0.795129716
REMARK minimizedRMSD -1
REMARK  0 active torsions:
REMARK  status: ('A' for Active; 'I' for Inactive)
ROOT
ATOM      1  N1  IND d   1      -0.812  -0.379  -0.206  0.00  0.00    -0.196 N 
ATOM      2  C2  IND d   1       0.003   0.495   0.456  0.00  0.00     0.054 A 
ATOM      3  C3  IND d   1       1.144   0.695  -0.241  0.00  0.00    -0.031 A 
ATOM      4  C4  IND d   1       1.839  -0.233  -2.540  0.00  0.00     0.051 A 
ATOM      5  C5  IND d   1       1.440  -1.102  -3.516  0.00  0.00    -0.031 A 
ATOM      6  C6  IND d   1       0.245  -1.786  -3.439  0.00  0.00     0.015 A 
ATOM      7  C7  IND d   1      -0.606  -1.618  -2.383  0.00  0.00    -0.016 A 
ATOM      8  C8  IND d   1      -0.200  -0.741  -1.386  0.00  0.00    -0.047 A 
ATOM      9  C9  IND d   1       1.031  -0.076  -1.438  0.00  0.00    -0.096 A 
ATOM     10  HN1 IND d   1      -1.578  -0.657   0.068  0.00  0.00     0.298 HD
ENDROOT
TORSDOF 0
ENDMDL
