MODEL 1
REMARK minimizedAffinity -4.81009769
REMARK minimizedRMSD -1
REMARK  0 active torsions:
REMARK  status: ('A' for Active; 'I' for Inactive)
ROOT
ATOM      1  N1  IND d   1      -1.277   0.079  -0.863  0.00  0.00    -0.196 N 
ATOM      2  C2  IND d   1      -0.100   0.432  -1.461  0.00  0.00     0.054 A 
ATOM      3  C3  IND d   1       0.912   0.404  -0.565  0.00  0.00    -0.031 A 
ATOM      4  C4  IND d   1       0.880  -0.292   1.914  0.00  0.00     0.051 A 
ATOM      5  C5  IND d   1       0.030  -0.658   2.919  0.00  0.00    -0.031 A 
ATOM      6  C6  IND d   1      -1.326  -0.803   2.710  0.00  0.00     0.015 A 
ATOM      7  C7  IND d   1      -1.884  -0.597   1.480  0.00  0.00    -0.016 A 
ATOM      8  C8  IND d   1      -1.024  -0.218   0.459  0.00  0.00    -0.047 A 
ATOM      9  C9  IND d   1       0.347  -0.028   0.675  0.00  0.00    -0.096 A 
ATOM     10  HN1 IND d   1      -2.045   0.048  -1.247  0.00  0.00     0.298 HD
ENDROOT
TORSDOF 0
ENDMDL
