MODEL 1
REMARK minimizedAffinity -6.24059153
REMARK minimizedRMSD -1
REMARK  0 active torsions:
REMARK  status: ('A' for Active; 'I' for Inactive)
ROOT
ATOM      1  N1  IND d   1      -0.766   0.293  -0.562  0.00  0.00    -0.196 N 
ATOM      2  C2  IND d   1       0.596   0.373  -0.476  0.00  0.00     0.054 A 
ATOM      3  C3  IND d   1       1.001   0.159   0.796  0.00  0.00    -0.031 A 
ATOM      4  C4  IND d   1      -0.392  -0.439   2.876  0.00  0.00     0.051 A 
ATOM      5  C5  IND d   1      -1.682  -0.589   3.303  0.00  0.00    -0.031 A 
ATOM      6  C6  IND d   1      -2.754  -0.452   2.445  0.00  0.00     0.015 A 
ATOM      7  C7  IND d   1      -2.575  -0.170   1.120  0.00  0.00    -0.016 A 
ATOM      8  C8  IND d   1      -1.267  -0.011   0.685  0.00  0.00    -0.047 A 
ATOM      9  C9  IND d   1      -0.177  -0.106   1.560  0.00  0.00    -0.096 A 
ATOM     10  HN1 IND d   1      -1.232   0.413  -1.275  0.00  0.00     0.298 HD
ENDROOT
TORSDOF 0
ENDMDL
