MODEL 1
REMARK minimizedAffinity -0.423228949
REMARK minimizedRMSD -1
REMARK  0 active torsions:
REMARK  status: ('A' for Active; 'I' for Inactive)
ROOT
ATOM      1  N1  IND d   1       0.527  -2.791  -2.322  0.00  0.00    -0.196 N 
ATOM      2  C2  IND d   1       0.931  -2.410  -3.571  0.00  0.00     0.054 A 
ATOM      3  C3  IND d   1       1.060  -1.066  -3.634  0.00  0.00    -0.031 A 
ATOM      4  C4  IND d   1       0.759   0.694  -1.780  0.00  0.00     0.051 A 
ATOM      5  C5  IND d   1       0.360   0.832  -0.480  0.00  0.00    -0.031 A 
ATOM      6  C6  IND d   1      -0.009  -0.253   0.289  0.00  0.00     0.015 A 
ATOM      7  C7  IND d   1       0.019  -1.523  -0.213  0.00  0.00    -0.016 A 
ATOM      8  C8  IND d   1       0.417  -1.666  -1.534  0.00  0.00    -0.047 A 
ATOM      9  C9  IND d   1       0.751  -0.565  -2.332  0.00  0.00    -0.096 A 
ATOM     10  HN1 IND d   1       0.369  -3.598  -2.070  0.00  0.00     0.298 HD
ENDROOT
TORSDOF 0
ENDMDL
