MODEL 1
REMARK minimizedAffinity -2.92056251
REMARK minimizedRMSD -1
REMARK  0 active torsions:
REMARK  status: ('A' for Active; 'I' for Inactive)
ROOT
ATOM      1  N1  IND d   1       1.697  -1.853  -2.418  0.00  0.00    -0.196 N 
ATOM      2  C2  IND d   1       1.358  -1.925  -3.740  0.00  0.00     0.054 A 
ATOM      3  C3  IND d   1       0.347  -1.071  -4.014  0.00  0.00    -0.031 A 
ATOM      4  C4  IND d   1      -0.834   0.614  -2.468  0.00  0.00     0.051 A 
ATOM      5  C5  IND d   1      -0.896   1.020  -1.164  0.00  0.00    -0.031 A 
ATOM      6  C6  IND d   1      -0.079   0.480  -0.193  0.00  0.00     0.015 A 
ATOM      7  C7  IND d   1       0.843  -0.483  -0.492  0.00  0.00    -0.016 A 
ATOM      8  C8  IND d   1       0.904  -0.902  -1.814  0.00  0.00    -0.047 A 
ATOM      9  C9  IND d   1       0.048  -0.388  -2.796  0.00  0.00    -0.096 A 
ATOM     10  HN1 IND d   1       2.303  -2.323  -2.029  0.00  0.00     0.298 HD
ENDROOT
TORSDOF 0
ENDMDL
