MODEL 1
REMARK minimizedAffinity -4.88496256
REMARK minimizedRMSD -1
REMARK  0 active torsions:
REMARK  status: ('A' for Active; 'I' for Inactive)
ROOT
ATOM      1  N1  IND d   1      -0.819   0.466  -0.051  0.00  0.00    -0.196 N 
ATOM      2  C2  IND d   1       0.545   0.458  -0.141  0.00  0.00     0.054 A 
ATOM      3  C3  IND d   1       1.094   0.174   1.062  0.00  0.00    -0.031 A 
ATOM      4  C4  IND d   1      -0.059  -0.413   3.288  0.00  0.00     0.051 A 
ATOM      5  C5  IND d   1      -1.291  -0.498   3.873  0.00  0.00    -0.031 A 
ATOM      6  C6  IND d   1      -2.452  -0.264   3.166  0.00  0.00     0.015 A 
ATOM      7  C7  IND d   1      -2.425   0.054   1.837  0.00  0.00    -0.016 A 
ATOM      8  C8  IND d   1      -1.176   0.148   1.241  0.00  0.00    -0.047 A 
ATOM      9  C9  IND d   1       0.008  -0.047   1.964  0.00  0.00    -0.096 A 
ATOM     10  HN1 IND d   1      -1.363   0.641  -0.694  0.00  0.00     0.298 HD
ENDROOT
TORSDOF 0
ENDMDL
