MODEL 1
REMARK minimizedAffinity -5.92284822
REMARK minimizedRMSD -1
REMARK  0 active torsions:
REMARK  status: ('A' for Active; 'I' for Inactive)
ROOT
ATOM      1  N1  IND d   1      -0.827  -0.093  -0.822  0.00  0.00    -0.196 N 
ATOM      2  C2  IND d   1       0.524  -0.303  -0.834  0.00  0.00     0.054 A 
ATOM      3  C3  IND d   1       0.989  -0.439   0.428  0.00  0.00    -0.031 A 
ATOM      4  C4  IND d   1      -0.302  -0.453   2.655  0.00  0.00     0.051 A 
ATOM      5  C5  IND d   1      -1.550  -0.262   3.178  0.00  0.00    -0.031 A 
ATOM      6  C6  IND d   1      -2.644  -0.002   2.377  0.00  0.00     0.015 A 
ATOM      7  C7  IND d   1      -2.531   0.065   1.017  0.00  0.00    -0.016 A 
ATOM      8  C8  IND d   1      -1.264  -0.121   0.484  0.00  0.00    -0.047 A 
ATOM      9  C9  IND d   1      -0.143  -0.343   1.294  0.00  0.00    -0.096 A 
ATOM     10  HN1 IND d   1      -1.320   0.036  -1.514  0.00  0.00     0.298 HD
ENDROOT
TORSDOF 0
ENDMDL
