MODEL 1
REMARK minimizedAffinity -3.20318222
REMARK minimizedRMSD -1
REMARK  0 active torsions:
REMARK  status: ('A' for Active; 'I' for Inactive)
ROOT
ATOM      1  N1  IND d   1      -1.125   0.748  -1.270  0.00  0.00    -0.196 N 
ATOM      2  C2  IND d   1       0.196   0.402  -1.326  0.00  0.00     0.054 A 
ATOM      3  C3  IND d   1       0.616  -0.051  -0.123  0.00  0.00    -0.031 A 
ATOM      4  C4  IND d   1      -0.722  -0.405   2.048  0.00  0.00     0.051 A 
ATOM      5  C5  IND d   1      -1.955  -0.198   2.599  0.00  0.00    -0.031 A 
ATOM      6  C6  IND d   1      -2.996   0.344   1.874  0.00  0.00     0.015 A 
ATOM      7  C7  IND d   1      -2.846   0.689   0.560  0.00  0.00    -0.016 A 
ATOM      8  C8  IND d   1      -1.593   0.487  -0.001  0.00  0.00    -0.047 A 
ATOM      9  C9  IND d   1      -0.520  -0.023   0.742  0.00  0.00    -0.096 A 
ATOM     10  HN1 IND d   1      -1.586   1.075  -1.918  0.00  0.00     0.298 HD
ENDROOT
TORSDOF 0
ENDMDL
