MODEL 1
REMARK minimizedAffinity -6.30126429
REMARK minimizedRMSD -1
REMARK  0 active torsions:
REMARK  status: ('A' for Active; 'I' for Inactive)
ROOT
ATOM      1  N1  IND d   1      -0.995   0.412  -0.873  0.00  0.00    -0.196 N 
ATOM      2  C2  IND d   1       0.363   0.466  -1.017  0.00  0.00     0.054 A 
ATOM      3  C3  IND d   1       0.970   0.272   0.175  0.00  0.00    -0.031 A 
ATOM      4  C4  IND d   1      -0.066  -0.255   2.473  0.00  0.00     0.051 A 
ATOM      5  C5  IND d   1      -1.269  -0.369   3.111  0.00  0.00    -0.031 A 
ATOM      6  C6  IND d   1      -2.466  -0.230   2.440  0.00  0.00     0.015 A 
ATOM      7  C7  IND d   1      -2.506   0.020   1.097  0.00  0.00    -0.016 A 
ATOM      8  C8  IND d   1      -1.286   0.144   0.447  0.00  0.00    -0.047 A 
ATOM      9  C9  IND d   1      -0.067   0.045   1.131  0.00  0.00    -0.096 A 
ATOM     10  HN1 IND d   1      -1.571   0.525  -1.501  0.00  0.00     0.298 HD
ENDROOT
TORSDOF 0
ENDMDL
