MODEL 1
REMARK minimizedAffinity -2.33720756
REMARK minimizedRMSD -1
REMARK  0 active torsions:
REMARK  status: ('A' for Active; 'I' for Inactive)
ROOT
ATOM      1  C   UNL d   1      -1.117  -2.978   0.621  0.00  0.00     0.078 C 
ATOM      2  C1  UNL d   1      -0.693  -1.622   0.142  0.00  0.00    -0.077 A 
ATOM      3  C2  UNL d   1      -0.782  -0.502   0.978  0.00  0.00    -0.001 A 
ATOM      4  C3  UNL d   1      -0.393   0.756   0.515  0.00  0.00     0.003 A 
ATOM      5  C4  UNL d   1       0.086   0.907  -0.784  0.00  0.00    -0.005 A 
ATOM      6  C5  UNL d   1       0.176  -0.201  -1.624  0.00  0.00     0.003 A 
ATOM      7  C6  UNL d   1      -0.213  -1.460  -1.163  0.00  0.00    -0.001 A 
ENDROOT
TORSDOF 0
ENDMDL
