MODEL 1
REMARK minimizedAffinity -2.86982465
REMARK minimizedRMSD -1
REMARK  0 active torsions:
REMARK  status: ('A' for Active; 'I' for Inactive)
ROOT
ATOM      1  C   UNL d   1       0.842  -3.000  -0.353  0.00  0.00     0.078 C 
ATOM      2  C1  UNL d   1       0.562  -1.569  -0.703  0.00  0.00    -0.077 A 
ATOM      3  C2  UNL d   1       0.329  -0.614   0.295  0.00  0.00    -0.001 A 
ATOM      4  C3  UNL d   1       0.061   0.712  -0.046  0.00  0.00     0.003 A 
ATOM      5  C4  UNL d   1       0.022   1.096  -1.385  0.00  0.00    -0.005 A 
ATOM      6  C5  UNL d   1       0.250   0.153  -2.385  0.00  0.00     0.003 A 
ATOM      7  C6  UNL d   1       0.519  -1.174  -2.046  0.00  0.00    -0.001 A 
ENDROOT
TORSDOF 0
ENDMDL
