MODEL 1
REMARK minimizedAffinity -4.11594677
REMARK minimizedRMSD -1
REMARK  0 active torsions:
REMARK  status: ('A' for Active; 'I' for Inactive)
ROOT
ATOM      1  C   UNL d   1       0.372  -0.526  -2.329  0.00  0.00     0.078 C 
ATOM      2  C1  UNL d   1       0.037  -1.101  -0.986  0.00  0.00    -0.077 A 
ATOM      3  C2  UNL d   1       0.609  -2.304  -0.553  0.00  0.00    -0.001 A 
ATOM      4  C3  UNL d   1       0.280  -2.833   0.696  0.00  0.00     0.003 A 
ATOM      5  C4  UNL d   1      -0.622  -2.166   1.523  0.00  0.00    -0.005 A 
ATOM      6  C5  UNL d   1      -1.198  -0.970   1.100  0.00  0.00     0.003 A 
ATOM      7  C6  UNL d   1      -0.871  -0.440  -0.149  0.00  0.00    -0.001 A 
ENDROOT
TORSDOF 0
ENDMDL
