MODEL 1
REMARK minimizedAffinity -3.57307482
REMARK minimizedRMSD -1
REMARK  0 active torsions:
REMARK  status: ('A' for Active; 'I' for Inactive)
ROOT
ATOM      1  C   UNL d   1      -0.769  -0.002   1.013  0.00  0.00     0.078 C 
ATOM      2  C1  UNL d   1      -0.351  -1.292   0.372  0.00  0.00    -0.077 A 
ATOM      3  C2  UNL d   1      -1.173  -2.424   0.428  0.00  0.00    -0.001 A 
ATOM      4  C3  UNL d   1      -0.767  -3.621  -0.165  0.00  0.00     0.003 A 
ATOM      5  C4  UNL d   1       0.462  -3.697  -0.816  0.00  0.00    -0.005 A 
ATOM      6  C5  UNL d   1       1.288  -2.576  -0.875  0.00  0.00     0.003 A 
ATOM      7  C6  UNL d   1       0.884  -1.379  -0.283  0.00  0.00    -0.001 A 
ENDROOT
TORSDOF 0
ENDMDL
