MODEL 1
REMARK minimizedAffinity -2.78034568
REMARK minimizedRMSD -1
REMARK  0 active torsions:
REMARK  status: ('A' for Active; 'I' for Inactive)
ROOT
ATOM      1  C   UNL d   1       0.411   1.568   0.287  0.00  0.00     0.078 C 
ATOM      2  C1  UNL d   1       0.172   0.102   0.494  0.00  0.00    -0.077 A 
ATOM      3  C2  UNL d   1      -0.590  -0.359   1.575  0.00  0.00    -0.001 A 
ATOM      4  C3  UNL d   1      -0.796  -1.727   1.761  0.00  0.00     0.003 A 
ATOM      5  C4  UNL d   1      -0.243  -2.645   0.871  0.00  0.00    -0.005 A 
ATOM      6  C5  UNL d   1       0.518  -2.196  -0.206  0.00  0.00     0.003 A 
ATOM      7  C6  UNL d   1       0.725  -0.829  -0.394  0.00  0.00    -0.001 A 
ENDROOT
TORSDOF 0
ENDMDL
