MODEL 1
REMARK minimizedAffinity -3.20913243
REMARK minimizedRMSD -1
REMARK  0 active torsions:
REMARK  status: ('A' for Active; 'I' for Inactive)
ROOT
ATOM      1  C   UNL d   1      -3.227  -2.659   0.029  0.00  0.00     0.078 C 
ATOM      2  C1  UNL d   1      -1.809  -2.330   0.391  0.00  0.00    -0.077 A 
ATOM      3  C2  UNL d   1      -1.509  -1.227   1.200  0.00  0.00    -0.001 A 
ATOM      4  C3  UNL d   1      -0.184  -0.927   1.521  0.00  0.00     0.003 A 
ATOM      5  C4  UNL d   1       0.851  -1.725   1.037  0.00  0.00    -0.005 A 
ATOM      6  C5  UNL d   1       0.562  -2.823   0.230  0.00  0.00     0.003 A 
ATOM      7  C6  UNL d   1      -0.762  -3.124  -0.093  0.00  0.00    -0.001 A 
ENDROOT
TORSDOF 0
ENDMDL
