MODEL 1
REMARK minimizedAffinity -4.97260046
REMARK minimizedRMSD -1
REMARK  0 active torsions:
REMARK  status: ('A' for Active; 'I' for Inactive)
ROOT
ATOM      1  C   UNL d   1       0.408  -3.387   0.398  0.00  0.00     0.078 C 
ATOM      2  C1  UNL d   1       0.142  -1.922   0.224  0.00  0.00    -0.077 A 
ATOM      3  C2  UNL d   1       0.723  -1.203  -0.828  0.00  0.00    -0.001 A 
ATOM      4  C3  UNL d   1       0.475   0.163  -0.971  0.00  0.00     0.003 A 
ATOM      5  C4  UNL d   1      -0.354   0.822  -0.066  0.00  0.00    -0.005 A 
ATOM      6  C5  UNL d   1      -0.935   0.116   0.985  0.00  0.00     0.003 A 
ATOM      7  C6  UNL d   1      -0.688  -1.250   1.130  0.00  0.00    -0.001 A 
ENDROOT
TORSDOF 0
ENDMDL
