MODEL 1
REMARK minimizedAffinity -4.7914052
REMARK minimizedRMSD -1
REMARK  0 active torsions:
REMARK  status: ('A' for Active; 'I' for Inactive)
ROOT
ATOM      1  C   UNL d   1       0.021   0.043  -2.582  0.00  0.00     0.078 C 
ATOM      2  C1  UNL d   1      -0.050  -0.617  -1.238  0.00  0.00    -0.077 A 
ATOM      3  C2  UNL d   1       0.567  -1.853  -1.007  0.00  0.00    -0.001 A 
ATOM      4  C3  UNL d   1       0.484  -2.460   0.247  0.00  0.00     0.003 A 
ATOM      5  C4  UNL d   1      -0.216  -1.840   1.280  0.00  0.00    -0.005 A 
ATOM      6  C5  UNL d   1      -0.835  -0.612   1.059  0.00  0.00     0.003 A 
ATOM      7  C6  UNL d   1      -0.753  -0.003  -0.194  0.00  0.00    -0.001 A 
ENDROOT
TORSDOF 0
ENDMDL
