MODEL 1
REMARK minimizedAffinity -4.16160154
REMARK minimizedRMSD -1
REMARK  0 active torsions:
REMARK  status: ('A' for Active; 'I' for Inactive)
ROOT
ATOM      1  C   UNL d   1       0.199   1.205  -0.001  0.00  0.00     0.078 C 
ATOM      2  C1  UNL d   1      -0.145  -0.251   0.090  0.00  0.00    -0.077 A 
ATOM      3  C2  UNL d   1      -1.245  -0.687   0.839  0.00  0.00    -0.001 A 
ATOM      4  C3  UNL d   1      -1.548  -2.047   0.924  0.00  0.00     0.003 A 
ATOM      5  C4  UNL d   1      -0.755  -2.982   0.263  0.00  0.00    -0.005 A 
ATOM      6  C5  UNL d   1       0.343  -2.559  -0.483  0.00  0.00     0.003 A 
ATOM      7  C6  UNL d   1       0.648  -1.200  -0.568  0.00  0.00    -0.001 A 
ENDROOT
TORSDOF 0
ENDMDL
