MODEL 1
REMARK minimizedAffinity -3.45858908
REMARK minimizedRMSD -1
REMARK  0 active torsions:
REMARK  status: ('A' for Active; 'I' for Inactive)
ROOT
ATOM      1  C   UNL d   1       0.087  -3.070   0.409  0.00  0.00     0.078 C 
ATOM      2  C1  UNL d   1       0.015  -1.575   0.331  0.00  0.00    -0.077 A 
ATOM      3  C2  UNL d   1       0.137  -0.786   1.482  0.00  0.00    -0.001 A 
ATOM      4  C3  UNL d   1       0.059   0.605   1.396  0.00  0.00     0.003 A 
ATOM      5  C4  UNL d   1      -0.143   1.220   0.162  0.00  0.00    -0.005 A 
ATOM      6  C5  UNL d   1      -0.267   0.443  -0.988  0.00  0.00     0.003 A 
ATOM      7  C6  UNL d   1      -0.189  -0.948  -0.905  0.00  0.00    -0.001 A 
ENDROOT
TORSDOF 0
ENDMDL
