MODEL 1
REMARK minimizedAffinity -3.90432477
REMARK minimizedRMSD -1
REMARK  0 active torsions:
REMARK  status: ('A' for Active; 'I' for Inactive)
ROOT
ATOM      1  C   UNL d   1      -0.589   4.285   2.238  0.00  0.00     0.078 C 
ATOM      2  C1  UNL d   1       0.240   3.391   1.364  0.00  0.00    -0.077 A 
ATOM      3  C2  UNL d   1      -0.358   2.409   0.565  0.00  0.00    -0.001 A 
ATOM      4  C3  UNL d   1       0.426   1.578  -0.236  0.00  0.00     0.003 A 
ATOM      5  C4  UNL d   1       1.813   1.719  -0.245  0.00  0.00    -0.005 A 
ATOM      6  C5  UNL d   1       2.416   2.692   0.549  0.00  0.00     0.003 A 
ATOM      7  C6  UNL d   1       1.634   3.525   1.351  0.00  0.00    -0.001 A 
ENDROOT
TORSDOF 0
ENDMDL
