MODEL 1
REMARK minimizedAffinity -4.59453201
REMARK minimizedRMSD -1
REMARK  0 active torsions:
REMARK  status: ('A' for Active; 'I' for Inactive)
ROOT
ATOM      1  C   UNL d   1       0.381   1.291   0.091  0.00  0.00     0.078 C 
ATOM      2  C1  UNL d   1       0.170  -0.188   0.214  0.00  0.00    -0.077 A 
ATOM      3  C2  UNL d   1      -0.922  -0.704   0.923  0.00  0.00    -0.001 A 
ATOM      4  C3  UNL d   1      -1.101  -2.084   1.038  0.00  0.00     0.003 A 
ATOM      5  C4  UNL d   1      -0.192  -2.959   0.448  0.00  0.00    -0.005 A 
ATOM      6  C5  UNL d   1       0.899  -2.455  -0.258  0.00  0.00     0.003 A 
ATOM      7  C6  UNL d   1       1.080  -1.076  -0.373  0.00  0.00    -0.001 A 
ENDROOT
TORSDOF 0
ENDMDL
