MODEL 1
REMARK minimizedAffinity -3.79897094
REMARK minimizedRMSD -1
REMARK  0 active torsions:
REMARK  status: ('A' for Active; 'I' for Inactive)
ROOT
ATOM      1  C   UNL d   1       0.636  -2.257  -2.855  0.00  0.00     0.078 C 
ATOM      2  C1  UNL d   1      -0.498  -2.727  -1.993  0.00  0.00    -0.077 A 
ATOM      3  C2  UNL d   1      -1.688  -3.197  -2.561  0.00  0.00    -0.001 A 
ATOM      4  C3  UNL d   1      -2.739  -3.622  -1.747  0.00  0.00     0.003 A 
ATOM      5  C4  UNL d   1      -2.611  -3.580  -0.360  0.00  0.00    -0.005 A 
ATOM      6  C5  UNL d   1      -1.431  -3.111   0.214  0.00  0.00     0.003 A 
ATOM      7  C6  UNL d   1      -0.379  -2.685  -0.598  0.00  0.00    -0.001 A 
ENDROOT
TORSDOF 0
ENDMDL
