MODEL 1
REMARK minimizedAffinity -4.46541405
REMARK minimizedRMSD -1
REMARK  0 active torsions:
REMARK  status: ('A' for Active; 'I' for Inactive)
ROOT
ATOM      1  C   UNL d   1      -0.728   1.175  -0.406  0.00  0.00     0.078 C 
ATOM      2  C1  UNL d   1      -0.281  -0.248  -0.259  0.00  0.00    -0.077 A 
ATOM      3  C2  UNL d   1       0.633  -0.814  -1.157  0.00  0.00    -0.001 A 
ATOM      4  C3  UNL d   1       1.033  -2.144  -1.013  0.00  0.00     0.003 A 
ATOM      5  C4  UNL d   1       0.524  -2.919   0.027  0.00  0.00    -0.005 A 
ATOM      6  C5  UNL d   1      -0.387  -2.365   0.925  0.00  0.00     0.003 A 
ATOM      7  C6  UNL d   1      -0.788  -1.036   0.782  0.00  0.00    -0.001 A 
ENDROOT
TORSDOF 0
ENDMDL
