MODEL 1
REMARK minimizedAffinity -4.63299704
REMARK minimizedRMSD -1
REMARK  0 active torsions:
REMARK  status: ('A' for Active; 'I' for Inactive)
ROOT
ATOM      1  C   UNL d   1       0.374   1.749  -0.437  0.00  0.00     0.078 C 
ATOM      2  C1  UNL d   1       0.104   0.304  -0.142  0.00  0.00    -0.077 A 
ATOM      3  C2  UNL d   1      -1.005  -0.081   0.622  0.00  0.00    -0.001 A 
ATOM      4  C3  UNL d   1      -1.239  -1.429   0.898  0.00  0.00     0.003 A 
ATOM      5  C4  UNL d   1      -0.368  -2.403   0.414  0.00  0.00    -0.005 A 
ATOM      6  C5  UNL d   1       0.738  -2.030  -0.346  0.00  0.00     0.003 A 
ATOM      7  C6  UNL d   1       0.974  -0.682  -0.622  0.00  0.00    -0.001 A 
ENDROOT
TORSDOF 0
ENDMDL
