MODEL 1
REMARK minimizedAffinity 7.21901417
REMARK minimizedRMSD -1
REMARK  0 active torsions:
REMARK  status: ('A' for Active; 'I' for Inactive)
ROOT
ATOM      1  O1  BZF d   1       1.207   3.228  -0.471  0.00  0.00    -0.204 OA
ATOM      2  C2  BZF d   1       1.057   3.314  -1.842  0.00  0.00     0.174 A 
ATOM      3  C3  BZF d   1       1.093   2.089  -2.404  0.00  0.00    -0.012 A 
ATOM      4  C3A BZF d   1       1.184   1.174  -1.308  0.00  0.00    -0.107 A 
ATOM      5  C4  BZF d   1       1.239  -0.188  -1.224  0.00  0.00     0.055 A 
ATOM      6  C5  BZF d   1       1.398  -0.769  -0.006  0.00  0.00    -0.016 A 
ATOM      7  C6  BZF d   1       1.512  -0.019   1.146  0.00  0.00     0.022 A 
ATOM      8  C7  BZF d   1       1.458   1.335   1.114  0.00  0.00     0.029 A 
ATOM      9  C7A BZF d   1       1.263   1.923  -0.112  0.00  0.00     0.058 A 
ENDROOT
TORSDOF 0
ENDMDL
