MODEL 1
REMARK minimizedAffinity 6.84408808
REMARK minimizedRMSD -1
REMARK  0 active torsions:
REMARK  status: ('A' for Active; 'I' for Inactive)
ROOT
ATOM      1  O1  BZF d   1       1.520   0.682  -2.300  0.00  0.00    -0.204 OA
ATOM      2  C2  BZF d   1       1.948  -0.373  -1.517  0.00  0.00     0.174 A 
ATOM      3  C3  BZF d   1       2.011  -0.011  -0.219  0.00  0.00    -0.012 A 
ATOM      4  C3A BZF d   1       1.509   1.329  -0.177  0.00  0.00    -0.107 A 
ATOM      5  C4  BZF d   1       1.309   2.225   0.833  0.00  0.00     0.055 A 
ATOM      6  C5  BZF d   1       0.873   3.476   0.530  0.00  0.00    -0.016 A 
ATOM      7  C6  BZF d   1       0.632   3.865  -0.771  0.00  0.00     0.022 A 
ATOM      8  C7  BZF d   1       0.811   3.009  -1.807  0.00  0.00     0.029 A 
ATOM      9  C7A BZF d   1       1.220   1.735  -1.501  0.00  0.00     0.058 A 
ENDROOT
TORSDOF 0
ENDMDL
