MODEL 1
REMARK minimizedAffinity -1.47994423
REMARK minimizedRMSD -1
REMARK  0 active torsions:
REMARK  status: ('A' for Active; 'I' for Inactive)
ROOT
ATOM      1  O1  BZF d   1       1.611   2.545  -2.498  0.00  0.00    -0.204 OA
ATOM      2  C2  BZF d   1       1.233   3.779  -2.004  0.00  0.00     0.174 A 
ATOM      3  C3  BZF d   1       0.794   3.670  -0.733  0.00  0.00    -0.012 A 
ATOM      4  C3A BZF d   1       0.991   2.297  -0.383  0.00  0.00    -0.107 A 
ATOM      5  C4  BZF d   1       0.762   1.576   0.754  0.00  0.00     0.055 A 
ATOM      6  C5  BZF d   1       0.995   0.237   0.746  0.00  0.00    -0.016 A 
ATOM      7  C6  BZF d   1       1.452  -0.413  -0.382  0.00  0.00     0.022 A 
ATOM      8  C7  BZF d   1       1.699   0.261  -1.532  0.00  0.00     0.029 A 
ATOM      9  C7A BZF d   1       1.495   1.619  -1.516  0.00  0.00     0.058 A 
ENDROOT
TORSDOF 0
ENDMDL
