MODEL 1
REMARK minimizedAffinity 0.0637110472
REMARK minimizedRMSD -1
REMARK  0 active torsions:
REMARK  status: ('A' for Active; 'I' for Inactive)
ROOT
ATOM      1  O1  BZF d   1       1.109   2.563  -2.338  0.00  0.00    -0.204 OA
ATOM      2  C2  BZF d   1       1.079   3.603  -1.429  0.00  0.00     0.174 A 
ATOM      3  C3  BZF d   1       1.052   3.133  -0.165  0.00  0.00    -0.012 A 
ATOM      4  C3A BZF d   1       1.159   1.712  -0.290  0.00  0.00    -0.107 A 
ATOM      5  C4  BZF d   1       1.204   0.691   0.615  0.00  0.00     0.055 A 
ATOM      6  C5  BZF d   1       1.237  -0.591   0.164  0.00  0.00    -0.016 A 
ATOM      7  C6  BZF d   1       1.222  -0.887  -1.183  0.00  0.00     0.022 A 
ATOM      8  C7  BZF d   1       1.183   0.092  -2.119  0.00  0.00     0.029 A 
ATOM      9  C7A BZF d   1       1.183   1.389  -1.667  0.00  0.00     0.058 A 
ENDROOT
TORSDOF 0
ENDMDL
