MODEL 1
REMARK minimizedAffinity -0.79681927
REMARK minimizedRMSD -1
REMARK  0 active torsions:
REMARK  status: ('A' for Active; 'I' for Inactive)
ROOT
ATOM      1  O1  BZF d   1       1.595  -2.266   0.068  0.00  0.00    -0.204 OA
ATOM      2  C2  BZF d   1       1.143  -2.858  -1.095  0.00  0.00     0.174 A 
ATOM      3  C3  BZF d   1       0.567  -1.945  -1.904  0.00  0.00    -0.012 A 
ATOM      4  C3A BZF d   1       0.748  -0.690  -1.243  0.00  0.00    -0.107 A 
ATOM      5  C4  BZF d   1       0.407   0.595  -1.558  0.00  0.00     0.055 A 
ATOM      6  C5  BZF d   1       0.663   1.584  -0.662  0.00  0.00    -0.016 A 
ATOM      7  C6  BZF d   1       1.253   1.325   0.557  0.00  0.00     0.022 A 
ATOM      8  C7  BZF d   1       1.614   0.068   0.912  0.00  0.00     0.029 A 
ATOM      9  C7A BZF d   1       1.387  -0.930  -0.005  0.00  0.00     0.058 A 
ENDROOT
TORSDOF 0
ENDMDL
