MODEL 1
REMARK minimizedAffinity -3.83995891
REMARK minimizedRMSD -1
REMARK  0 active torsions:
REMARK  status: ('A' for Active; 'I' for Inactive)
ROOT
ATOM      1  O1  BZF d   1       1.506  -0.117  -2.394  0.00  0.00    -0.204 OA
ATOM      2  C2  BZF d   1       1.483  -1.267  -1.629  0.00  0.00     0.174 A 
ATOM      3  C3  BZF d   1       1.231  -0.977  -0.336  0.00  0.00    -0.012 A 
ATOM      4  C3A BZF d   1       0.996   0.434  -0.306  0.00  0.00    -0.107 A 
ATOM      5  C4  BZF d   1       0.679   1.312   0.691  0.00  0.00     0.055 A 
ATOM      6  C5  BZF d   1       0.590   2.636   0.401  0.00  0.00    -0.016 A 
ATOM      7  C6  BZF d   1       0.817   3.118  -0.872  0.00  0.00     0.022 A 
ATOM      8  C7  BZF d   1       1.129   2.285  -1.894  0.00  0.00     0.029 A 
ATOM      9  C7A BZF d   1       1.187   0.942  -1.612  0.00  0.00     0.058 A 
ENDROOT
TORSDOF 0
ENDMDL
