MODEL 1
REMARK minimizedAffinity -0.723650575
REMARK minimizedRMSD -1
REMARK  0 active torsions:
REMARK  status: ('A' for Active; 'I' for Inactive)
ROOT
ATOM      1  O1  BZF d   1       1.522   3.387  -2.053  0.00  0.00    -0.204 OA
ATOM      2  C2  BZF d   1       1.681   4.506  -1.259  0.00  0.00     0.174 A 
ATOM      3  C3  BZF d   1       1.484   4.203   0.040  0.00  0.00    -0.012 A 
ATOM      4  C3A BZF d   1       1.273   2.788   0.069  0.00  0.00    -0.107 A 
ATOM      5  C4  BZF d   1       1.039   1.894   1.074  0.00  0.00     0.055 A 
ATOM      6  C5  BZF d   1       0.805   0.593   0.760  0.00  0.00    -0.016 A 
ATOM      7  C6  BZF d   1       0.792   0.153  -0.548  0.00  0.00     0.022 A 
ATOM      8  C7  BZF d   1       1.025   1.002  -1.579  0.00  0.00     0.029 A 
ATOM      9  C7A BZF d   1       1.294   2.311  -1.262  0.00  0.00     0.058 A 
ENDROOT
TORSDOF 0
ENDMDL
