MODEL 1
REMARK minimizedAffinity 6.43464231
REMARK minimizedRMSD -1
REMARK  0 active torsions:
REMARK  status: ('A' for Active; 'I' for Inactive)
ROOT
ATOM      1  O1  BZF d   1       0.172   2.412  -2.899  0.00  0.00    -0.204 OA
ATOM      2  C2  BZF d   1       0.312   3.566  -2.154  0.00  0.00     0.174 A 
ATOM      3  C3  BZF d   1       0.870   3.297  -0.956  0.00  0.00    -0.012 A 
ATOM      4  C3A BZF d   1       1.176   1.900  -0.988  0.00  0.00    -0.107 A 
ATOM      5  C4  BZF d   1       1.758   1.045  -0.096  0.00  0.00     0.055 A 
ATOM      6  C5  BZF d   1       1.844  -0.275  -0.406  0.00  0.00    -0.016 A 
ATOM      7  C6  BZF d   1       1.355  -0.775  -1.596  0.00  0.00     0.022 A 
ATOM      8  C7  BZF d   1       0.775   0.035  -2.514  0.00  0.00     0.029 A 
ATOM      9  C7A BZF d   1       0.716   1.375  -2.218  0.00  0.00     0.058 A 
ENDROOT
TORSDOF 0
ENDMDL
