MODEL 1
REMARK minimizedAffinity -3.08846688
REMARK minimizedRMSD -1
REMARK  0 active torsions:
REMARK  status: ('A' for Active; 'I' for Inactive)
ROOT
ATOM      1  O1  BZF d   1       1.171   0.229  -1.696  0.00  0.00    -0.204 OA
ATOM      2  C2  BZF d   1       1.252  -0.808  -0.787  0.00  0.00     0.174 A 
ATOM      3  C3  BZF d   1       1.247  -0.337   0.477  0.00  0.00    -0.012 A 
ATOM      4  C3A BZF d   1       1.064   1.076   0.351  0.00  0.00    -0.107 A 
ATOM      5  C4  BZF d   1       0.960   2.094   1.256  0.00  0.00     0.055 A 
ATOM      6  C5  BZF d   1       0.861   3.372   0.805  0.00  0.00    -0.016 A 
ATOM      7  C6  BZF d   1       0.867   3.668  -0.542  0.00  0.00     0.022 A 
ATOM      8  C7  BZF d   1       0.963   2.693  -1.478  0.00  0.00     0.029 A 
ATOM      9  C7A BZF d   1       1.031   1.397  -1.025  0.00  0.00     0.058 A 
ENDROOT
TORSDOF 0
ENDMDL
