MODEL 1
REMARK minimizedAffinity -1.93876028
REMARK minimizedRMSD -1
REMARK  0 active torsions:
REMARK  status: ('A' for Active; 'I' for Inactive)
ROOT
ATOM      1  O1  BZF d   1      -4.950   2.091   3.635  0.00  0.00    -0.204 OA
ATOM      2  C2  BZF d   1      -4.779   1.307   2.510  0.00  0.00     0.174 A 
ATOM      3  C3  BZF d   1      -3.504   0.877   2.415  0.00  0.00    -0.012 A 
ATOM      4  C3A BZF d   1      -2.858   1.350   3.601  0.00  0.00    -0.107 A 
ATOM      5  C4  BZF d   1      -1.589   1.231   4.091  0.00  0.00     0.055 A 
ATOM      6  C5  BZF d   1      -1.262   1.874   5.243  0.00  0.00    -0.016 A 
ATOM      7  C6  BZF d   1      -2.177   2.647   5.928  0.00  0.00     0.022 A 
ATOM      8  C7  BZF d   1      -3.450   2.790   5.484  0.00  0.00     0.029 A 
ATOM      9  C7A BZF d   1      -3.792   2.116   4.338  0.00  0.00     0.058 A 
ENDROOT
TORSDOF 0
ENDMDL
