MODEL 1
REMARK minimizedAffinity -2.47541165
REMARK minimizedRMSD -1
REMARK  0 active torsions:
REMARK  status: ('A' for Active; 'I' for Inactive)
ROOT
ATOM      1  O1  BZF d   1       3.297  -0.635   0.833  0.00  0.00    -0.204 OA
ATOM      2  C2  BZF d   1       3.153  -1.529  -0.211  0.00  0.00     0.174 A 
ATOM      3  C3  BZF d   1       2.102  -1.192  -0.986  0.00  0.00    -0.012 A 
ATOM      4  C3A BZF d   1       1.612   0.037  -0.443  0.00  0.00    -0.107 A 
ATOM      5  C4  BZF d   1       0.591   0.875  -0.790  0.00  0.00     0.055 A 
ATOM      6  C5  BZF d   1       0.330   1.957  -0.009  0.00  0.00    -0.016 A 
ATOM      7  C6  BZF d   1       1.066   2.226   1.127  0.00  0.00     0.022 A 
ATOM      8  C7  BZF d   1       2.091   1.426   1.508  0.00  0.00     0.029 A 
ATOM      9  C7A BZF d   1       2.378   0.351   0.703  0.00  0.00     0.058 A 
ENDROOT
TORSDOF 0
ENDMDL
