MODEL 1
REMARK minimizedAffinity 1.99496806
REMARK minimizedRMSD -1
REMARK  0 active torsions:
REMARK  status: ('A' for Active; 'I' for Inactive)
ROOT
ATOM      1  O1  BZF d   1       1.759   0.340   1.944  0.00  0.00    -0.204 OA
ATOM      2  C2  BZF d   1       1.597   1.541   2.608  0.00  0.00     0.174 A 
ATOM      3  C3  BZF d   1       1.262   2.522   1.746  0.00  0.00    -0.012 A 
ATOM      4  C3A BZF d   1       1.120   1.877   0.477  0.00  0.00    -0.107 A 
ATOM      5  C4  BZF d   1       0.784   2.321  -0.770  0.00  0.00     0.055 A 
ATOM      6  C5  BZF d   1       0.808   1.448  -1.811  0.00  0.00    -0.016 A 
ATOM      7  C6  BZF d   1       1.168   0.127  -1.642  0.00  0.00     0.022 A 
ATOM      8  C7  BZF d   1       1.505  -0.361  -0.424  0.00  0.00     0.029 A 
ATOM      9  C7A BZF d   1       1.449   0.511   0.636  0.00  0.00     0.058 A 
ENDROOT
TORSDOF 0
ENDMDL
