MODEL 1
REMARK minimizedAffinity -3.4872694
REMARK minimizedRMSD -1
REMARK  0 active torsions:
REMARK  status: ('A' for Active; 'I' for Inactive)
ROOT
ATOM      1  O1  BZF d   1       0.920   3.227  -0.164  0.00  0.00    -0.204 OA
ATOM      2  C2  BZF d   1       0.890   2.691   1.109  0.00  0.00     0.174 A 
ATOM      3  C3  BZF d   1       0.898   1.343   1.060  0.00  0.00    -0.012 A 
ATOM      4  C3A BZF d   1       1.030   1.017  -0.327  0.00  0.00    -0.107 A 
ATOM      5  C4  BZF d   1       1.112  -0.162  -1.011  0.00  0.00     0.055 A 
ATOM      6  C5  BZF d   1       1.160  -0.136  -2.369  0.00  0.00    -0.016 A 
ATOM      7  C6  BZF d   1       1.122   1.049  -3.074  0.00  0.00     0.022 A 
ATOM      8  C7  BZF d   1       1.045   2.244  -2.440  0.00  0.00     0.029 A 
ATOM      9  C7A BZF d   1       1.030   2.223  -1.066  0.00  0.00     0.058 A 
ENDROOT
TORSDOF 0
ENDMDL
