MODEL 1
REMARK minimizedAffinity -2.31325436
REMARK minimizedRMSD -1
REMARK  0 active torsions:
REMARK  status: ('A' for Active; 'I' for Inactive)
ROOT
ATOM      1  O1  BZF d   1       1.884  -0.516  -2.275  0.00  0.00    -0.204 OA
ATOM      2  C2  BZF d   1       1.146  -0.083  -3.359  0.00  0.00     0.174 A 
ATOM      3  C3  BZF d   1       0.369   0.966  -3.021  0.00  0.00    -0.012 A 
ATOM      4  C3A BZF d   1       0.707   1.262  -1.663  0.00  0.00    -0.107 A 
ATOM      5  C4  BZF d   1       0.283   2.209  -0.775  0.00  0.00     0.055 A 
ATOM      6  C5  BZF d   1       0.758   2.181   0.498  0.00  0.00    -0.016 A 
ATOM      7  C6  BZF d   1       1.652   1.218   0.918  0.00  0.00     0.022 A 
ATOM      8  C7  BZF d   1       2.105   0.261   0.072  0.00  0.00     0.029 A 
ATOM      9  C7A BZF d   1       1.652   0.307  -1.224  0.00  0.00     0.058 A 
ENDROOT
TORSDOF 0
ENDMDL
