MODEL 1
REMARK minimizedAffinity 1.21243966
REMARK minimizedRMSD -1
REMARK  0 active torsions:
REMARK  status: ('A' for Active; 'I' for Inactive)
ROOT
ATOM      1  O1  BZF d   1       1.013  -0.708   0.769  0.00  0.00    -0.204 OA
ATOM      2  C2  BZF d   1       1.057  -1.475  -0.379  0.00  0.00     0.174 A 
ATOM      3  C3  BZF d   1       1.065  -0.692  -1.477  0.00  0.00    -0.012 A 
ATOM      4  C3A BZF d   1       1.116   0.650  -0.983  0.00  0.00    -0.107 A 
ATOM      5  C4  BZF d   1       1.160   1.873  -1.589  0.00  0.00     0.055 A 
ATOM      6  C5  BZF d   1       1.128   2.992  -0.820  0.00  0.00    -0.016 A 
ATOM      7  C6  BZF d   1       1.048   2.927   0.556  0.00  0.00     0.022 A 
ATOM      8  C7  BZF d   1       1.007   1.736   1.202  0.00  0.00     0.029 A 
ATOM      9  C7A BZF d   1       1.072   0.602   0.430  0.00  0.00     0.058 A 
ENDROOT
TORSDOF 0
ENDMDL
