MODEL 1
REMARK minimizedAffinity -3.99428678
REMARK minimizedRMSD -1
REMARK  0 active torsions:
REMARK  status: ('A' for Active; 'I' for Inactive)
ROOT
ATOM      1  O1  BZF d   1       0.544   3.250  -0.010  0.00  0.00    -0.204 OA
ATOM      2  C2  BZF d   1       0.583   3.677  -1.323  0.00  0.00     0.174 A 
ATOM      3  C3  BZF d   1       0.883   2.654  -2.150  0.00  0.00    -0.012 A 
ATOM      4  C3A BZF d   1       0.951   1.498  -1.310  0.00  0.00    -0.107 A 
ATOM      5  C4  BZF d   1       1.197   0.177  -1.549  0.00  0.00     0.055 A 
ATOM      6  C5  BZF d   1       1.265  -0.683  -0.499  0.00  0.00    -0.016 A 
ATOM      7  C6  BZF d   1       1.096  -0.256   0.802  0.00  0.00     0.022 A 
ATOM      8  C7  BZF d   1       0.844   1.045   1.088  0.00  0.00     0.029 A 
ATOM      9  C7A BZF d   1       0.743   1.910   0.027  0.00  0.00     0.058 A 
ENDROOT
TORSDOF 0
ENDMDL
