MODEL 1
REMARK minimizedAffinity 7.14775324
REMARK minimizedRMSD -1
REMARK  0 active torsions:
REMARK  status: ('A' for Active; 'I' for Inactive)
ROOT
ATOM      1  O1  BZF d   1       1.445   3.426  -1.171  0.00  0.00    -0.204 OA
ATOM      2  C2  BZF d   1       1.148   3.350  -2.518  0.00  0.00     0.174 A 
ATOM      3  C3  BZF d   1       0.836   2.086  -2.869  0.00  0.00    -0.012 A 
ATOM      4  C3A BZF d   1       0.854   1.341  -1.648  0.00  0.00    -0.107 A 
ATOM      5  C4  BZF d   1       0.610   0.032  -1.343  0.00  0.00     0.055 A 
ATOM      6  C5  BZF d   1       0.785  -0.391  -0.063  0.00  0.00    -0.016 A 
ATOM      7  C6  BZF d   1       1.207   0.464   0.933  0.00  0.00     0.022 A 
ATOM      8  C7  BZF d   1       1.457   1.772   0.680  0.00  0.00     0.029 A 
ATOM      9  C7A BZF d   1       1.249   2.210  -0.605  0.00  0.00     0.058 A 
ENDROOT
TORSDOF 0
ENDMDL
