MODEL 1
REMARK minimizedAffinity -1.01512742
REMARK minimizedRMSD -1
REMARK  0 active torsions:
REMARK  status: ('A' for Active; 'I' for Inactive)
ROOT
ATOM      1  O1  BZF d   1       1.451  -1.300   0.530  0.00  0.00    -0.204 OA
ATOM      2  C2  BZF d   1       1.204  -2.102  -0.568  0.00  0.00     0.174 A 
ATOM      3  C3  BZF d   1       0.844  -1.357  -1.633  0.00  0.00    -0.012 A 
ATOM      4  C3A BZF d   1       0.957   0.002  -1.198  0.00  0.00    -0.107 A 
ATOM      5  C4  BZF d   1       0.750   1.204  -1.810  0.00  0.00     0.055 A 
ATOM      6  C5  BZF d   1       0.879   2.346  -1.084  0.00  0.00    -0.016 A 
ATOM      7  C6  BZF d   1       1.207   2.322   0.255  0.00  0.00     0.022 A 
ATOM      8  C7  BZF d   1       1.427   1.153   0.905  0.00  0.00     0.029 A 
ATOM      9  C7A BZF d   1       1.331  -0.001   0.166  0.00  0.00     0.058 A 
ENDROOT
TORSDOF 0
ENDMDL
