MODEL 1
REMARK minimizedAffinity 2.72208333
REMARK minimizedRMSD -1
REMARK  0 active torsions:
REMARK  status: ('A' for Active; 'I' for Inactive)
ROOT
ATOM      1  O1  BZF d   1       1.279  -0.155  -1.571  0.00  0.00    -0.204 OA
ATOM      2  C2  BZF d   1       1.013  -0.826  -0.393  0.00  0.00     0.174 A 
ATOM      3  C3  BZF d   1       0.737   0.043   0.601  0.00  0.00    -0.012 A 
ATOM      4  C3A BZF d   1       0.746   1.334  -0.016  0.00  0.00    -0.107 A 
ATOM      5  C4  BZF d   1       0.525   2.599   0.451  0.00  0.00     0.055 A 
ATOM      6  C5  BZF d   1       0.682   3.651  -0.394  0.00  0.00    -0.016 A 
ATOM      7  C6  BZF d   1       1.063   3.477  -1.708  0.00  0.00     0.022 A 
ATOM      8  C7  BZF d   1       1.289   2.241  -2.218  0.00  0.00     0.029 A 
ATOM      9  C7A BZF d   1       1.099   1.173  -1.375  0.00  0.00     0.058 A 
ENDROOT
TORSDOF 0
ENDMDL
