MODEL 1
REMARK minimizedAffinity -2.75866222
REMARK minimizedRMSD -1
REMARK  1 active torsions:
REMARK  status: ('A' for Active; 'I' for Inactive)
REMARK    1  A    between atoms: C1_2  and  C2_3 
ROOT
ATOM      1  C2  UNL d   1       0.046   1.678   0.274  0.00  0.00    -0.076 A 
ATOM      2  C3  UNL d   1      -0.925   1.877   1.271  0.00  0.00     0.004 A 
ATOM      3  C4  UNL d   1      -1.334   0.828   2.094  0.00  0.00    -0.003 A 
ATOM      4  C5  UNL d   1      -0.777  -0.436   1.934  0.00  0.00     0.000 A 
ATOM      5  C6  UNL d   1       0.200  -0.647   0.962  0.00  0.00     0.000 A 
ATOM      6  C7  UNL d   1       0.635   0.403   0.135  0.00  0.00    -0.073 A 
ATOM      7  C8  UNL d   1       1.688   0.118  -0.901  0.00  0.00     0.078 C 
ENDROOT
BRANCH   1   8
ATOM      8  C1  UNL d   1       0.429   2.846  -0.606  0.00  0.00     0.053 C 
ATOM      9  C   UNL d   1       0.337   4.178   0.121  0.00  0.00     0.018 C 
ENDBRANCH   1   8
TORSDOF 1
ENDMDL
