MODEL 1
REMARK minimizedAffinity -3.33185387
REMARK minimizedRMSD -1
REMARK  1 active torsions:
REMARK  status: ('A' for Active; 'I' for Inactive)
REMARK    1  A    between atoms: C1_2  and  C2_3 
ROOT
ATOM      1  C2  UNL d   1      -0.089   1.593   0.471  0.00  0.00    -0.076 A 
ATOM      2  C3  UNL d   1      -0.962   1.929   1.520  0.00  0.00     0.004 A 
ATOM      3  C4  UNL d   1      -1.442   0.956   2.395  0.00  0.00    -0.003 A 
ATOM      4  C5  UNL d   1      -1.056  -0.370   2.235  0.00  0.00     0.000 A 
ATOM      5  C6  UNL d   1      -0.176  -0.719   1.210  0.00  0.00     0.000 A 
ATOM      6  C7  UNL d   1       0.329   0.253   0.330  0.00  0.00    -0.073 A 
ATOM      7  C8  UNL d   1       1.270  -0.181  -0.761  0.00  0.00     0.078 C 
ENDROOT
BRANCH   1   8
ATOM      8  C1  UNL d   1       0.376   2.687  -0.463  0.00  0.00     0.053 C 
ATOM      9  C   UNL d   1       0.185   4.076   0.126  0.00  0.00     0.018 C 
ENDBRANCH   1   8
TORSDOF 1
ENDMDL
