MODEL 1
REMARK minimizedAffinity -3.58934379
REMARK minimizedRMSD -1
REMARK  1 active torsions:
REMARK  status: ('A' for Active; 'I' for Inactive)
REMARK    1  A    between atoms: C1_2  and  C2_3 
ROOT
ATOM      1  C2  UNL d   1      -0.073   1.025   0.123  0.00  0.00    -0.076 A 
ATOM      2  C3  UNL d   1       0.405   1.829  -0.926  0.00  0.00     0.004 A 
ATOM      3  C4  UNL d   1       0.326   3.219  -0.858  0.00  0.00    -0.003 A 
ATOM      4  C5  UNL d   1      -0.231   3.828   0.261  0.00  0.00     0.000 A 
ATOM      5  C6  UNL d   1      -0.694   3.046   1.319  0.00  0.00     0.000 A 
ATOM      6  C7  UNL d   1      -0.607   1.644   1.274  0.00  0.00    -0.073 A 
ATOM      7  C8  UNL d   1      -1.127   0.850   2.441  0.00  0.00     0.078 C 
ENDROOT
BRANCH   1   8
ATOM      8  C1  UNL d   1       0.014  -0.478  -0.018  0.00  0.00     0.053 C 
ATOM      9  C   UNL d   1       1.278  -0.923  -0.737  0.00  0.00     0.018 C 
ENDBRANCH   1   8
TORSDOF 1
ENDMDL
