MODEL 1
REMARK minimizedAffinity -3.57138848
REMARK minimizedRMSD -1
REMARK  1 active torsions:
REMARK  status: ('A' for Active; 'I' for Inactive)
REMARK    1  A    between atoms: C1_2  and  C2_3 
ROOT
ATOM      1  C2  UNL d   1       0.584  -0.035   0.333  0.00  0.00    -0.076 A 
ATOM      2  C3  UNL d   1       0.265  -1.062   1.238  0.00  0.00     0.004 A 
ATOM      3  C4  UNL d   1      -0.607  -0.836   2.302  0.00  0.00    -0.003 A 
ATOM      4  C5  UNL d   1      -1.175   0.421   2.478  0.00  0.00     0.000 A 
ATOM      5  C6  UNL d   1      -0.884   1.447   1.579  0.00  0.00     0.000 A 
ATOM      6  C7  UNL d   1      -0.019   1.231   0.492  0.00  0.00    -0.073 A 
ATOM      7  C8  UNL d   1       0.264   2.375  -0.442  0.00  0.00     0.078 C 
ENDROOT
BRANCH   1   8
ATOM      8  C1  UNL d   1       1.557  -0.331  -0.785  0.00  0.00     0.053 C 
ATOM      9  C   UNL d   1       1.444  -1.760  -1.292  0.00  0.00     0.018 C 
ENDBRANCH   1   8
TORSDOF 1
ENDMDL
