MODEL 1
REMARK minimizedAffinity -4.21614027
REMARK minimizedRMSD -1
REMARK  1 active torsions:
REMARK  status: ('A' for Active; 'I' for Inactive)
REMARK    1  A    between atoms: C1_2  and  C2_3 
ROOT
ATOM      1  C2  UNL d   1      -0.222  -2.015  -1.290  0.00  0.00    -0.076 A 
ATOM      2  C3  UNL d   1      -1.216  -1.488  -0.448  0.00  0.00     0.004 A 
ATOM      3  C4  UNL d   1      -0.899  -0.563   0.546  0.00  0.00    -0.003 A 
ATOM      4  C5  UNL d   1       0.418  -0.150   0.713  0.00  0.00     0.000 A 
ATOM      5  C6  UNL d   1       1.415  -0.649  -0.125  0.00  0.00     0.000 A 
ATOM      6  C7  UNL d   1       1.109  -1.569  -1.142  0.00  0.00    -0.073 A 
ATOM      7  C8  UNL d   1       2.225  -2.079  -2.013  0.00  0.00     0.078 C 
ENDROOT
BRANCH   1   8
ATOM      8  C1  UNL d   1      -0.621  -3.035  -2.332  0.00  0.00     0.053 C 
ATOM      9  C   UNL d   1      -0.575  -4.459  -1.801  0.00  0.00     0.018 C 
ENDBRANCH   1   8
TORSDOF 1
ENDMDL
