MODEL 1
REMARK minimizedAffinity -0.27777952
REMARK minimizedRMSD -1
REMARK  1 active torsions:
REMARK  status: ('A' for Active; 'I' for Inactive)
REMARK    1  A    between atoms: C1_2  and  C2_3 
ROOT
ATOM      1  C2  UNL d   1      -0.243  -1.292  -0.432  0.00  0.00    -0.076 A 
ATOM      2  C3  UNL d   1      -1.075  -1.811   0.575  0.00  0.00     0.004 A 
ATOM      3  C4  UNL d   1      -1.266  -1.124   1.773  0.00  0.00    -0.003 A 
ATOM      4  C5  UNL d   1      -0.628   0.094   1.983  0.00  0.00     0.000 A 
ATOM      5  C6  UNL d   1       0.187   0.632   0.987  0.00  0.00     0.000 A 
ATOM      6  C7  UNL d   1       0.377  -0.040  -0.232  0.00  0.00    -0.073 A 
ATOM      7  C8  UNL d   1       1.272   0.584  -1.268  0.00  0.00     0.078 C 
ENDROOT
BRANCH   1   8
ATOM      8  C1  UNL d   1      -0.053  -2.095  -1.699  0.00  0.00     0.053 C 
ATOM      9  C   UNL d   1       0.704  -3.392  -1.459  0.00  0.00     0.018 C 
ENDBRANCH   1   8
TORSDOF 1
ENDMDL
