MODEL 1
REMARK minimizedAffinity -2.70330715
REMARK minimizedRMSD -1
REMARK  1 active torsions:
REMARK  status: ('A' for Active; 'I' for Inactive)
REMARK    1  A    between atoms: C1_2  and  C2_3 
ROOT
ATOM      1  C2  UNL d   1      -0.607   0.758   1.106  0.00  0.00    -0.076 A 
ATOM      2  C3  UNL d   1      -0.910   1.993   1.704  0.00  0.00     0.004 A 
ATOM      3  C4  UNL d   1      -0.534   3.193   1.102  0.00  0.00    -0.003 A 
ATOM      4  C5  UNL d   1       0.150   3.176  -0.108  0.00  0.00     0.000 A 
ATOM      5  C6  UNL d   1       0.443   1.960  -0.724  0.00  0.00     0.000 A 
ATOM      6  C7  UNL d   1       0.057   0.742  -0.139  0.00  0.00    -0.073 A 
ATOM      7  C8  UNL d   1       0.404  -0.540  -0.844  0.00  0.00     0.078 C 
ENDROOT
BRANCH   1   8
ATOM      8  C1  UNL d   1      -1.017  -0.511   1.819  0.00  0.00     0.053 C 
ATOM      9  C   UNL d   1       0.151  -1.188   2.520  0.00  0.00     0.018 C 
ENDBRANCH   1   8
TORSDOF 1
ENDMDL
