MODEL 1
REMARK minimizedAffinity 0.259478241
REMARK minimizedRMSD -1
REMARK  1 active torsions:
REMARK  status: ('A' for Active; 'I' for Inactive)
REMARK    1  A    between atoms: C1_2  and  C2_3 
ROOT
ATOM      1  C2  UNL d   1       0.535  -1.508  -0.852  0.00  0.00    -0.076 A 
ATOM      2  C3  UNL d   1       1.190  -2.724  -0.589  0.00  0.00     0.004 A 
ATOM      3  C4  UNL d   1       1.086  -3.800  -1.468  0.00  0.00    -0.003 A 
ATOM      4  C5  UNL d   1       0.325  -3.678  -2.626  0.00  0.00     0.000 A 
ATOM      5  C6  UNL d   1      -0.317  -2.474  -2.912  0.00  0.00     0.000 A 
ATOM      6  C7  UNL d   1      -0.209  -1.374  -2.044  0.00  0.00    -0.073 A 
ATOM      7  C8  UNL d   1      -0.928  -0.101  -2.399  0.00  0.00     0.078 C 
ENDROOT
BRANCH   1   8
ATOM      8  C1  UNL d   1       0.662  -0.384   0.152  0.00  0.00     0.053 C 
ATOM      9  C   UNL d   1      -0.438  -0.413   1.201  0.00  0.00     0.018 C 
ENDBRANCH   1   8
TORSDOF 1
ENDMDL
