MODEL 1
REMARK minimizedAffinity -3.54752207
REMARK minimizedRMSD -1
REMARK  1 active torsions:
REMARK  status: ('A' for Active; 'I' for Inactive)
REMARK    1  A    between atoms: C1_2  and  C2_3 
ROOT
ATOM      1  C2  UNL d   1      -0.083  -1.391  -1.008  0.00  0.00    -0.076 A 
ATOM      2  C3  UNL d   1      -1.265  -1.691  -0.309  0.00  0.00     0.004 A 
ATOM      3  C4  UNL d   1      -1.534  -1.110   0.929  0.00  0.00    -0.003 A 
ATOM      4  C5  UNL d   1      -0.624  -0.219   1.488  0.00  0.00     0.000 A 
ATOM      5  C6  UNL d   1       0.546   0.103   0.801  0.00  0.00     0.000 A 
ATOM      6  C7  UNL d   1       0.824  -0.461  -0.456  0.00  0.00    -0.073 A 
ATOM      7  C8  UNL d   1       2.104  -0.083  -1.150  0.00  0.00     0.078 C 
ENDROOT
BRANCH   1   8
ATOM      8  C1  UNL d   1       0.167  -2.073  -2.334  0.00  0.00     0.053 C 
ATOM      9  C   UNL d   1       0.772  -3.459  -2.172  0.00  0.00     0.018 C 
ENDBRANCH   1   8
TORSDOF 1
ENDMDL
