MODEL 1
REMARK minimizedAffinity -3.29822135
REMARK minimizedRMSD -1
REMARK  1 active torsions:
REMARK  status: ('A' for Active; 'I' for Inactive)
REMARK    1  A    between atoms: C1_2  and  C2_3 
ROOT
ATOM      1  C2  UNL d   1       0.001  -1.271  -0.826  0.00  0.00    -0.076 A 
ATOM      2  C3  UNL d   1      -1.199  -1.575  -0.159  0.00  0.00     0.004 A 
ATOM      3  C4  UNL d   1      -1.623  -0.822   0.934  0.00  0.00    -0.003 A 
ATOM      4  C5  UNL d   1      -0.855   0.249   1.378  0.00  0.00     0.000 A 
ATOM      5  C6  UNL d   1       0.329   0.576   0.718  0.00  0.00     0.000 A 
ATOM      6  C7  UNL d   1       0.763  -0.164  -0.396  0.00  0.00    -0.073 A 
ATOM      7  C8  UNL d   1       2.051   0.230  -1.066  0.00  0.00     0.078 C 
ENDROOT
BRANCH   1   8
ATOM      8  C1  UNL d   1       0.424  -2.140  -1.988  0.00  0.00     0.053 C 
ATOM      9  C   UNL d   1      -0.273  -3.492  -1.989  0.00  0.00     0.018 C 
ENDBRANCH   1   8
TORSDOF 1
ENDMDL
