MODEL 1
REMARK minimizedAffinity -5.1278758
REMARK minimizedRMSD -1
REMARK  1 active torsions:
REMARK  status: ('A' for Active; 'I' for Inactive)
REMARK    1  A    between atoms: C1_2  and  C2_3 
ROOT
ATOM      1  C2  UNL d   1       0.123   0.710   0.190  0.00  0.00    -0.076 A 
ATOM      2  C3  UNL d   1       0.469   1.697  -0.749  0.00  0.00     0.004 A 
ATOM      3  C4  UNL d   1       0.081   3.024  -0.571  0.00  0.00    -0.003 A 
ATOM      4  C5  UNL d   1      -0.657   3.385   0.551  0.00  0.00     0.000 A 
ATOM      5  C6  UNL d   1      -0.993   2.422   1.502  0.00  0.00     0.000 A 
ATOM      6  C7  UNL d   1      -0.597   1.083   1.345  0.00  0.00    -0.073 A 
ATOM      7  C8  UNL d   1      -0.992   0.085   2.398  0.00  0.00     0.078 C 
ENDROOT
BRANCH   1   8
ATOM      8  C1  UNL d   1       0.548  -0.718  -0.071  0.00  0.00     0.053 C 
ATOM      9  C   UNL d   1      -0.496  -1.503  -0.850  0.00  0.00     0.018 C 
ENDBRANCH   1   8
TORSDOF 1
ENDMDL
