MODEL 1
REMARK minimizedAffinity -2.58827186
REMARK minimizedRMSD -1
REMARK  1 active torsions:
REMARK  status: ('A' for Active; 'I' for Inactive)
REMARK    1  A    between atoms: C1_2  and  C2_3 
ROOT
ATOM      1  C2  UNL d   1       0.032   1.791  -0.021  0.00  0.00    -0.076 A 
ATOM      2  C3  UNL d   1       0.505   0.524  -0.406  0.00  0.00     0.004 A 
ATOM      3  C4  UNL d   1       0.415  -0.568   0.456  0.00  0.00    -0.003 A 
ATOM      4  C5  UNL d   1      -0.150  -0.411   1.717  0.00  0.00     0.000 A 
ATOM      5  C6  UNL d   1      -0.640   0.834   2.109  0.00  0.00     0.000 A 
ATOM      6  C7  UNL d   1      -0.572   1.942   1.246  0.00  0.00    -0.073 A 
ATOM      7  C8  UNL d   1      -1.110   3.263   1.723  0.00  0.00     0.078 C 
ENDROOT
BRANCH   1   8
ATOM      8  C1  UNL d   1       0.182   2.944  -0.987  0.00  0.00     0.053 C 
ATOM      9  C   UNL d   1       1.139   2.629  -2.126  0.00  0.00     0.018 C 
ENDBRANCH   1   8
TORSDOF 1
ENDMDL
