MODEL 1
REMARK minimizedAffinity -3.33532357
REMARK minimizedRMSD -1
REMARK  1 active torsions:
REMARK  status: ('A' for Active; 'I' for Inactive)
REMARK    1  A    between atoms: C1_2  and  C2_3 
ROOT
ATOM      1  C2  UNL d   1       0.674   0.194   0.152  0.00  0.00    -0.076 A 
ATOM      2  C3  UNL d   1       0.592   1.459  -0.454  0.00  0.00     0.004 A 
ATOM      3  C4  UNL d   1      -0.064   2.515   0.175  0.00  0.00    -0.003 A 
ATOM      4  C5  UNL d   1      -0.648   2.324   1.423  0.00  0.00     0.000 A 
ATOM      5  C6  UNL d   1      -0.561   1.080   2.047  0.00  0.00     0.000 A 
ATOM      6  C7  UNL d   1       0.111   0.009   1.433  0.00  0.00    -0.073 A 
ATOM      7  C8  UNL d   1       0.169  -1.312   2.150  0.00  0.00     0.078 C 
ENDROOT
BRANCH   1   8
ATOM      8  C1  UNL d   1       1.374  -0.922  -0.590  0.00  0.00     0.053 C 
ATOM      9  C   UNL d   1       0.419  -1.747  -1.439  0.00  0.00     0.018 C 
ENDBRANCH   1   8
TORSDOF 1
ENDMDL
