MODEL 1
REMARK minimizedAffinity -3.65911269
REMARK minimizedRMSD -1
REMARK  1 active torsions:
REMARK  status: ('A' for Active; 'I' for Inactive)
REMARK    1  A    between atoms: C1_2  and  C2_3 
ROOT
ATOM      1  C2  UNL d   1       0.698   0.488  -0.074  0.00  0.00    -0.076 A 
ATOM      2  C3  UNL d   1       0.866   1.658  -0.836  0.00  0.00     0.004 A 
ATOM      3  C4  UNL d   1       0.462   2.898  -0.345  0.00  0.00    -0.003 A 
ATOM      4  C5  UNL d   1      -0.116   2.989   0.916  0.00  0.00     0.000 A 
ATOM      5  C6  UNL d   1      -0.274   1.842   1.693  0.00  0.00     0.000 A 
ATOM      6  C7  UNL d   1       0.143   0.586   1.219  0.00  0.00    -0.073 A 
ATOM      7  C8  UNL d   1      -0.057  -0.619   2.097  0.00  0.00     0.078 C 
ENDROOT
BRANCH   1   8
ATOM      8  C1  UNL d   1       1.131  -0.832  -0.670  0.00  0.00     0.053 C 
ATOM      9  C   UNL d   1       0.016  -1.513  -1.450  0.00  0.00     0.018 C 
ENDBRANCH   1   8
TORSDOF 1
ENDMDL
