MODEL 1
REMARK minimizedAffinity -4.3753624
REMARK minimizedRMSD -1
REMARK  1 active torsions:
REMARK  status: ('A' for Active; 'I' for Inactive)
REMARK    1  A    between atoms: C1_2  and  C2_3 
ROOT
ATOM      1  C2  UNL d   1      -0.261   1.409   0.278  0.00  0.00    -0.076 A 
ATOM      2  C3  UNL d   1       0.352   2.101  -0.781  0.00  0.00     0.004 A 
ATOM      3  C4  UNL d   1       0.415   3.494  -0.787  0.00  0.00    -0.003 A 
ATOM      4  C5  UNL d   1      -0.134   4.217   0.266  0.00  0.00     0.000 A 
ATOM      5  C6  UNL d   1      -0.730   3.546   1.334  0.00  0.00     0.000 A 
ATOM      6  C7  UNL d   1      -0.787   2.142   1.363  0.00  0.00    -0.073 A 
ATOM      7  C8  UNL d   1      -1.448   1.471   2.536  0.00  0.00     0.078 C 
ENDROOT
BRANCH   1   8
ATOM      8  C1  UNL d   1      -0.323  -0.100   0.217  0.00  0.00     0.053 C 
ATOM      9  C   UNL d   1       0.971  -0.717  -0.292  0.00  0.00     0.018 C 
ENDBRANCH   1   8
TORSDOF 1
ENDMDL
