MODEL 1
REMARK minimizedAffinity -2.23225641
REMARK minimizedRMSD -1
REMARK  1 active torsions:
REMARK  status: ('A' for Active; 'I' for Inactive)
REMARK    1  A    between atoms: C1_2  and  C2_3 
ROOT
ATOM      1  C2  UNL d   1       0.376  -0.006   0.251  0.00  0.00    -0.076 A 
ATOM      2  C3  UNL d   1      -0.209  -0.202   1.514  0.00  0.00     0.004 A 
ATOM      3  C4  UNL d   1      -0.702   0.874   2.251  0.00  0.00    -0.003 A 
ATOM      4  C5  UNL d   1      -0.620   2.163   1.736  0.00  0.00     0.000 A 
ATOM      5  C6  UNL d   1      -0.059   2.374   0.477  0.00  0.00     0.000 A 
ATOM      6  C7  UNL d   1       0.429   1.299  -0.286  0.00  0.00    -0.073 A 
ATOM      7  C8  UNL d   1       1.029   1.584  -1.635  0.00  0.00     0.078 C 
ENDROOT
BRANCH   1   8
ATOM      8  C1  UNL d   1       0.919  -1.207  -0.490  0.00  0.00     0.053 C 
ATOM      9  C   UNL d   1      -0.165  -1.969  -1.237  0.00  0.00     0.018 C 
ENDBRANCH   1   8
TORSDOF 1
ENDMDL
