MODEL 1
REMARK minimizedAffinity -2.79654002
REMARK minimizedRMSD -1
REMARK  1 active torsions:
REMARK  status: ('A' for Active; 'I' for Inactive)
REMARK    1  A    between atoms: C1_2  and  C2_3 
ROOT
ATOM      1  C2  UNL d   1      -0.022   1.834   0.363  0.00  0.00    -0.076 A 
ATOM      2  C3  UNL d   1      -1.059   1.868   1.312  0.00  0.00     0.004 A 
ATOM      3  C4  UNL d   1      -1.525   0.698   1.907  0.00  0.00    -0.003 A 
ATOM      4  C5  UNL d   1      -0.962  -0.526   1.565  0.00  0.00     0.000 A 
ATOM      5  C6  UNL d   1       0.080  -0.577   0.639  0.00  0.00     0.000 A 
ATOM      6  C7  UNL d   1       0.573   0.595   0.041  0.00  0.00    -0.073 A 
ATOM      7  C8  UNL d   1       1.693   0.481  -0.956  0.00  0.00     0.078 C 
ENDROOT
BRANCH   1   8
ATOM      8  C1  UNL d   1       0.424   3.133  -0.270  0.00  0.00     0.053 C 
ATOM      9  C   UNL d   1       0.013   4.349   0.546  0.00  0.00     0.018 C 
ENDBRANCH   1   8
TORSDOF 1
ENDMDL
