MODEL 1
REMARK minimizedAffinity 1.11085951
REMARK minimizedRMSD -1
REMARK  1 active torsions:
REMARK  status: ('A' for Active; 'I' for Inactive)
REMARK    1  A    between atoms: C1_2  and  C2_3 
ROOT
ATOM      1  C2  UNL d   1       0.335   0.704   1.476  0.00  0.00    -0.076 A 
ATOM      2  C3  UNL d   1      -0.093   2.029   1.281  0.00  0.00     0.004 A 
ATOM      3  C4  UNL d   1      -1.441   2.370   1.377  0.00  0.00    -0.003 A 
ATOM      4  C5  UNL d   1      -2.384   1.391   1.671  0.00  0.00     0.000 A 
ATOM      5  C6  UNL d   1      -1.976   0.074   1.885  0.00  0.00     0.000 A 
ATOM      6  C7  UNL d   1      -0.618  -0.283   1.808  0.00  0.00    -0.073 A 
ATOM      7  C8  UNL d   1      -0.235  -1.718   2.042  0.00  0.00     0.078 C 
ENDROOT
BRANCH   1   8
ATOM      8  C1  UNL d   1       1.806   0.389   1.332  0.00  0.00     0.053 C 
ATOM      9  C   UNL d   1       2.508   1.319   0.354  0.00  0.00     0.018 C 
ENDBRANCH   1   8
TORSDOF 1
ENDMDL
