MODEL 1
REMARK minimizedAffinity 6.57942438
REMARK minimizedRMSD -1
REMARK  1 active torsions:
REMARK  status: ('A' for Active; 'I' for Inactive)
REMARK    1  A    between atoms: C1_2  and  C2_3 
ROOT
ATOM      1  C2  UNL d   1      -0.306   0.190   1.639  0.00  0.00    -0.076 A 
ATOM      2  C3  UNL d   1      -1.380   1.071   1.853  0.00  0.00     0.004 A 
ATOM      3  C4  UNL d   1      -1.357   2.368   1.342  0.00  0.00    -0.003 A 
ATOM      4  C5  UNL d   1      -0.259   2.805   0.608  0.00  0.00     0.000 A 
ATOM      5  C6  UNL d   1       0.808   1.938   0.371  0.00  0.00     0.000 A 
ATOM      6  C7  UNL d   1       0.793   0.622   0.865  0.00  0.00    -0.073 A 
ATOM      7  C8  UNL d   1       1.973  -0.267   0.585  0.00  0.00     0.078 C 
ENDROOT
BRANCH   1   8
ATOM      8  C1  UNL d   1      -0.375  -1.195   2.240  0.00  0.00     0.053 C 
ATOM      9  C   UNL d   1       0.414  -1.308   3.536  0.00  0.00     0.018 C 
ENDBRANCH   1   8
TORSDOF 1
ENDMDL
