MODEL 1
REMARK minimizedAffinity 10.1670475
REMARK minimizedRMSD -1
REMARK  1 active torsions:
REMARK  status: ('A' for Active; 'I' for Inactive)
REMARK    1  A    between atoms: C1_2  and  C2_3 
ROOT
ATOM      1  C2  UNL d   1      -0.647  -0.406   2.685  0.00  0.00    -0.076 A 
ATOM      2  C3  UNL d   1      -1.744   0.391   2.315  0.00  0.00     0.004 A 
ATOM      3  C4  UNL d   1      -1.566   1.711   1.903  0.00  0.00    -0.003 A 
ATOM      4  C5  UNL d   1      -0.287   2.255   1.854  0.00  0.00     0.000 A 
ATOM      5  C6  UNL d   1       0.815   1.473   2.201  0.00  0.00     0.000 A 
ATOM      6  C7  UNL d   1       0.654   0.136   2.603  0.00  0.00    -0.073 A 
ATOM      7  C8  UNL d   1       1.876  -0.659   2.972  0.00  0.00     0.078 C 
ENDROOT
BRANCH   1   8
ATOM      8  C1  UNL d   1      -0.904  -1.822   3.150  0.00  0.00     0.053 C 
ATOM      9  C   UNL d   1      -2.343  -2.037   3.594  0.00  0.00     0.018 C 
ENDBRANCH   1   8
TORSDOF 1
ENDMDL
