MODEL 1
REMARK minimizedAffinity 1.33817613
REMARK minimizedRMSD -1
REMARK  1 active torsions:
REMARK  status: ('A' for Active; 'I' for Inactive)
REMARK    1  A    between atoms: C1_2  and  C2_3 
ROOT
ATOM      1  C2  UNL d   1      -1.427   0.837   1.346  0.00  0.00    -0.076 A 
ATOM      2  C3  UNL d   1      -2.139   2.020   1.613  0.00  0.00     0.004 A 
ATOM      3  C4  UNL d   1      -1.473   3.223   1.839  0.00  0.00    -0.003 A 
ATOM      4  C5  UNL d   1      -0.083   3.263   1.801  0.00  0.00     0.000 A 
ATOM      5  C6  UNL d   1       0.638   2.104   1.520  0.00  0.00     0.000 A 
ATOM      6  C7  UNL d   1      -0.019   0.886   1.274  0.00  0.00    -0.073 A 
ATOM      7  C8  UNL d   1       0.810  -0.335   0.982  0.00  0.00     0.078 C 
ENDROOT
BRANCH   1   8
ATOM      8  C1  UNL d   1      -2.203  -0.443   1.136  0.00  0.00     0.053 C 
ATOM      9  C   UNL d   1      -2.566  -1.126   2.446  0.00  0.00     0.018 C 
ENDBRANCH   1   8
TORSDOF 1
ENDMDL
