MODEL 1
REMARK minimizedAffinity 2.73724556
REMARK minimizedRMSD -1
REMARK  1 active torsions:
REMARK  status: ('A' for Active; 'I' for Inactive)
REMARK    1  A    between atoms: C1_2  and  C2_3 
ROOT
ATOM      1  C2  UNL d   1      -1.354   0.130   1.374  0.00  0.00    -0.076 A 
ATOM      2  C3  UNL d   1      -1.277   1.406   0.789  0.00  0.00     0.004 A 
ATOM      3  C4  UNL d   1      -0.052   2.052   0.634  0.00  0.00    -0.003 A 
ATOM      4  C5  UNL d   1       1.117   1.431   1.061  0.00  0.00     0.000 A 
ATOM      5  C6  UNL d   1       1.061   0.159   1.628  0.00  0.00     0.000 A 
ATOM      6  C7  UNL d   1      -0.164  -0.513   1.777  0.00  0.00    -0.073 A 
ATOM      7  C8  UNL d   1      -0.167  -1.882   2.401  0.00  0.00     0.078 C 
ENDROOT
BRANCH   1   8
ATOM      8  C1  UNL d   1      -2.714  -0.509   1.541  0.00  0.00     0.053 C 
ATOM      9  C   UNL d   1      -3.563   0.192   2.591  0.00  0.00     0.018 C 
ENDBRANCH   1   8
TORSDOF 1
ENDMDL
