MODEL 1
REMARK minimizedAffinity 2.4923439
REMARK minimizedRMSD -1
REMARK  1 active torsions:
REMARK  status: ('A' for Active; 'I' for Inactive)
REMARK    1  A    between atoms: C1_2  and  C2_3 
ROOT
ATOM      1  C2  UNL d   1      -2.253   1.124   2.549  0.00  0.00    -0.076 A 
ATOM      2  C3  UNL d   1      -1.772   2.403   2.221  0.00  0.00     0.004 A 
ATOM      3  C4  UNL d   1      -0.563   2.564   1.547  0.00  0.00    -0.003 A 
ATOM      4  C5  UNL d   1       0.185   1.448   1.188  0.00  0.00     0.000 A 
ATOM      5  C6  UNL d   1      -0.286   0.170   1.490  0.00  0.00     0.000 A 
ATOM      6  C7  UNL d   1      -1.511  -0.010   2.155  0.00  0.00    -0.073 A 
ATOM      7  C8  UNL d   1      -1.967  -1.411   2.460  0.00  0.00     0.078 C 
ENDROOT
BRANCH   1   8
ATOM      8  C1  UNL d   1      -3.558   1.012   3.305  0.00  0.00     0.053 C 
ATOM      9  C   UNL d   1      -4.066   2.360   3.793  0.00  0.00     0.018 C 
ENDBRANCH   1   8
TORSDOF 1
ENDMDL
