MODEL 1
REMARK minimizedAffinity 0.915233433
REMARK minimizedRMSD -1
REMARK  1 active torsions:
REMARK  status: ('A' for Active; 'I' for Inactive)
REMARK    1  A    between atoms: C1_2  and  C2_3 
ROOT
ATOM      1  C2  UNL d   1      -1.615   0.151   2.046  0.00  0.00    -0.076 A 
ATOM      2  C3  UNL d   1      -0.821  -0.896   1.546  0.00  0.00     0.004 A 
ATOM      3  C4  UNL d   1       0.380  -0.635   0.890  0.00  0.00    -0.003 A 
ATOM      4  C5  UNL d   1       0.808   0.678   0.724  0.00  0.00     0.000 A 
ATOM      5  C6  UNL d   1       0.042   1.728   1.229  0.00  0.00     0.000 A 
ATOM      6  C7  UNL d   1      -1.164   1.481   1.907  0.00  0.00    -0.073 A 
ATOM      7  C8  UNL d   1      -1.953   2.652   2.426  0.00  0.00     0.078 C 
ENDROOT
BRANCH   1   8
ATOM      8  C1  UNL d   1      -2.922  -0.192   2.725  0.00  0.00     0.053 C 
ATOM      9  C   UNL d   1      -2.784  -1.345   3.707  0.00  0.00     0.018 C 
ENDBRANCH   1   8
TORSDOF 1
ENDMDL
