MODEL 1
REMARK minimizedAffinity 0.0683608428
REMARK minimizedRMSD -1
REMARK  1 active torsions:
REMARK  status: ('A' for Active; 'I' for Inactive)
REMARK    1  A    between atoms: C1_2  and  C2_3 
ROOT
ATOM      1  C2  UNL d   1       0.425   0.573   1.335  0.00  0.00    -0.076 A 
ATOM      2  C3  UNL d   1      -0.002   1.912   1.355  0.00  0.00     0.004 A 
ATOM      3  C4  UNL d   1      -1.334   2.236   1.608  0.00  0.00    -0.003 A 
ATOM      4  C5  UNL d   1      -2.260   1.226   1.845  0.00  0.00     0.000 A 
ATOM      5  C6  UNL d   1      -1.850  -0.106   1.847  0.00  0.00     0.000 A 
ATOM      6  C7  UNL d   1      -0.508  -0.449   1.610  0.00  0.00    -0.073 A 
ATOM      7  C8  UNL d   1      -0.122  -1.903   1.618  0.00  0.00     0.078 C 
ENDROOT
BRANCH   1   8
ATOM      8  C1  UNL d   1       1.877   0.281   1.029  0.00  0.00     0.053 C 
ATOM      9  C   UNL d   1       2.179   0.330  -0.461  0.00  0.00     0.018 C 
ENDBRANCH   1   8
TORSDOF 1
ENDMDL
