MODEL 1
REMARK minimizedAffinity 7.94461489
REMARK minimizedRMSD -1
REMARK  1 active torsions:
REMARK  status: ('A' for Active; 'I' for Inactive)
REMARK    1  A    between atoms: C1_2  and  C2_3 
ROOT
ATOM      1  C2  UNL d   1      -3.302  -2.080  -0.683  0.00  0.00    -0.076 A 
ATOM      2  C3  UNL d   1      -3.221  -0.855  -1.367  0.00  0.00     0.004 A 
ATOM      3  C4  UNL d   1      -3.178  -0.812  -2.760  0.00  0.00    -0.003 A 
ATOM      4  C5  UNL d   1      -3.215  -1.994  -3.491  0.00  0.00     0.000 A 
ATOM      5  C6  UNL d   1      -3.313  -3.218  -2.830  0.00  0.00     0.000 A 
ATOM      6  C7  UNL d   1      -3.374  -3.278  -1.427  0.00  0.00    -0.073 A 
ATOM      7  C8  UNL d   1      -3.473  -4.625  -0.765  0.00  0.00     0.078 C 
ENDROOT
BRANCH   1   8
ATOM      8  C1  UNL d   1      -3.318  -2.066   0.829  0.00  0.00     0.053 C 
ATOM      9  C   UNL d   1      -2.239  -1.169   1.415  0.00  0.00     0.018 C 
ENDBRANCH   1   8
TORSDOF 1
ENDMDL
