MODEL 1
REMARK minimizedAffinity -0.30159232
REMARK minimizedRMSD -1
REMARK  1 active torsions:
REMARK  status: ('A' for Active; 'I' for Inactive)
REMARK    1  A    between atoms: C1_2  and  C2_3 
ROOT
ATOM      1  C2  UNL d   1      -0.901   2.019   1.830  0.00  0.00    -0.076 A 
ATOM      2  C3  UNL d   1      -2.226   2.306   2.200  0.00  0.00     0.004 A 
ATOM      3  C4  UNL d   1      -3.100   1.290   2.584  0.00  0.00    -0.003 A 
ATOM      4  C5  UNL d   1      -2.662  -0.029   2.605  0.00  0.00     0.000 A 
ATOM      5  C6  UNL d   1      -1.345  -0.330   2.258  0.00  0.00     0.000 A 
ATOM      6  C7  UNL d   1      -0.447   0.684   1.884  0.00  0.00    -0.073 A 
ATOM      7  C8  UNL d   1       0.960   0.302   1.514  0.00  0.00     0.078 C 
ENDROOT
BRANCH   1   8
ATOM      8  C1  UNL d   1      -0.007   3.159   1.396  0.00  0.00     0.053 C 
ATOM      9  C   UNL d   1       0.690   2.881   0.073  0.00  0.00     0.018 C 
ENDBRANCH   1   8
TORSDOF 1
ENDMDL
