MODEL 1
REMARK minimizedAffinity 6.03897572
REMARK minimizedRMSD -1
REMARK  1 active torsions:
REMARK  status: ('A' for Active; 'I' for Inactive)
REMARK    1  A    between atoms: C1_2  and  C2_3 
ROOT
ATOM      1  C2  UNL d   1       3.485   3.796  -4.737  0.00  0.00    -0.076 A 
ATOM      2  C3  UNL d   1       4.868   3.704  -4.972  0.00  0.00     0.004 A 
ATOM      3  C4  UNL d   1       5.560   4.739  -5.598  0.00  0.00    -0.003 A 
ATOM      4  C5  UNL d   1       4.880   5.884  -6.000  0.00  0.00     0.000 A 
ATOM      5  C6  UNL d   1       3.511   6.000  -5.759  0.00  0.00     0.000 A 
ATOM      6  C7  UNL d   1       2.802   4.972  -5.114  0.00  0.00    -0.073 A 
ATOM      7  C8  UNL d   1       1.325   5.148  -4.885  0.00  0.00     0.078 C 
ENDROOT
BRANCH   1   8
ATOM      8  C1  UNL d   1       2.783   2.630  -4.078  0.00  0.00     0.053 C 
ATOM      9  C   UNL d   1       3.727   1.477  -3.777  0.00  0.00     0.018 C 
ENDBRANCH   1   8
TORSDOF 1
ENDMDL
