MODEL 1
REMARK minimizedAffinity 2.3486371
REMARK minimizedRMSD -1
REMARK  1 active torsions:
REMARK  status: ('A' for Active; 'I' for Inactive)
REMARK    1  A    between atoms: C1_2  and  C2_3 
ROOT
ATOM      1  C2  UNL d   1      -1.494   1.482   1.714  0.00  0.00    -0.076 A 
ATOM      2  C3  UNL d   1      -0.324   0.976   2.306  0.00  0.00     0.004 A 
ATOM      3  C4  UNL d   1       0.927   1.501   1.987  0.00  0.00    -0.003 A 
ATOM      4  C5  UNL d   1       1.029   2.542   1.071  0.00  0.00     0.000 A 
ATOM      5  C6  UNL d   1      -0.123   3.069   0.487  0.00  0.00     0.000 A 
ATOM      6  C7  UNL d   1      -1.393   2.561   0.810  0.00  0.00    -0.073 A 
ATOM      7  C8  UNL d   1      -2.601   3.163   0.146  0.00  0.00     0.078 C 
ENDROOT
BRANCH   1   8
ATOM      8  C1  UNL d   1      -2.820   0.855   2.079  0.00  0.00     0.053 C 
ATOM      9  C   UNL d   1      -3.562   1.640   3.149  0.00  0.00     0.018 C 
ENDBRANCH   1   8
TORSDOF 1
ENDMDL
