MODEL 1
REMARK minimizedAffinity 2.89813733
REMARK minimizedRMSD -1
REMARK  1 active torsions:
REMARK  status: ('A' for Active; 'I' for Inactive)
REMARK    1  A    between atoms: C1_2  and  C2_3 
ROOT
ATOM      1  C2  UNL d   1      -0.400   1.964  -0.289  0.00  0.00    -0.077 A 
ATOM      2  C3  UNL d   1       0.397   0.811  -0.277  0.00  0.00     0.002 A 
ATOM      3  C4  UNL d   1       0.674   0.133  -1.465  0.00  0.00     0.002 A 
ATOM      4  C5  UNL d   1       0.162   0.601  -2.673  0.00  0.00    -0.004 A 
ATOM      5  C6  UNL d   1      -0.634   1.746  -2.695  0.00  0.00     0.002 A 
ATOM      6  C7  UNL d   1      -0.913   2.425  -1.508  0.00  0.00     0.002 A 
ENDROOT
BRANCH   1   7
ATOM      7  C1  UNL d   1      -0.660   2.726   0.985  0.00  0.00     0.055 C 
ATOM      8  C   UNL d   1      -0.408   1.859   2.210  0.00  0.00     0.019 C 
ENDBRANCH   1   7
TORSDOF 1
ENDMDL
