MODEL 1
REMARK minimizedAffinity -2.76536608
REMARK minimizedRMSD -1
REMARK  1 active torsions:
REMARK  status: ('A' for Active; 'I' for Inactive)
REMARK    1  A    between atoms: C1_2  and  C2_3 
ROOT
ATOM      1  C2  UNL d   1      -1.786   4.076   1.475  0.00  0.00    -0.077 A 
ATOM      2  C3  UNL d   1      -1.918   2.988   2.348  0.00  0.00     0.002 A 
ATOM      3  C4  UNL d   1      -0.793   2.269   2.755  0.00  0.00     0.002 A 
ATOM      4  C5  UNL d   1       0.472   2.632   2.298  0.00  0.00    -0.004 A 
ATOM      5  C6  UNL d   1       0.613   3.712   1.427  0.00  0.00     0.002 A 
ATOM      6  C7  UNL d   1      -0.511   4.431   1.018  0.00  0.00     0.002 A 
ENDROOT
BRANCH   1   7
ATOM      7  C1  UNL d   1      -2.993   4.884   1.073  0.00  0.00     0.055 C 
ATOM      8  C   UNL d   1      -3.379   5.879   2.158  0.00  0.00     0.019 C 
ENDBRANCH   1   7
TORSDOF 1
ENDMDL
