MODEL 1
REMARK minimizedAffinity -1.92051685
REMARK minimizedRMSD -1
REMARK  1 active torsions:
REMARK  status: ('A' for Active; 'I' for Inactive)
REMARK    1  A    between atoms: C1_2  and  C2_3 
ROOT
ATOM      1  C2  UNL d   1      -1.312   3.903   1.041  0.00  0.00    -0.077 A 
ATOM      2  C3  UNL d   1       0.068   4.128   1.135  0.00  0.00     0.002 A 
ATOM      3  C4  UNL d   1       0.849   3.372   2.011  0.00  0.00     0.002 A 
ATOM      4  C5  UNL d   1       0.260   2.383   2.796  0.00  0.00    -0.004 A 
ATOM      5  C6  UNL d   1      -1.113   2.153   2.711  0.00  0.00     0.002 A 
ATOM      6  C7  UNL d   1      -1.895   2.908   1.837  0.00  0.00     0.002 A 
ENDROOT
BRANCH   1   7
ATOM      7  C1  UNL d   1      -2.149   4.683   0.061  0.00  0.00     0.055 C 
ATOM      8  C   UNL d   1      -2.660   5.977   0.677  0.00  0.00     0.019 C 
ENDBRANCH   1   7
TORSDOF 1
ENDMDL
