MODEL 1
REMARK minimizedAffinity -0.669679642
REMARK minimizedRMSD -1
REMARK  1 active torsions:
REMARK  status: ('A' for Active; 'I' for Inactive)
REMARK    1  A    between atoms: C1_2  and  C2_3 
ROOT
ATOM      1  C2  UNL d   1      -0.232   3.173   1.718  0.00  0.00    -0.077 A 
ATOM      2  C3  UNL d   1      -1.491   3.748   1.942  0.00  0.00     0.002 A 
ATOM      3  C4  UNL d   1      -2.418   3.847   0.902  0.00  0.00     0.002 A 
ATOM      4  C5  UNL d   1      -2.096   3.370  -0.368  0.00  0.00    -0.004 A 
ATOM      5  C6  UNL d   1      -0.846   2.799  -0.601  0.00  0.00     0.002 A 
ATOM      6  C7  UNL d   1       0.082   2.700   0.437  0.00  0.00     0.002 A 
ENDROOT
BRANCH   1   7
ATOM      7  C1  UNL d   1       0.750   3.020   2.850  0.00  0.00     0.055 C 
ATOM      8  C   UNL d   1       1.900   4.008   2.721  0.00  0.00     0.019 C 
ENDBRANCH   1   7
TORSDOF 1
ENDMDL
