MODEL 1
REMARK minimizedAffinity 2.4693265
REMARK minimizedRMSD -1
REMARK  1 active torsions:
REMARK  status: ('A' for Active; 'I' for Inactive)
REMARK    1  A    between atoms: C1_2  and  C2_3 
ROOT
ATOM      1  C2  UNL d   1       4.849  -4.992  -2.088  0.00  0.00    -0.077 A 
ATOM      2  C3  UNL d   1       3.789  -4.103  -1.856  0.00  0.00     0.002 A 
ATOM      3  C4  UNL d   1       3.064  -4.165  -0.665  0.00  0.00     0.002 A 
ATOM      4  C5  UNL d   1       3.392  -5.110   0.305  0.00  0.00    -0.004 A 
ATOM      5  C6  UNL d   1       4.443  -6.000   0.082  0.00  0.00     0.002 A 
ATOM      6  C7  UNL d   1       5.168  -5.940  -1.108  0.00  0.00     0.002 A 
ENDROOT
BRANCH   1   7
ATOM      7  C1  UNL d   1       5.664  -4.894  -3.351  0.00  0.00     0.055 C 
ATOM      8  C   UNL d   1       5.384  -3.595  -4.092  0.00  0.00     0.019 C 
ENDBRANCH   1   7
TORSDOF 1
ENDMDL
