MODEL 1
REMARK minimizedAffinity 5.05965948
REMARK minimizedRMSD -1
REMARK  1 active torsions:
REMARK  status: ('A' for Active; 'I' for Inactive)
REMARK    1  A    between atoms: C1_2  and  C2_3 
ROOT
ATOM      1  C2  UNL d   1       1.093  -0.354   1.917  0.00  0.00    -0.077 A 
ATOM      2  C3  UNL d   1       0.633   0.230   0.729  0.00  0.00     0.002 A 
ATOM      3  C4  UNL d   1      -0.355   1.216   0.764  0.00  0.00     0.002 A 
ATOM      4  C5  UNL d   1      -0.887   1.629   1.983  0.00  0.00    -0.004 A 
ATOM      5  C6  UNL d   1      -0.437   1.052   3.170  0.00  0.00     0.002 A 
ATOM      6  C7  UNL d   1       0.549   0.066   3.138  0.00  0.00     0.002 A 
ENDROOT
BRANCH   1   7
ATOM      7  C1  UNL d   1       2.194  -1.383   1.885  0.00  0.00     0.055 C 
ATOM      8  C   UNL d   1       3.181  -1.172   3.024  0.00  0.00     0.019 C 
ENDBRANCH   1   7
TORSDOF 1
ENDMDL
