MODEL 1
REMARK minimizedAffinity 4.07767391
REMARK minimizedRMSD -1
REMARK  0 active torsions:
REMARK  status: ('A' for Active; 'I' for Inactive)
ROOT
ATOM      1  C   UNL d   1       1.028  -2.186   2.156  0.00  0.00     0.172 C 
ATOM      2  N   UNL d   1       0.322  -2.386   0.912  0.00  0.00    -0.070 N 
ATOM      3  C1  UNL d   1       0.713  -3.217  -0.103  0.00  0.00    -0.004 A 
ATOM      4  C2  UNL d   1      -0.225  -3.126  -1.108  0.00  0.00    -0.047 A 
ATOM      5  C3  UNL d   1      -1.215  -2.208  -0.682  0.00  0.00    -0.047 A 
ATOM      6  C4  UNL d   1      -0.851  -1.765   0.572  0.00  0.00    -0.004 A 
ENDROOT
TORSDOF 0
ENDMDL
