MODEL 1
REMARK minimizedAffinity 0.155198738
REMARK minimizedRMSD -1
REMARK  0 active torsions:
REMARK  status: ('A' for Active; 'I' for Inactive)
ROOT
ATOM      1  C   UNL d   1       2.024  -4.887   1.025  0.00  0.00     0.172 C 
ATOM      2  N   UNL d   1       1.118  -3.874   0.538  0.00  0.00    -0.070 N 
ATOM      3  C1  UNL d   1       0.731  -3.709  -0.766  0.00  0.00    -0.004 A 
ATOM      4  C2  UNL d   1      -0.136  -2.640  -0.817  0.00  0.00    -0.047 A 
ATOM      5  C3  UNL d   1      -0.275  -2.144   0.501  0.00  0.00    -0.047 A 
ATOM      6  C4  UNL d   1       0.512  -2.927   1.320  0.00  0.00    -0.004 A 
ENDROOT
TORSDOF 0
ENDMDL
