MODEL 1
REMARK minimizedAffinity 5.51002979
REMARK minimizedRMSD -1
REMARK  0 active torsions:
REMARK  status: ('A' for Active; 'I' for Inactive)
ROOT
ATOM      1  C   UNL d   1      -5.748   5.084  -0.387  0.00  0.00     0.172 C 
ATOM      2  N   UNL d   1      -4.712   4.325   0.274  0.00  0.00    -0.070 N 
ATOM      3  C1  UNL d   1      -4.828   3.708   1.491  0.00  0.00    -0.004 A 
ATOM      4  C2  UNL d   1      -3.627   3.092   1.768  0.00  0.00    -0.047 A 
ATOM      5  C3  UNL d   1      -2.759   3.348   0.680  0.00  0.00    -0.047 A 
ATOM      6  C4  UNL d   1      -3.457   4.113  -0.231  0.00  0.00    -0.004 A 
ENDROOT
TORSDOF 0
ENDMDL
