MODEL 1
REMARK minimizedAffinity -1.04854369
REMARK minimizedRMSD -1
REMARK  0 active torsions:
REMARK  status: ('A' for Active; 'I' for Inactive)
ROOT
ATOM      1  C   UNL d   1       3.752  -5.422  -5.606  0.00  0.00     0.172 C 
ATOM      2  N   UNL d   1       3.839  -4.041  -5.192  0.00  0.00    -0.070 N 
ATOM      3  C1  UNL d   1       3.648  -2.952  -6.000  0.00  0.00    -0.004 A 
ATOM      4  C2  UNL d   1       3.817  -1.821  -5.230  0.00  0.00    -0.047 A 
ATOM      5  C3  UNL d   1       4.122  -2.245  -3.915  0.00  0.00    -0.047 A 
ATOM      6  C4  UNL d   1       4.129  -3.624  -3.920  0.00  0.00    -0.004 A 
ENDROOT
TORSDOF 0
ENDMDL
