MODEL 1
REMARK minimizedAffinity -1.08493829
REMARK minimizedRMSD -1
REMARK  0 active torsions:
REMARK  status: ('A' for Active; 'I' for Inactive)
ROOT
ATOM      1  C   UNL d   1       4.201  -2.066  -5.999  0.00  0.00     0.172 C 
ATOM      2  N   UNL d   1       4.677  -0.713  -5.828  0.00  0.00    -0.070 N 
ATOM      3  C1  UNL d   1       5.950  -0.354  -5.472  0.00  0.00    -0.004 A 
ATOM      4  C2  UNL d   1       5.999   1.022  -5.415  0.00  0.00    -0.047 A 
ATOM      5  C3  UNL d   1       4.712   1.506  -5.748  0.00  0.00    -0.047 A 
ATOM      6  C4  UNL d   1       3.913   0.411  -5.999  0.00  0.00    -0.004 A 
ENDROOT
TORSDOF 0
ENDMDL
