MODEL 1
REMARK minimizedAffinity 14.9152565
REMARK minimizedRMSD -1
REMARK  0 active torsions:
REMARK  status: ('A' for Active; 'I' for Inactive)
ROOT
ATOM      1  O1  BZF d   1       0.673  -0.089   3.091  0.00  0.00    -0.204 OA
ATOM      2  C2  BZF d   1       0.707  -0.482   1.767  0.00  0.00     0.174 A 
ATOM      3  C3  BZF d   1      -0.099  -1.543   1.562  0.00  0.00    -0.012 A 
ATOM      4  C3A BZF d   1      -0.744  -1.774   2.818  0.00  0.00    -0.107 A 
ATOM      5  C4  BZF d   1      -1.671  -2.682   3.245  0.00  0.00     0.055 A 
ATOM      6  C5  BZF d   1      -2.038  -2.685   4.553  0.00  0.00    -0.016 A 
ATOM      7  C6  BZF d   1      -1.496  -1.800   5.462  0.00  0.00     0.022 A 
ATOM      8  C7  BZF d   1      -0.577  -0.878   5.085  0.00  0.00     0.029 A 
ATOM      9  C7A BZF d   1      -0.228  -0.851   3.757  0.00  0.00     0.058 A 
ENDROOT
TORSDOF 0
ENDMDL
