MODEL 1
REMARK minimizedAffinity 10.9602194
REMARK minimizedRMSD -1
REMARK  0 active torsions:
REMARK  status: ('A' for Active; 'I' for Inactive)
ROOT
ATOM      1  O1  BZF d   1       0.184   0.194   4.644  0.00  0.00    -0.204 OA
ATOM      2  C2  BZF d   1       0.713  -0.240   3.443  0.00  0.00     0.174 A 
ATOM      3  C3  BZF d   1       0.001  -1.275   2.953  0.00  0.00    -0.012 A 
ATOM      4  C3A BZF d   1      -1.093  -1.442   3.860  0.00  0.00    -0.107 A 
ATOM      5  C4  BZF d   1      -2.155  -2.300   3.902  0.00  0.00     0.055 A 
ATOM      6  C5  BZF d   1      -3.003  -2.249   4.962  0.00  0.00    -0.016 A 
ATOM      7  C6  BZF d   1      -2.817  -1.359   5.999  0.00  0.00     0.022 A 
ATOM      8  C7  BZF d   1      -1.781  -0.485   6.000  0.00  0.00     0.029 A 
ATOM      9  C7A BZF d   1      -0.940  -0.511   4.913  0.00  0.00     0.058 A 
ENDROOT
TORSDOF 0
ENDMDL
