MODEL 1
REMARK minimizedAffinity 14.4192133
REMARK minimizedRMSD -1
REMARK  0 active torsions:
REMARK  status: ('A' for Active; 'I' for Inactive)
ROOT
ATOM      1  O1  BZF d   1       3.284  -1.515   1.120  0.00  0.00    -0.204 OA
ATOM      2  C2  BZF d   1       4.225  -0.574   1.491  0.00  0.00     0.174 A 
ATOM      3  C3  BZF d   1       3.764   0.190   2.502  0.00  0.00    -0.012 A 
ATOM      4  C3A BZF d   1       2.490  -0.364   2.842  0.00  0.00    -0.107 A 
ATOM      5  C4  BZF d   1       1.550  -0.050   3.782  0.00  0.00     0.055 A 
ATOM      6  C5  BZF d   1       0.381  -0.742   3.803  0.00  0.00    -0.016 A 
ATOM      7  C6  BZF d   1       0.116  -1.749   2.899  0.00  0.00     0.022 A 
ATOM      8  C7  BZF d   1       1.020  -2.100   1.952  0.00  0.00     0.029 A 
ATOM      9  C7A BZF d   1       2.216  -1.425   1.948  0.00  0.00     0.058 A 
ENDROOT
TORSDOF 0
ENDMDL
