MODEL 1
REMARK minimizedAffinity 7.92742395
REMARK minimizedRMSD -1
REMARK  0 active torsions:
REMARK  status: ('A' for Active; 'I' for Inactive)
ROOT
ATOM      1  O1  BZF d   1      -4.797  -5.920  -0.563  0.00  0.00    -0.204 OA
ATOM      2  C2  BZF d   1      -5.985  -6.000   0.138  0.00  0.00     0.174 A 
ATOM      3  C3  BZF d   1      -5.999  -5.117   1.157  0.00  0.00    -0.012 A 
ATOM      4  C3A BZF d   1      -4.780  -4.379   1.033  0.00  0.00    -0.107 A 
ATOM      5  C4  BZF d   1      -4.228  -3.351   1.743  0.00  0.00     0.055 A 
ATOM      6  C5  BZF d   1      -2.989  -2.906   1.407  0.00  0.00    -0.016 A 
ATOM      7  C6  BZF d   1      -2.272  -3.468   0.370  0.00  0.00     0.022 A 
ATOM      8  C7  BZF d   1      -2.780  -4.486  -0.366  0.00  0.00     0.029 A 
ATOM      9  C7A BZF d   1      -4.046  -4.916  -0.050  0.00  0.00     0.058 A 
ENDROOT
TORSDOF 0
ENDMDL
