MODEL 1
REMARK minimizedAffinity 6.03530121
REMARK minimizedRMSD -1
REMARK  0 active torsions:
REMARK  status: ('A' for Active; 'I' for Inactive)
ROOT
ATOM      1  O1  BZF d   1       0.397  -6.000  -4.518  0.00  0.00    -0.204 OA
ATOM      2  C2  BZF d   1       0.002  -5.874  -3.200  0.00  0.00     0.174 A 
ATOM      3  C3  BZF d   1       0.600  -4.813  -2.621  0.00  0.00    -0.012 A 
ATOM      4  C3A BZF d   1       1.348  -4.185  -3.667  0.00  0.00    -0.107 A 
ATOM      5  C4  BZF d   1       2.142  -3.075  -3.718  0.00  0.00     0.055 A 
ATOM      6  C5  BZF d   1       2.786  -2.776  -4.876  0.00  0.00    -0.016 A 
ATOM      7  C6  BZF d   1       2.665  -3.567  -6.000  0.00  0.00     0.022 A 
ATOM      8  C7  BZF d   1       1.885  -4.676  -5.999  0.00  0.00     0.029 A 
ATOM      9  C7A BZF d   1       1.206  -4.962  -4.840  0.00  0.00     0.058 A 
ENDROOT
TORSDOF 0
ENDMDL
