MODEL 1
REMARK minimizedAffinity 14.7383385
REMARK minimizedRMSD -1
REMARK  0 active torsions:
REMARK  status: ('A' for Active; 'I' for Inactive)
ROOT
ATOM      1  O1  BZF d   1      -2.760   3.739  -5.745  0.00  0.00    -0.204 OA
ATOM      2  C2  BZF d   1      -1.685   3.640  -4.884  0.00  0.00     0.174 A 
ATOM      3  C3  BZF d   1      -2.049   3.041  -3.732  0.00  0.00    -0.012 A 
ATOM      4  C3A BZF d   1      -3.417   2.665  -3.919  0.00  0.00    -0.107 A 
ATOM      5  C4  BZF d   1      -4.329   2.020  -3.133  0.00  0.00     0.055 A 
ATOM      6  C5  BZF d   1      -5.603   1.874  -3.584  0.00  0.00    -0.016 A 
ATOM      7  C6  BZF d   1      -6.000   2.366  -4.810  0.00  0.00     0.022 A 
ATOM      8  C7  BZF d   1      -5.129   3.008  -5.627  0.00  0.00     0.029 A 
ATOM      9  C7A BZF d   1      -3.833   3.128  -5.188  0.00  0.00     0.058 A 
ENDROOT
TORSDOF 0
ENDMDL
