MODEL 1
REMARK minimizedAffinity 7.08408403
REMARK minimizedRMSD -1
REMARK  0 active torsions:
REMARK  status: ('A' for Active; 'I' for Inactive)
ROOT
ATOM      1  O1  BZF d   1      -3.752  -5.999   0.238  0.00  0.00    -0.204 OA
ATOM      2  C2  BZF d   1      -4.126  -5.090  -0.733  0.00  0.00     0.174 A 
ATOM      3  C3  BZF d   1      -4.505  -3.923  -0.175  0.00  0.00    -0.012 A 
ATOM      4  C3A BZF d   1      -4.270  -4.082   1.227  0.00  0.00    -0.107 A 
ATOM      5  C4  BZF d   1      -4.436  -3.262   2.306  0.00  0.00     0.055 A 
ATOM      6  C5  BZF d   1      -4.182  -3.747   3.550  0.00  0.00    -0.016 A 
ATOM      7  C6  BZF d   1      -3.767  -5.047   3.752  0.00  0.00     0.022 A 
ATOM      8  C7  BZF d   1      -3.584  -5.897   2.712  0.00  0.00     0.029 A 
ATOM      9  C7A BZF d   1      -3.808  -5.400   1.451  0.00  0.00     0.058 A 
ENDROOT
TORSDOF 0
ENDMDL
