MODEL 1
REMARK minimizedAffinity 7.89761639
REMARK minimizedRMSD -1
REMARK  0 active torsions:
REMARK  status: ('A' for Active; 'I' for Inactive)
ROOT
ATOM      1  O1  BZF d   1       1.492  -0.679   2.285  0.00  0.00    -0.204 OA
ATOM      2  C2  BZF d   1       1.574  -1.243   1.027  0.00  0.00     0.174 A 
ATOM      3  C3  BZF d   1       0.480  -1.987   0.764  0.00  0.00    -0.012 A 
ATOM      4  C3A BZF d   1      -0.378  -1.807   1.895  0.00  0.00    -0.107 A 
ATOM      5  C4  BZF d   1      -1.619  -2.278   2.217  0.00  0.00     0.055 A 
ATOM      6  C5  BZF d   1      -2.147  -1.973   3.431  0.00  0.00    -0.016 A 
ATOM      7  C6  BZF d   1      -1.461  -1.204   4.349  0.00  0.00     0.022 A 
ATOM      8  C7  BZF d   1      -0.230  -0.710   4.073  0.00  0.00     0.029 A 
ATOM      9  C7A BZF d   1       0.293  -0.989   2.834  0.00  0.00     0.058 A 
ENDROOT
TORSDOF 0
ENDMDL
