MODEL 1
REMARK minimizedAffinity 21.7749634
REMARK minimizedRMSD -1
REMARK  0 active torsions:
REMARK  status: ('A' for Active; 'I' for Inactive)
ROOT
ATOM      1  O1  BZF d   1      -2.467  -1.377   2.988  0.00  0.00    -0.204 OA
ATOM      2  C2  BZF d   1      -3.114  -2.553   2.661  0.00  0.00     0.174 A 
ATOM      3  C3  BZF d   1      -2.297  -3.372   1.969  0.00  0.00    -0.012 A 
ATOM      4  C3A BZF d   1      -1.033  -2.703   1.936  0.00  0.00    -0.107 A 
ATOM      5  C4  BZF d   1       0.185  -3.022   1.405  0.00  0.00     0.055 A 
ATOM      6  C5  BZF d   1       1.196  -2.117   1.483  0.00  0.00    -0.016 A 
ATOM      7  C6  BZF d   1       1.024  -0.885   2.079  0.00  0.00     0.022 A 
ATOM      8  C7  BZF d   1      -0.164  -0.526   2.624  0.00  0.00     0.029 A 
ATOM      9  C7A BZF d   1      -1.178  -1.451   2.576  0.00  0.00     0.058 A 
ENDROOT
TORSDOF 0
ENDMDL
