MODEL 1
REMARK minimizedAffinity 19.0479603
REMARK minimizedRMSD -1
REMARK  0 active torsions:
REMARK  status: ('A' for Active; 'I' for Inactive)
ROOT
ATOM      1  O1  BZF d   1      -1.140  -1.219   2.040  0.00  0.00    -0.204 OA
ATOM      2  C2  BZF d   1       0.143  -1.159   1.532  0.00  0.00     0.174 A 
ATOM      3  C3  BZF d   1       1.023  -0.813   2.494  0.00  0.00    -0.012 A 
ATOM      4  C3A BZF d   1       0.253  -0.736   3.698  0.00  0.00    -0.107 A 
ATOM      5  C4  BZF d   1       0.567  -0.450   4.996  0.00  0.00     0.055 A 
ATOM      6  C5  BZF d   1      -0.430  -0.387   5.917  0.00  0.00    -0.016 A 
ATOM      7  C6  BZF d   1      -1.750  -0.598   5.575  0.00  0.00     0.022 A 
ATOM      8  C7  BZF d   1      -2.109  -0.890   4.301  0.00  0.00     0.029 A 
ATOM      9  C7A BZF d   1      -1.100  -0.987   3.374  0.00  0.00     0.058 A 
ENDROOT
TORSDOF 0
ENDMDL
