MODEL 1
REMARK minimizedAffinity 18.5080395
REMARK minimizedRMSD -1
REMARK  0 active torsions:
REMARK  status: ('A' for Active; 'I' for Inactive)
ROOT
ATOM      1  O1  BZF d   1       3.550  -1.164   1.490  0.00  0.00    -0.204 OA
ATOM      2  C2  BZF d   1       3.709   0.069   2.093  0.00  0.00     0.174 A 
ATOM      3  C3  BZF d   1       2.512   0.602   2.415  0.00  0.00    -0.012 A 
ATOM      4  C3A BZF d   1       1.550  -0.399   2.069  0.00  0.00    -0.107 A 
ATOM      5  C4  BZF d   1       0.189  -0.465   2.166  0.00  0.00     0.055 A 
ATOM      6  C5  BZF d   1      -0.456  -1.554   1.671  0.00  0.00    -0.016 A 
ATOM      7  C6  BZF d   1       0.227  -2.591   1.068  0.00  0.00     0.022 A 
ATOM      8  C7  BZF d   1       1.577  -2.572   0.953  0.00  0.00     0.029 A 
ATOM      9  C7A BZF d   1       2.234  -1.488   1.483  0.00  0.00     0.058 A 
ENDROOT
TORSDOF 0
ENDMDL
