MODEL 1
REMARK minimizedAffinity 8.15147018
REMARK minimizedRMSD -1
REMARK  0 active torsions:
REMARK  status: ('A' for Active; 'I' for Inactive)
ROOT
ATOM      1  O1  BZF d   1       1.996  -2.419   0.749  0.00  0.00    -0.204 OA
ATOM      2  C2  BZF d   1       0.794  -3.080   0.914  0.00  0.00     0.174 A 
ATOM      3  C3  BZF d   1       0.245  -2.783   2.110  0.00  0.00    -0.012 A 
ATOM      4  C3A BZF d   1       1.116  -1.808   2.692  0.00  0.00    -0.107 A 
ATOM      5  C4  BZF d   1       1.097  -1.116   3.869  0.00  0.00     0.055 A 
ATOM      6  C5  BZF d   1       2.136  -0.293   4.168  0.00  0.00    -0.016 A 
ATOM      7  C6  BZF d   1       3.211  -0.142   3.317  0.00  0.00     0.022 A 
ATOM      8  C7  BZF d   1       3.273  -0.804   2.136  0.00  0.00     0.029 A 
ATOM      9  C7A BZF d   1       2.208  -1.612   1.816  0.00  0.00     0.058 A 
ENDROOT
TORSDOF 0
ENDMDL
