MODEL 1
REMARK minimizedAffinity 12.6717968
REMARK minimizedRMSD -1
REMARK  0 active torsions:
REMARK  status: ('A' for Active; 'I' for Inactive)
ROOT
ATOM      1  O1  BZF d   1       0.553  -0.224   0.711  0.00  0.00    -0.204 OA
ATOM      2  C2  BZF d   1       0.326  -1.522   1.126  0.00  0.00     0.174 A 
ATOM      3  C3  BZF d   1       1.454  -2.071   1.620  0.00  0.00    -0.012 A 
ATOM      4  C3A BZF d   1       2.426  -1.022   1.593  0.00  0.00    -0.107 A 
ATOM      5  C4  BZF d   1       3.736  -0.946   1.971  0.00  0.00     0.055 A 
ATOM      6  C5  BZF d   1       4.424   0.204   1.744  0.00  0.00    -0.016 A 
ATOM      7  C6  BZF d   1       3.835   1.294   1.138  0.00  0.00     0.022 A 
ATOM      8  C7  BZF d   1       2.536   1.268   0.750  0.00  0.00     0.029 A 
ATOM      9  C7A BZF d   1       1.830   0.119   1.008  0.00  0.00     0.058 A 
ENDROOT
TORSDOF 0
ENDMDL
