MODEL 1
REMARK minimizedAffinity 7.75607491
REMARK minimizedRMSD -1
REMARK  0 active torsions:
REMARK  status: ('A' for Active; 'I' for Inactive)
ROOT
ATOM      1  O1  BZF d   1      -6.000  -5.543   2.947  0.00  0.00    -0.204 OA
ATOM      2  C2  BZF d   1      -5.789  -5.311   4.292  0.00  0.00     0.174 A 
ATOM      3  C3  BZF d   1      -4.690  -4.551   4.480  0.00  0.00    -0.012 A 
ATOM      4  C3A BZF d   1      -4.235  -4.216   3.166  0.00  0.00    -0.107 A 
ATOM      5  C4  BZF d   1      -3.194  -3.468   2.695  0.00  0.00     0.055 A 
ATOM      6  C5  BZF d   1      -2.984  -3.399   1.354  0.00  0.00    -0.016 A 
ATOM      7  C6  BZF d   1      -3.791  -4.068   0.457  0.00  0.00     0.022 A 
ATOM      8  C7  BZF d   1      -4.839  -4.818   0.876  0.00  0.00     0.029 A 
ATOM      9  C7A BZF d   1      -5.074  -4.863   2.229  0.00  0.00     0.058 A 
ENDROOT
TORSDOF 0
ENDMDL
