MODEL 1
REMARK minimizedAffinity 0.664919436
REMARK minimizedRMSD -1
REMARK  0 active torsions:
REMARK  status: ('A' for Active; 'I' for Inactive)
ROOT
ATOM      1  O1  BZF d   1      -4.919  -3.760   3.840  0.00  0.00    -0.204 OA
ATOM      2  C2  BZF d   1      -5.193  -4.941   4.501  0.00  0.00     0.174 A 
ATOM      3  C3  BZF d   1      -5.028  -5.998   3.680  0.00  0.00    -0.012 A 
ATOM      4  C3A BZF d   1      -4.537  -5.449   2.454  0.00  0.00    -0.107 A 
ATOM      5  C4  BZF d   1      -4.168  -6.000   1.260  0.00  0.00     0.055 A 
ATOM      6  C5  BZF d   1      -3.803  -5.180   0.239  0.00  0.00    -0.016 A 
ATOM      7  C6  BZF d   1      -3.800  -3.807   0.376  0.00  0.00     0.022 A 
ATOM      8  C7  BZF d   1      -4.153  -3.215   1.543  0.00  0.00     0.029 A 
ATOM      9  C7A BZF d   1      -4.491  -4.042   2.586  0.00  0.00     0.058 A 
ENDROOT
TORSDOF 0
ENDMDL
