MODEL 1
REMARK minimizedAffinity 16.2574272
REMARK minimizedRMSD -1
REMARK  0 active torsions:
REMARK  status: ('A' for Active; 'I' for Inactive)
ROOT
ATOM      1  O1  BZF d   1      -1.517   1.940  -2.374  0.00  0.00    -0.204 OA
ATOM      2  C2  BZF d   1      -2.056   2.917  -3.189  0.00  0.00     0.174 A 
ATOM      3  C3  BZF d   1      -1.454   4.104  -2.973  0.00  0.00    -0.012 A 
ATOM      4  C3A BZF d   1      -0.416   3.834  -2.027  0.00  0.00    -0.107 A 
ATOM      5  C4  BZF d   1       0.538   4.609  -1.431  0.00  0.00     0.055 A 
ATOM      6  C5  BZF d   1       1.353   4.053  -0.497  0.00  0.00    -0.016 A 
ATOM      7  C6  BZF d   1       1.239   2.728  -0.130  0.00  0.00     0.022 A 
ATOM      8  C7  BZF d   1       0.312   1.918  -0.697  0.00  0.00     0.029 A 
ATOM      9  C7A BZF d   1      -0.491   2.468  -1.665  0.00  0.00     0.058 A 
ENDROOT
TORSDOF 0
ENDMDL
