MODEL 1
REMARK minimizedAffinity 9.75710392
REMARK minimizedRMSD -1
REMARK  0 active torsions:
REMARK  status: ('A' for Active; 'I' for Inactive)
ROOT
ATOM      1  O1  BZF d   1       3.076  -2.718  -4.775  0.00  0.00    -0.204 OA
ATOM      2  C2  BZF d   1       3.839  -3.215  -5.813  0.00  0.00     0.174 A 
ATOM      3  C3  BZF d   1       3.595  -4.528  -6.000  0.00  0.00    -0.012 A 
ATOM      4  C3A BZF d   1       2.550  -4.852  -5.077  0.00  0.00    -0.107 A 
ATOM      5  C4  BZF d   1       1.866  -6.000  -4.799  0.00  0.00     0.055 A 
ATOM      6  C5  BZF d   1       0.956  -5.999  -3.789  0.00  0.00    -0.016 A 
ATOM      7  C6  BZF d   1       0.710  -4.870  -3.035  0.00  0.00     0.022 A 
ATOM      8  C7  BZF d   1       1.361  -3.706  -3.277  0.00  0.00     0.029 A 
ATOM      9  C7A BZF d   1       2.257  -3.695  -4.318  0.00  0.00     0.058 A 
ENDROOT
TORSDOF 0
ENDMDL
