MODEL 1
REMARK minimizedAffinity 22.4235268
REMARK minimizedRMSD -1
REMARK  0 active torsions:
REMARK  status: ('A' for Active; 'I' for Inactive)
ROOT
ATOM      1  O1  BZF d   1      -4.848   3.038  -1.029  0.00  0.00    -0.204 OA
ATOM      2  C2  BZF d   1      -5.383   4.201  -0.510  0.00  0.00     0.174 A 
ATOM      3  C3  BZF d   1      -4.651   5.271  -0.880  0.00  0.00    -0.012 A 
ATOM      4  C3A BZF d   1      -3.644   4.754  -1.756  0.00  0.00    -0.107 A 
ATOM      5  C4  BZF d   1      -2.625   5.331  -2.458  0.00  0.00     0.055 A 
ATOM      6  C5  BZF d   1      -1.776   4.537  -3.161  0.00  0.00    -0.016 A 
ATOM      7  C6  BZF d   1      -1.913   3.164  -3.180  0.00  0.00     0.022 A 
ATOM      8  C7  BZF d   1      -2.912   2.547  -2.503  0.00  0.00     0.029 A 
ATOM      9  C7A BZF d   1      -3.791   3.349  -1.818  0.00  0.00     0.058 A 
ENDROOT
TORSDOF 0
ENDMDL
