MODEL 1
REMARK minimizedAffinity 9.13644123
REMARK minimizedRMSD -1
REMARK  2 active torsions:
REMARK  status: ('A' for Active; 'I' for Inactive)
REMARK    1  A    between atoms: C1_2  and  C2_3 
REMARK    2  A    between atoms: C2_3  and  C3_4 
ROOT
ATOM      1  C3  UNL d   1       3.346  -2.323   3.076  0.00  0.00    -0.075 A 
ATOM      2  C4  UNL d   1       3.422  -3.200   1.985  0.00  0.00     0.002 A 
ATOM      3  C5  UNL d   1       2.474  -3.143   0.963  0.00  0.00     0.002 A 
ATOM      4  C6  UNL d   1       1.434  -2.217   1.024  0.00  0.00    -0.004 A 
ATOM      5  C7  UNL d   1       1.340  -1.352   2.112  0.00  0.00     0.002 A 
ATOM      6  C8  UNL d   1       2.289  -1.404   3.133  0.00  0.00     0.002 A 
ENDROOT
BRANCH   1   7
ATOM      7  C2  UNL d   1       4.386  -2.360   4.171  0.00  0.00     0.056 C 
BRANCH   7   8
ATOM      8  C1  UNL d   1       3.848  -2.829   5.527  0.00  0.00     0.007 C 
ATOM      9  C   UNL d   1       4.470  -4.136   6.000  0.00  0.00     0.009 C 
ENDBRANCH   7   8
ENDBRANCH   1   7
TORSDOF 2
ENDMDL
