MODEL 1
REMARK minimizedAffinity 12.8775673
REMARK minimizedRMSD -1
REMARK  2 active torsions:
REMARK  status: ('A' for Active; 'I' for Inactive)
REMARK    1  A    between atoms: C1_2  and  C2_3 
REMARK    2  A    between atoms: C2_3  and  C3_4 
ROOT
ATOM      1  C3  UNL d   1       3.113  -2.253   3.039  0.00  0.00    -0.075 A 
ATOM      2  C4  UNL d   1       3.275  -2.992   1.858  0.00  0.00     0.002 A 
ATOM      3  C5  UNL d   1       2.363  -2.863   0.811  0.00  0.00     0.002 A 
ATOM      4  C6  UNL d   1       1.274  -2.003   0.933  0.00  0.00    -0.004 A 
ATOM      5  C7  UNL d   1       1.093  -1.276   2.108  0.00  0.00     0.002 A 
ATOM      6  C8  UNL d   1       2.007  -1.400   3.156  0.00  0.00     0.002 A 
ENDROOT
BRANCH   1   7
ATOM      7  C2  UNL d   1       4.113  -2.366   4.165  0.00  0.00     0.056 C 
BRANCH   7   8
ATOM      8  C1  UNL d   1       3.514  -2.868   5.483  0.00  0.00     0.007 C 
ATOM      9  C   UNL d   1       4.180  -4.137   6.000  0.00  0.00     0.009 C 
ENDBRANCH   7   8
ENDBRANCH   1   7
TORSDOF 2
ENDMDL
