MODEL 1
REMARK minimizedAffinity 12.082612
REMARK minimizedRMSD -1
REMARK  2 active torsions:
REMARK  status: ('A' for Active; 'I' for Inactive)
REMARK    1  A    between atoms: C1_2  and  C2_3 
REMARK    2  A    between atoms: C2_3  and  C3_4 
ROOT
ATOM      1  C3  UNL d   1       2.429  -1.498   2.497  0.00  0.00    -0.075 A 
ATOM      2  C4  UNL d   1       1.059  -1.642   2.237  0.00  0.00     0.002 A 
ATOM      3  C5  UNL d   1       0.606  -1.889   0.940  0.00  0.00     0.002 A 
ATOM      4  C6  UNL d   1       1.514  -1.985  -0.112  0.00  0.00    -0.004 A 
ATOM      5  C7  UNL d   1       2.877  -1.827   0.133  0.00  0.00     0.002 A 
ATOM      6  C8  UNL d   1       3.333  -1.584   1.429  0.00  0.00     0.002 A 
ENDROOT
BRANCH   1   7
ATOM      7  C2  UNL d   1       2.928  -1.259   3.902  0.00  0.00     0.056 C 
BRANCH   7   8
ATOM      8  C1  UNL d   1       4.245  -1.973   4.226  0.00  0.00     0.007 C 
ATOM      9  C   UNL d   1       4.126  -2.953   5.386  0.00  0.00     0.009 C 
ENDBRANCH   7   8
ENDBRANCH   1   7
TORSDOF 2
ENDMDL
