MODEL 1
REMARK minimizedAffinity 12.4375038
REMARK minimizedRMSD -1
REMARK  2 active torsions:
REMARK  status: ('A' for Active; 'I' for Inactive)
REMARK    1  A    between atoms: C1_2  and  C2_3 
REMARK    2  A    between atoms: C2_3  and  C3_4 
ROOT
ATOM      1  C3  UNL d   1       3.082   4.311  -5.983  0.00  0.00    -0.075 A 
ATOM      2  C4  UNL d   1       3.865   3.149  -5.945  0.00  0.00     0.002 A 
ATOM      3  C5  UNL d   1       5.257   3.234  -5.902  0.00  0.00     0.002 A 
ATOM      4  C6  UNL d   1       5.883   4.479  -5.907  0.00  0.00    -0.004 A 
ATOM      5  C7  UNL d   1       5.115   5.640  -5.961  0.00  0.00     0.002 A 
ATOM      6  C8  UNL d   1       3.722   5.558  -5.999  0.00  0.00     0.002 A 
ENDROOT
BRANCH   1   7
ATOM      7  C2  UNL d   1       1.574   4.227  -6.000  0.00  0.00     0.056 C 
BRANCH   7   8
ATOM      8  C1  UNL d   1       0.929   4.312  -4.613  0.00  0.00     0.007 C 
ATOM      9  C   UNL d   1      -0.149   3.261  -4.386  0.00  0.00     0.009 C 
ENDBRANCH   7   8
ENDBRANCH   1   7
TORSDOF 2
ENDMDL
