MODEL 1
REMARK minimizedAffinity 3.36420822
REMARK minimizedRMSD -1
REMARK  2 active torsions:
REMARK  status: ('A' for Active; 'I' for Inactive)
REMARK    1  A    between atoms: C1_2  and  C2_3 
REMARK    2  A    between atoms: C2_3  and  C3_4 
ROOT
ATOM      1  C3  UNL d   1      -1.380   3.655  -4.339  0.00  0.00    -0.075 A 
ATOM      2  C4  UNL d   1      -1.449   3.417  -2.959  0.00  0.00     0.002 A 
ATOM      3  C5  UNL d   1      -1.911   2.194  -2.472  0.00  0.00     0.002 A 
ATOM      4  C6  UNL d   1      -2.320   1.199  -3.357  0.00  0.00    -0.004 A 
ATOM      5  C7  UNL d   1      -2.272   1.430  -4.730  0.00  0.00     0.002 A 
ATOM      6  C8  UNL d   1      -1.806   2.651  -5.220  0.00  0.00     0.002 A 
ENDROOT
BRANCH   1   7
ATOM      7  C2  UNL d   1      -0.853   4.965  -4.873  0.00  0.00     0.056 C 
BRANCH   7   8
ATOM      8  C1  UNL d   1       0.176   4.811  -5.998  0.00  0.00     0.007 C 
ATOM      9  C   UNL d   1       1.592   5.174  -5.570  0.00  0.00     0.009 C 
ENDBRANCH   7   8
ENDBRANCH   1   7
TORSDOF 2
ENDMDL
