MODEL 1
REMARK minimizedAffinity 10.5240622
REMARK minimizedRMSD -1
REMARK  2 active torsions:
REMARK  status: ('A' for Active; 'I' for Inactive)
REMARK    1  A    between atoms: C1_2  and  C2_3 
REMARK    2  A    between atoms: C2_3  and  C3_4 
ROOT
ATOM      1  C3  UNL d   1      -4.224  -0.191  -1.951  0.00  0.00    -0.075 A 
ATOM      2  C4  UNL d   1      -4.085  -1.472  -1.397  0.00  0.00     0.002 A 
ATOM      3  C5  UNL d   1      -4.887  -2.525  -1.838  0.00  0.00     0.002 A 
ATOM      4  C6  UNL d   1      -5.842  -2.310  -2.829  0.00  0.00    -0.004 A 
ATOM      5  C7  UNL d   1      -6.000  -1.038  -3.375  0.00  0.00     0.002 A 
ATOM      6  C8  UNL d   1      -5.196   0.017  -2.939  0.00  0.00     0.002 A 
ENDROOT
BRANCH   1   7
ATOM      7  C2  UNL d   1      -3.339   0.946  -1.499  0.00  0.00     0.056 C 
BRANCH   7   8
ATOM      8  C1  UNL d   1      -2.009   1.040  -2.254  0.00  0.00     0.007 C 
ATOM      9  C   UNL d   1      -1.720   2.436  -2.790  0.00  0.00     0.009 C 
ENDBRANCH   7   8
ENDBRANCH   1   7
TORSDOF 2
ENDMDL
