MODEL 1
REMARK minimizedAffinity 9.54232121
REMARK minimizedRMSD -1
REMARK  2 active torsions:
REMARK  status: ('A' for Active; 'I' for Inactive)
REMARK    1  A    between atoms: C1_2  and  C2_3 
REMARK    2  A    between atoms: C2_3  and  C3_4 
ROOT
ATOM      1  C3  UNL d   1       1.378  -2.703   1.394  0.00  0.00    -0.075 A 
ATOM      2  C4  UNL d   1       0.011  -2.609   1.691  0.00  0.00     0.002 A 
ATOM      3  C5  UNL d   1      -0.443  -1.716   2.662  0.00  0.00     0.002 A 
ATOM      4  C6  UNL d   1       0.463  -0.915   3.354  0.00  0.00    -0.004 A 
ATOM      5  C7  UNL d   1       1.825  -1.012   3.078  0.00  0.00     0.002 A 
ATOM      6  C8  UNL d   1       2.282  -1.902   2.104  0.00  0.00     0.002 A 
ENDROOT
BRANCH   1   7
ATOM      7  C2  UNL d   1       1.873  -3.646   0.323  0.00  0.00     0.056 C 
BRANCH   7   8
ATOM      8  C1  UNL d   1       1.794  -5.127   0.711  0.00  0.00     0.007 C 
ATOM      9  C   UNL d   1       2.785  -6.000  -0.046  0.00  0.00     0.009 C 
ENDBRANCH   7   8
ENDBRANCH   1   7
TORSDOF 2
ENDMDL
