MODEL 1
REMARK minimizedAffinity 4.12880373
REMARK minimizedRMSD -1
REMARK  2 active torsions:
REMARK  status: ('A' for Active; 'I' for Inactive)
REMARK    1  A    between atoms: C1_2  and  C2_3 
REMARK    2  A    between atoms: C2_3  and  C3_4 
ROOT
ATOM      1  C3  UNL d   1       0.155   4.016  -4.951  0.00  0.00    -0.075 A 
ATOM      2  C4  UNL d   1       0.087   2.898  -5.795  0.00  0.00     0.002 A 
ATOM      3  C5  UNL d   1      -0.757   1.830  -5.489  0.00  0.00     0.002 A 
ATOM      4  C6  UNL d   1      -1.535   1.862  -4.333  0.00  0.00    -0.004 A 
ATOM      5  C7  UNL d   1      -1.462   2.960  -3.479  0.00  0.00     0.002 A 
ATOM      6  C8  UNL d   1      -0.622   4.032  -3.785  0.00  0.00     0.002 A 
ENDROOT
BRANCH   1   7
ATOM      7  C2  UNL d   1       1.045   5.188  -5.291  0.00  0.00     0.056 C 
BRANCH   7   8
ATOM      8  C1  UNL d   1       2.498   4.802  -5.590  0.00  0.00     0.007 C 
ATOM      9  C   UNL d   1       3.380   5.998  -5.922  0.00  0.00     0.009 C 
ENDBRANCH   7   8
ENDBRANCH   1   7
TORSDOF 2
ENDMDL
