MODEL 1
REMARK minimizedAffinity 9.10012245
REMARK minimizedRMSD -1
REMARK  2 active torsions:
REMARK  status: ('A' for Active; 'I' for Inactive)
REMARK    1  A    between atoms: C1_2  and  C2_3 
REMARK    2  A    between atoms: C2_3  and  C3_4 
ROOT
ATOM      1  C3  UNL d   1       0.319   3.146  -4.417  0.00  0.00    -0.075 A 
ATOM      2  C4  UNL d   1      -0.134   3.335  -3.103  0.00  0.00     0.002 A 
ATOM      3  C5  UNL d   1      -1.289   2.694  -2.653  0.00  0.00     0.002 A 
ATOM      4  C6  UNL d   1      -2.009   1.865  -3.510  0.00  0.00    -0.004 A 
ATOM      5  C7  UNL d   1      -1.577   1.683  -4.823  0.00  0.00     0.002 A 
ATOM      6  C8  UNL d   1      -0.420   2.320  -5.275  0.00  0.00     0.002 A 
ENDROOT
BRANCH   1   7
ATOM      7  C2  UNL d   1       1.583   3.814  -4.902  0.00  0.00     0.056 C 
BRANCH   7   8
ATOM      8  C1  UNL d   1       1.345   4.952  -5.899  0.00  0.00     0.007 C 
ATOM      9  C   UNL d   1       2.517   5.918  -6.000  0.00  0.00     0.009 C 
ENDBRANCH   7   8
ENDBRANCH   1   7
TORSDOF 2
ENDMDL
