MODEL 1
REMARK minimizedAffinity -1.53513837
REMARK minimizedRMSD -1
REMARK  1 active torsions:
REMARK  status: ('A' for Active; 'I' for Inactive)
REMARK    1  A    between atoms: C1_2  and  C2_3 
ROOT
ATOM      1  C2  UNL d   1      -0.112  -1.018   3.125  0.00  0.00    -0.077 A 
ATOM      2  C3  UNL d   1      -1.474  -0.686   3.105  0.00  0.00     0.002 A 
ATOM      3  C4  UNL d   1      -2.076  -0.243   1.925  0.00  0.00     0.002 A 
ATOM      4  C5  UNL d   1      -1.325  -0.133   0.757  0.00  0.00    -0.004 A 
ATOM      5  C6  UNL d   1       0.030  -0.459   0.767  0.00  0.00     0.002 A 
ATOM      6  C7  UNL d   1       0.634  -0.900   1.945  0.00  0.00     0.002 A 
ENDROOT
BRANCH   1   7
ATOM      7  C1  UNL d   1       0.527  -1.542   4.384  0.00  0.00     0.055 C 
ATOM      8  C   UNL d   1       2.046  -1.495   4.294  0.00  0.00     0.019 C 
ENDBRANCH   1   7
TORSDOF 1
ENDMDL
