MODEL 1
REMARK minimizedAffinity -2.432271
REMARK minimizedRMSD -1
REMARK  1 active torsions:
REMARK  status: ('A' for Active; 'I' for Inactive)
REMARK    1  A    between atoms: C1_2  and  C2_3 
ROOT
ATOM      1  C2  UNL d   1       0.385  -0.441   2.163  0.00  0.00    -0.077 A 
ATOM      2  C3  UNL d   1       0.599  -0.467   0.778  0.00  0.00     0.002 A 
ATOM      3  C4  UNL d   1      -0.402  -0.044  -0.099  0.00  0.00     0.002 A 
ATOM      4  C5  UNL d   1      -1.621   0.412   0.399  0.00  0.00    -0.004 A 
ATOM      5  C6  UNL d   1      -1.844   0.439   1.775  0.00  0.00     0.002 A 
ATOM      6  C7  UNL d   1      -0.846   0.015   2.653  0.00  0.00     0.002 A 
ENDROOT
BRANCH   1   7
ATOM      7  C1  UNL d   1       1.480  -0.851   3.113  0.00  0.00     0.055 C 
ATOM      8  C   UNL d   1       0.912  -1.311   4.447  0.00  0.00     0.019 C 
ENDBRANCH   1   7
TORSDOF 1
ENDMDL
