MODEL 1
REMARK minimizedAffinity -1.38179636
REMARK minimizedRMSD -1
REMARK  1 active torsions:
REMARK  status: ('A' for Active; 'I' for Inactive)
REMARK    1  A    between atoms: C1_2  and  C2_3 
ROOT
ATOM      1  C2  UNL d   1      -0.801  -0.581   2.714  0.00  0.00    -0.077 A 
ATOM      2  C3  UNL d   1       0.381  -0.570   1.959  0.00  0.00     0.002 A 
ATOM      3  C4  UNL d   1       1.579  -1.021   2.517  0.00  0.00     0.002 A 
ATOM      4  C5  UNL d   1       1.606  -1.489   3.829  0.00  0.00    -0.004 A 
ATOM      5  C6  UNL d   1       0.437  -1.501   4.588  0.00  0.00     0.002 A 
ATOM      6  C7  UNL d   1      -0.761  -1.051   4.033  0.00  0.00     0.002 A 
ENDROOT
BRANCH   1   7
ATOM      7  C1  UNL d   1      -2.104  -0.142   2.098  0.00  0.00     0.055 C 
ATOM      8  C   UNL d   1      -1.998  -0.054   0.583  0.00  0.00     0.019 C 
ENDBRANCH   1   7
TORSDOF 1
ENDMDL
