MODEL 1
REMARK minimizedAffinity 0.124766402
REMARK minimizedRMSD -1
REMARK  1 active torsions:
REMARK  status: ('A' for Active; 'I' for Inactive)
REMARK    1  A    between atoms: C1_2  and  C2_3 
ROOT
ATOM      1  C2  UNL d   1      -0.563  -0.827   2.809  0.00  0.00    -0.077 A 
ATOM      2  C3  UNL d   1      -1.908  -0.459   2.659  0.00  0.00     0.002 A 
ATOM      3  C4  UNL d   1      -2.402  -0.085   1.408  0.00  0.00     0.002 A 
ATOM      4  C5  UNL d   1      -1.560  -0.079   0.298  0.00  0.00    -0.004 A 
ATOM      5  C6  UNL d   1      -0.221  -0.441   0.437  0.00  0.00     0.002 A 
ATOM      6  C7  UNL d   1       0.275  -0.814   1.687  0.00  0.00     0.002 A 
ENDROOT
BRANCH   1   7
ATOM      7  C1  UNL d   1      -0.040  -1.278   4.148  0.00  0.00     0.055 C 
ATOM      8  C   UNL d   1       1.461  -1.524   4.102  0.00  0.00     0.019 C 
ENDBRANCH   1   7
TORSDOF 1
ENDMDL
