MODEL 1
REMARK minimizedAffinity 0.876115859
REMARK minimizedRMSD -1
REMARK  1 active torsions:
REMARK  status: ('A' for Active; 'I' for Inactive)
REMARK    1  A    between atoms: C1_2  and  C2_3 
ROOT
ATOM      1  C2  UNL d   1      -3.288   0.501  -0.464  0.00  0.00    -0.077 A 
ATOM      2  C3  UNL d   1      -3.178   0.950   0.859  0.00  0.00     0.002 A 
ATOM      3  C4  UNL d   1      -2.122   0.523   1.665  0.00  0.00     0.002 A 
ATOM      4  C5  UNL d   1      -1.165  -0.353   1.156  0.00  0.00    -0.004 A 
ATOM      5  C6  UNL d   1      -1.266  -0.807  -0.158  0.00  0.00     0.002 A 
ATOM      6  C7  UNL d   1      -2.322  -0.382  -0.965  0.00  0.00     0.002 A 
ENDROOT
BRANCH   1   7
ATOM      7  C1  UNL d   1      -4.399   0.999  -1.351  0.00  0.00     0.055 C 
ATOM      8  C   UNL d   1      -5.541  -0.004  -1.424  0.00  0.00     0.019 C 
ENDBRANCH   1   7
TORSDOF 1
ENDMDL
