MODEL 1
REMARK minimizedAffinity 5.69561291
REMARK minimizedRMSD -1
REMARK  1 active torsions:
REMARK  status: ('A' for Active; 'I' for Inactive)
REMARK    1  A    between atoms: C1_2  and  C2_3 
ROOT
ATOM      1  C2  UNL d   1      -2.577  -0.586   0.291  0.00  0.00    -0.077 A 
ATOM      2  C3  UNL d   1      -2.209   0.181   1.406  0.00  0.00     0.002 A 
ATOM      3  C4  UNL d   1      -2.564  -0.227   2.693  0.00  0.00     0.002 A 
ATOM      4  C5  UNL d   1      -3.286  -1.405   2.878  0.00  0.00    -0.004 A 
ATOM      5  C6  UNL d   1      -3.658  -2.174   1.776  0.00  0.00     0.002 A 
ATOM      6  C7  UNL d   1      -3.304  -1.767   0.489  0.00  0.00     0.002 A 
ENDROOT
BRANCH   1   7
ATOM      7  C1  UNL d   1      -2.151  -0.174  -1.094  0.00  0.00     0.055 C 
ATOM      8  C   UNL d   1      -1.068  -1.093  -1.637  0.00  0.00     0.019 C 
ENDBRANCH   1   7
TORSDOF 1
ENDMDL
