MODEL 1
REMARK minimizedAffinity -1.88647544
REMARK minimizedRMSD -1
REMARK  1 active torsions:
REMARK  status: ('A' for Active; 'I' for Inactive)
REMARK    1  A    between atoms: C1_2  and  C2_3 
ROOT
ATOM      1  C2  UNL d   1       0.145  -0.350   0.604  0.00  0.00    -0.077 A 
ATOM      2  C3  UNL d   1      -0.151   0.383   1.762  0.00  0.00     0.002 A 
ATOM      3  C4  UNL d   1      -1.474   0.692   2.084  0.00  0.00     0.002 A 
ATOM      4  C5  UNL d   1      -2.511   0.269   1.255  0.00  0.00    -0.004 A 
ATOM      5  C6  UNL d   1      -2.227  -0.458   0.100  0.00  0.00     0.002 A 
ATOM      6  C7  UNL d   1      -0.905  -0.767  -0.224  0.00  0.00     0.002 A 
ENDROOT
BRANCH   1   7
ATOM      7  C1  UNL d   1       1.567  -0.727   0.282  0.00  0.00     0.055 C 
ATOM      8  C   UNL d   1       2.390   0.495  -0.101  0.00  0.00     0.019 C 
ENDBRANCH   1   7
TORSDOF 1
ENDMDL
