MODEL 1
REMARK minimizedAffinity 0.498029292
REMARK minimizedRMSD -1
REMARK  2 active torsions:
REMARK  status: ('A' for Active; 'I' for Inactive)
REMARK    1  A    between atoms: C2'_3  and  C1'_4 
REMARK    2  A    between atoms: C1'_4  and  C1_5 
ROOT
ATOM      1  C1  I4B d   1      -0.187  -2.515  -0.010  0.00  0.00    -0.075 A 
ATOM      2  C2  I4B d   1      -0.111  -3.497  -0.966  0.00  0.00     0.003 A 
ATOM      3  C3  I4B d   1      -1.281  -3.936  -1.632  0.00  0.00     0.002 A 
ATOM      4  C4  I4B d   1      -2.504  -3.405  -1.278  0.00  0.00    -0.004 A 
ATOM      5  C5  I4B d   1      -2.577  -2.393  -0.326  0.00  0.00     0.002 A 
ATOM      6  C6  I4B d   1      -1.410  -1.936   0.304  0.00  0.00     0.003 A 
ENDROOT
BRANCH   1   7
ATOM      7  C1' I4B d   1       1.063  -2.099   0.697  0.00  0.00     0.060 C 
BRANCH   7   8
ATOM      8  C2' I4B d   1       1.716  -1.000  -0.117  0.00  0.00    -0.013 C 
ATOM      9  C4' I4B d   1       1.995   0.213   0.731  0.00  0.00     0.013 C 
ATOM     10  C3' I4B d   1       2.980  -1.550  -0.707  0.00  0.00     0.013 C 
ENDBRANCH   7   8
ENDBRANCH   1   7
TORSDOF 2
ENDMDL
