MODEL 1
REMARK minimizedAffinity 13.8763866
REMARK minimizedRMSD -1
REMARK  2 active torsions:
REMARK  status: ('A' for Active; 'I' for Inactive)
REMARK    1  A    between atoms: C2'_3  and  C1'_4 
REMARK    2  A    between atoms: C1'_4  and  C1_5 
ROOT
ATOM      1  C1  I4B d   1      -1.985  -2.666  -0.605  0.00  0.00    -0.075 A 
ATOM      2  C2  I4B d   1      -2.216  -1.701   0.343  0.00  0.00     0.003 A 
ATOM      3  C3  I4B d   1      -3.308  -0.811   0.203  0.00  0.00     0.002 A 
ATOM      4  C4  I4B d   1      -4.108  -0.888  -0.919  0.00  0.00    -0.004 A 
ATOM      5  C5  I4B d   1      -3.886  -1.882  -1.868  0.00  0.00     0.002 A 
ATOM      6  C6  I4B d   1      -2.825  -2.784  -1.705  0.00  0.00     0.003 A 
ENDROOT
BRANCH   1   7
ATOM      7  C1' I4B d   1      -0.802  -3.568  -0.443  0.00  0.00     0.060 C 
BRANCH   7   8
ATOM      8  C2' I4B d   1       0.059  -3.012   0.673  0.00  0.00    -0.013 C 
ATOM      9  C4' I4B d   1       0.505  -4.101   1.612  0.00  0.00     0.013 C 
ATOM     10  C3' I4B d   1       1.234  -2.320   0.049  0.00  0.00     0.013 C 
ENDBRANCH   7   8
ENDBRANCH   1   7
TORSDOF 2
ENDMDL
