MODEL 1
REMARK minimizedAffinity 0.979181767
REMARK minimizedRMSD -1
REMARK  2 active torsions:
REMARK  status: ('A' for Active; 'I' for Inactive)
REMARK    1  A    between atoms: C2'_3  and  C1'_4 
REMARK    2  A    between atoms: C1'_4  and  C1_5 
ROOT
ATOM      1  C1  I4B d   1      -1.461  -2.915  -0.804  0.00  0.00    -0.075 A 
ATOM      2  C2  I4B d   1      -0.221  -2.472  -0.413  0.00  0.00     0.003 A 
ATOM      3  C3  I4B d   1      -0.097  -1.551   0.655  0.00  0.00     0.002 A 
ATOM      4  C4  I4B d   1      -1.234  -1.064   1.268  0.00  0.00    -0.004 A 
ATOM      5  C5  I4B d   1      -2.488  -1.532   0.886  0.00  0.00     0.002 A 
ATOM      6  C6  I4B d   1      -2.602  -2.472  -0.148  0.00  0.00     0.003 A 
ENDROOT
BRANCH   1   7
ATOM      7  C1' I4B d   1      -1.557  -3.862  -1.957  0.00  0.00     0.060 C 
BRANCH   7   8
ATOM      8  C2' I4B d   1      -1.484  -5.273  -1.410  0.00  0.00    -0.013 C 
ATOM      9  C4' I4B d   1      -2.792  -5.997  -1.594  0.00  0.00     0.013 C 
ATOM     10  C3' I4B d   1      -0.368  -5.985  -2.114  0.00  0.00     0.013 C 
ENDBRANCH   7   8
ENDBRANCH   1   7
TORSDOF 2
ENDMDL
