MODEL 1
REMARK minimizedAffinity 9.38484573
REMARK minimizedRMSD -1
REMARK  2 active torsions:
REMARK  status: ('A' for Active; 'I' for Inactive)
REMARK    1  A    between atoms: C2'_3  and  C1'_4 
REMARK    2  A    between atoms: C1'_4  and  C1_5 
ROOT
ATOM      1  C1  I4B d   1       2.695   2.009   1.716  0.00  0.00    -0.075 A 
ATOM      2  C2  I4B d   1       3.948   1.491   1.930  0.00  0.00     0.003 A 
ATOM      3  C3  I4B d   1       4.971   2.302   2.477  0.00  0.00     0.002 A 
ATOM      4  C4  I4B d   1       4.713   3.631   2.747  0.00  0.00    -0.004 A 
ATOM      5  C5  I4B d   1       3.436   4.149   2.550  0.00  0.00     0.002 A 
ATOM      6  C6  I4B d   1       2.417   3.329   2.044  0.00  0.00     0.003 A 
ENDROOT
BRANCH   1   7
ATOM      7  C1' I4B d   1       1.647   1.132   1.106  0.00  0.00     0.060 C 
BRANCH   7   8
ATOM      8  C2' I4B d   1       2.347   0.083   0.267  0.00  0.00    -0.013 C 
ATOM      9  C4' I4B d   1       1.517  -1.169   0.156  0.00  0.00     0.013 C 
ATOM     10  C3' I4B d   1       2.617   0.675  -1.084  0.00  0.00     0.013 C 
ENDBRANCH   7   8
ENDBRANCH   1   7
TORSDOF 2
ENDMDL
