MODEL 1
REMARK minimizedAffinity 6.52549458
REMARK minimizedRMSD -1
REMARK  2 active torsions:
REMARK  status: ('A' for Active; 'I' for Inactive)
REMARK    1  A    between atoms: C2'_3  and  C1'_4 
REMARK    2  A    between atoms: C1'_4  and  C1_5 
ROOT
ATOM      1  C1  I4B d   1       2.624   1.839   1.538  0.00  0.00    -0.075 A 
ATOM      2  C2  I4B d   1       3.978   1.617   1.540  0.00  0.00     0.003 A 
ATOM      3  C3  I4B d   1       4.846   2.512   2.211  0.00  0.00     0.002 A 
ATOM      4  C4  I4B d   1       4.326   3.636   2.819  0.00  0.00    -0.004 A 
ATOM      5  C5  I4B d   1       2.950   3.848   2.834  0.00  0.00     0.002 A 
ATOM      6  C6  I4B d   1       2.092   2.937   2.201  0.00  0.00     0.003 A 
ENDROOT
BRANCH   1   7
ATOM      7  C1' I4B d   1       1.740   0.891   0.792  0.00  0.00     0.060 C 
BRANCH   7   8
ATOM      8  C2' I4B d   1       2.626  -0.094   0.056  0.00  0.00    -0.013 C 
ATOM      9  C4' I4B d   1       1.961  -1.439  -0.068  0.00  0.00     0.013 C 
ATOM     10  C3' I4B d   1       2.937   0.483  -1.293  0.00  0.00     0.013 C 
ENDBRANCH   7   8
ENDBRANCH   1   7
TORSDOF 2
ENDMDL
