MODEL 1
REMARK minimizedAffinity 14.1203804
REMARK minimizedRMSD -1
REMARK  2 active torsions:
REMARK  status: ('A' for Active; 'I' for Inactive)
REMARK    1  A    between atoms: C2'_3  and  C1'_4 
REMARK    2  A    between atoms: C1'_4  and  C1_5 
ROOT
ATOM      1  C1  I4B d   1      -2.118  -2.666  -0.284  0.00  0.00    -0.075 A 
ATOM      2  C2  I4B d   1      -3.114  -1.866   0.216  0.00  0.00     0.003 A 
ATOM      3  C3  I4B d   1      -2.798  -0.791   1.082  0.00  0.00     0.002 A 
ATOM      4  C4  I4B d   1      -1.486  -0.585   1.458  0.00  0.00    -0.004 A 
ATOM      5  C5  I4B d   1      -0.475  -1.383   0.931  0.00  0.00     0.002 A 
ATOM      6  C6  I4B d   1      -0.791  -2.423   0.045  0.00  0.00     0.003 A 
ENDROOT
BRANCH   1   7
ATOM      7  C1' I4B d   1      -2.491  -3.813  -1.169  0.00  0.00     0.060 C 
BRANCH   7   8
ATOM      8  C2' I4B d   1      -2.072  -5.093  -0.477  0.00  0.00    -0.013 C 
ATOM      9  C4' I4B d   1      -3.254  -5.996  -0.236  0.00  0.00     0.013 C 
ATOM     10  C3' I4B d   1      -1.042  -5.767  -1.333  0.00  0.00     0.013 C 
ENDBRANCH   7   8
ENDBRANCH   1   7
TORSDOF 2
ENDMDL
