MODEL 1
REMARK minimizedAffinity 12.8975086
REMARK minimizedRMSD -1
REMARK  2 active torsions:
REMARK  status: ('A' for Active; 'I' for Inactive)
REMARK    1  A    between atoms: C2'_3  and  C1'_4 
REMARK    2  A    between atoms: C1'_4  and  C1_5 
ROOT
ATOM      1  C1  I4B d   1       2.458   1.866   1.867  0.00  0.00    -0.075 A 
ATOM      2  C2  I4B d   1       3.785   1.527   1.965  0.00  0.00     0.003 A 
ATOM      3  C3  I4B d   1       4.738   2.489   2.380  0.00  0.00     0.002 A 
ATOM      4  C4  I4B d   1       4.331   3.783   2.635  0.00  0.00    -0.004 A 
ATOM      5  C5  I4B d   1       2.982   4.119   2.557  0.00  0.00     0.002 A 
ATOM      6  C6  I4B d   1       2.038   3.152   2.183  0.00  0.00     0.003 A 
ENDROOT
BRANCH   1   7
ATOM      7  C1' I4B d   1       1.484   0.835   1.395  0.00  0.00     0.060 C 
BRANCH   7   8
ATOM      8  C2' I4B d   1       2.234  -0.153   0.525  0.00  0.00    -0.013 C 
ATOM      9  C4' I4B d   1       1.531  -1.484   0.479  0.00  0.00     0.013 C 
ATOM     10  C3' I4B d   1       2.359   0.441  -0.847  0.00  0.00     0.013 C 
ENDBRANCH   7   8
ENDBRANCH   1   7
TORSDOF 2
ENDMDL
