MODEL 1
REMARK minimizedAffinity 8.64786911
REMARK minimizedRMSD -1
REMARK  2 active torsions:
REMARK  status: ('A' for Active; 'I' for Inactive)
REMARK    1  A    between atoms: C2'_3  and  C1'_4 
REMARK    2  A    between atoms: C1'_4  and  C1_5 
ROOT
ATOM      1  C1  I4B d   1      -1.652  -3.131  -0.069  0.00  0.00    -0.075 A 
ATOM      2  C2  I4B d   1      -0.691  -4.078  -0.317  0.00  0.00     0.003 A 
ATOM      3  C3  I4B d   1      -0.793  -4.916  -1.455  0.00  0.00     0.002 A 
ATOM      4  C4  I4B d   1      -1.891  -4.806  -2.283  0.00  0.00    -0.004 A 
ATOM      5  C5  I4B d   1      -2.853  -3.830  -2.042  0.00  0.00     0.002 A 
ATOM      6  C6  I4B d   1      -2.727  -2.978  -0.935  0.00  0.00     0.003 A 
ENDROOT
BRANCH   1   7
ATOM      7  C1' I4B d   1      -1.530  -2.285   1.159  0.00  0.00     0.060 C 
BRANCH   7   8
ATOM      8  C2' I4B d   1      -2.854  -1.581   1.374  0.00  0.00    -0.013 C 
ATOM      9  C4' I4B d   1      -3.578  -2.134   2.573  0.00  0.00     0.013 C 
ATOM     10  C3' I4B d   1      -2.578  -0.116   1.537  0.00  0.00     0.013 C 
ENDBRANCH   7   8
ENDBRANCH   1   7
TORSDOF 2
ENDMDL
