MODEL 1
REMARK minimizedAffinity 8.6263876
REMARK minimizedRMSD -1
REMARK  2 active torsions:
REMARK  status: ('A' for Active; 'I' for Inactive)
REMARK    1  A    between atoms: C2'_3  and  C1'_4 
REMARK    2  A    between atoms: C1'_4  and  C1_5 
ROOT
ATOM      1  C1  I4B d   1       3.844   4.148   3.006  0.00  0.00    -0.075 A 
ATOM      2  C2  I4B d   1       2.538   3.784   2.795  0.00  0.00     0.003 A 
ATOM      3  C3  I4B d   1       2.232   2.523   2.229  0.00  0.00     0.002 A 
ATOM      4  C4  I4B d   1       3.257   1.684   1.844  0.00  0.00    -0.004 A 
ATOM      5  C5  I4B d   1       4.581   2.045   2.079  0.00  0.00     0.002 A 
ATOM      6  C6  I4B d   1       4.876   3.280   2.675  0.00  0.00     0.003 A 
ENDROOT
BRANCH   1   7
ATOM      7  C1' I4B d   1       4.132   5.501   3.575  0.00  0.00     0.060 C 
BRANCH   7   8
ATOM      8  C2' I4B d   1       4.251   5.359   5.079  0.00  0.00    -0.013 C 
ATOM      9  C4' I4B d   1       5.518   5.994   5.589  0.00  0.00     0.013 C 
ATOM     10  C3' I4B d   1       3.041   5.990   5.700  0.00  0.00     0.013 C 
ENDBRANCH   7   8
ENDBRANCH   1   7
TORSDOF 2
ENDMDL
