MODEL 1
REMARK minimizedAffinity 12.1681318
REMARK minimizedRMSD -1
REMARK  2 active torsions:
REMARK  status: ('A' for Active; 'I' for Inactive)
REMARK    1  A    between atoms: C2'_3  and  C1'_4 
REMARK    2  A    between atoms: C1'_4  and  C1_5 
ROOT
ATOM      1  C1  I4B d   1       4.896   4.270   3.118  0.00  0.00    -0.075 A 
ATOM      2  C2  I4B d   1       5.460   3.331   3.944  0.00  0.00     0.003 A 
ATOM      3  C3  I4B d   1       6.000   3.715   5.196  0.00  0.00     0.002 A 
ATOM      4  C4  I4B d   1       5.999   5.047   5.556  0.00  0.00    -0.004 A 
ATOM      5  C5  I4B d   1       5.406   5.995   4.727  0.00  0.00     0.002 A 
ATOM      6  C6  I4B d   1       4.840   5.603   3.505  0.00  0.00     0.003 A 
ENDROOT
BRANCH   1   7
ATOM      7  C1' I4B d   1       4.365   3.835   1.789  0.00  0.00     0.060 C 
BRANCH   7   8
ATOM      8  C2' I4B d   1       2.859   3.721   1.902  0.00  0.00    -0.013 C 
ATOM      9  C4' I4B d   1       2.169   4.528   0.835  0.00  0.00     0.013 C 
ATOM     10  C3' I4B d   1       2.496   2.269   1.802  0.00  0.00     0.013 C 
ENDBRANCH   7   8
ENDBRANCH   1   7
TORSDOF 2
ENDMDL
