MODEL 1
REMARK minimizedAffinity 4.20078135
REMARK minimizedRMSD -1
REMARK  2 active torsions:
REMARK  status: ('A' for Active; 'I' for Inactive)
REMARK    1  A    between atoms: C2'_3  and  C1'_4 
REMARK    2  A    between atoms: C1'_4  and  C1_5 
ROOT
ATOM      1  C1  I4B d   1       4.109   3.531   2.694  0.00  0.00    -0.075 A 
ATOM      2  C2  I4B d   1       4.169   4.708   3.397  0.00  0.00     0.003 A 
ATOM      3  C3  I4B d   1       5.144   4.885   4.409  0.00  0.00     0.002 A 
ATOM      4  C4  I4B d   1       6.000   3.848   4.717  0.00  0.00    -0.004 A 
ATOM      5  C5  I4B d   1       5.953   2.663   3.988  0.00  0.00     0.002 A 
ATOM      6  C6  I4B d   1       5.010   2.508   2.962  0.00  0.00     0.003 A 
ENDROOT
BRANCH   1   7
ATOM      7  C1' I4B d   1       3.046   3.366   1.655  0.00  0.00     0.060 C 
BRANCH   7   8
ATOM      8  C2' I4B d   1       2.063   2.326   2.154  0.00  0.00    -0.013 C 
ATOM      9  C4' I4B d   1       0.908   2.970   2.875  0.00  0.00     0.013 C 
ATOM     10  C3' I4B d   1       1.590   1.532   0.974  0.00  0.00     0.013 C 
ENDBRANCH   7   8
ENDBRANCH   1   7
TORSDOF 2
ENDMDL
