MODEL 1
REMARK minimizedAffinity 4.18063021
REMARK minimizedRMSD -1
REMARK  2 active torsions:
REMARK  status: ('A' for Active; 'I' for Inactive)
REMARK    1  A    between atoms: C2'_3  and  C1'_4 
REMARK    2  A    between atoms: C1'_4  and  C1_5 
ROOT
ATOM      1  C1  I4B d   1      -0.255  -2.779   0.107  0.00  0.00    -0.075 A 
ATOM      2  C2  I4B d   1      -1.357  -1.980   0.286  0.00  0.00     0.003 A 
ATOM      3  C3  I4B d   1      -2.577  -2.292  -0.361  0.00  0.00     0.002 A 
ATOM      4  C4  I4B d   1      -2.636  -3.376  -1.213  0.00  0.00    -0.004 A 
ATOM      5  C5  I4B d   1      -1.525  -4.198  -1.376  0.00  0.00     0.002 A 
ATOM      6  C6  I4B d   1      -0.330  -3.905  -0.702  0.00  0.00     0.003 A 
ENDROOT
BRANCH   1   7
ATOM      7  C1' I4B d   1       1.026  -2.401   0.780  0.00  0.00     0.060 C 
BRANCH   7   8
ATOM      8  C2' I4B d   1       1.718  -1.364  -0.082  0.00  0.00    -0.013 C 
ATOM      9  C4' I4B d   1       1.627   0.006   0.535  0.00  0.00     0.013 C 
ATOM     10  C3' I4B d   1       3.147  -1.786  -0.256  0.00  0.00     0.013 C 
ENDBRANCH   7   8
ENDBRANCH   1   7
TORSDOF 2
ENDMDL
