MODEL 1
REMARK minimizedAffinity 2.05857086
REMARK minimizedRMSD -1
REMARK  2 active torsions:
REMARK  status: ('A' for Active; 'I' for Inactive)
REMARK    1  A    between atoms: C2'_3  and  C1'_4 
REMARK    2  A    between atoms: C1'_4  and  C1_5 
ROOT
ATOM      1  C1  I4B d   1      -1.331  -4.718  -0.936  0.00  0.00    -0.075 A 
ATOM      2  C2  I4B d   1      -2.013  -5.866  -0.618  0.00  0.00     0.003 A 
ATOM      3  C3  I4B d   1      -3.381  -6.000  -0.958  0.00  0.00     0.002 A 
ATOM      4  C4  I4B d   1      -4.036  -4.949  -1.567  0.00  0.00    -0.004 A 
ATOM      5  C5  I4B d   1      -3.337  -3.795  -1.910  0.00  0.00     0.002 A 
ATOM      6  C6  I4B d   1      -1.973  -3.683  -1.604  0.00  0.00     0.003 A 
ENDROOT
BRANCH   1   7
ATOM      7  C1' I4B d   1       0.104  -4.597  -0.532  0.00  0.00     0.060 C 
BRANCH   7   8
ATOM      8  C2' I4B d   1       0.193  -3.561   0.570  0.00  0.00    -0.013 C 
ATOM      9  C4' I4B d   1       0.668  -4.178   1.860  0.00  0.00     0.013 C 
ATOM     10  C3' I4B d   1       1.123  -2.477   0.114  0.00  0.00     0.013 C 
ENDBRANCH   7   8
ENDBRANCH   1   7
TORSDOF 2
ENDMDL
