MODEL 1
REMARK minimizedAffinity 10.1036949
REMARK minimizedRMSD -1
REMARK  2 active torsions:
REMARK  status: ('A' for Active; 'I' for Inactive)
REMARK    1  A    between atoms: C2'_3  and  C1'_4 
REMARK    2  A    between atoms: C1'_4  and  C1_5 
ROOT
ATOM      1  C1  I4B d   1      -2.113  -4.058  -1.185  0.00  0.00    -0.075 A 
ATOM      2  C2  I4B d   1      -1.212  -3.419  -0.370  0.00  0.00     0.003 A 
ATOM      3  C3  I4B d   1       0.028  -4.031  -0.061  0.00  0.00     0.002 A 
ATOM      4  C4  I4B d   1       0.302  -5.294  -0.545  0.00  0.00    -0.004 A 
ATOM      5  C5  I4B d   1      -0.603  -5.930  -1.390  0.00  0.00     0.002 A 
ATOM      6  C6  I4B d   1      -1.813  -5.303  -1.722  0.00  0.00     0.003 A 
ENDROOT
BRANCH   1   7
ATOM      7  C1' I4B d   1      -3.426  -3.397  -1.464  0.00  0.00     0.060 C 
BRANCH   7   8
ATOM      8  C2' I4B d   1      -3.336  -1.961  -0.990  0.00  0.00    -0.013 C 
ATOM      9  C4' I4B d   1      -4.517  -1.156  -1.463  0.00  0.00     0.013 C 
ATOM     10  C3' I4B d   1      -3.254  -1.972   0.507  0.00  0.00     0.013 C 
ENDBRANCH   7   8
ENDBRANCH   1   7
TORSDOF 2
ENDMDL
