MODEL 1
REMARK minimizedAffinity 10.2949982
REMARK minimizedRMSD -1
REMARK  2 active torsions:
REMARK  status: ('A' for Active; 'I' for Inactive)
REMARK    1  A    between atoms: C2'_3  and  C1'_4 
REMARK    2  A    between atoms: C1'_4  and  C1_5 
ROOT
ATOM      1  C1  I4B d   1       3.623   1.353   1.585  0.00  0.00    -0.075 A 
ATOM      2  C2  I4B d   1       4.716   2.082   1.981  0.00  0.00     0.003 A 
ATOM      3  C3  I4B d   1       4.544   3.315   2.656  0.00  0.00     0.002 A 
ATOM      4  C4  I4B d   1       3.270   3.802   2.867  0.00  0.00    -0.004 A 
ATOM      5  C5  I4B d   1       2.163   3.050   2.485  0.00  0.00     0.002 A 
ATOM      6  C6  I4B d   1       2.339   1.812   1.851  0.00  0.00     0.003 A 
ENDROOT
BRANCH   1   7
ATOM      7  C1' I4B d   1       3.841   0.071   0.846  0.00  0.00     0.060 C 
BRANCH   7   8
ATOM      8  C2' I4B d   1       2.681  -0.121  -0.110  0.00  0.00    -0.013 C 
ATOM      9  C4' I4B d   1       3.114   0.073  -1.539  0.00  0.00     0.013 C 
ATOM     10  C3' I4B d   1       2.126  -1.497   0.106  0.00  0.00     0.013 C 
ENDBRANCH   7   8
ENDBRANCH   1   7
TORSDOF 2
ENDMDL
