MODEL 1
REMARK minimizedAffinity 11.9809837
REMARK minimizedRMSD -1
REMARK  2 active torsions:
REMARK  status: ('A' for Active; 'I' for Inactive)
REMARK    1  A    between atoms: C2'_3  and  C1'_4 
REMARK    2  A    between atoms: C1'_4  and  C1_5 
ROOT
ATOM      1  C1  I4B d   1      -2.006   0.793  -3.377  0.00  0.00    -0.075 A 
ATOM      2  C2  I4B d   1      -2.851   1.808  -3.751  0.00  0.00     0.003 A 
ATOM      3  C3  I4B d   1      -2.331   2.988  -4.335  0.00  0.00     0.002 A 
ATOM      4  C4  I4B d   1      -0.967   3.132  -4.480  0.00  0.00    -0.004 A 
ATOM      5  C5  I4B d   1      -0.113   2.092  -4.121  0.00  0.00     0.002 A 
ATOM      6  C6  I4B d   1      -0.636   0.910  -3.578  0.00  0.00     0.003 A 
ENDROOT
BRANCH   1   7
ATOM      7  C1' I4B d   1      -2.585  -0.427  -2.733  0.00  0.00     0.060 C 
BRANCH   7   8
ATOM      8  C2' I4B d   1      -1.446  -1.216  -2.119  0.00  0.00    -0.013 C 
ATOM      9  C4' I4B d   1      -1.805  -1.710  -0.742  0.00  0.00     0.013 C 
ATOM     10  C3' I4B d   1      -1.126  -2.357  -3.037  0.00  0.00     0.013 C 
ENDBRANCH   7   8
ENDBRANCH   1   7
TORSDOF 2
ENDMDL
