MODEL 1
REMARK minimizedAffinity 20.5708847
REMARK minimizedRMSD -1
REMARK  2 active torsions:
REMARK  status: ('A' for Active; 'I' for Inactive)
REMARK    1  A    between atoms: C2'_3  and  C1'_4 
REMARK    2  A    between atoms: C1'_4  and  C1_5 
ROOT
ATOM      1  C1  I4B d   1      -3.751   3.940  -4.845  0.00  0.00    -0.075 A 
ATOM      2  C2  I4B d   1      -5.026   3.818  -5.340  0.00  0.00     0.003 A 
ATOM      3  C3  I4B d   1      -6.000   4.804  -5.049  0.00  0.00     0.002 A 
ATOM      4  C4  I4B d   1      -5.672   5.861  -4.225  0.00  0.00    -0.004 A 
ATOM      5  C5  I4B d   1      -4.373   5.995  -3.744  0.00  0.00     0.002 A 
ATOM      6  C6  I4B d   1      -3.403   5.035  -4.066  0.00  0.00     0.003 A 
ENDROOT
BRANCH   1   7
ATOM      7  C1' I4B d   1      -2.756   2.864  -5.144  0.00  0.00     0.060 C 
BRANCH   7   8
ATOM      8  C2' I4B d   1      -1.913   2.649  -3.903  0.00  0.00    -0.013 C 
ATOM      9  C4' I4B d   1      -2.320   1.394  -3.178  0.00  0.00     0.013 C 
ATOM     10  C3' I4B d   1      -0.475   2.589  -4.325  0.00  0.00     0.013 C 
ENDBRANCH   7   8
ENDBRANCH   1   7
TORSDOF 2
ENDMDL
