MODEL 1
REMARK minimizedAffinity 19.7369156
REMARK minimizedRMSD -1
REMARK  2 active torsions:
REMARK  status: ('A' for Active; 'I' for Inactive)
REMARK    1  A    between atoms: C2'_3  and  C1'_4 
REMARK    2  A    between atoms: C1'_4  and  C1_5 
ROOT
ATOM      1  C1  I4B d   1      -1.772   0.833  -3.251  0.00  0.00    -0.075 A 
ATOM      2  C2  I4B d   1      -0.436   0.984  -3.527  0.00  0.00     0.003 A 
ATOM      3  C3  I4B d   1       0.034   2.163  -4.155  0.00  0.00     0.002 A 
ATOM      4  C4  I4B d   1      -0.868   3.137  -4.533  0.00  0.00    -0.004 A 
ATOM      5  C5  I4B d   1      -2.219   2.993  -4.231  0.00  0.00     0.002 A 
ATOM      6  C6  I4B d   1      -2.673   1.839  -3.575  0.00  0.00     0.003 A 
ENDROOT
BRANCH   1   7
ATOM      7  C1' I4B d   1      -2.238  -0.439  -2.617  0.00  0.00     0.060 C 
BRANCH   7   8
ATOM      8  C2' I4B d   1      -1.038  -1.110  -1.981  0.00  0.00    -0.013 C 
ATOM      9  C4' I4B d   1      -1.430  -1.857  -0.733  0.00  0.00     0.013 C 
ATOM     10  C3' I4B d   1      -0.431  -2.032  -2.995  0.00  0.00     0.013 C 
ENDBRANCH   7   8
ENDBRANCH   1   7
TORSDOF 2
ENDMDL
