MODEL 1
REMARK minimizedAffinity 13.5009804
REMARK minimizedRMSD -1
REMARK  2 active torsions:
REMARK  status: ('A' for Active; 'I' for Inactive)
REMARK    1  A    between atoms: C2'_3  and  C1'_4 
REMARK    2  A    between atoms: C1'_4  and  C1_5 
ROOT
ATOM      1  C1  I4B d   1       0.090   0.758  -3.760  0.00  0.00    -0.075 A 
ATOM      2  C2  I4B d   1       0.630   1.914  -4.267  0.00  0.00     0.003 A 
ATOM      3  C3  I4B d   1      -0.204   3.016  -4.574  0.00  0.00     0.002 A 
ATOM      4  C4  I4B d   1      -1.569   2.902  -4.408  0.00  0.00    -0.004 A 
ATOM      5  C5  I4B d   1      -2.113   1.738  -3.872  0.00  0.00     0.002 A 
ATOM      6  C6  I4B d   1      -1.277   0.664  -3.535  0.00  0.00     0.003 A 
ENDROOT
BRANCH   1   7
ATOM      7  C1' I4B d   1       0.996  -0.398  -3.478  0.00  0.00     0.060 C 
BRANCH   7   8
ATOM      8  C2' I4B d   1       2.278   0.149  -2.884  0.00  0.00    -0.013 C 
ATOM      9  C4' I4B d   1       2.284   0.015  -1.383  0.00  0.00     0.013 C 
ATOM     10  C3' I4B d   1       3.427  -0.595  -3.498  0.00  0.00     0.013 C 
ENDBRANCH   7   8
ENDBRANCH   1   7
TORSDOF 2
ENDMDL
