MODEL 1
REMARK minimizedAffinity 10.5690851
REMARK minimizedRMSD -1
REMARK  2 active torsions:
REMARK  status: ('A' for Active; 'I' for Inactive)
REMARK    1  A    between atoms: C2'_3  and  C1'_4 
REMARK    2  A    between atoms: C1'_4  and  C1_5 
ROOT
ATOM      1  C1  I4B d   1       4.097   2.767   3.473  0.00  0.00    -0.075 A 
ATOM      2  C2  I4B d   1       5.097   3.656   3.777  0.00  0.00     0.003 A 
ATOM      3  C3  I4B d   1       5.017   4.445   4.950  0.00  0.00     0.002 A 
ATOM      4  C4  I4B d   1       3.903   4.350   5.759  0.00  0.00    -0.004 A 
ATOM      5  C5  I4B d   1       2.901   3.431   5.461  0.00  0.00     0.002 A 
ATOM      6  C6  I4B d   1       3.003   2.626   4.318  0.00  0.00     0.003 A 
ENDROOT
BRANCH   1   7
ATOM      7  C1' I4B d   1       4.198   1.973   2.209  0.00  0.00     0.060 C 
BRANCH   7   8
ATOM      8  C2' I4B d   1       3.500   2.752   1.112  0.00  0.00    -0.013 C 
ATOM      9  C4' I4B d   1       4.468   3.635   0.370  0.00  0.00     0.013 C 
ATOM     10  C3' I4B d   1       2.848   1.767   0.188  0.00  0.00     0.013 C 
ENDBRANCH   7   8
ENDBRANCH   1   7
TORSDOF 2
ENDMDL
