MODEL 1
REMARK minimizedAffinity 24.5911274
REMARK minimizedRMSD -1
REMARK  2 active torsions:
REMARK  status: ('A' for Active; 'I' for Inactive)
REMARK    1  A    between atoms: C2'_3  and  C1'_4 
REMARK    2  A    between atoms: C1'_4  and  C1_5 
ROOT
ATOM      1  C1  I4B d   1      -1.218  -2.978   0.346  0.00  0.00    -0.075 A 
ATOM      2  C2  I4B d   1      -2.318  -2.875   1.161  0.00  0.00     0.003 A 
ATOM      3  C3  I4B d   1      -3.388  -2.017   0.809  0.00  0.00     0.002 A 
ATOM      4  C4  I4B d   1      -3.294  -1.246  -0.332  0.00  0.00    -0.004 A 
ATOM      5  C5  I4B d   1      -2.187  -1.368  -1.168  0.00  0.00     0.002 A 
ATOM      6  C6  I4B d   1      -1.148  -2.249  -0.833  0.00  0.00     0.003 A 
ENDROOT
BRANCH   1   7
ATOM      7  C1' I4B d   1      -0.092  -3.870   0.765  0.00  0.00     0.060 C 
BRANCH   7   8
ATOM      8  C2' I4B d   1      -0.640  -5.274   0.914  0.00  0.00    -0.013 C 
ATOM      9  C4' I4B d   1      -0.661  -5.995  -0.408  0.00  0.00     0.013 C 
ATOM     10  C3' I4B d   1       0.211  -6.000   1.913  0.00  0.00     0.013 C 
ENDBRANCH   7   8
ENDBRANCH   1   7
TORSDOF 2
ENDMDL
