MODEL 1
REMARK minimizedAffinity 13.2699518
REMARK minimizedRMSD -1
REMARK  2 active torsions:
REMARK  status: ('A' for Active; 'I' for Inactive)
REMARK    1  A    between atoms: C2'_3  and  C1'_4 
REMARK    2  A    between atoms: C1'_4  and  C1_5 
ROOT
ATOM      1  C1  I4B d   1      -1.086  -2.875  -0.151  0.00  0.00    -0.075 A 
ATOM      2  C2  I4B d   1      -2.089  -2.436   0.677  0.00  0.00     0.003 A 
ATOM      3  C3  I4B d   1      -3.007  -1.455   0.229  0.00  0.00     0.002 A 
ATOM      4  C4  I4B d   1      -2.855  -0.907  -1.029  0.00  0.00    -0.004 A 
ATOM      5  C5  I4B d   1      -1.851  -1.370  -1.876  0.00  0.00     0.002 A 
ATOM      6  C6  I4B d   1      -0.969  -2.368  -1.439  0.00  0.00     0.003 A 
ENDROOT
BRANCH   1   7
ATOM      7  C1' I4B d   1      -0.115  -3.887   0.367  0.00  0.00     0.060 C 
BRANCH   7   8
ATOM      8  C2' I4B d   1      -0.830  -5.221   0.449  0.00  0.00    -0.013 C 
ATOM      9  C4' I4B d   1      -0.720  -5.979  -0.847  0.00  0.00     0.013 C 
ATOM     10  C3' I4B d   1      -0.232  -5.997   1.584  0.00  0.00     0.013 C 
ENDBRANCH   7   8
ENDBRANCH   1   7
TORSDOF 2
ENDMDL
