MODEL 1
REMARK minimizedAffinity 16.4227734
REMARK minimizedRMSD -1
REMARK  2 active torsions:
REMARK  status: ('A' for Active; 'I' for Inactive)
REMARK    1  A    between atoms: C2'_3  and  C1'_4 
REMARK    2  A    between atoms: C1'_4  and  C1_5 
ROOT
ATOM      1  C1  I4B d   1      -0.587  -1.434  -1.930  0.00  0.00    -0.075 A 
ATOM      2  C2  I4B d   1      -0.428  -2.509  -1.092  0.00  0.00     0.003 A 
ATOM      3  C3  I4B d   1      -1.470  -2.884  -0.209  0.00  0.00     0.002 A 
ATOM      4  C4  I4B d   1      -2.625  -2.131  -0.162  0.00  0.00    -0.004 A 
ATOM      5  C5  I4B d   1      -2.793  -1.055  -1.028  0.00  0.00     0.002 A 
ATOM      6  C6  I4B d   1      -1.773  -0.711  -1.927  0.00  0.00     0.003 A 
ENDROOT
BRANCH   1   7
ATOM      7  C1' I4B d   1       0.546  -1.045  -2.826  0.00  0.00     0.060 C 
BRANCH   7   8
ATOM      8  C2' I4B d   1       1.658  -0.491  -1.958  0.00  0.00    -0.013 C 
ATOM      9  C4' I4B d   1       2.972  -1.161  -2.264  0.00  0.00     0.013 C 
ATOM     10  C3' I4B d   1       1.736   0.988  -2.193  0.00  0.00     0.013 C 
ENDBRANCH   7   8
ENDBRANCH   1   7
TORSDOF 2
ENDMDL
