MODEL 1
REMARK minimizedAffinity 9.87859821
REMARK minimizedRMSD -1
REMARK  2 active torsions:
REMARK  status: ('A' for Active; 'I' for Inactive)
REMARK    1  A    between atoms: C2'_3  and  C1'_4 
REMARK    2  A    between atoms: C1'_4  and  C1_5 
ROOT
ATOM      1  C1  I4B d   1      -2.001  -2.876   2.259  0.00  0.00    -0.075 A 
ATOM      2  C2  I4B d   1      -2.186  -1.950   1.264  0.00  0.00     0.003 A 
ATOM      3  C3  I4B d   1      -1.696  -2.198  -0.041  0.00  0.00     0.002 A 
ATOM      4  C4  I4B d   1      -0.987  -3.355  -0.292  0.00  0.00    -0.004 A 
ATOM      5  C5  I4B d   1      -0.820  -4.304   0.713  0.00  0.00     0.002 A 
ATOM      6  C6  I4B d   1      -1.341  -4.069   1.994  0.00  0.00     0.003 A 
ENDROOT
BRANCH   1   7
ATOM      7  C1' I4B d   1      -2.503  -2.567   3.634  0.00  0.00     0.060 C 
BRANCH   7   8
ATOM      8  C2' I4B d   1      -1.617  -1.488   4.223  0.00  0.00    -0.013 C 
ATOM      9  C4' I4B d   1      -2.437  -0.359   4.789  0.00  0.00     0.013 C 
ATOM     10  C3' I4B d   1      -0.760  -2.118   5.280  0.00  0.00     0.013 C 
ENDBRANCH   7   8
ENDBRANCH   1   7
TORSDOF 2
ENDMDL
