MODEL 1
REMARK minimizedAffinity 6.20136547
REMARK minimizedRMSD -1
REMARK  2 active torsions:
REMARK  status: ('A' for Active; 'I' for Inactive)
REMARK    1  A    between atoms: C2'_3  and  C1'_4 
REMARK    2  A    between atoms: C1'_4  and  C1_5 
ROOT
ATOM      1  C1  I4B d   1      -1.759   2.256  -4.075  0.00  0.00    -0.075 A 
ATOM      2  C2  I4B d   1      -0.415   2.533  -4.107  0.00  0.00     0.003 A 
ATOM      3  C3  I4B d   1       0.103   3.437  -5.066  0.00  0.00     0.002 A 
ATOM      4  C4  I4B d   1      -0.745   3.997  -6.000  0.00  0.00    -0.004 A 
ATOM      5  C5  I4B d   1      -2.110   3.732  -5.952  0.00  0.00     0.002 A 
ATOM      6  C6  I4B d   1      -2.623   2.866  -4.976  0.00  0.00     0.003 A 
ENDROOT
BRANCH   1   7
ATOM      7  C1' I4B d   1      -2.268   1.271  -3.071  0.00  0.00     0.060 C 
BRANCH   7   8
ATOM      8  C2' I4B d   1      -1.587  -0.057  -3.332  0.00  0.00    -0.013 C 
ATOM      9  C4' I4B d   1      -0.109   0.123  -3.557  0.00  0.00     0.013 C 
ATOM     10  C3' I4B d   1      -1.851  -0.952  -2.158  0.00  0.00     0.013 C 
ENDBRANCH   7   8
ENDBRANCH   1   7
TORSDOF 2
ENDMDL
