MODEL 1
REMARK minimizedAffinity 21.0161991
REMARK minimizedRMSD -1
REMARK  2 active torsions:
REMARK  status: ('A' for Active; 'I' for Inactive)
REMARK    1  A    between atoms: C2'_3  and  C1'_4 
REMARK    2  A    between atoms: C1'_4  and  C1_5 
ROOT
ATOM      1  C1  I4B d   1      -2.515   1.855  -4.222  0.00  0.00    -0.075 A 
ATOM      2  C2  I4B d   1      -1.251   2.131  -3.764  0.00  0.00     0.003 A 
ATOM      3  C3  I4B d   1      -0.451   3.098  -4.418  0.00  0.00     0.002 A 
ATOM      4  C4  I4B d   1      -0.932   3.726  -5.549  0.00  0.00    -0.004 A 
ATOM      5  C5  I4B d   1      -2.222   3.462  -5.998  0.00  0.00     0.002 A 
ATOM      6  C6  I4B d   1      -3.024   2.530  -5.324  0.00  0.00     0.003 A 
ENDROOT
BRANCH   1   7
ATOM      7  C1' I4B d   1      -3.320   0.804  -3.526  0.00  0.00     0.060 C 
BRANCH   7   8
ATOM      8  C2' I4B d   1      -2.544   0.351  -2.306  0.00  0.00    -0.013 C 
ATOM      9  C4' I4B d   1      -3.455   0.148  -1.125  0.00  0.00     0.013 C 
ATOM     10  C3' I4B d   1      -1.824  -0.916  -2.660  0.00  0.00     0.013 C 
ENDBRANCH   7   8
ENDBRANCH   1   7
TORSDOF 2
ENDMDL
