MODEL 1
REMARK minimizedAffinity 21.2465801
REMARK minimizedRMSD -1
REMARK  2 active torsions:
REMARK  status: ('A' for Active; 'I' for Inactive)
REMARK    1  A    between atoms: C2'_3  and  C1'_4 
REMARK    2  A    between atoms: C1'_4  and  C1_5 
ROOT
ATOM      1  C1  I4B d   1       1.127   1.610  -2.989  0.00  0.00    -0.075 A 
ATOM      2  C2  I4B d   1       0.566   0.409  -3.348  0.00  0.00     0.003 A 
ATOM      3  C3  I4B d   1       1.027  -0.796  -2.764  0.00  0.00     0.002 A 
ATOM      4  C4  I4B d   1       2.077  -0.760  -1.870  0.00  0.00    -0.004 A 
ATOM      5  C5  I4B d   1       2.630   0.460  -1.490  0.00  0.00     0.002 A 
ATOM      6  C6  I4B d   1       2.144   1.654  -2.043  0.00  0.00     0.003 A 
ENDROOT
BRANCH   1   7
ATOM      7  C1' I4B d   1       0.639   2.860  -3.649  0.00  0.00     0.060 C 
BRANCH   7   8
ATOM      8  C2' I4B d   1      -0.418   2.470  -4.663  0.00  0.00    -0.013 C 
ATOM      9  C4' I4B d   1      -1.772   2.999  -4.269  0.00  0.00     0.013 C 
ATOM     10  C3' I4B d   1       0.004   3.003  -6.000  0.00  0.00     0.013 C 
ENDBRANCH   7   8
ENDBRANCH   1   7
TORSDOF 2
ENDMDL
