MODEL 1
REMARK minimizedAffinity 7.23869658
REMARK minimizedRMSD -1
REMARK  2 active torsions:
REMARK  status: ('A' for Active; 'I' for Inactive)
REMARK    1  A    between atoms: C2'_3  and  C1'_4 
REMARK    2  A    between atoms: C1'_4  and  C1_5 
ROOT
ATOM      1  C1  I4B d   1      -3.662   4.103  -5.380  0.00  0.00    -0.075 A 
ATOM      2  C2  I4B d   1      -3.635   5.219  -4.582  0.00  0.00     0.003 A 
ATOM      3  C3  I4B d   1      -4.809   5.987  -4.389  0.00  0.00     0.002 A 
ATOM      4  C4  I4B d   1      -5.968   5.633  -5.049  0.00  0.00    -0.004 A 
ATOM      5  C5  I4B d   1      -6.000   4.488  -5.840  0.00  0.00     0.002 A 
ATOM      6  C6  I4B d   1      -4.843   3.711  -5.997  0.00  0.00     0.003 A 
ENDROOT
BRANCH   1   7
ATOM      7  C1' I4B d   1      -2.396   3.334  -5.588  0.00  0.00     0.060 C 
BRANCH   7   8
ATOM      8  C2' I4B d   1      -1.797   3.044  -4.227  0.00  0.00    -0.013 C 
ATOM      9  C4' I4B d   1      -2.632   2.050  -3.464  0.00  0.00     0.013 C 
ATOM     10  C3' I4B d   1      -0.402   2.534  -4.435  0.00  0.00     0.013 C 
ENDBRANCH   7   8
ENDBRANCH   1   7
TORSDOF 2
ENDMDL
