MODEL 1
REMARK minimizedAffinity 13.5971012
REMARK minimizedRMSD -1
REMARK  2 active torsions:
REMARK  status: ('A' for Active; 'I' for Inactive)
REMARK    1  A    between atoms: C2'_3  and  C1'_4 
REMARK    2  A    between atoms: C1'_4  and  C1_5 
ROOT
ATOM      1  C1  I4B d   1      -1.166  -3.401   1.124  0.00  0.00    -0.075 A 
ATOM      2  C2  I4B d   1      -2.074  -3.544   2.143  0.00  0.00     0.003 A 
ATOM      3  C3  I4B d   1      -3.274  -2.792   2.139  0.00  0.00     0.002 A 
ATOM      4  C4  I4B d   1      -3.500  -1.878   1.130  0.00  0.00    -0.004 A 
ATOM      5  C5  I4B d   1      -2.588  -1.752   0.085  0.00  0.00     0.002 A 
ATOM      6  C6  I4B d   1      -1.419  -2.527   0.076  0.00  0.00     0.003 A 
ENDROOT
BRANCH   1   7
ATOM      7  C1' I4B d   1       0.106  -4.187   1.178  0.00  0.00     0.060 C 
BRANCH   7   8
ATOM      8  C2' I4B d   1      -0.254  -5.659   1.190  0.00  0.00    -0.013 C 
ATOM      9  C4' I4B d   1      -1.124  -5.997   2.373  0.00  0.00     0.013 C 
ATOM     10  C3' I4B d   1      -0.948  -5.976  -0.101  0.00  0.00     0.013 C 
ENDBRANCH   7   8
ENDBRANCH   1   7
TORSDOF 2
ENDMDL
