MODEL 1
REMARK minimizedAffinity 9.24094009
REMARK minimizedRMSD -1
REMARK  2 active torsions:
REMARK  status: ('A' for Active; 'I' for Inactive)
REMARK    1  A    between atoms: C2'_3  and  C1'_4 
REMARK    2  A    between atoms: C1'_4  and  C1_5 
ROOT
ATOM      1  C1  I4B d   1      -1.665  -2.068  -0.807  0.00  0.00    -0.075 A 
ATOM      2  C2  I4B d   1      -2.382  -1.772   0.325  0.00  0.00     0.003 A 
ATOM      3  C3  I4B d   1      -2.287  -2.604   1.467  0.00  0.00     0.002 A 
ATOM      4  C4  I4B d   1      -1.508  -3.742   1.416  0.00  0.00    -0.004 A 
ATOM      5  C5  I4B d   1      -0.764  -4.028   0.275  0.00  0.00     0.002 A 
ATOM      6  C6  I4B d   1      -0.833  -3.180  -0.840  0.00  0.00     0.003 A 
ENDROOT
BRANCH   1   7
ATOM      7  C1' I4B d   1      -1.814  -1.186  -2.006  0.00  0.00     0.060 C 
BRANCH   7   8
ATOM      8  C2' I4B d   1      -0.921  -1.732  -3.101  0.00  0.00    -0.013 C 
ATOM      9  C4' I4B d   1      -1.733  -2.267  -4.251  0.00  0.00     0.013 C 
ATOM     10  C3' I4B d   1      -0.011  -0.628  -3.549  0.00  0.00     0.013 C 
ENDBRANCH   7   8
ENDBRANCH   1   7
TORSDOF 2
ENDMDL
