MODEL 1
REMARK minimizedAffinity 22.2147522
REMARK minimizedRMSD -1
REMARK  0 active torsions:
REMARK  status: ('A' for Active; 'I' for Inactive)
ROOT
ATOM      1  C   UNL d   1      -4.776  -0.608   3.160  0.00  0.00     0.124 A 
ATOM      2  C1  UNL d   1      -4.435  -1.754   3.866  0.00  0.00     0.062 A 
ATOM      3  C2  UNL d   1      -3.165  -1.882   4.420  0.00  0.00     0.162 A 
ATOM      4  C3  UNL d   1      -2.226  -0.861   4.271  0.00  0.00    -0.034 A 
ATOM      5  C4  UNL d   1      -2.576   0.288   3.559  0.00  0.00     0.162 A 
ATOM      6  C5  UNL d   1      -3.847   0.411   3.007  0.00  0.00     0.062 A 
ATOM      7  F   UNL d   1      -4.175   1.518   2.325  0.00  0.00    -0.097 F 
ATOM      8  F1  UNL d   1      -1.698   1.288   3.397  0.00  0.00    -0.096 F 
ATOM      9  I   UNL d   1      -0.325  -1.048   5.099  0.00  0.00    -0.060 I 
ATOM     10  F2  UNL d   1      -2.862  -2.999   5.097  0.00  0.00    -0.096 F 
ATOM     11  F3  UNL d   1      -5.331  -2.740   4.014  0.00  0.00    -0.097 F 
ATOM     12  F4  UNL d   1      -5.999  -0.488   2.627  0.00  0.00    -0.092 F 
ENDROOT
TORSDOF 0
ENDMDL
