MODEL 1
REMARK minimizedAffinity 22.2704563
REMARK minimizedRMSD -1
REMARK  0 active torsions:
REMARK  status: ('A' for Active; 'I' for Inactive)
ROOT
ATOM      1  C   UNL d   1      -2.828   1.507  -0.896  0.00  0.00     0.124 A 
ATOM      2  C1  UNL d   1      -3.984   0.825  -1.251  0.00  0.00     0.062 A 
ATOM      3  C2  UNL d   1      -4.891   0.427  -0.272  0.00  0.00     0.162 A 
ATOM      4  C3  UNL d   1      -4.645   0.710   1.071  0.00  0.00    -0.034 A 
ATOM      5  C4  UNL d   1      -3.480   1.395   1.421  0.00  0.00     0.162 A 
ATOM      6  C5  UNL d   1      -2.577   1.790   0.439  0.00  0.00     0.062 A 
ATOM      7  F   UNL d   1      -1.461   2.448   0.784  0.00  0.00    -0.097 F 
ATOM      8  F1  UNL d   1      -3.213   1.683   2.703  0.00  0.00    -0.096 F 
ATOM      9  I   UNL d   1      -5.998   0.116   2.537  0.00  0.00    -0.060 I 
ATOM     10  F2  UNL d   1      -6.000  -0.229  -0.644  0.00  0.00    -0.096 F 
ATOM     11  F3  UNL d   1      -4.229   0.549  -2.540  0.00  0.00    -0.097 F 
ATOM     12  F4  UNL d   1      -1.957   1.888  -1.839  0.00  0.00    -0.092 F 
ENDROOT
TORSDOF 0
ENDMDL
