MODEL 1
REMARK minimizedAffinity 19.9271622
REMARK minimizedRMSD -1
REMARK  0 active torsions:
REMARK  status: ('A' for Active; 'I' for Inactive)
ROOT
ATOM      1  C   UNL d   1      -4.541   0.538   3.072  0.00  0.00     0.124 A 
ATOM      2  C1  UNL d   1      -3.350   1.238   3.202  0.00  0.00     0.062 A 
ATOM      3  C2  UNL d   1      -2.248   0.638   3.805  0.00  0.00     0.162 A 
ATOM      4  C3  UNL d   1      -2.332  -0.669   4.283  0.00  0.00    -0.034 A 
ATOM      5  C4  UNL d   1      -3.534  -1.366   4.150  0.00  0.00     0.162 A 
ATOM      6  C5  UNL d   1      -4.632  -0.763   3.546  0.00  0.00     0.062 A 
ATOM      7  F   UNL d   1      -5.783  -1.441   3.422  0.00  0.00    -0.097 F 
ATOM      8  F1  UNL d   1      -3.650  -2.625   4.599  0.00  0.00    -0.096 F 
ATOM      9  I   UNL d   1      -0.687  -1.569   5.187  0.00  0.00    -0.060 I 
ATOM     10  F2  UNL d   1      -1.109   1.338   3.917  0.00  0.00    -0.096 F 
ATOM     11  F3  UNL d   1      -3.259   2.495   2.745  0.00  0.00    -0.097 F 
ATOM     12  F4  UNL d   1      -5.600   1.117   2.492  0.00  0.00    -0.092 F 
ENDROOT
TORSDOF 0
ENDMDL
