MODEL 1
REMARK minimizedAffinity 17.2893276
REMARK minimizedRMSD -1
REMARK  0 active torsions:
REMARK  status: ('A' for Active; 'I' for Inactive)
ROOT
ATOM      1  C   UNL d   1      -2.668   1.016   0.144  0.00  0.00     0.124 A 
ATOM      2  C1  UNL d   1      -3.882   0.494  -0.280  0.00  0.00     0.062 A 
ATOM      3  C2  UNL d   1      -4.835   0.092   0.651  0.00  0.00     0.162 A 
ATOM      4  C3  UNL d   1      -4.578   0.211   2.017  0.00  0.00    -0.034 A 
ATOM      5  C4  UNL d   1      -3.354   0.736   2.436  0.00  0.00     0.162 A 
ATOM      6  C5  UNL d   1      -2.405   1.136   1.501  0.00  0.00     0.062 A 
ATOM      7  F   UNL d   1      -1.232   1.640   1.913  0.00  0.00    -0.097 F 
ATOM      8  F1  UNL d   1      -3.074   0.864   3.742  0.00  0.00    -0.096 F 
ATOM      9  I   UNL d   1      -6.000  -0.389   3.413  0.00  0.00    -0.060 I 
ATOM     10  F2  UNL d   1      -5.999  -0.409   0.213  0.00  0.00    -0.096 F 
ATOM     11  F3  UNL d   1      -4.138   0.376  -1.591  0.00  0.00    -0.097 F 
ATOM     12  F4  UNL d   1      -1.752   1.401  -0.754  0.00  0.00    -0.092 F 
ENDROOT
TORSDOF 0
ENDMDL
