MODEL 1
REMARK minimizedAffinity 7.74839687
REMARK minimizedRMSD -1
REMARK  0 active torsions:
REMARK  status: ('A' for Active; 'I' for Inactive)
ROOT
ATOM      1  C   UNL d   1      -5.068  -2.477   4.793  0.00  0.00     0.124 A 
ATOM      2  C1  UNL d   1      -5.540  -1.173   4.838  0.00  0.00     0.062 A 
ATOM      3  C2  UNL d   1      -5.538  -0.388   3.688  0.00  0.00     0.162 A 
ATOM      4  C3  UNL d   1      -5.062  -0.905   2.484  0.00  0.00    -0.034 A 
ATOM      5  C4  UNL d   1      -4.587  -2.217   2.447  0.00  0.00     0.162 A 
ATOM      6  C5  UNL d   1      -4.592  -2.998   3.598  0.00  0.00     0.062 A 
ATOM      7  F   UNL d   1      -4.135  -4.258   3.553  0.00  0.00    -0.097 F 
ATOM      8  F1  UNL d   1      -4.122  -2.746   1.305  0.00  0.00    -0.096 F 
ATOM      9  I   UNL d   1      -5.056   0.266   0.763  0.00  0.00    -0.060 I 
ATOM     10  F2  UNL d   1      -6.000   0.869   3.761  0.00  0.00    -0.096 F 
ATOM     11  F3  UNL d   1      -6.000  -0.667   5.991  0.00  0.00    -0.097 F 
ATOM     12  F4  UNL d   1      -5.071  -3.230   5.901  0.00  0.00    -0.092 F 
ENDROOT
TORSDOF 0
ENDMDL
