MODEL 1
REMARK minimizedAffinity 10.7451763
REMARK minimizedRMSD -1
REMARK  0 active torsions:
REMARK  status: ('A' for Active; 'I' for Inactive)
ROOT
ATOM      1  C   UNL d   1      -2.837   1.612   0.226  0.00  0.00     0.124 A 
ATOM      2  C1  UNL d   1      -4.019   1.043  -0.226  0.00  0.00     0.062 A 
ATOM      3  C2  UNL d   1      -4.863   0.383   0.662  0.00  0.00     0.162 A 
ATOM      4  C3  UNL d   1      -4.529   0.289   2.013  0.00  0.00    -0.034 A 
ATOM      5  C4  UNL d   1      -3.337   0.863   2.460  0.00  0.00     0.162 A 
ATOM      6  C5  UNL d   1      -2.497   1.522   1.569  0.00  0.00     0.062 A 
ATOM      7  F   UNL d   1      -1.355   2.071   2.008  0.00  0.00    -0.097 F 
ATOM      8  F1  UNL d   1      -2.985   0.791   3.753  0.00  0.00    -0.096 F 
ATOM      9  I   UNL d   1      -5.788  -0.698   3.344  0.00  0.00    -0.060 I 
ATOM     10  F2  UNL d   1      -5.999  -0.158   0.197  0.00  0.00    -0.096 F 
ATOM     11  F3  UNL d   1      -4.349   1.129  -1.523  0.00  0.00    -0.097 F 
ATOM     12  F4  UNL d   1      -2.026   2.246  -0.631  0.00  0.00    -0.092 F 
ENDROOT
TORSDOF 0
ENDMDL
