MODEL 1
REMARK minimizedAffinity 12.618022
REMARK minimizedRMSD -1
REMARK  0 active torsions:
REMARK  status: ('A' for Active; 'I' for Inactive)
ROOT
ATOM      1  C   UNL d   1      -2.067   1.460  -0.609  0.00  0.00     0.124 A 
ATOM      2  C1  UNL d   1      -3.282   0.942  -1.033  0.00  0.00     0.062 A 
ATOM      3  C2  UNL d   1      -4.199   0.457  -0.105  0.00  0.00     0.162 A 
ATOM      4  C3  UNL d   1      -3.905   0.489   1.258  0.00  0.00    -0.034 A 
ATOM      5  C4  UNL d   1      -2.679   1.011   1.678  0.00  0.00     0.162 A 
ATOM      6  C5  UNL d   1      -1.766   1.494   0.746  0.00  0.00     0.062 A 
ATOM      7  F   UNL d   1      -0.592   1.994   1.158  0.00  0.00    -0.097 F 
ATOM      8  F1  UNL d   1      -2.364   1.057   2.980  0.00  0.00    -0.096 F 
ATOM      9  I   UNL d   1      -5.273  -0.234   2.650  0.00  0.00    -0.060 I 
ATOM     10  F2  UNL d   1      -5.366  -0.038  -0.543  0.00  0.00    -0.096 F 
ATOM     11  F3  UNL d   1      -3.575   0.907  -2.341  0.00  0.00    -0.097 F 
ATOM     12  F4  UNL d   1      -1.186   1.924  -1.504  0.00  0.00    -0.092 F 
ENDROOT
TORSDOF 0
ENDMDL
