MODEL 1
REMARK minimizedAffinity 13.3651037
REMARK minimizedRMSD -1
REMARK  0 active torsions:
REMARK  status: ('A' for Active; 'I' for Inactive)
ROOT
ATOM      1  C   UNL d   1       3.784  -4.407  -0.081  0.00  0.00     0.124 A 
ATOM      2  C1  UNL d   1       4.085  -4.949  -1.323  0.00  0.00     0.062 A 
ATOM      3  C2  UNL d   1       3.088  -5.095  -2.283  0.00  0.00     0.162 A 
ATOM      4  C3  UNL d   1       1.780  -4.697  -2.006  0.00  0.00    -0.034 A 
ATOM      5  C4  UNL d   1       1.485  -4.154  -0.754  0.00  0.00     0.162 A 
ATOM      6  C5  UNL d   1       2.485  -4.010   0.202  0.00  0.00     0.062 A 
ATOM      7  F   UNL d   1       2.192  -3.485   1.401  0.00  0.00    -0.097 F 
ATOM      8  F1  UNL d   1       0.238  -3.761  -0.455  0.00  0.00    -0.096 F 
ATOM      9  I   UNL d   1       0.287  -4.914  -3.439  0.00  0.00    -0.060 I 
ATOM     10  F2  UNL d   1       3.407  -5.623  -3.474  0.00  0.00    -0.096 F 
ATOM     11  F3  UNL d   1       5.339  -5.334  -1.598  0.00  0.00    -0.097 F 
ATOM     12  F4  UNL d   1       4.745  -4.268   0.841  0.00  0.00    -0.092 F 
ENDROOT
TORSDOF 0
ENDMDL
