MODEL 1
REMARK minimizedAffinity 16.0211945
REMARK minimizedRMSD -1
REMARK  0 active torsions:
REMARK  status: ('A' for Active; 'I' for Inactive)
ROOT
ATOM      1  C   UNL d   1      -2.234  -2.362  -5.672  0.00  0.00     0.124 A 
ATOM      2  C1  UNL d   1      -3.590  -2.095  -5.798  0.00  0.00     0.062 A 
ATOM      3  C2  UNL d   1      -4.518  -3.130  -5.716  0.00  0.00     0.162 A 
ATOM      4  C3  UNL d   1      -4.092  -4.441  -5.506  0.00  0.00    -0.034 A 
ATOM      5  C4  UNL d   1      -2.726  -4.702  -5.381  0.00  0.00     0.162 A 
ATOM      6  C5  UNL d   1      -1.803  -3.664  -5.464  0.00  0.00     0.062 A 
ATOM      7  F   UNL d   1      -0.493  -3.924  -5.343  0.00  0.00    -0.097 F 
ATOM      8  F1  UNL d   1      -2.282  -5.951  -5.179  0.00  0.00    -0.096 F 
ATOM      9  I   UNL d   1      -5.476  -5.991  -5.383  0.00  0.00    -0.060 I 
ATOM     10  F2  UNL d   1      -5.822  -2.843  -5.840  0.00  0.00    -0.096 F 
ATOM     11  F3  UNL d   1      -4.009  -0.837  -5.999  0.00  0.00    -0.097 F 
ATOM     12  F4  UNL d   1      -1.344  -1.364  -5.752  0.00  0.00    -0.092 F 
ENDROOT
TORSDOF 0
ENDMDL
