MODEL 1
REMARK minimizedAffinity 22.3967628
REMARK minimizedRMSD -1
REMARK  0 active torsions:
REMARK  status: ('A' for Active; 'I' for Inactive)
ROOT
ATOM      1  C   UNL d   1      -0.349   4.477  -1.872  0.00  0.00     0.124 A 
ATOM      2  C1  UNL d   1       0.906   4.923  -1.480  0.00  0.00     0.062 A 
ATOM      3  C2  UNL d   1       1.604   4.257  -0.477  0.00  0.00     0.162 A 
ATOM      4  C3  UNL d   1       1.049   3.136   0.141  0.00  0.00    -0.034 A 
ATOM      5  C4  UNL d   1      -0.213   2.694  -0.258  0.00  0.00     0.162 A 
ATOM      6  C5  UNL d   1      -0.907   3.363  -1.261  0.00  0.00     0.062 A 
ATOM      7  F   UNL d   1      -2.119   2.931  -1.638  0.00  0.00    -0.097 F 
ATOM      8  F1  UNL d   1      -0.776   1.620   0.315  0.00  0.00    -0.096 F 
ATOM      9  I   UNL d   1       2.090   2.137   1.641  0.00  0.00    -0.060 I 
ATOM     10  F2  UNL d   1       2.815   4.710  -0.119  0.00  0.00    -0.096 F 
ATOM     11  F3  UNL d   1       1.447   6.000  -2.068  0.00  0.00    -0.097 F 
ATOM     12  F4  UNL d   1      -1.019   5.121  -2.836  0.00  0.00    -0.092 F 
ENDROOT
TORSDOF 0
ENDMDL
