MODEL 1
REMARK minimizedAffinity -0.220912322
REMARK minimizedRMSD -1
REMARK  0 active torsions:
REMARK  status: ('A' for Active; 'I' for Inactive)
ROOT
ATOM      1  C   UNL d   1      -3.113  -2.885  -1.492  0.00  0.00     0.023 A 
ATOM      2  C1  UNL d   1      -3.328  -1.745  -0.717  0.00  0.00     0.003 A 
ATOM      3  C2  UNL d   1      -2.241  -1.012  -0.235  0.00  0.00     0.048 A 
ATOM      4  C3  UNL d   1      -0.943  -1.425  -0.533  0.00  0.00     0.023 A 
ATOM      5  C4  UNL d   1      -0.723  -2.564  -1.308  0.00  0.00     0.048 A 
ATOM      6  C5  UNL d   1      -1.812  -3.294  -1.787  0.00  0.00     0.003 A 
ATOM      7  I   UNL d   1       0.676  -0.335   0.183  0.00  0.00    -0.146 I 
ENDROOT
TORSDOF 0
ENDMDL
