MODEL 1
REMARK minimizedAffinity -2.78909063
REMARK minimizedRMSD -1
REMARK  0 active torsions:
REMARK  status: ('A' for Active; 'I' for Inactive)
ROOT
ATOM      1  C   UNL d   1       1.648  -0.239   1.265  0.00  0.00     0.023 A 
ATOM      2  C1  UNL d   1       2.126  -1.124   0.299  0.00  0.00     0.003 A 
ATOM      3  C2  UNL d   1       1.968  -0.831  -1.057  0.00  0.00     0.048 A 
ATOM      4  C3  UNL d   1       1.333   0.350  -1.440  0.00  0.00     0.023 A 
ATOM      5  C4  UNL d   1       0.855   1.240  -0.476  0.00  0.00     0.048 A 
ATOM      6  C5  UNL d   1       1.014   0.941   0.878  0.00  0.00     0.003 A 
ATOM      7  I   UNL d   1       1.098   0.790  -3.458  0.00  0.00    -0.146 I 
ENDROOT
TORSDOF 0
ENDMDL
