MODEL 1
REMARK minimizedAffinity -3.94248843
REMARK minimizedRMSD -1
REMARK  0 active torsions:
REMARK  status: ('A' for Active; 'I' for Inactive)
ROOT
ATOM      1  C   UNL d   1       0.387   1.432   2.642  0.00  0.00     0.023 A 
ATOM      2  C1  UNL d   1      -0.863   0.960   3.042  0.00  0.00     0.003 A 
ATOM      3  C2  UNL d   1      -1.608   0.142   2.190  0.00  0.00     0.048 A 
ATOM      4  C3  UNL d   1      -1.096  -0.202   0.940  0.00  0.00     0.023 A 
ATOM      5  C4  UNL d   1       0.155   0.267   0.535  0.00  0.00     0.048 A 
ATOM      6  C5  UNL d   1       0.896   1.086   1.390  0.00  0.00     0.003 A 
ATOM      7  I   UNL d   1      -2.202  -1.420  -0.330  0.00  0.00    -0.146 I 
ENDROOT
TORSDOF 0
ENDMDL
