MODEL 1
REMARK minimizedAffinity -2.3409996
REMARK minimizedRMSD -1
REMARK  0 active torsions:
REMARK  status: ('A' for Active; 'I' for Inactive)
ROOT
ATOM      1  C   UNL d   1       1.530  -0.540  -0.219  0.00  0.00     0.023 A 
ATOM      2  C1  UNL d   1       0.220  -0.117  -0.445  0.00  0.00     0.003 A 
ATOM      3  C2  UNL d   1      -0.498   0.512   0.575  0.00  0.00     0.048 A 
ATOM      4  C3  UNL d   1       0.101   0.716   1.818  0.00  0.00     0.023 A 
ATOM      5  C4  UNL d   1       1.412   0.295   2.048  0.00  0.00     0.048 A 
ATOM      6  C5  UNL d   1       2.125  -0.334   1.026  0.00  0.00     0.003 A 
ATOM      7  I   UNL d   1      -0.965   1.652   3.337  0.00  0.00    -0.146 I 
ENDROOT
TORSDOF 0
ENDMDL
