MODEL 1
REMARK minimizedAffinity 2.32234764
REMARK minimizedRMSD -1
REMARK  0 active torsions:
REMARK  status: ('A' for Active; 'I' for Inactive)
ROOT
ATOM      1  C   UNL d   1       1.972   0.798  -4.602  0.00  0.00     0.023 A 
ATOM      2  C1  UNL d   1       2.730   0.361  -3.516  0.00  0.00     0.003 A 
ATOM      3  C2  UNL d   1       2.125   0.169  -2.272  0.00  0.00     0.048 A 
ATOM      4  C3  UNL d   1       0.761   0.416  -2.121  0.00  0.00     0.023 A 
ATOM      5  C4  UNL d   1      -0.002   0.853  -3.205  0.00  0.00     0.048 A 
ATOM      6  C5  UNL d   1       0.607   1.043  -4.447  0.00  0.00     0.003 A 
ATOM      7  I   UNL d   1      -0.142   0.132  -0.271  0.00  0.00    -0.146 I 
ENDROOT
TORSDOF 0
ENDMDL
