MODEL 1
REMARK minimizedAffinity 2.59041166
REMARK minimizedRMSD -1
REMARK  0 active torsions:
REMARK  status: ('A' for Active; 'I' for Inactive)
ROOT
ATOM      1  C   UNL d   1       0.062   1.082   5.080  0.00  0.00     0.023 A 
ATOM      2  C1  UNL d   1      -0.328  -0.046   5.804  0.00  0.00     0.003 A 
ATOM      3  C2  UNL d   1       0.566  -1.103   5.986  0.00  0.00     0.048 A 
ATOM      4  C3  UNL d   1       1.848  -1.026   5.443  0.00  0.00     0.023 A 
ATOM      5  C4  UNL d   1       2.242   0.101   4.719  0.00  0.00     0.048 A 
ATOM      6  C5  UNL d   1       1.345   1.155   4.539  0.00  0.00     0.003 A 
ATOM      7  I   UNL d   1       3.180  -2.598   5.714  0.00  0.00    -0.146 I 
ENDROOT
TORSDOF 0
ENDMDL
