MODEL 1
REMARK minimizedAffinity -2.12142515
REMARK minimizedRMSD -1
REMARK  0 active torsions:
REMARK  status: ('A' for Active; 'I' for Inactive)
ROOT
ATOM      1  C   UNL d   1      -1.660  -0.533  -5.408  0.00  0.00     0.023 A 
ATOM      2  C1  UNL d   1      -0.907   0.525  -5.917  0.00  0.00     0.003 A 
ATOM      3  C2  UNL d   1       0.307   0.869  -5.320  0.00  0.00     0.048 A 
ATOM      4  C3  UNL d   1       0.763   0.151  -4.215  0.00  0.00     0.023 A 
ATOM      5  C4  UNL d   1       0.013  -0.909  -3.703  0.00  0.00     0.048 A 
ATOM      6  C5  UNL d   1      -1.201  -1.249  -4.303  0.00  0.00     0.003 A 
ATOM      7  I   UNL d   1       2.570   0.662  -3.324  0.00  0.00    -0.146 I 
ENDROOT
TORSDOF 0
ENDMDL
