MODEL 1
REMARK minimizedAffinity -4.34542179
REMARK minimizedRMSD -1
REMARK  1 active torsions:
REMARK  status: ('A' for Active; 'I' for Inactive)
REMARK    1  A    between atoms: C1_2  and  C2_3 
ROOT
ATOM      1  C2  UNL d   1      -0.188  -0.031   0.007  0.00  0.00    -0.077 A 
ATOM      2  C3  UNL d   1       0.953   0.758  -0.197  0.00  0.00     0.002 A 
ATOM      3  C4  UNL d   1       0.861   2.151  -0.177  0.00  0.00     0.002 A 
ATOM      4  C5  UNL d   1      -0.368   2.766   0.050  0.00  0.00    -0.004 A 
ATOM      5  C6  UNL d   1      -1.509   1.990   0.251  0.00  0.00     0.002 A 
ATOM      6  C7  UNL d   1      -1.419   0.598   0.231  0.00  0.00     0.002 A 
ENDROOT
BRANCH   1   7
ATOM      7  C1  UNL d   1      -0.082  -1.534   0.036  0.00  0.00     0.055 C 
ATOM      8  C   UNL d   1      -0.492  -2.143  -1.297  0.00  0.00     0.019 C 
ENDBRANCH   1   7
TORSDOF 1
ENDMDL
