MODEL 1
REMARK minimizedAffinity -5.31256247
REMARK minimizedRMSD -1
REMARK  1 active torsions:
REMARK  status: ('A' for Active; 'I' for Inactive)
REMARK    1  A    between atoms: C1_2  and  C2_3 
ROOT
ATOM      1  C2  UNL d   1       0.503   0.673  -0.203  0.00  0.00    -0.077 A 
ATOM      2  C3  UNL d   1      -0.527   1.604  -0.395  0.00  0.00     0.002 A 
ATOM      3  C4  UNL d   1      -0.315   2.957  -0.125  0.00  0.00     0.002 A 
ATOM      4  C5  UNL d   1       0.926   3.392   0.335  0.00  0.00    -0.004 A 
ATOM      5  C6  UNL d   1       1.957   2.473   0.531  0.00  0.00     0.002 A 
ATOM      6  C7  UNL d   1       1.747   1.120   0.262  0.00  0.00     0.002 A 
ENDROOT
BRANCH   1   7
ATOM      7  C1  UNL d   1       0.292  -0.780  -0.541  0.00  0.00     0.055 C 
ATOM      8  C   UNL d   1       0.385  -1.656   0.700  0.00  0.00     0.019 C 
ENDBRANCH   1   7
TORSDOF 1
ENDMDL
