MODEL 1
REMARK minimizedAffinity 0.0819429979
REMARK minimizedRMSD -1
REMARK  1 active torsions:
REMARK  status: ('A' for Active; 'I' for Inactive)
REMARK    1  A    between atoms: C1_2  and  C2_3 
ROOT
ATOM      1  C2  UNL d   1      -0.129   0.455   0.600  0.00  0.00    -0.077 A 
ATOM      2  C3  UNL d   1       1.169   0.705   1.067  0.00  0.00     0.002 A 
ATOM      3  C4  UNL d   1       2.260   0.032   0.513  0.00  0.00     0.002 A 
ATOM      4  C5  UNL d   1       2.064  -0.890  -0.513  0.00  0.00    -0.004 A 
ATOM      5  C6  UNL d   1       0.777  -1.146  -0.983  0.00  0.00     0.002 A 
ATOM      6  C7  UNL d   1      -0.315  -0.476  -0.429  0.00  0.00     0.002 A 
ENDROOT
BRANCH   1   7
ATOM      7  C1  UNL d   1      -1.302   1.215   1.163  0.00  0.00     0.055 C 
ATOM      8  C   UNL d   1      -0.897   2.617   1.596  0.00  0.00     0.019 C 
ENDBRANCH   1   7
TORSDOF 1
ENDMDL
