MODEL 1
REMARK minimizedAffinity -3.86234117
REMARK minimizedRMSD -1
REMARK  1 active torsions:
REMARK  status: ('A' for Active; 'I' for Inactive)
REMARK    1  A    between atoms: C1_2  and  C2_3 
ROOT
ATOM      1  C2  UNL d   1      -0.627  -1.140  -1.534  0.00  0.00    -0.077 A 
ATOM      2  C3  UNL d   1      -0.025  -1.604  -0.356  0.00  0.00     0.002 A 
ATOM      3  C4  UNL d   1      -0.051  -0.827   0.804  0.00  0.00     0.002 A 
ATOM      4  C5  UNL d   1      -0.681   0.416   0.798  0.00  0.00    -0.004 A 
ATOM      5  C6  UNL d   1      -1.281   0.887  -0.370  0.00  0.00     0.002 A 
ATOM      6  C7  UNL d   1      -1.255   0.112  -1.530  0.00  0.00     0.002 A 
ENDROOT
BRANCH   1   7
ATOM      7  C1  UNL d   1      -0.643  -1.998  -2.772  0.00  0.00     0.055 C 
ATOM      8  C   UNL d   1      -1.190  -3.387  -2.476  0.00  0.00     0.019 C 
ENDBRANCH   1   7
TORSDOF 1
ENDMDL
