MODEL 1
REMARK minimizedAffinity -2.87844181
REMARK minimizedRMSD -1
REMARK  1 active torsions:
REMARK  status: ('A' for Active; 'I' for Inactive)
REMARK    1  A    between atoms: C1_2  and  C2_3 
ROOT
ATOM      1  C2  UNL d   1      -0.584  -1.800  -0.334  0.00  0.00    -0.077 A 
ATOM      2  C3  UNL d   1      -1.617  -0.998   0.173  0.00  0.00     0.002 A 
ATOM      3  C4  UNL d   1      -1.332   0.249   0.733  0.00  0.00     0.002 A 
ATOM      4  C5  UNL d   1      -0.017   0.706   0.789  0.00  0.00    -0.004 A 
ATOM      5  C6  UNL d   1       1.017  -0.085   0.290  0.00  0.00     0.002 A 
ATOM      6  C7  UNL d   1       0.735  -1.332  -0.269  0.00  0.00     0.002 A 
ENDROOT
BRANCH   1   7
ATOM      7  C1  UNL d   1      -0.894  -3.123  -0.983  0.00  0.00     0.055 C 
ATOM      8  C   UNL d   1      -0.505  -3.122  -2.455  0.00  0.00     0.019 C 
ENDBRANCH   1   7
TORSDOF 1
ENDMDL
