MODEL 1
REMARK minimizedAffinity -5.66040802
REMARK minimizedRMSD -1
REMARK  1 active torsions:
REMARK  status: ('A' for Active; 'I' for Inactive)
REMARK    1  A    between atoms: C1_2  and  C2_3 
ROOT
ATOM      1  C2  UNL d   1       0.359   1.590   0.061  0.00  0.00    -0.077 A 
ATOM      2  C3  UNL d   1      -0.747   0.732   0.142  0.00  0.00     0.002 A 
ATOM      3  C4  UNL d   1      -0.567  -0.629   0.396  0.00  0.00     0.002 A 
ATOM      4  C5  UNL d   1       0.715  -1.143   0.576  0.00  0.00    -0.004 A 
ATOM      5  C6  UNL d   1       1.821  -0.298   0.496  0.00  0.00     0.002 A 
ATOM      6  C7  UNL d   1       1.644   1.063   0.240  0.00  0.00     0.002 A 
ENDROOT
BRANCH   1   7
ATOM      7  C1  UNL d   1       0.164   3.067  -0.164  0.00  0.00     0.055 C 
ATOM      8  C   UNL d   1       1.394   3.858   0.257  0.00  0.00     0.019 C 
ENDBRANCH   1   7
TORSDOF 1
ENDMDL
