MODEL 1
REMARK minimizedAffinity -0.781121552
REMARK minimizedRMSD -1
REMARK  1 active torsions:
REMARK  status: ('A' for Active; 'I' for Inactive)
REMARK    1  A    between atoms: C1_2  and  C2_3 
ROOT
ATOM      1  C2  UNL d   1      -0.386  -2.413  -1.208  0.00  0.00    -0.077 A 
ATOM      2  C3  UNL d   1       0.725  -2.005  -1.959  0.00  0.00     0.002 A 
ATOM      3  C4  UNL d   1       1.525  -0.948  -1.519  0.00  0.00     0.002 A 
ATOM      4  C5  UNL d   1       1.223  -0.293  -0.327  0.00  0.00    -0.004 A 
ATOM      5  C6  UNL d   1       0.119  -0.690   0.426  0.00  0.00     0.002 A 
ATOM      6  C7  UNL d   1      -0.682  -1.746  -0.013  0.00  0.00     0.002 A 
ENDROOT
BRANCH   1   7
ATOM      7  C1  UNL d   1      -1.221  -3.585  -1.655  0.00  0.00     0.055 C 
ATOM      8  C   UNL d   1      -2.042  -4.150  -0.506  0.00  0.00     0.019 C 
ENDBRANCH   1   7
TORSDOF 1
ENDMDL
