MODEL 1
REMARK minimizedAffinity -4.55600977
REMARK minimizedRMSD -1
REMARK  1 active torsions:
REMARK  status: ('A' for Active; 'I' for Inactive)
REMARK    1  A    between atoms: C1_2  and  C2_3 
ROOT
ATOM      1  C2  UNL d   1       0.866   1.097  -0.053  0.00  0.00    -0.077 A 
ATOM      2  C3  UNL d   1       2.267   1.043  -0.074  0.00  0.00     0.002 A 
ATOM      3  C4  UNL d   1       3.021   2.202   0.123  0.00  0.00     0.002 A 
ATOM      4  C5  UNL d   1       2.383   3.420   0.348  0.00  0.00    -0.004 A 
ATOM      5  C6  UNL d   1       0.991   3.484   0.370  0.00  0.00     0.002 A 
ATOM      6  C7  UNL d   1       0.235   2.327   0.171  0.00  0.00     0.002 A 
ENDROOT
BRANCH   1   7
ATOM      7  C1  UNL d   1       0.052  -0.160  -0.217  0.00  0.00     0.055 C 
ATOM      8  C   UNL d   1      -1.059  -0.239   0.821  0.00  0.00     0.019 C 
ENDBRANCH   1   7
TORSDOF 1
ENDMDL
