MODEL 1
REMARK minimizedAffinity -5.50825548
REMARK minimizedRMSD -1
REMARK  1 active torsions:
REMARK  status: ('A' for Active; 'I' for Inactive)
REMARK    1  A    between atoms: C1_2  and  C2_3 
ROOT
ATOM      1  C2  UNL d   1      -0.046   1.264  -0.075  0.00  0.00    -0.077 A 
ATOM      2  C3  UNL d   1      -0.273   2.644   0.024  0.00  0.00     0.002 A 
ATOM      3  C4  UNL d   1       0.800   3.532   0.114  0.00  0.00     0.002 A 
ATOM      4  C5  UNL d   1       2.108   3.051   0.102  0.00  0.00    -0.004 A 
ATOM      5  C6  UNL d   1       2.344   1.680   0.006  0.00  0.00     0.002 A 
ATOM      6  C7  UNL d   1       1.272   0.791  -0.083  0.00  0.00     0.002 A 
ENDROOT
BRANCH   1   7
ATOM      7  C1  UNL d   1      -1.201   0.309  -0.222  0.00  0.00     0.055 C 
ATOM      8  C   UNL d   1      -2.530   1.004   0.033  0.00  0.00     0.019 C 
ENDBRANCH   1   7
TORSDOF 1
ENDMDL
