MODEL 1
REMARK minimizedAffinity -3.40263462
REMARK minimizedRMSD -1
REMARK  1 active torsions:
REMARK  status: ('A' for Active; 'I' for Inactive)
REMARK    1  A    between atoms: C1_2  and  C2_3 
ROOT
ATOM      1  C2  UNL d   1      -0.010  -0.320   0.189  0.00  0.00    -0.077 A 
ATOM      2  C3  UNL d   1       1.024   0.512  -0.265  0.00  0.00     0.002 A 
ATOM      3  C4  UNL d   1       0.900   1.900  -0.183  0.00  0.00     0.002 A 
ATOM      4  C5  UNL d   1      -0.252   2.468   0.356  0.00  0.00    -0.004 A 
ATOM      5  C6  UNL d   1      -1.286   1.650   0.809  0.00  0.00     0.002 A 
ATOM      6  C7  UNL d   1      -1.165   0.262   0.726  0.00  0.00     0.002 A 
ENDROOT
BRANCH   1   7
ATOM      7  C1  UNL d   1       0.142  -1.818   0.147  0.00  0.00     0.055 C 
ATOM      8  C   UNL d   1      -0.496  -2.404  -1.105  0.00  0.00     0.019 C 
ENDBRANCH   1   7
TORSDOF 1
ENDMDL
