MODEL 1
REMARK minimizedAffinity -3.77906227
REMARK minimizedRMSD -1
REMARK  1 active torsions:
REMARK  status: ('A' for Active; 'I' for Inactive)
REMARK    1  A    between atoms: C1_2  and  C2_3 
ROOT
ATOM      1  C2  UNL d   1      -0.010  -0.388   0.655  0.00  0.00    -0.077 A 
ATOM      2  C3  UNL d   1      -0.898   0.697   0.657  0.00  0.00     0.002 A 
ATOM      3  C4  UNL d   1      -0.418   2.002   0.785  0.00  0.00     0.002 A 
ATOM      4  C5  UNL d   1       0.950   2.234   0.906  0.00  0.00    -0.004 A 
ATOM      5  C6  UNL d   1       1.841   1.162   0.907  0.00  0.00     0.002 A 
ATOM      6  C7  UNL d   1       1.363  -0.143   0.781  0.00  0.00     0.002 A 
ENDROOT
BRANCH   1   7
ATOM      7  C1  UNL d   1      -0.522  -1.793   0.468  0.00  0.00     0.055 C 
ATOM      8  C   UNL d   1      -0.520  -2.192  -1.001  0.00  0.00     0.019 C 
ENDBRANCH   1   7
TORSDOF 1
ENDMDL
