MODEL 1
REMARK minimizedAffinity -5.85048771
REMARK minimizedRMSD -1
REMARK  1 active torsions:
REMARK  status: ('A' for Active; 'I' for Inactive)
REMARK    1  A    between atoms: C1_2  and  C2_3 
ROOT
ATOM      1  C2  UNL d   1       0.113   1.054   0.393  0.00  0.00    -0.077 A 
ATOM      2  C3  UNL d   1       1.501   0.864   0.429  0.00  0.00     0.002 A 
ATOM      3  C4  UNL d   1       2.365   1.961   0.398  0.00  0.00     0.002 A 
ATOM      4  C5  UNL d   1       1.850   3.254   0.335  0.00  0.00    -0.004 A 
ATOM      5  C6  UNL d   1       0.471   3.453   0.296  0.00  0.00     0.002 A 
ATOM      6  C7  UNL d   1      -0.394   2.358   0.326  0.00  0.00     0.002 A 
ENDROOT
BRANCH   1   7
ATOM      7  C1  UNL d   1      -0.821  -0.125   0.476  0.00  0.00     0.055 C 
ATOM      8  C   UNL d   1      -0.139  -1.406   0.016  0.00  0.00     0.019 C 
ENDBRANCH   1   7
TORSDOF 1
ENDMDL
