MODEL 1
REMARK minimizedAffinity -4.59640837
REMARK minimizedRMSD -1
REMARK  2 active torsions:
REMARK  status: ('A' for Active; 'I' for Inactive)
REMARK    1  A    between atoms: C1_2  and  C2_3 
REMARK    2  A    between atoms: C2_3  and  C3_4 
ROOT
ATOM      1  C3  UNL d   1      -0.089   0.067  -0.004  0.00  0.00    -0.075 A 
ATOM      2  C4  UNL d   1       0.015  -1.332  -0.020  0.00  0.00     0.002 A 
ATOM      3  C5  UNL d   1       1.170  -1.951  -0.499  0.00  0.00     0.002 A 
ATOM      4  C6  UNL d   1       2.229  -1.182  -0.977  0.00  0.00    -0.004 A 
ATOM      5  C7  UNL d   1       2.130   0.207  -0.981  0.00  0.00     0.002 A 
ATOM      6  C8  UNL d   1       0.978   0.830  -0.498  0.00  0.00     0.002 A 
ENDROOT
BRANCH   1   7
ATOM      7  C2  UNL d   1      -1.324   0.744   0.541  0.00  0.00     0.056 C 
BRANCH   7   8
ATOM      8  C1  UNL d   1      -1.690   0.319   1.967  0.00  0.00     0.007 C 
ATOM      9  C   UNL d   1      -1.500   1.428   2.992  0.00  0.00     0.009 C 
ENDBRANCH   7   8
ENDBRANCH   1   7
TORSDOF 2
ENDMDL
