MODEL 1
REMARK minimizedAffinity -4.41560888
REMARK minimizedRMSD -1
REMARK  2 active torsions:
REMARK  status: ('A' for Active; 'I' for Inactive)
REMARK    1  A    between atoms: C1_2  and  C2_3 
REMARK    2  A    between atoms: C2_3  and  C3_4 
ROOT
ATOM      1  C3  UNL d   1      -0.127  -0.165   0.147  0.00  0.00    -0.075 A 
ATOM      2  C4  UNL d   1       0.219  -1.502  -0.099  0.00  0.00     0.002 A 
ATOM      3  C5  UNL d   1       1.387  -1.815  -0.795  0.00  0.00     0.002 A 
ATOM      4  C6  UNL d   1       2.216  -0.798  -1.263  0.00  0.00    -0.004 A 
ATOM      5  C7  UNL d   1       1.874   0.534  -1.038  0.00  0.00     0.002 A 
ATOM      6  C8  UNL d   1       0.709   0.850  -0.338  0.00  0.00     0.002 A 
ENDROOT
BRANCH   1   7
ATOM      7  C2  UNL d   1      -1.374   0.180   0.926  0.00  0.00     0.056 C 
BRANCH   7   8
ATOM      8  C1  UNL d   1      -1.103   0.907   2.247  0.00  0.00     0.007 C 
ATOM      9  C   UNL d   1      -2.088   0.538   3.349  0.00  0.00     0.009 C 
ENDBRANCH   7   8
ENDBRANCH   1   7
TORSDOF 2
ENDMDL
