MODEL 1
REMARK minimizedAffinity -5.03194714
REMARK minimizedRMSD -1
REMARK  2 active torsions:
REMARK  status: ('A' for Active; 'I' for Inactive)
REMARK    1  A    between atoms: C1_2  and  C2_3 
REMARK    2  A    between atoms: C2_3  and  C3_4 
ROOT
ATOM      1  C3  UNL d   1       0.421   0.145   0.079  0.00  0.00    -0.075 A 
ATOM      2  C4  UNL d   1       0.311  -1.070  -0.612  0.00  0.00     0.002 A 
ATOM      3  C5  UNL d   1       1.446  -1.695  -1.130  0.00  0.00     0.002 A 
ATOM      4  C6  UNL d   1       2.700  -1.109  -0.974  0.00  0.00    -0.004 A 
ATOM      5  C7  UNL d   1       2.818   0.107  -0.304  0.00  0.00     0.002 A 
ATOM      6  C8  UNL d   1       1.685   0.732   0.220  0.00  0.00     0.002 A 
ENDROOT
BRANCH   1   7
ATOM      7  C2  UNL d   1      -0.800   0.811   0.668  0.00  0.00     0.056 C 
BRANCH   7   8
ATOM      8  C1  UNL d   1      -0.558   1.461   2.034  0.00  0.00     0.007 C 
ATOM      9  C   UNL d   1      -1.478   0.927   3.124  0.00  0.00     0.009 C 
ENDBRANCH   7   8
ENDBRANCH   1   7
TORSDOF 2
ENDMDL
