MODEL 1
REMARK minimizedAffinity -6.60387659
REMARK minimizedRMSD -1
REMARK  2 active torsions:
REMARK  status: ('A' for Active; 'I' for Inactive)
REMARK    1  A    between atoms: C1_2  and  C2_3 
REMARK    2  A    between atoms: C2_3  and  C3_4 
ROOT
ATOM      1  C3  UNL d   1       1.573   0.190  -0.920  0.00  0.00    -0.075 A 
ATOM      2  C4  UNL d   1       2.882  -0.260  -1.143  0.00  0.00     0.002 A 
ATOM      3  C5  UNL d   1       3.608   0.190  -2.247  0.00  0.00     0.002 A 
ATOM      4  C6  UNL d   1       3.032   1.086  -3.144  0.00  0.00    -0.004 A 
ATOM      5  C7  UNL d   1       1.726   1.528  -2.942  0.00  0.00     0.002 A 
ATOM      6  C8  UNL d   1       0.999   1.082  -1.836  0.00  0.00     0.002 A 
ENDROOT
BRANCH   1   7
ATOM      7  C2  UNL d   1       0.793  -0.270   0.288  0.00  0.00     0.056 C 
BRANCH   7   8
ATOM      8  C1  UNL d   1      -0.476  -1.059  -0.053  0.00  0.00     0.007 C 
ATOM      9  C   UNL d   1      -0.234  -2.557  -0.187  0.00  0.00     0.009 C 
ENDBRANCH   7   8
ENDBRANCH   1   7
TORSDOF 2
ENDMDL
