MODEL 1
REMARK minimizedAffinity -4.20947552
REMARK minimizedRMSD -1
REMARK  2 active torsions:
REMARK  status: ('A' for Active; 'I' for Inactive)
REMARK    1  A    between atoms: C1_2  and  C2_3 
REMARK    2  A    between atoms: C2_3  and  C3_4 
ROOT
ATOM      1  C3  UNL d   1       0.223  -0.034  -0.027  0.00  0.00    -0.075 A 
ATOM      2  C4  UNL d   1       0.324  -1.403  -0.310  0.00  0.00     0.002 A 
ATOM      3  C5  UNL d   1       1.513  -1.937  -0.810  0.00  0.00     0.002 A 
ATOM      4  C6  UNL d   1       2.609  -1.109  -1.042  0.00  0.00    -0.004 A 
ATOM      5  C7  UNL d   1       2.514   0.256  -0.779  0.00  0.00     0.002 A 
ATOM      6  C8  UNL d   1       1.327   0.792  -0.275  0.00  0.00     0.002 A 
ENDROOT
BRANCH   1   7
ATOM      7  C2  UNL d   1      -1.051   0.545   0.542  0.00  0.00     0.056 C 
BRANCH   7   8
ATOM      8  C1  UNL d   1      -0.852   1.333   1.841  0.00  0.00     0.007 C 
ATOM      9  C   UNL d   1      -1.798   0.904   2.954  0.00  0.00     0.009 C 
ENDBRANCH   7   8
ENDBRANCH   1   7
TORSDOF 2
ENDMDL
