MODEL 1
REMARK minimizedAffinity -4.54909801
REMARK minimizedRMSD -1
REMARK  2 active torsions:
REMARK  status: ('A' for Active; 'I' for Inactive)
REMARK    1  A    between atoms: C1_2  and  C2_3 
REMARK    2  A    between atoms: C2_3  and  C3_4 
ROOT
ATOM      1  C3  UNL d   1      -0.329  -0.187   0.117  0.00  0.00    -0.075 A 
ATOM      2  C4  UNL d   1      -0.006  -1.509  -0.221  0.00  0.00     0.002 A 
ATOM      3  C5  UNL d   1       1.094  -1.783  -1.035  0.00  0.00     0.002 A 
ATOM      4  C6  UNL d   1       1.875  -0.741  -1.529  0.00  0.00    -0.004 A 
ATOM      5  C7  UNL d   1       1.553   0.577  -1.213  0.00  0.00     0.002 A 
ATOM      6  C8  UNL d   1       0.457   0.854  -0.395  0.00  0.00     0.002 A 
ENDROOT
BRANCH   1   7
ATOM      7  C2  UNL d   1      -1.500   0.114   1.022  0.00  0.00     0.056 C 
BRANCH   7   8
ATOM      8  C1  UNL d   1      -1.155   1.023   2.207  0.00  0.00     0.007 C 
ATOM      9  C   UNL d   1      -1.922   0.673   3.475  0.00  0.00     0.009 C 
ENDBRANCH   7   8
ENDBRANCH   1   7
TORSDOF 2
ENDMDL
