MODEL 1
REMARK minimizedAffinity -2.93002582
REMARK minimizedRMSD -1
REMARK  2 active torsions:
REMARK  status: ('A' for Active; 'I' for Inactive)
REMARK    1  A    between atoms: C1_2  and  C2_3 
REMARK    2  A    between atoms: C2_3  and  C3_4 
ROOT
ATOM      1  C3  UNL d   1      -0.905   0.551   1.716  0.00  0.00    -0.075 A 
ATOM      2  C4  UNL d   1      -0.083   1.260   2.604  0.00  0.00     0.002 A 
ATOM      3  C5  UNL d   1      -0.570   1.671   3.845  0.00  0.00     0.002 A 
ATOM      4  C6  UNL d   1      -1.884   1.389   4.209  0.00  0.00    -0.004 A 
ATOM      5  C7  UNL d   1      -2.715   0.700   3.328  0.00  0.00     0.002 A 
ATOM      6  C8  UNL d   1      -2.230   0.283   2.088  0.00  0.00     0.002 A 
ENDROOT
BRANCH   1   7
ATOM      7  C2  UNL d   1      -0.376   0.077   0.384  0.00  0.00     0.056 C 
BRANCH   7   8
ATOM      8  C1  UNL d   1       1.038   0.572   0.063  0.00  0.00     0.007 C 
ATOM      9  C   UNL d   1       1.103   1.435  -1.190  0.00  0.00     0.009 C 
ENDBRANCH   7   8
ENDBRANCH   1   7
TORSDOF 2
ENDMDL
