MODEL 1
REMARK minimizedAffinity -2.69796968
REMARK minimizedRMSD -1
REMARK  2 active torsions:
REMARK  status: ('A' for Active; 'I' for Inactive)
REMARK    1  A    between atoms: C1_2  and  C2_3 
REMARK    2  A    between atoms: C2_3  and  C3_4 
ROOT
ATOM      1  C3  UNL d   1       0.640  -0.352  -0.217  0.00  0.00    -0.075 A 
ATOM      2  C4  UNL d   1      -0.513  -0.556   0.556  0.00  0.00     0.002 A 
ATOM      3  C5  UNL d   1      -1.531   0.398   0.575  0.00  0.00     0.002 A 
ATOM      4  C6  UNL d   1      -1.405   1.570  -0.168  0.00  0.00    -0.004 A 
ATOM      5  C7  UNL d   1      -0.257   1.791  -0.926  0.00  0.00     0.002 A 
ATOM      6  C8  UNL d   1       0.761   0.836  -0.950  0.00  0.00     0.002 A 
ENDROOT
BRANCH   1   7
ATOM      7  C2  UNL d   1       1.732  -1.393  -0.265  0.00  0.00     0.056 C 
BRANCH   7   8
ATOM      8  C1  UNL d   1       2.544  -1.387  -1.565  0.00  0.00     0.007 C 
ATOM      9  C   UNL d   1       1.939  -2.262  -2.654  0.00  0.00     0.009 C 
ENDBRANCH   7   8
ENDBRANCH   1   7
TORSDOF 2
ENDMDL
