MODEL 1
REMARK minimizedAffinity -3.32496715
REMARK minimizedRMSD -1
REMARK  0 active torsions:
REMARK  status: ('A' for Active; 'I' for Inactive)
ROOT
ATOM      1  C   UNL d   1       0.203   1.157   2.691  0.00  0.00     0.077 C 
ATOM      2  C1  UNL d   1       0.140   0.639   1.285  0.00  0.00    -0.074 A 
ATOM      3  C2  UNL d   1      -0.136   1.496   0.215  0.00  0.00    -0.005 A 
ATOM      4  C3  UNL d   1      -0.181   1.002  -1.089  0.00  0.00     0.006 A 
ATOM      5  C4  UNL d   1       0.048  -0.353  -1.335  0.00  0.00    -0.005 A 
ATOM      6  C5  UNL d   1       0.326  -1.225  -0.277  0.00  0.00    -0.074 A 
ATOM      7  C6  UNL d   1       0.584  -2.681  -0.525  0.00  0.00     0.077 C 
ATOM      8  C7  UNL d   1       0.377  -0.719   1.029  0.00  0.00    -0.001 A 
ENDROOT
TORSDOF 0
ENDMDL
