MODEL 1
REMARK minimizedAffinity 15.3661766
REMARK minimizedRMSD -1
REMARK  0 active torsions:
REMARK  status: ('A' for Active; 'I' for Inactive)
ROOT
ATOM      1  C   UNL d   1       0.990   4.808   0.386  0.00  0.00     0.077 C 
ATOM      2  C1  UNL d   1       1.157   3.822   1.504  0.00  0.00    -0.074 A 
ATOM      3  C2  UNL d   1       1.985   4.105   2.594  0.00  0.00    -0.005 A 
ATOM      4  C3  UNL d   1       2.123   3.182   3.631  0.00  0.00     0.006 A 
ATOM      5  C4  UNL d   1       1.436   1.968   3.588  0.00  0.00    -0.005 A 
ATOM      6  C5  UNL d   1       0.603   1.668   2.505  0.00  0.00    -0.074 A 
ATOM      7  C6  UNL d   1      -0.151   0.372   2.447  0.00  0.00     0.077 C 
ATOM      8  C7  UNL d   1       0.464   2.603   1.471  0.00  0.00    -0.001 A 
ENDROOT
TORSDOF 0
ENDMDL
