MODEL 1
REMARK minimizedAffinity 7.41746855
REMARK minimizedRMSD -1
REMARK  0 active torsions:
REMARK  status: ('A' for Active; 'I' for Inactive)
ROOT
ATOM      1  C   UNL d   1       0.701   5.110   0.688  0.00  0.00     0.077 C 
ATOM      2  C1  UNL d   1       1.103   4.149   1.767  0.00  0.00    -0.074 A 
ATOM      3  C2  UNL d   1       2.154   4.445   2.640  0.00  0.00    -0.005 A 
ATOM      4  C3  UNL d   1       2.510   3.546   3.645  0.00  0.00     0.006 A 
ATOM      5  C4  UNL d   1       1.818   2.342   3.786  0.00  0.00    -0.005 A 
ATOM      6  C5  UNL d   1       0.764   2.028   2.923  0.00  0.00    -0.074 A 
ATOM      7  C6  UNL d   1       0.004   0.743   3.068  0.00  0.00     0.077 C 
ATOM      8  C7  UNL d   1       0.408   2.941   1.921  0.00  0.00    -0.001 A 
ENDROOT
TORSDOF 0
ENDMDL
