MODEL 1
REMARK minimizedAffinity 6.16346645
REMARK minimizedRMSD -1
REMARK  0 active torsions:
REMARK  status: ('A' for Active; 'I' for Inactive)
ROOT
ATOM      1  C   UNL d   1       0.772   1.860   2.750  0.00  0.00     0.077 C 
ATOM      2  C1  UNL d   1       0.653   0.818   1.678  0.00  0.00    -0.074 A 
ATOM      3  C2  UNL d   1       1.074  -0.497   1.904  0.00  0.00    -0.005 A 
ATOM      4  C3  UNL d   1       0.948  -1.458   0.900  0.00  0.00     0.006 A 
ATOM      5  C4  UNL d   1       0.401  -1.114  -0.336  0.00  0.00    -0.005 A 
ATOM      6  C5  UNL d   1      -0.027   0.195  -0.580  0.00  0.00    -0.074 A 
ATOM      7  C6  UNL d   1      -0.627   0.578  -1.900  0.00  0.00     0.077 C 
ATOM      8  C7  UNL d   1       0.097   1.153   0.436  0.00  0.00    -0.001 A 
ENDROOT
TORSDOF 0
ENDMDL
