MODEL 1
REMARK minimizedAffinity -4.13973331
REMARK minimizedRMSD -1
REMARK  2 active torsions:
REMARK  status: ('A' for Active; 'I' for Inactive)
REMARK    1  A    between atoms: C1_2  and  C2_3 
REMARK    2  A    between atoms: C2_3  and  C3_4 
ROOT
ATOM      1  C3  UNL d   1      -1.098  -1.876   0.772  0.00  0.00    -0.075 A 
ATOM      2  C4  UNL d   1       0.124  -1.510   1.355  0.00  0.00     0.002 A 
ATOM      3  C5  UNL d   1       1.209  -1.147   0.556  0.00  0.00     0.002 A 
ATOM      4  C6  UNL d   1       1.090  -1.156  -0.832  0.00  0.00    -0.004 A 
ATOM      5  C7  UNL d   1      -0.114  -1.534  -1.422  0.00  0.00     0.002 A 
ATOM      6  C8  UNL d   1      -1.203  -1.893  -0.625  0.00  0.00     0.002 A 
ENDROOT
BRANCH   1   7
ATOM      7  C2  UNL d   1      -2.285  -2.241   1.631  0.00  0.00     0.056 C 
BRANCH   7   8
ATOM      8  C1  UNL d   1      -2.736  -1.124   2.579  0.00  0.00     0.007 C 
ATOM      9  C   UNL d   1      -3.134   0.154   1.854  0.00  0.00     0.009 C 
ENDBRANCH   7   8
ENDBRANCH   1   7
TORSDOF 2
ENDMDL
