MODEL 1
REMARK minimizedAffinity -5.10141182
REMARK minimizedRMSD -1
REMARK  2 active torsions:
REMARK  status: ('A' for Active; 'I' for Inactive)
REMARK    1  A    between atoms: C1_2  and  C2_3 
REMARK    2  A    between atoms: C2_3  and  C3_4 
ROOT
ATOM      1  C3  UNL d   1      -0.020  -1.102   0.600  0.00  0.00    -0.075 A 
ATOM      2  C4  UNL d   1       0.396  -2.247   1.296  0.00  0.00     0.002 A 
ATOM      3  C5  UNL d   1      -0.541  -3.153   1.793  0.00  0.00     0.002 A 
ATOM      4  C6  UNL d   1      -1.903  -2.922   1.611  0.00  0.00    -0.004 A 
ATOM      5  C7  UNL d   1      -2.328  -1.780   0.936  0.00  0.00     0.002 A 
ATOM      6  C8  UNL d   1      -1.392  -0.874   0.434  0.00  0.00     0.002 A 
ENDROOT
BRANCH   1   7
ATOM      7  C2  UNL d   1       0.990  -0.132   0.034  0.00  0.00     0.056 C 
BRANCH   7   8
ATOM      8  C1  UNL d   1       0.462   1.298  -0.120  0.00  0.00     0.007 C 
ATOM      9  C   UNL d   1       0.686   1.874  -1.512  0.00  0.00     0.009 C 
ENDBRANCH   7   8
ENDBRANCH   1   7
TORSDOF 2
ENDMDL
