MODEL 1
REMARK minimizedAffinity -3.58001137
REMARK minimizedRMSD -1
REMARK  2 active torsions:
REMARK  status: ('A' for Active; 'I' for Inactive)
REMARK    1  A    between atoms: C1_2  and  C2_3 
REMARK    2  A    between atoms: C2_3  and  C3_4 
ROOT
ATOM      1  C3  UNL d   1       0.495   1.096  -1.339  0.00  0.00    -0.075 A 
ATOM      2  C4  UNL d   1      -0.081   0.910  -2.604  0.00  0.00     0.002 A 
ATOM      3  C5  UNL d   1       0.556   1.388  -3.749  0.00  0.00     0.002 A 
ATOM      4  C6  UNL d   1       1.768   2.066  -3.645  0.00  0.00    -0.004 A 
ATOM      5  C7  UNL d   1       2.341   2.272  -2.392  0.00  0.00     0.002 A 
ATOM      6  C8  UNL d   1       1.709   1.791  -1.244  0.00  0.00     0.002 A 
ENDROOT
BRANCH   1   7
ATOM      7  C2  UNL d   1      -0.174   0.555  -0.098  0.00  0.00     0.056 C 
BRANCH   7   8
ATOM      8  C1  UNL d   1       0.615  -0.557   0.602  0.00  0.00     0.007 C 
ATOM      9  C   UNL d   1       0.298  -1.946   0.065  0.00  0.00     0.009 C 
ENDBRANCH   7   8
ENDBRANCH   1   7
TORSDOF 2
ENDMDL
