MODEL 1
REMARK minimizedAffinity -4.61840582
REMARK minimizedRMSD -1
REMARK  2 active torsions:
REMARK  status: ('A' for Active; 'I' for Inactive)
REMARK    1  A    between atoms: C1_2  and  C2_3 
REMARK    2  A    between atoms: C2_3  and  C3_4 
ROOT
ATOM      1  C3  UNL d   1      -0.170  -0.372  -0.136  0.00  0.00    -0.075 A 
ATOM      2  C4  UNL d   1       0.406  -1.461   0.536  0.00  0.00     0.002 A 
ATOM      3  C5  UNL d   1      -0.364  -2.256   1.385  0.00  0.00     0.002 A 
ATOM      4  C6  UNL d   1      -1.713  -1.968   1.581  0.00  0.00    -0.004 A 
ATOM      5  C7  UNL d   1      -2.291  -0.880   0.932  0.00  0.00     0.002 A 
ATOM      6  C8  UNL d   1      -1.524  -0.085   0.078  0.00  0.00     0.002 A 
ENDROOT
BRANCH   1   7
ATOM      7  C2  UNL d   1       0.651   0.474  -1.079  0.00  0.00     0.056 C 
BRANCH   7   8
ATOM      8  C1  UNL d   1      -0.061   0.814  -2.393  0.00  0.00     0.007 C 
ATOM      9  C   UNL d   1       0.805   1.615  -3.355  0.00  0.00     0.009 C 
ENDBRANCH   7   8
ENDBRANCH   1   7
TORSDOF 2
ENDMDL
