MODEL 1
REMARK minimizedAffinity -6.47361088
REMARK minimizedRMSD -1
REMARK  2 active torsions:
REMARK  status: ('A' for Active; 'I' for Inactive)
REMARK    1  A    between atoms: C1_2  and  C2_3 
REMARK    2  A    between atoms: C2_3  and  C3_4 
ROOT
ATOM      1  C3  UNL d   1      -0.418  -0.290   0.459  0.00  0.00    -0.075 A 
ATOM      2  C4  UNL d   1      -0.058  -1.563  -0.008  0.00  0.00     0.002 A 
ATOM      3  C5  UNL d   1      -0.799  -2.687   0.358  0.00  0.00     0.002 A 
ATOM      4  C6  UNL d   1      -1.900  -2.555   1.202  0.00  0.00    -0.004 A 
ATOM      5  C7  UNL d   1      -2.256  -1.298   1.685  0.00  0.00     0.002 A 
ATOM      6  C8  UNL d   1      -1.519  -0.171   1.317  0.00  0.00     0.002 A 
ENDROOT
BRANCH   1   7
ATOM      7  C2  UNL d   1       0.362   0.934   0.042  0.00  0.00     0.056 C 
BRANCH   7   8
ATOM      8  C1  UNL d   1       0.306   1.228  -1.460  0.00  0.00     0.007 C 
ATOM      9  C   UNL d   1       1.187   2.398  -1.876  0.00  0.00     0.009 C 
ENDBRANCH   7   8
ENDBRANCH   1   7
TORSDOF 2
ENDMDL
