MODEL 1
REMARK minimizedAffinity -4.87677336
REMARK minimizedRMSD -1
REMARK  2 active torsions:
REMARK  status: ('A' for Active; 'I' for Inactive)
REMARK    1  A    between atoms: C1_2  and  C2_3 
REMARK    2  A    between atoms: C2_3  and  C3_4 
ROOT
ATOM      1  C3  UNL d   1      -0.819  -0.033   0.339  0.00  0.00    -0.075 A 
ATOM      2  C4  UNL d   1      -0.006  -1.176   0.319  0.00  0.00     0.002 A 
ATOM      3  C5  UNL d   1      -0.446  -2.368   0.895  0.00  0.00     0.002 A 
ATOM      4  C6  UNL d   1      -1.696  -2.431   1.506  0.00  0.00    -0.004 A 
ATOM      5  C7  UNL d   1      -2.505  -1.297   1.545  0.00  0.00     0.002 A 
ATOM      6  C8  UNL d   1      -2.070  -0.104   0.966  0.00  0.00     0.002 A 
ENDROOT
BRANCH   1   7
ATOM      7  C2  UNL d   1      -0.360   1.252  -0.309  0.00  0.00     0.056 C 
BRANCH   7   8
ATOM      8  C1  UNL d   1       1.126   1.268  -0.679  0.00  0.00     0.007 C 
ATOM      9  C   UNL d   1       1.426   2.097  -1.921  0.00  0.00     0.009 C 
ENDBRANCH   7   8
ENDBRANCH   1   7
TORSDOF 2
ENDMDL
