MODEL 1
REMARK minimizedAffinity -4.45638037
REMARK minimizedRMSD -1
REMARK  2 active torsions:
REMARK  status: ('A' for Active; 'I' for Inactive)
REMARK    1  A    between atoms: C1_2  and  C2_3 
REMARK    2  A    between atoms: C2_3  and  C3_4 
ROOT
ATOM      1  C3  UNL d   1      -0.713   0.002   0.816  0.00  0.00    -0.075 A 
ATOM      2  C4  UNL d   1       0.153  -1.090   0.664  0.00  0.00     0.002 A 
ATOM      3  C5  UNL d   1      -0.255  -2.375   1.024  0.00  0.00     0.002 A 
ATOM      4  C6  UNL d   1      -1.529  -2.582   1.550  0.00  0.00    -0.004 A 
ATOM      5  C7  UNL d   1      -2.392  -1.502   1.721  0.00  0.00     0.002 A 
ATOM      6  C8  UNL d   1      -1.987  -0.217   1.357  0.00  0.00     0.002 A 
ENDROOT
BRANCH   1   7
ATOM      7  C2  UNL d   1      -0.288   1.390   0.401  0.00  0.00     0.056 C 
BRANCH   7   8
ATOM      8  C1  UNL d   1       0.886   1.413  -0.584  0.00  0.00     0.007 C 
ATOM      9  C   UNL d   1       0.521   2.008  -1.938  0.00  0.00     0.009 C 
ENDBRANCH   7   8
ENDBRANCH   1   7
TORSDOF 2
ENDMDL
