MODEL 1
REMARK minimizedAffinity -6.30969954
REMARK minimizedRMSD -1
REMARK  2 active torsions:
REMARK  status: ('A' for Active; 'I' for Inactive)
REMARK    1  A    between atoms: C1_2  and  C2_3 
REMARK    2  A    between atoms: C2_3  and  C3_4 
ROOT
ATOM      1  C3  UNL d   1      -1.096  -0.662   0.255  0.00  0.00    -0.075 A 
ATOM      2  C4  UNL d   1      -2.024  -0.079   1.131  0.00  0.00     0.002 A 
ATOM      3  C5  UNL d   1      -2.843  -0.878   1.930  0.00  0.00     0.002 A 
ATOM      4  C6  UNL d   1      -2.753  -2.266   1.856  0.00  0.00    -0.004 A 
ATOM      5  C7  UNL d   1      -1.846  -2.856   0.978  0.00  0.00     0.002 A 
ATOM      6  C8  UNL d   1      -1.022  -2.060   0.181  0.00  0.00     0.002 A 
ENDROOT
BRANCH   1   7
ATOM      7  C2  UNL d   1      -0.186   0.196  -0.590  0.00  0.00     0.056 C 
BRANCH   7   8
ATOM      8  C1  UNL d   1       1.131   0.573   0.096  0.00  0.00     0.007 C 
ATOM      9  C   UNL d   1       1.828  -0.613   0.750  0.00  0.00     0.009 C 
ENDBRANCH   7   8
ENDBRANCH   1   7
TORSDOF 2
ENDMDL
