MODEL 1
REMARK minimizedAffinity -6.04928875
REMARK minimizedRMSD -1
REMARK  2 active torsions:
REMARK  status: ('A' for Active; 'I' for Inactive)
REMARK    1  A    between atoms: C1_2  and  C2_3 
REMARK    2  A    between atoms: C2_3  and  C3_4 
ROOT
ATOM      1  C3  UNL d   1      -0.453  -0.157   0.453  0.00  0.00    -0.075 A 
ATOM      2  C4  UNL d   1      -0.025  -1.492   0.426  0.00  0.00     0.002 A 
ATOM      3  C5  UNL d   1      -0.825  -2.504   0.958  0.00  0.00     0.002 A 
ATOM      4  C6  UNL d   1      -2.056  -2.194   1.532  0.00  0.00    -0.004 A 
ATOM      5  C7  UNL d   1      -2.484  -0.869   1.579  0.00  0.00     0.002 A 
ATOM      6  C8  UNL d   1      -1.688   0.145   1.044  0.00  0.00     0.002 A 
ENDROOT
BRANCH   1   7
ATOM      7  C2  UNL d   1       0.395   0.938  -0.147  0.00  0.00     0.056 C 
BRANCH   7   8
ATOM      8  C1  UNL d   1       0.104   1.212  -1.627  0.00  0.00     0.007 C 
ATOM      9  C   UNL d   1       1.221   1.975  -2.326  0.00  0.00     0.009 C 
ENDBRANCH   7   8
ENDBRANCH   1   7
TORSDOF 2
ENDMDL
