MODEL 1
REMARK minimizedAffinity -0.961304605
REMARK minimizedRMSD -1
REMARK  2 active torsions:
REMARK  status: ('A' for Active; 'I' for Inactive)
REMARK    1  A    between atoms: C1_2  and  C2_3 
REMARK    2  A    between atoms: C2_3  and  C3_4 
ROOT
ATOM      1  C3  UNL d   1       0.507   1.372  -1.336  0.00  0.00    -0.075 A 
ATOM      2  C4  UNL d   1       1.754   1.267  -1.969  0.00  0.00     0.002 A 
ATOM      3  C5  UNL d   1       1.910   1.664  -3.298  0.00  0.00     0.002 A 
ATOM      4  C6  UNL d   1       0.821   2.162  -4.011  0.00  0.00    -0.004 A 
ATOM      5  C7  UNL d   1      -0.426   2.256  -3.397  0.00  0.00     0.002 A 
ATOM      6  C8  UNL d   1      -0.583   1.863  -2.067  0.00  0.00     0.002 A 
ENDROOT
BRANCH   1   7
ATOM      7  C2  UNL d   1       0.339   0.971   0.110  0.00  0.00     0.056 C 
BRANCH   7   8
ATOM      8  C1  UNL d   1      -0.437  -0.336   0.309  0.00  0.00     0.007 C 
ATOM      9  C   UNL d   1       0.463  -1.529   0.599  0.00  0.00     0.009 C 
ENDBRANCH   7   8
ENDBRANCH   1   7
TORSDOF 2
ENDMDL
