MODEL 1
REMARK minimizedAffinity -5.24103975
REMARK minimizedRMSD -1
REMARK  2 active torsions:
REMARK  status: ('A' for Active; 'I' for Inactive)
REMARK    1  A    between atoms: C1_2  and  C2_3 
REMARK    2  A    between atoms: C2_3  and  C3_4 
ROOT
ATOM      1  C3  UNL d   1      -0.654  -0.085   0.238  0.00  0.00    -0.075 A 
ATOM      2  C4  UNL d   1      -1.722   0.389   1.014  0.00  0.00     0.002 A 
ATOM      3  C5  UNL d   1      -2.480  -0.491   1.788  0.00  0.00     0.002 A 
ATOM      4  C6  UNL d   1      -2.187  -1.853   1.788  0.00  0.00    -0.004 A 
ATOM      5  C7  UNL d   1      -1.139  -2.336   1.008  0.00  0.00     0.002 A 
ATOM      6  C8  UNL d   1      -0.376  -1.458   0.237  0.00  0.00     0.002 A 
ENDROOT
BRANCH   1   7
ATOM      7  C2  UNL d   1       0.189   0.866  -0.578  0.00  0.00     0.056 C 
BRANCH   7   8
ATOM      8  C1  UNL d   1      -0.406   1.207  -1.949  0.00  0.00     0.007 C 
ATOM      9  C   UNL d   1       0.609   1.813  -2.909  0.00  0.00     0.009 C 
ENDBRANCH   7   8
ENDBRANCH   1   7
TORSDOF 2
ENDMDL
