MODEL 1
REMARK minimizedAffinity -5.49865675
REMARK minimizedRMSD -1
REMARK  2 active torsions:
REMARK  status: ('A' for Active; 'I' for Inactive)
REMARK    1  A    between atoms: C1_2  and  C2_3 
REMARK    2  A    between atoms: C2_3  and  C3_4 
ROOT
ATOM      1  C3  UNL d   1      -0.532  -0.348   0.488  0.00  0.00    -0.075 A 
ATOM      2  C4  UNL d   1      -1.603   0.433   0.946  0.00  0.00     0.002 A 
ATOM      3  C5  UNL d   1      -2.628  -0.142   1.698  0.00  0.00     0.002 A 
ATOM      4  C6  UNL d   1      -2.602  -1.504   1.991  0.00  0.00    -0.004 A 
ATOM      5  C7  UNL d   1      -1.551  -2.293   1.526  0.00  0.00     0.002 A 
ATOM      6  C8  UNL d   1      -0.522  -1.719   0.778  0.00  0.00     0.002 A 
ENDROOT
BRANCH   1   7
ATOM      7  C2  UNL d   1       0.596   0.273  -0.301  0.00  0.00     0.056 C 
BRANCH   7   8
ATOM      8  C1  UNL d   1       0.165   1.448  -1.186  0.00  0.00     0.007 C 
ATOM      9  C   UNL d   1       1.018   1.600  -2.438  0.00  0.00     0.009 C 
ENDBRANCH   7   8
ENDBRANCH   1   7
TORSDOF 2
ENDMDL
