MODEL 1
REMARK minimizedAffinity -2.11559439
REMARK minimizedRMSD -1
REMARK  2 active torsions:
REMARK  status: ('A' for Active; 'I' for Inactive)
REMARK    1  A    between atoms: C1_2  and  C2_3 
REMARK    2  A    between atoms: C2_3  and  C3_4 
ROOT
ATOM      1  C3  UNL d   1       0.954   1.773  -1.736  0.00  0.00    -0.075 A 
ATOM      2  C4  UNL d   1       0.073   2.309  -2.686  0.00  0.00     0.002 A 
ATOM      3  C5  UNL d   1       0.504   2.563  -3.988  0.00  0.00     0.002 A 
ATOM      4  C6  UNL d   1       1.821   2.294  -4.354  0.00  0.00    -0.004 A 
ATOM      5  C7  UNL d   1       2.710   1.776  -3.414  0.00  0.00     0.002 A 
ATOM      6  C8  UNL d   1       2.280   1.517  -2.112  0.00  0.00     0.002 A 
ENDROOT
BRANCH   1   7
ATOM      7  C2  UNL d   1       0.486   1.468  -0.333  0.00  0.00     0.056 C 
BRANCH   7   8
ATOM      8  C1  UNL d   1       0.388  -0.029  -0.020  0.00  0.00     0.007 C 
ATOM      9  C   UNL d   1      -1.047  -0.534   0.053  0.00  0.00     0.009 C 
ENDBRANCH   7   8
ENDBRANCH   1   7
TORSDOF 2
ENDMDL
