MODEL 1
REMARK minimizedAffinity -3.73011875
REMARK minimizedRMSD -1
REMARK  2 active torsions:
REMARK  status: ('A' for Active; 'I' for Inactive)
REMARK    1  A    between atoms: C1_2  and  C2_3 
REMARK    2  A    between atoms: C2_3  and  C3_4 
ROOT
ATOM      1  C3  UNL d   1      -0.989  -1.059   0.723  0.00  0.00    -0.075 A 
ATOM      2  C4  UNL d   1      -1.564   0.219   0.673  0.00  0.00     0.002 A 
ATOM      3  C5  UNL d   1      -2.496   0.615   1.633  0.00  0.00     0.002 A 
ATOM      4  C6  UNL d   1      -2.872  -0.263   2.647  0.00  0.00    -0.004 A 
ATOM      5  C7  UNL d   1      -2.319  -1.541   2.697  0.00  0.00     0.002 A 
ATOM      6  C8  UNL d   1      -1.383  -1.938   1.741  0.00  0.00     0.002 A 
ENDROOT
BRANCH   1   7
ATOM      7  C2  UNL d   1       0.042  -1.483  -0.295  0.00  0.00     0.056 C 
BRANCH   7   8
ATOM      8  C1  UNL d   1       1.449  -0.940  -0.022  0.00  0.00     0.007 C 
ATOM      9  C   UNL d   1       1.540   0.576  -0.136  0.00  0.00     0.009 C 
ENDBRANCH   7   8
ENDBRANCH   1   7
TORSDOF 2
ENDMDL
