MODEL 1
REMARK minimizedAffinity -4.91278553
REMARK minimizedRMSD -1
REMARK  2 active torsions:
REMARK  status: ('A' for Active; 'I' for Inactive)
REMARK    1  A    between atoms: C1_2  and  C2_3 
REMARK    2  A    between atoms: C2_3  and  C3_4 
ROOT
ATOM      1  C3  UNL d   1      -0.759  -0.555   0.495  0.00  0.00    -0.075 A 
ATOM      2  C4  UNL d   1      -1.730   0.401   0.826  0.00  0.00     0.002 A 
ATOM      3  C5  UNL d   1      -2.851   0.042   1.576  0.00  0.00     0.002 A 
ATOM      4  C6  UNL d   1      -3.019  -1.276   1.995  0.00  0.00    -0.004 A 
ATOM      5  C7  UNL d   1      -2.069  -2.237   1.657  0.00  0.00     0.002 A 
ATOM      6  C8  UNL d   1      -0.945  -1.880   0.910  0.00  0.00     0.002 A 
ENDROOT
BRANCH   1   7
ATOM      7  C2  UNL d   1       0.470  -0.166  -0.291  0.00  0.00     0.056 C 
BRANCH   7   8
ATOM      8  C1  UNL d   1       0.782   1.334  -0.260  0.00  0.00     0.007 C 
ATOM      9  C   UNL d   1       1.140   1.901  -1.627  0.00  0.00     0.009 C 
ENDBRANCH   7   8
ENDBRANCH   1   7
TORSDOF 2
ENDMDL
