MODEL 1
REMARK minimizedAffinity 0.854201138
REMARK minimizedRMSD -1
REMARK  0 active torsions:
REMARK  status: ('A' for Active; 'I' for Inactive)
ROOT
ATOM      1  C1  DEN d   1       0.404   1.460   1.776  0.00  0.00     0.130 A 
ATOM      2  C2  DEN d   1      -1.012   1.438   2.135  0.00  0.00    -0.031 A 
ATOM      3  C3  DEN d   1      -1.655   0.338   1.388  0.00  0.00     0.027 A 
ATOM      4  C4  DEN d   1      -0.602  -1.325  -0.278  0.00  0.00     0.027 A 
ATOM      5  C5  DEN d   1       0.565  -1.692  -0.912  0.00  0.00    -0.003 A 
ATOM      6  C6  DEN d   1       1.742  -1.019  -0.722  0.00  0.00     0.001 A 
ATOM      7  C7  DEN d   1       1.790   0.030   0.158  0.00  0.00     0.017 A 
ATOM      8  C8  DEN d   1       0.616   0.411   0.795  0.00  0.00    -0.094 A 
ATOM      9  C9  DEN d   1      -0.562  -0.290   0.599  0.00  0.00    -0.072 A 
ENDROOT
TORSDOF 0
ENDMDL
