MODEL 1
REMARK minimizedAffinity -2.44990778
REMARK minimizedRMSD -1
REMARK  0 active torsions:
REMARK  status: ('A' for Active; 'I' for Inactive)
ROOT
ATOM      1  C1  DEN d   1       4.211   1.155   1.221  0.00  0.00     0.130 A 
ATOM      2  C2  DEN d   1       4.807   1.885   2.336  0.00  0.00    -0.031 A 
ATOM      3  C3  DEN d   1       3.711   2.408   3.176  0.00  0.00     0.027 A 
ATOM      4  C4  DEN d   1       1.163   2.156   2.862  0.00  0.00     0.027 A 
ATOM      5  C5  DEN d   1       0.178   1.631   2.055  0.00  0.00    -0.003 A 
ATOM      6  C6  DEN d   1       0.466   0.945   0.904  0.00  0.00     0.001 A 
ATOM      7  C7  DEN d   1       1.771   0.727   0.552  0.00  0.00     0.017 A 
ATOM      8  C8  DEN d   1       2.770   1.260   1.357  0.00  0.00    -0.094 A 
ATOM      9  C9  DEN d   1       2.459   1.939   2.523  0.00  0.00    -0.072 A 
ENDROOT
TORSDOF 0
ENDMDL
