MODEL 1
REMARK minimizedAffinity 0.393535256
REMARK minimizedRMSD -1
REMARK  0 active torsions:
REMARK  status: ('A' for Active; 'I' for Inactive)
ROOT
ATOM      1  C1  DEN d   1      -0.504   0.298  -3.532  0.00  0.00     0.130 A 
ATOM      2  C2  DEN d   1      -0.889  -1.110  -3.565  0.00  0.00    -0.031 A 
ATOM      3  C3  DEN d   1      -0.149  -1.810  -2.496  0.00  0.00     0.027 A 
ATOM      4  C4  DEN d   1       1.542  -0.855  -0.799  0.00  0.00     0.027 A 
ATOM      5  C5  DEN d   1       2.198   0.285  -0.388  0.00  0.00    -0.003 A 
ATOM      6  C6  DEN d   1       2.026   1.492  -1.012  0.00  0.00     0.001 A 
ATOM      7  C7  DEN d   1       1.143   1.597  -2.055  0.00  0.00     0.017 A 
ATOM      8  C8  DEN d   1       0.484   0.451  -2.480  0.00  0.00    -0.094 A 
ATOM      9  C9  DEN d   1       0.662  -0.757  -1.827  0.00  0.00    -0.072 A 
ENDROOT
TORSDOF 0
ENDMDL
