MODEL 1
REMARK minimizedAffinity 5.73285007
REMARK minimizedRMSD -1
REMARK  0 active torsions:
REMARK  status: ('A' for Active; 'I' for Inactive)
ROOT
ATOM      1  C1  DEN d   1      -2.214   2.192   2.279  0.00  0.00     0.130 A 
ATOM      2  C2  DEN d   1      -2.489   0.930   2.960  0.00  0.00    -0.031 A 
ATOM      3  C3  DEN d   1      -1.216   0.190   3.081  0.00  0.00     0.027 A 
ATOM      4  C4  DEN d   1       1.141   0.874   2.289  0.00  0.00     0.027 A 
ATOM      5  C5  DEN d   1       1.870   1.852   1.649  0.00  0.00    -0.003 A 
ATOM      6  C6  DEN d   1       1.288   2.986   1.148  0.00  0.00     0.001 A 
ATOM      7  C7  DEN d   1      -0.055   3.193   1.318  0.00  0.00     0.017 A 
ATOM      8  C8  DEN d   1      -0.798   2.208   1.956  0.00  0.00    -0.094 A 
ATOM      9  C9  DEN d   1      -0.190   1.074   2.467  0.00  0.00    -0.072 A 
ENDROOT
TORSDOF 0
ENDMDL
