MODEL 1
REMARK minimizedAffinity 7.97003651
REMARK minimizedRMSD -1
REMARK  0 active torsions:
REMARK  status: ('A' for Active; 'I' for Inactive)
ROOT
ATOM      1  C1  DEN d   1       0.240   2.481   2.352  0.00  0.00     0.130 A 
ATOM      2  C2  DEN d   1       1.600   1.951   2.401  0.00  0.00    -0.031 A 
ATOM      3  C3  DEN d   1       1.594   0.616   1.771  0.00  0.00     0.027 A 
ATOM      4  C4  DEN d   1      -0.379  -0.674   0.723  0.00  0.00     0.027 A 
ATOM      5  C5  DEN d   1      -1.730  -0.636   0.456  0.00  0.00    -0.003 A 
ATOM      6  C6  DEN d   1      -2.518   0.420   0.829  0.00  0.00     0.001 A 
ATOM      7  C7  DEN d   1      -1.954   1.502   1.450  0.00  0.00     0.017 A 
ATOM      8  C8  DEN d   1      -0.594   1.468   1.730  0.00  0.00    -0.094 A 
ATOM      9  C9  DEN d   1       0.188   0.397   1.334  0.00  0.00    -0.072 A 
ENDROOT
TORSDOF 0
ENDMDL
