MODEL 1
REMARK minimizedAffinity 6.41554546
REMARK minimizedRMSD -1
REMARK  0 active torsions:
REMARK  status: ('A' for Active; 'I' for Inactive)
ROOT
ATOM      1  C1  DEN d   1       1.467   0.072  -3.602  0.00  0.00     0.130 A 
ATOM      2  C2  DEN d   1       0.123   0.556  -3.301  0.00  0.00    -0.031 A 
ATOM      3  C3  DEN d   1      -0.004   0.667  -1.834  0.00  0.00     0.027 A 
ATOM      4  C4  DEN d   1       1.743   0.144  -0.010  0.00  0.00     0.027 A 
ATOM      5  C5  DEN d   1       3.024  -0.306   0.222  0.00  0.00    -0.003 A 
ATOM      6  C6  DEN d   1       3.858  -0.690  -0.795  0.00  0.00     0.001 A 
ATOM      7  C7  DEN d   1       3.435  -0.590  -2.094  0.00  0.00     0.017 A 
ATOM      8  C8  DEN d   1       2.142  -0.144  -2.335  0.00  0.00    -0.094 A 
ATOM      9  C9  DEN d   1       1.319   0.252  -1.294  0.00  0.00    -0.072 A 
ENDROOT
TORSDOF 0
ENDMDL
