MODEL 1
REMARK minimizedAffinity 7.56111574
REMARK minimizedRMSD -1
REMARK  0 active torsions:
REMARK  status: ('A' for Active; 'I' for Inactive)
ROOT
ATOM      1  C1  DEN d   1       2.432   1.180  -0.190  0.00  0.00     0.130 A 
ATOM      2  C2  DEN d   1       2.375  -0.152  -0.786  0.00  0.00    -0.031 A 
ATOM      3  C3  DEN d   1       1.283  -0.899  -0.130  0.00  0.00     0.027 A 
ATOM      4  C4  DEN d   1      -0.319  -0.126   1.737  0.00  0.00     0.027 A 
ATOM      5  C5  DEN d   1      -0.650   0.920   2.571  0.00  0.00    -0.003 A 
ATOM      6  C6  DEN d   1       0.040   2.103   2.567  0.00  0.00     0.001 A 
ATOM      7  C7  DEN d   1       1.068   2.286   1.680  0.00  0.00     0.017 A 
ATOM      8  C8  DEN d   1       1.412   1.235   0.841  0.00  0.00    -0.094 A 
ATOM      9  C9  DEN d   1       0.694   0.050   0.851  0.00  0.00    -0.072 A 
ENDROOT
TORSDOF 0
ENDMDL
