MODEL 1
REMARK minimizedAffinity 12.9400816
REMARK minimizedRMSD -1
REMARK  0 active torsions:
REMARK  status: ('A' for Active; 'I' for Inactive)
ROOT
ATOM      1  C1  DEN d   1       2.631   1.801   1.152  0.00  0.00     0.130 A 
ATOM      2  C2  DEN d   1       1.496   1.606   2.049  0.00  0.00    -0.031 A 
ATOM      3  C3  DEN d   1       0.775   0.391   1.617  0.00  0.00     0.027 A 
ATOM      4  C4  DEN d   1       1.308  -1.201  -0.341  0.00  0.00     0.027 A 
ATOM      5  C5  DEN d   1       2.166  -1.440  -1.392  0.00  0.00    -0.003 A 
ATOM      6  C6  DEN d   1       3.210  -0.604  -1.687  0.00  0.00     0.001 A 
ATOM      7  C7  DEN d   1       3.451   0.487  -0.895  0.00  0.00     0.017 A 
ATOM      8  C8  DEN d   1       2.586   0.739   0.162  0.00  0.00    -0.094 A 
ATOM      9  C9  DEN d   1       1.543  -0.124   0.452  0.00  0.00    -0.072 A 
ENDROOT
TORSDOF 0
ENDMDL
