MODEL 1
REMARK minimizedAffinity 2.24537849
REMARK minimizedRMSD -1
REMARK  0 active torsions:
REMARK  status: ('A' for Active; 'I' for Inactive)
ROOT
ATOM      1  C1  DEN d   1      -3.756   3.432   1.304  0.00  0.00     0.130 A 
ATOM      2  C2  DEN d   1      -3.984   4.178   0.070  0.00  0.00    -0.031 A 
ATOM      3  C3  DEN d   1      -4.869   5.318   0.383  0.00  0.00     0.027 A 
ATOM      4  C4  DEN d   1      -5.898   6.000   2.647  0.00  0.00     0.027 A 
ATOM      5  C5  DEN d   1      -6.000   5.666   3.980  0.00  0.00    -0.003 A 
ATOM      6  C6  DEN d   1      -5.393   4.555   4.503  0.00  0.00     0.001 A 
ATOM      7  C7  DEN d   1      -4.620   3.761   3.697  0.00  0.00     0.017 A 
ATOM      8  C8  DEN d   1      -4.519   4.087   2.351  0.00  0.00    -0.094 A 
ATOM      9  C9  DEN d   1      -5.129   5.221   1.844  0.00  0.00    -0.072 A 
ENDROOT
TORSDOF 0
ENDMDL
