MODEL 1
REMARK minimizedAffinity 17.241106
REMARK minimizedRMSD -1
REMARK  0 active torsions:
REMARK  status: ('A' for Active; 'I' for Inactive)
ROOT
ATOM      1  C1  DEN d   1      -0.584   2.543   2.880  0.00  0.00     0.130 A 
ATOM      2  C2  DEN d   1       0.662   2.017   2.328  0.00  0.00    -0.031 A 
ATOM      3  C3  DEN d   1       0.415   0.631   1.883  0.00  0.00     0.027 A 
ATOM      4  C4  DEN d   1      -1.764  -0.744   1.991  0.00  0.00     0.027 A 
ATOM      5  C5  DEN d   1      -3.083  -0.728   2.387  0.00  0.00    -0.003 A 
ATOM      6  C6  DEN d   1      -3.648   0.358   3.001  0.00  0.00     0.001 A 
ATOM      7  C7  DEN d   1      -2.903   1.491   3.196  0.00  0.00     0.017 A 
ATOM      8  C8  DEN d   1      -1.570   1.480   2.806  0.00  0.00    -0.094 A 
ATOM      9  C9  DEN d   1      -1.021   0.376   2.176  0.00  0.00    -0.072 A 
ENDROOT
TORSDOF 0
ENDMDL
