MODEL 1
REMARK minimizedAffinity 0.103885897
REMARK minimizedRMSD -1
REMARK  0 active torsions:
REMARK  status: ('A' for Active; 'I' for Inactive)
ROOT
ATOM      1  C1  DEN d   1       2.024   0.016  -0.605  0.00  0.00     0.130 A 
ATOM      2  C2  DEN d   1       1.272  -1.227  -0.750  0.00  0.00    -0.031 A 
ATOM      3  C3  DEN d   1      -0.023  -1.061  -0.059  0.00  0.00     0.027 A 
ATOM      4  C4  DEN d   1      -0.932   0.992   1.211  0.00  0.00     0.027 A 
ATOM      5  C5  DEN d   1      -0.649   2.279   1.613  0.00  0.00    -0.003 A 
ATOM      6  C6  DEN d   1       0.548   2.884   1.336  0.00  0.00     0.001 A 
ATOM      7  C7  DEN d   1       1.490   2.218   0.598  0.00  0.00     0.017 A 
ATOM      8  C8  DEN d   1       1.216   0.918   0.195  0.00  0.00    -0.094 A 
ATOM      9  C9  DEN d   1      -0.005   0.328   0.474  0.00  0.00    -0.072 A 
ENDROOT
TORSDOF 0
ENDMDL
