MODEL 1
REMARK minimizedAffinity 9.53290176
REMARK minimizedRMSD -1
REMARK  0 active torsions:
REMARK  status: ('A' for Active; 'I' for Inactive)
ROOT
ATOM      1  C1  DEN d   1      -0.437   1.300   1.318  0.00  0.00     0.130 A 
ATOM      2  C2  DEN d   1       0.185   2.455   1.959  0.00  0.00    -0.031 A 
ATOM      3  C3  DEN d   1       1.618   2.459   1.601  0.00  0.00     0.027 A 
ATOM      4  C4  DEN d   1       2.925   0.800   0.120  0.00  0.00     0.027 A 
ATOM      5  C5  DEN d   1       2.827  -0.348  -0.635  0.00  0.00    -0.003 A 
ATOM      6  C6  DEN d   1       1.652  -1.041  -0.763  0.00  0.00     0.001 A 
ATOM      7  C7  DEN d   1       0.516  -0.566  -0.163  0.00  0.00     0.017 A 
ATOM      8  C8  DEN d   1       0.608   0.587   0.606  0.00  0.00    -0.094 A 
ATOM      9  C9  DEN d   1       1.802   1.279   0.713  0.00  0.00    -0.072 A 
ENDROOT
TORSDOF 0
ENDMDL
