MODEL 1
REMARK minimizedAffinity -2.79377747
REMARK minimizedRMSD -1
REMARK  0 active torsions:
REMARK  status: ('A' for Active; 'I' for Inactive)
ROOT
ATOM      1  C1  DEN d   1       0.560  -1.352  -0.451  0.00  0.00     0.130 A 
ATOM      2  C2  DEN d   1       1.946  -1.178  -0.879  0.00  0.00    -0.031 A 
ATOM      3  C3  DEN d   1       2.501  -0.010  -0.167  0.00  0.00     0.027 A 
ATOM      4  C4  DEN d   1       1.358   1.536   1.553  0.00  0.00     0.027 A 
ATOM      5  C5  DEN d   1       0.183   1.791   2.226  0.00  0.00    -0.003 A 
ATOM      6  C6  DEN d   1      -0.948   1.045   2.030  0.00  0.00     0.001 A 
ATOM      7  C7  DEN d   1      -0.917  -0.023   1.173  0.00  0.00     0.017 A 
ATOM      8  C8  DEN d   1       0.262  -0.283   0.485  0.00  0.00    -0.094 A 
ATOM      9  C9  DEN d   1       1.398   0.476   0.706  0.00  0.00    -0.072 A 
ENDROOT
TORSDOF 0
ENDMDL
