MODEL 1
REMARK minimizedAffinity -2.70570564
REMARK minimizedRMSD -1
REMARK  1 active torsions:
REMARK  status: ('A' for Active; 'I' for Inactive)
REMARK    1  A    between atoms: C3_4  and  O_7 
ROOT
ATOM      1  C   UNL d   1      -0.603   0.003   0.781  0.00  0.00    -0.033 A 
ATOM      2  C1  UNL d   1       0.781  -0.018   0.599  0.00  0.00     0.039 A 
ATOM      3  C2  UNL d   1       1.617  -0.443   1.634  0.00  0.00    -0.080 A 
ATOM      4  C3  UNL d   1       1.056  -0.845   2.843  0.00  0.00     0.150 A 
ATOM      5  C4  UNL d   1      -0.322  -0.831   3.030  0.00  0.00    -0.007 A 
ATOM      6  C5  UNL d   1      -1.155  -0.405   1.996  0.00  0.00     0.039 A 
ENDROOT
BRANCH   4   7
ATOM      7  O   UNL d   1       1.831  -1.263   3.884  0.00  0.00    -0.526 OA
ATOM      8  H5  UNL d   1       2.764  -1.192   3.621  0.00  0.00     0.418 HD
ENDBRANCH   4   7
TORSDOF 1
ENDMDL
