MODEL 1
REMARK minimizedAffinity -3.21016955
REMARK minimizedRMSD -1
REMARK  1 active torsions:
REMARK  status: ('A' for Active; 'I' for Inactive)
REMARK    1  A    between atoms: C3_4  and  O_7 
ROOT
ATOM      1  C   UNL d   1       0.262   0.068  -0.696  0.00  0.00    -0.033 A 
ATOM      2  C1  UNL d   1      -0.677   0.080   0.338  0.00  0.00     0.039 A 
ATOM      3  C2  UNL d   1      -0.287  -0.233   1.641  0.00  0.00    -0.080 A 
ATOM      4  C3  UNL d   1       1.043  -0.553   1.898  0.00  0.00     0.150 A 
ATOM      5  C4  UNL d   1       1.985  -0.563   0.875  0.00  0.00    -0.007 A 
ATOM      6  C5  UNL d   1       1.593  -0.252  -0.427  0.00  0.00     0.039 A 
ENDROOT
BRANCH   4   7
ATOM      7  O   UNL d   1       1.470  -0.870   3.154  0.00  0.00    -0.526 OA
ATOM      8  H5  UNL d   1       0.705  -0.850   3.753  0.00  0.00     0.418 HD
ENDBRANCH   4   7
TORSDOF 1
ENDMDL
