MODEL 1
REMARK minimizedAffinity -4.72421312
REMARK minimizedRMSD -1
REMARK  1 active torsions:
REMARK  status: ('A' for Active; 'I' for Inactive)
REMARK    1  A    between atoms: C3_4  and  O_7 
ROOT
ATOM      1  C   UNL d   1       1.029  -0.818   3.042  0.00  0.00    -0.033 A 
ATOM      2  C1  UNL d   1       1.967  -0.235   2.187  0.00  0.00     0.039 A 
ATOM      3  C2  UNL d   1       1.565   0.273   0.950  0.00  0.00    -0.080 A 
ATOM      4  C3  UNL d   1       0.225   0.194   0.581  0.00  0.00     0.150 A 
ATOM      5  C4  UNL d   1      -0.715  -0.382   1.429  0.00  0.00    -0.007 A 
ATOM      6  C5  UNL d   1      -0.312  -0.890   2.663  0.00  0.00     0.039 A 
ENDROOT
BRANCH   4   7
ATOM      7  O   UNL d   1      -0.213   0.672  -0.618  0.00  0.00    -0.526 OA
ATOM      8  H5  UNL d   1       0.551   1.015  -1.111  0.00  0.00     0.418 HD
ENDBRANCH   4   7
TORSDOF 1
ENDMDL
