MODEL 1
REMARK minimizedAffinity -3.29348183
REMARK minimizedRMSD -1
REMARK  1 active torsions:
REMARK  status: ('A' for Active; 'I' for Inactive)
REMARK    1  A    between atoms: C3_4  and  O_7 
ROOT
ATOM      1  C   UNL d   1      -0.192   0.200  -1.095  0.00  0.00    -0.033 A 
ATOM      2  C1  UNL d   1       1.155  -0.100  -0.882  0.00  0.00     0.039 A 
ATOM      3  C2  UNL d   1       1.622  -0.338   0.412  0.00  0.00    -0.080 A 
ATOM      4  C3  UNL d   1       0.734  -0.275   1.482  0.00  0.00     0.150 A 
ATOM      5  C4  UNL d   1      -0.610   0.019   1.276  0.00  0.00    -0.007 A 
ATOM      6  C5  UNL d   1      -1.075   0.258  -0.016  0.00  0.00     0.039 A 
ENDROOT
BRANCH   4   7
ATOM      7  O   UNL d   1       1.145  -0.496   2.763  0.00  0.00    -0.526 OA
ATOM      8  H5  UNL d   1       2.103  -0.659   2.755  0.00  0.00     0.418 HD
ENDBRANCH   4   7
TORSDOF 1
ENDMDL
