MODEL 1
REMARK minimizedAffinity -3.56063056
REMARK minimizedRMSD -1
REMARK  1 active torsions:
REMARK  status: ('A' for Active; 'I' for Inactive)
REMARK    1  A    between atoms: C3_4  and  O_7 
ROOT
ATOM      1  C   UNL d   1       0.059   0.271  -0.103  0.00  0.00    -0.033 A 
ATOM      2  C1  UNL d   1      -0.813  -0.119   0.915  0.00  0.00     0.039 A 
ATOM      3  C2  UNL d   1      -0.308  -0.519   2.154  0.00  0.00    -0.080 A 
ATOM      4  C3  UNL d   1       1.069  -0.523   2.362  0.00  0.00     0.150 A 
ATOM      5  C4  UNL d   1       1.943  -0.131   1.353  0.00  0.00    -0.007 A 
ATOM      6  C5  UNL d   1       1.437   0.267   0.116  0.00  0.00     0.039 A 
ENDROOT
BRANCH   4   7
ATOM      7  O   UNL d   1       1.609  -0.909   3.552  0.00  0.00    -0.526 OA
ATOM      8  H5  UNL d   1       0.887  -1.180   4.144  0.00  0.00     0.418 HD
ENDBRANCH   4   7
TORSDOF 1
ENDMDL
