MODEL 1
REMARK minimizedAffinity -4.95841122
REMARK minimizedRMSD -1
REMARK  1 active torsions:
REMARK  status: ('A' for Active; 'I' for Inactive)
REMARK    1  A    between atoms: C3_4  and  O_7 
ROOT
ATOM      1  C   UNL d   1      -0.613   0.433   0.696  0.00  0.00    -0.033 A 
ATOM      2  C1  UNL d   1       0.777   0.366   0.583  0.00  0.00     0.039 A 
ATOM      3  C2  UNL d   1       1.542  -0.133   1.639  0.00  0.00    -0.080 A 
ATOM      4  C3  UNL d   1       0.905  -0.563   2.800  0.00  0.00     0.150 A 
ATOM      5  C4  UNL d   1      -0.479  -0.502   2.918  0.00  0.00    -0.007 A 
ATOM      6  C5  UNL d   1      -1.241  -0.003   1.863  0.00  0.00     0.039 A 
ENDROOT
BRANCH   4   7
ATOM      7  O   UNL d   1       1.610  -1.053   3.859  0.00  0.00    -0.526 OA
ATOM      8  H5  UNL d   1       2.557  -1.008   3.646  0.00  0.00     0.418 HD
ENDBRANCH   4   7
TORSDOF 1
ENDMDL
