MODEL 1
REMARK minimizedAffinity -5.12136364
REMARK minimizedRMSD -1
REMARK  1 active torsions:
REMARK  status: ('A' for Active; 'I' for Inactive)
REMARK    1  A    between atoms: C3_4  and  O_7 
ROOT
ATOM      1  C   UNL d   1      -0.044  -0.226  -0.127  0.00  0.00    -0.033 A 
ATOM      2  C1  UNL d   1      -0.867  -0.130   0.996  0.00  0.00     0.039 A 
ATOM      3  C2  UNL d   1      -0.324  -0.260   2.276  0.00  0.00    -0.080 A 
ATOM      4  C3  UNL d   1       1.043  -0.486   2.417  0.00  0.00     0.150 A 
ATOM      5  C4  UNL d   1       1.869  -0.579   1.303  0.00  0.00    -0.007 A 
ATOM      6  C5  UNL d   1       1.324  -0.449   0.026  0.00  0.00     0.039 A 
ENDROOT
BRANCH   4   7
ATOM      7  O   UNL d   1       1.619  -0.625   3.645  0.00  0.00    -0.526 OA
ATOM      8  H5  UNL d   1       0.922  -0.566   4.320  0.00  0.00     0.418 HD
ENDBRANCH   4   7
TORSDOF 1
ENDMDL
