MODEL 1
REMARK minimizedAffinity -2.80740929
REMARK minimizedRMSD -1
REMARK  1 active torsions:
REMARK  status: ('A' for Active; 'I' for Inactive)
REMARK    1  A    between atoms: C1_2  and  C2_3 
ROOT
ATOM      1  C2  UNL d   1       0.177  -0.250  -0.349  0.00  0.00    -0.073 A 
ATOM      2  C3  UNL d   1       1.040  -0.489   0.725  0.00  0.00    -0.002 A 
ATOM      3  C4  UNL d   1       0.766   0.049   1.983  0.00  0.00     0.004 A 
ATOM      4  C5  UNL d   1      -0.376   0.825   2.181  0.00  0.00    -0.004 A 
ATOM      5  C6  UNL d   1      -1.257   1.066   1.122  0.00  0.00    -0.075 A 
ATOM      6  C7  UNL d   1      -2.489   1.900   1.318  0.00  0.00     0.076 C 
ATOM      7  C8  UNL d   1      -0.974   0.524  -0.139  0.00  0.00     0.001 A 
ENDROOT
BRANCH   1   8
ATOM      8  C1  UNL d   1       0.465  -0.835  -1.708  0.00  0.00     0.053 C 
ATOM      9  C   UNL d   1       0.867  -2.299  -1.625  0.00  0.00     0.018 C 
ENDBRANCH   1   8
TORSDOF 1
ENDMDL
