MODEL 1
REMARK minimizedAffinity -6.24548101
REMARK minimizedRMSD -1
REMARK  1 active torsions:
REMARK  status: ('A' for Active; 'I' for Inactive)
REMARK    1  A    between atoms: C1_2  and  C2_3 
ROOT
ATOM      1  C2  UNL d   1      -0.453   0.490   0.481  0.00  0.00    -0.073 A 
ATOM      2  C3  UNL d   1      -1.489   0.557   1.420  0.00  0.00    -0.002 A 
ATOM      3  C4  UNL d   1      -2.291   1.695   1.505  0.00  0.00     0.004 A 
ATOM      4  C5  UNL d   1      -2.072   2.774   0.649  0.00  0.00    -0.004 A 
ATOM      5  C6  UNL d   1      -1.049   2.722  -0.304  0.00  0.00    -0.075 A 
ATOM      6  C7  UNL d   1      -0.799   3.875  -1.230  0.00  0.00     0.076 C 
ATOM      7  C8  UNL d   1      -0.246   1.576  -0.381  0.00  0.00     0.001 A 
ENDROOT
BRANCH   1   8
ATOM      8  C1  UNL d   1       0.412  -0.740   0.382  0.00  0.00     0.053 C 
ATOM      9  C   UNL d   1       1.174  -0.795  -0.933  0.00  0.00     0.018 C 
ENDBRANCH   1   8
TORSDOF 1
ENDMDL
