MODEL 1
REMARK minimizedAffinity -3.90001774
REMARK minimizedRMSD -1
REMARK  1 active torsions:
REMARK  status: ('A' for Active; 'I' for Inactive)
REMARK    1  A    between atoms: C1_2  and  C2_3 
ROOT
ATOM      1  C2  UNL d   1       0.749  -1.460  -1.069  0.00  0.00    -0.073 A 
ATOM      2  C3  UNL d   1       0.293  -1.519  -2.391  0.00  0.00    -0.002 A 
ATOM      3  C4  UNL d   1       0.015  -2.750  -2.986  0.00  0.00     0.004 A 
ATOM      4  C5  UNL d   1       0.184  -3.932  -2.266  0.00  0.00    -0.004 A 
ATOM      5  C6  UNL d   1       0.627  -3.893  -0.940  0.00  0.00    -0.075 A 
ATOM      6  C7  UNL d   1       0.816  -5.156  -0.152  0.00  0.00     0.076 C 
ATOM      7  C8  UNL d   1       0.907  -2.653  -0.350  0.00  0.00     0.001 A 
ENDROOT
BRANCH   1   8
ATOM      8  C1  UNL d   1       1.044  -0.133  -0.420  0.00  0.00     0.053 C 
ATOM      9  C   UNL d   1      -0.137   0.382   0.388  0.00  0.00     0.018 C 
ENDBRANCH   1   8
TORSDOF 1
ENDMDL
