MODEL 1
REMARK minimizedAffinity -5.74610281
REMARK minimizedRMSD -1
REMARK  1 active torsions:
REMARK  status: ('A' for Active; 'I' for Inactive)
REMARK    1  A    between atoms: C1_2  and  C2_3 
ROOT
ATOM      1  C2  UNL d   1      -0.943   1.916   0.899  0.00  0.00    -0.073 A 
ATOM      2  C3  UNL d   1      -1.255   1.493   2.196  0.00  0.00    -0.002 A 
ATOM      3  C4  UNL d   1      -0.892   0.217   2.627  0.00  0.00     0.004 A 
ATOM      4  C5  UNL d   1      -0.208  -0.645   1.771  0.00  0.00    -0.004 A 
ATOM      5  C6  UNL d   1       0.124  -0.237   0.475  0.00  0.00    -0.075 A 
ATOM      6  C7  UNL d   1       0.857  -1.153  -0.460  0.00  0.00     0.076 C 
ATOM      7  C8  UNL d   1      -0.247   1.046   0.048  0.00  0.00     0.001 A 
ENDROOT
BRANCH   1   8
ATOM      8  C1  UNL d   1      -1.328   3.296   0.430  0.00  0.00     0.053 C 
ATOM      9  C   UNL d   1      -0.571   3.704  -0.824  0.00  0.00     0.018 C 
ENDBRANCH   1   8
TORSDOF 1
ENDMDL
