MODEL 1
REMARK minimizedAffinity -3.32395792
REMARK minimizedRMSD -1
REMARK  1 active torsions:
REMARK  status: ('A' for Active; 'I' for Inactive)
REMARK    1  A    between atoms: C1_2  and  C2_3 
ROOT
ATOM      1  C2  UNL d   1       0.021  -1.556  -1.881  0.00  0.00    -0.073 A 
ATOM      2  C3  UNL d   1      -0.616  -1.775  -0.654  0.00  0.00    -0.002 A 
ATOM      3  C4  UNL d   1      -0.782  -0.725   0.251  0.00  0.00     0.004 A 
ATOM      4  C5  UNL d   1      -0.320   0.553  -0.064  0.00  0.00    -0.004 A 
ATOM      5  C6  UNL d   1       0.308   0.793  -1.290  0.00  0.00    -0.075 A 
ATOM      6  C7  UNL d   1       0.812   2.162  -1.643  0.00  0.00     0.076 C 
ATOM      7  C8  UNL d   1       0.473  -0.266  -2.192  0.00  0.00     0.001 A 
ENDROOT
BRANCH   1   8
ATOM      8  C1  UNL d   1       0.197  -2.685  -2.864  0.00  0.00     0.053 C 
ATOM      9  C   UNL d   1      -0.297  -4.010  -2.305  0.00  0.00     0.018 C 
ENDBRANCH   1   8
TORSDOF 1
ENDMDL
