MODEL 1
REMARK minimizedAffinity -4.60536575
REMARK minimizedRMSD -1
REMARK  1 active torsions:
REMARK  status: ('A' for Active; 'I' for Inactive)
REMARK    1  A    between atoms: C1_2  and  C2_3 
ROOT
ATOM      1  C2  UNL d   1      -0.295   1.155   0.536  0.00  0.00    -0.073 A 
ATOM      2  C3  UNL d   1      -0.051   2.181  -0.385  0.00  0.00    -0.002 A 
ATOM      3  C4  UNL d   1       0.672   1.924  -1.551  0.00  0.00     0.004 A 
ATOM      4  C5  UNL d   1       1.150   0.640  -1.811  0.00  0.00    -0.004 A 
ATOM      5  C6  UNL d   1       0.906  -0.401  -0.909  0.00  0.00    -0.075 A 
ATOM      6  C7  UNL d   1       1.416  -1.787  -1.174  0.00  0.00     0.076 C 
ATOM      7  C8  UNL d   1       0.182  -0.134   0.261  0.00  0.00     0.001 A 
ENDROOT
BRANCH   1   8
ATOM      8  C1  UNL d   1      -1.081   1.427   1.793  0.00  0.00     0.053 C 
ATOM      9  C   UNL d   1      -1.180   2.914   2.093  0.00  0.00     0.018 C 
ENDBRANCH   1   8
TORSDOF 1
ENDMDL
