MODEL 1
REMARK minimizedAffinity -4.25123882
REMARK minimizedRMSD -1
REMARK  1 active torsions:
REMARK  status: ('A' for Active; 'I' for Inactive)
REMARK    1  A    between atoms: C1_2  and  C2_3 
ROOT
ATOM      1  C2  UNL d   1      -0.045   0.237  -0.087  0.00  0.00    -0.073 A 
ATOM      2  C3  UNL d   1      -0.633  -0.337   1.045  0.00  0.00    -0.002 A 
ATOM      3  C4  UNL d   1      -1.437   0.430   1.888  0.00  0.00     0.004 A 
ATOM      4  C5  UNL d   1      -1.667   1.777   1.605  0.00  0.00    -0.004 A 
ATOM      5  C6  UNL d   1      -1.097   2.366   0.472  0.00  0.00    -0.075 A 
ATOM      6  C7  UNL d   1      -1.332   3.814   0.155  0.00  0.00     0.076 C 
ATOM      7  C8  UNL d   1      -0.289   1.589  -0.368  0.00  0.00     0.001 A 
ENDROOT
BRANCH   1   8
ATOM      8  C1  UNL d   1       0.819  -0.589  -1.004  0.00  0.00     0.053 C 
ATOM      9  C   UNL d   1       0.847  -2.053  -0.595  0.00  0.00     0.018 C 
ENDBRANCH   1   8
TORSDOF 1
ENDMDL
