MODEL 1
REMARK minimizedAffinity -4.95328951
REMARK minimizedRMSD -1
REMARK  1 active torsions:
REMARK  status: ('A' for Active; 'I' for Inactive)
REMARK    1  A    between atoms: C1_2  and  C2_3 
ROOT
ATOM      1  C2  UNL d   1      -0.904   1.497  -0.162  0.00  0.00    -0.073 A 
ATOM      2  C3  UNL d   1      -0.405   2.494  -1.008  0.00  0.00    -0.002 A 
ATOM      3  C4  UNL d   1       0.832   2.334  -1.633  0.00  0.00     0.004 A 
ATOM      4  C5  UNL d   1       1.579   1.175  -1.426  0.00  0.00    -0.004 A 
ATOM      5  C6  UNL d   1       1.092   0.162  -0.593  0.00  0.00    -0.075 A 
ATOM      6  C7  UNL d   1       1.885  -1.091  -0.358  0.00  0.00     0.076 C 
ATOM      7  C8  UNL d   1      -0.150   0.331   0.033  0.00  0.00     0.001 A 
ENDROOT
BRANCH   1   8
ATOM      8  C1  UNL d   1      -2.242   1.662   0.511  0.00  0.00     0.053 C 
ATOM      9  C   UNL d   1      -2.226   2.775   1.546  0.00  0.00     0.018 C 
ENDBRANCH   1   8
TORSDOF 1
ENDMDL
