MODEL 1
REMARK minimizedAffinity -4.20190096
REMARK minimizedRMSD -1
REMARK  1 active torsions:
REMARK  status: ('A' for Active; 'I' for Inactive)
REMARK    1  A    between atoms: C1_2  and  C2_3 
ROOT
ATOM      1  C2  UNL d   1      -0.497   2.044   0.757  0.00  0.00    -0.073 A 
ATOM      2  C3  UNL d   1      -1.190   1.620   1.897  0.00  0.00    -0.002 A 
ATOM      3  C4  UNL d   1      -1.190   0.273   2.262  0.00  0.00     0.004 A 
ATOM      4  C5  UNL d   1      -0.492  -0.662   1.496  0.00  0.00    -0.004 A 
ATOM      5  C6  UNL d   1       0.215  -0.256   0.360  0.00  0.00    -0.075 A 
ATOM      6  C7  UNL d   1       0.969  -1.249  -0.475  0.00  0.00     0.076 C 
ATOM      7  C8  UNL d   1       0.208   1.098  -0.001  0.00  0.00     0.001 A 
ENDROOT
BRANCH   1   8
ATOM      8  C1  UNL d   1      -0.490   3.498   0.363  0.00  0.00     0.053 C 
ATOM      9  C   UNL d   1       0.511   3.783  -0.746  0.00  0.00     0.018 C 
ENDBRANCH   1   8
TORSDOF 1
ENDMDL
