MODEL 1
REMARK minimizedAffinity -6.22072363
REMARK minimizedRMSD -1
REMARK  1 active torsions:
REMARK  status: ('A' for Active; 'I' for Inactive)
REMARK    1  A    between atoms: C1_2  and  C2_3 
ROOT
ATOM      1  C2  UNL d   1       0.508  -1.309  -0.876  0.00  0.00    -0.073 A 
ATOM      2  C3  UNL d   1       0.209  -1.438  -2.237  0.00  0.00    -0.002 A 
ATOM      3  C4  UNL d   1       0.141  -2.701  -2.826  0.00  0.00     0.004 A 
ATOM      4  C5  UNL d   1       0.363  -3.846  -2.061  0.00  0.00    -0.004 A 
ATOM      5  C6  UNL d   1       0.651  -3.738  -0.697  0.00  0.00    -0.075 A 
ATOM      6  C7  UNL d   1       0.894  -4.960   0.139  0.00  0.00     0.076 C 
ATOM      7  C8  UNL d   1       0.720  -2.466  -0.113  0.00  0.00     0.001 A 
ENDROOT
BRANCH   1   8
ATOM      8  C1  UNL d   1       0.576   0.052  -0.233  0.00  0.00     0.053 C 
ATOM      9  C   UNL d   1      -0.632   0.908  -0.579  0.00  0.00     0.018 C 
ENDBRANCH   1   8
TORSDOF 1
ENDMDL
