MODEL 1
REMARK minimizedAffinity -5.61189079
REMARK minimizedRMSD -1
REMARK  1 active torsions:
REMARK  status: ('A' for Active; 'I' for Inactive)
REMARK    1  A    between atoms: C1_2  and  C2_3 
ROOT
ATOM      1  C2  UNL d   1       0.651  -1.543  -0.565  0.00  0.00    -0.073 A 
ATOM      2  C3  UNL d   1       0.163  -1.839  -1.842  0.00  0.00    -0.002 A 
ATOM      3  C4  UNL d   1       0.258  -3.135  -2.350  0.00  0.00     0.004 A 
ATOM      4  C5  UNL d   1       0.834  -4.149  -1.584  0.00  0.00    -0.004 A 
ATOM      5  C6  UNL d   1       1.316  -3.875  -0.300  0.00  0.00    -0.075 A 
ATOM      6  C7  UNL d   1       1.941  -4.954   0.535  0.00  0.00     0.076 C 
ATOM      7  C8  UNL d   1       1.220  -2.570   0.201  0.00  0.00     0.001 A 
ENDROOT
BRANCH   1   8
ATOM      8  C1  UNL d   1       0.545  -0.146  -0.010  0.00  0.00     0.053 C 
ATOM      9  C   UNL d   1      -0.271  -0.102   1.273  0.00  0.00     0.018 C 
ENDBRANCH   1   8
TORSDOF 1
ENDMDL
