MODEL 1
REMARK minimizedAffinity -5.01051331
REMARK minimizedRMSD -1
REMARK  1 active torsions:
REMARK  status: ('A' for Active; 'I' for Inactive)
REMARK    1  A    between atoms: C1_2  and  C2_3 
ROOT
ATOM      1  C2  UNL d   1       0.329  -0.665  -0.505  0.00  0.00    -0.073 A 
ATOM      2  C3  UNL d   1       1.177   0.367  -0.923  0.00  0.00    -0.002 A 
ATOM      3  C4  UNL d   1       0.788   1.700  -0.781  0.00  0.00     0.004 A 
ATOM      4  C5  UNL d   1      -0.447   2.015  -0.214  0.00  0.00    -0.004 A 
ATOM      5  C6  UNL d   1      -1.303   0.998   0.221  0.00  0.00    -0.075 A 
ATOM      6  C7  UNL d   1      -2.636   1.319   0.830  0.00  0.00     0.076 C 
ATOM      7  C8  UNL d   1      -0.907  -0.338   0.072  0.00  0.00     0.001 A 
ENDROOT
BRANCH   1   8
ATOM      8  C1  UNL d   1       0.747  -2.105  -0.650  0.00  0.00     0.053 C 
ATOM      9  C   UNL d   1       0.006  -2.803  -1.779  0.00  0.00     0.018 C 
ENDBRANCH   1   8
TORSDOF 1
ENDMDL
