MODEL 1
REMARK minimizedAffinity -5.24994993
REMARK minimizedRMSD -1
REMARK  1 active torsions:
REMARK  status: ('A' for Active; 'I' for Inactive)
REMARK    1  A    between atoms: C1_2  and  C2_3 
ROOT
ATOM      1  C2  UNL d   1      -1.128   1.452   0.507  0.00  0.00    -0.073 A 
ATOM      2  C3  UNL d   1      -1.139   0.768   1.728  0.00  0.00    -0.002 A 
ATOM      3  C4  UNL d   1      -0.261  -0.295   1.948  0.00  0.00     0.004 A 
ATOM      4  C5  UNL d   1       0.640  -0.679   0.955  0.00  0.00    -0.004 A 
ATOM      5  C6  UNL d   1       0.674   0.000  -0.267  0.00  0.00    -0.075 A 
ATOM      6  C7  UNL d   1       1.636  -0.402  -1.346  0.00  0.00     0.076 C 
ATOM      7  C8  UNL d   1      -0.212   1.064  -0.482  0.00  0.00     0.001 A 
ENDROOT
BRANCH   1   8
ATOM      8  C1  UNL d   1      -2.069   2.603   0.266  0.00  0.00     0.053 C 
ATOM      9  C   UNL d   1      -1.351   3.818  -0.300  0.00  0.00     0.018 C 
ENDBRANCH   1   8
TORSDOF 1
ENDMDL
