MODEL 1
REMARK minimizedAffinity -5.00466204
REMARK minimizedRMSD -1
REMARK  1 active torsions:
REMARK  status: ('A' for Active; 'I' for Inactive)
REMARK    1  A    between atoms: C1_2  and  C2_3 
ROOT
ATOM      1  C2  UNL d   1      -0.621   2.686  -0.132  0.00  0.00    -0.073 A 
ATOM      2  C3  UNL d   1      -1.412   2.460   1.001  0.00  0.00    -0.002 A 
ATOM      3  C4  UNL d   1      -1.481   1.187   1.569  0.00  0.00     0.004 A 
ATOM      4  C5  UNL d   1      -0.758   0.131   1.016  0.00  0.00    -0.004 A 
ATOM      5  C6  UNL d   1       0.047   0.339  -0.108  0.00  0.00    -0.075 A 
ATOM      6  C7  UNL d   1       0.830  -0.787  -0.716  0.00  0.00     0.076 C 
ATOM      7  C8  UNL d   1       0.110   1.619  -0.675  0.00  0.00     0.001 A 
ENDROOT
BRANCH   1   8
ATOM      8  C1  UNL d   1      -0.537   4.059  -0.745  0.00  0.00     0.053 C 
ATOM      9  C   UNL d   1       0.483   4.938  -0.039  0.00  0.00     0.018 C 
ENDBRANCH   1   8
TORSDOF 1
ENDMDL
