MODEL 1
REMARK minimizedAffinity -1.93860173
REMARK minimizedRMSD -1
REMARK  1 active torsions:
REMARK  status: ('A' for Active; 'I' for Inactive)
REMARK    1  A    between atoms: C1_2  and  C2_3 
ROOT
ATOM      1  C2  UNL d   1      -0.701   0.920   1.209  0.00  0.00    -0.073 A 
ATOM      2  C3  UNL d   1      -0.189   0.312   0.057  0.00  0.00    -0.002 A 
ATOM      3  C4  UNL d   1       0.385   1.086  -0.952  0.00  0.00     0.004 A 
ATOM      4  C5  UNL d   1       0.461   2.472  -0.818  0.00  0.00    -0.004 A 
ATOM      5  C6  UNL d   1      -0.034   3.097   0.331  0.00  0.00    -0.075 A 
ATOM      6  C7  UNL d   1       0.037   4.587   0.490  0.00  0.00     0.076 C 
ATOM      7  C8  UNL d   1      -0.612   2.314   1.340  0.00  0.00     0.001 A 
ENDROOT
BRANCH   1   8
ATOM      8  C1  UNL d   1      -1.316   0.089   2.305  0.00  0.00     0.053 C 
ATOM      9  C   UNL d   1      -0.697  -1.298   2.384  0.00  0.00     0.018 C 
ENDBRANCH   1   8
TORSDOF 1
ENDMDL
