MODEL 1
REMARK minimizedAffinity -4.06118345
REMARK minimizedRMSD -1
REMARK  1 active torsions:
REMARK  status: ('A' for Active; 'I' for Inactive)
REMARK    1  A    between atoms: C1_2  and  C2_3 
ROOT
ATOM      1  C2  UNL d   1       0.292  -0.097  -0.702  0.00  0.00    -0.076 A 
ATOM      2  C3  UNL d   1      -0.984  -0.605  -0.403  0.00  0.00     0.004 A 
ATOM      3  C4  UNL d   1      -1.428  -0.700   0.915  0.00  0.00    -0.003 A 
ATOM      4  C5  UNL d   1      -0.603  -0.288   1.956  0.00  0.00     0.000 A 
ATOM      5  C6  UNL d   1       0.660   0.234   1.676  0.00  0.00     0.000 A 
ATOM      6  C7  UNL d   1       1.116   0.352   0.352  0.00  0.00    -0.073 A 
ATOM      7  C8  UNL d   1       2.489   0.917   0.109  0.00  0.00     0.078 C 
ENDROOT
BRANCH   1   8
ATOM      8  C1  UNL d   1       0.730  -0.043  -2.148  0.00  0.00     0.053 C 
ATOM      9  C   UNL d   1       0.633  -1.396  -2.837  0.00  0.00     0.018 C 
ENDBRANCH   1   8
TORSDOF 1
ENDMDL
