MODEL 1
REMARK minimizedAffinity -5.84223986
REMARK minimizedRMSD -1
REMARK  1 active torsions:
REMARK  status: ('A' for Active; 'I' for Inactive)
REMARK    1  A    between atoms: C1_2  and  C2_3 
ROOT
ATOM      1  C2  UNL d   1       0.265  -0.006   0.407  0.00  0.00    -0.076 A 
ATOM      2  C3  UNL d   1      -0.913  -0.698   0.739  0.00  0.00     0.004 A 
ATOM      3  C4  UNL d   1      -1.208  -1.019   2.063  0.00  0.00    -0.003 A 
ATOM      4  C5  UNL d   1      -0.330  -0.652   3.077  0.00  0.00     0.000 A 
ATOM      5  C6  UNL d   1       0.835   0.050   2.768  0.00  0.00     0.000 A 
ATOM      6  C7  UNL d   1       1.139   0.395   1.440  0.00  0.00    -0.073 A 
ATOM      7  C8  UNL d   1       2.412   1.148   1.163  0.00  0.00     0.078 C 
ENDROOT
BRANCH   1   8
ATOM      8  C1  UNL d   1       0.545   0.290  -1.049  0.00  0.00     0.053 C 
ATOM      9  C   UNL d   1       0.578  -0.968  -1.903  0.00  0.00     0.018 C 
ENDBRANCH   1   8
TORSDOF 1
ENDMDL
