MODEL 1
REMARK minimizedAffinity -0.837123811
REMARK minimizedRMSD -1
REMARK  1 active torsions:
REMARK  status: ('A' for Active; 'I' for Inactive)
REMARK    1  A    between atoms: C1_2  and  C2_3 
ROOT
ATOM      1  C2  UNL d   1      -0.231  -0.247  -0.698  0.00  0.00    -0.076 A 
ATOM      2  C3  UNL d   1      -0.819  -1.034  -1.703  0.00  0.00     0.004 A 
ATOM      3  C4  UNL d   1      -0.217  -1.169  -2.953  0.00  0.00    -0.003 A 
ATOM      4  C5  UNL d   1       0.983  -0.519  -3.218  0.00  0.00     0.000 A 
ATOM      5  C6  UNL d   1       1.589   0.253  -2.227  0.00  0.00     0.000 A 
ATOM      6  C7  UNL d   1       1.004   0.386  -0.956  0.00  0.00    -0.073 A 
ATOM      7  C8  UNL d   1       1.698   1.235   0.073  0.00  0.00     0.078 C 
ENDROOT
BRANCH   1   8
ATOM      8  C1  UNL d   1      -0.944  -0.116   0.629  0.00  0.00     0.053 C 
ATOM      9  C   UNL d   1      -2.442   0.094   0.468  0.00  0.00     0.018 C 
ENDBRANCH   1   8
TORSDOF 1
ENDMDL
