MODEL 1
REMARK minimizedAffinity 1.41550255
REMARK minimizedRMSD -1
REMARK  1 active torsions:
REMARK  status: ('A' for Active; 'I' for Inactive)
REMARK    1  A    between atoms: C1_2  and  C2_3 
ROOT
ATOM      1  C2  UNL d   1       0.979  -0.432  -2.884  0.00  0.00    -0.076 A 
ATOM      2  C3  UNL d   1       2.370  -0.260  -2.785  0.00  0.00     0.004 A 
ATOM      3  C4  UNL d   1       3.248  -1.118  -3.444  0.00  0.00    -0.003 A 
ATOM      4  C5  UNL d   1       2.749  -2.163  -4.213  0.00  0.00     0.000 A 
ATOM      5  C6  UNL d   1       1.371  -2.338  -4.337  0.00  0.00     0.000 A 
ATOM      6  C7  UNL d   1       0.472  -1.472  -3.692  0.00  0.00    -0.073 A 
ATOM      7  C8  UNL d   1      -1.004  -1.711  -3.856  0.00  0.00     0.078 C 
ENDROOT
BRANCH   1   8
ATOM      8  C1  UNL d   1       0.076   0.514  -2.125  0.00  0.00     0.053 C 
ATOM      9  C   UNL d   1      -0.037   0.155  -0.651  0.00  0.00     0.018 C 
ENDBRANCH   1   8
TORSDOF 1
ENDMDL
