MODEL 1
REMARK minimizedAffinity 6.15967226
REMARK minimizedRMSD -1
REMARK  1 active torsions:
REMARK  status: ('A' for Active; 'I' for Inactive)
REMARK    1  A    between atoms: C1_2  and  C2_3 
ROOT
ATOM      1  C2  UNL d   1       2.482  -0.776  -4.219  0.00  0.00    -0.076 A 
ATOM      2  C3  UNL d   1       3.536  -1.348  -4.952  0.00  0.00     0.004 A 
ATOM      3  C4  UNL d   1       4.578  -0.563  -5.443  0.00  0.00    -0.003 A 
ATOM      4  C5  UNL d   1       4.583   0.807  -5.208  0.00  0.00     0.000 A 
ATOM      5  C6  UNL d   1       3.555   1.389  -4.467  0.00  0.00     0.000 A 
ATOM      6  C7  UNL d   1       2.505   0.609  -3.951  0.00  0.00    -0.073 A 
ATOM      7  C8  UNL d   1       1.419   1.290  -3.165  0.00  0.00     0.078 C 
ENDROOT
BRANCH   1   8
ATOM      8  C1  UNL d   1       1.365  -1.674  -3.735  0.00  0.00     0.053 C 
ATOM      9  C   UNL d   1       0.582  -2.297  -4.880  0.00  0.00     0.018 C 
ENDBRANCH   1   8
TORSDOF 1
ENDMDL
