MODEL 1
REMARK minimizedAffinity -2.98517942
REMARK minimizedRMSD -1
REMARK  1 active torsions:
REMARK  status: ('A' for Active; 'I' for Inactive)
REMARK    1  A    between atoms: C1_2  and  C2_3 
ROOT
ATOM      1  C2  UNL d   1      -0.738   0.761   1.156  0.00  0.00    -0.076 A 
ATOM      2  C3  UNL d   1      -0.400   0.737   2.520  0.00  0.00     0.004 A 
ATOM      3  C4  UNL d   1       0.928   0.635   2.929  0.00  0.00    -0.003 A 
ATOM      4  C5  UNL d   1       1.941   0.556   1.980  0.00  0.00     0.000 A 
ATOM      5  C6  UNL d   1       1.626   0.597   0.622  0.00  0.00     0.000 A 
ATOM      6  C7  UNL d   1       0.293   0.715   0.193  0.00  0.00    -0.073 A 
ATOM      7  C8  UNL d   1       0.010   0.748  -1.284  0.00  0.00     0.078 C 
ENDROOT
BRANCH   1   8
ATOM      8  C1  UNL d   1      -2.198   0.845   0.772  0.00  0.00     0.053 C 
ATOM      9  C   UNL d   1      -3.093   1.181   1.955  0.00  0.00     0.018 C 
ENDBRANCH   1   8
TORSDOF 1
ENDMDL
