MODEL 1
REMARK minimizedAffinity -1.97344744
REMARK minimizedRMSD -1
REMARK  1 active torsions:
REMARK  status: ('A' for Active; 'I' for Inactive)
REMARK    1  A    between atoms: C1_2  and  C2_3 
ROOT
ATOM      1  C2  UNL d   1      -0.057   0.429   0.251  0.00  0.00    -0.076 A 
ATOM      2  C3  UNL d   1      -1.207  -0.254   0.683  0.00  0.00     0.004 A 
ATOM      3  C4  UNL d   1      -1.407  -0.542   2.032  0.00  0.00    -0.003 A 
ATOM      4  C5  UNL d   1      -0.458  -0.153   2.972  0.00  0.00     0.000 A 
ATOM      5  C6  UNL d   1       0.681   0.540   2.563  0.00  0.00     0.000 A 
ATOM      6  C7  UNL d   1       0.889   0.853   1.209  0.00  0.00    -0.073 A 
ATOM      7  C8  UNL d   1       2.138   1.597   0.824  0.00  0.00     0.078 C 
ENDROOT
BRANCH   1   8
ATOM      8  C1  UNL d   1       0.118   0.690  -1.227  0.00  0.00     0.053 C 
ATOM      9  C   UNL d   1       0.521  -0.559  -1.996  0.00  0.00     0.018 C 
ENDBRANCH   1   8
TORSDOF 1
ENDMDL
