MODEL 1
REMARK minimizedAffinity -6.18834114
REMARK minimizedRMSD -1
REMARK  1 active torsions:
REMARK  status: ('A' for Active; 'I' for Inactive)
REMARK    1  A    between atoms: C1_2  and  C2_3 
ROOT
ATOM      1  C2  UNL d   1       0.320   0.220   0.212  0.00  0.00    -0.076 A 
ATOM      2  C3  UNL d   1      -0.731  -0.617   0.625  0.00  0.00     0.004 A 
ATOM      3  C4  UNL d   1      -0.765  -1.140   1.917  0.00  0.00    -0.003 A 
ATOM      4  C5  UNL d   1       0.250  -0.834   2.816  0.00  0.00     0.000 A 
ATOM      5  C6  UNL d   1       1.291   0.009   2.428  0.00  0.00     0.000 A 
ATOM      6  C7  UNL d   1       1.332   0.558   1.135  0.00  0.00    -0.073 A 
ATOM      7  C8  UNL d   1       2.482   1.457   0.769  0.00  0.00     0.078 C 
ENDROOT
BRANCH   1   8
ATOM      8  C1  UNL d   1       0.318   0.736  -1.210  0.00  0.00     0.053 C 
ATOM      9  C   UNL d   1       0.523  -0.371  -2.232  0.00  0.00     0.018 C 
ENDBRANCH   1   8
TORSDOF 1
ENDMDL
