MODEL 1
REMARK minimizedAffinity -0.0710818842
REMARK minimizedRMSD -1
REMARK  1 active torsions:
REMARK  status: ('A' for Active; 'I' for Inactive)
REMARK    1  A    between atoms: C1_2  and  C2_3 
ROOT
ATOM      1  C2  UNL d   1      -0.255  -0.269  -1.339  0.00  0.00    -0.076 A 
ATOM      2  C3  UNL d   1      -0.624  -1.001  -2.481  0.00  0.00     0.004 A 
ATOM      3  C4  UNL d   1       0.278  -1.208  -3.524  0.00  0.00    -0.003 A 
ATOM      4  C5  UNL d   1       1.564  -0.687  -3.441  0.00  0.00     0.000 A 
ATOM      5  C6  UNL d   1       1.954   0.026  -2.307  0.00  0.00     0.000 A 
ATOM      6  C7  UNL d   1       1.062   0.230  -1.240  0.00  0.00    -0.073 A 
ATOM      7  C8  UNL d   1       1.533   1.012  -0.045  0.00  0.00     0.078 C 
ENDROOT
BRANCH   1   8
ATOM      8  C1  UNL d   1      -1.284  -0.054  -0.253  0.00  0.00     0.053 C 
ATOM      9  C   UNL d   1      -1.050  -0.945   0.957  0.00  0.00     0.018 C 
ENDBRANCH   1   8
TORSDOF 1
ENDMDL
