MODEL 1
REMARK minimizedAffinity -3.72603226
REMARK minimizedRMSD -1
REMARK  1 active torsions:
REMARK  status: ('A' for Active; 'I' for Inactive)
REMARK    1  A    between atoms: C1_2  and  C2_3 
ROOT
ATOM      1  C2  UNL d   1      -0.733   0.392   0.403  0.00  0.00    -0.076 A 
ATOM      2  C3  UNL d   1       0.559   0.285   0.947  0.00  0.00     0.004 A 
ATOM      3  C4  UNL d   1       0.769   0.387   2.321  0.00  0.00    -0.003 A 
ATOM      4  C5  UNL d   1      -0.310   0.597   3.174  0.00  0.00     0.000 A 
ATOM      5  C6  UNL d   1      -1.600   0.688   2.653  0.00  0.00     0.000 A 
ATOM      6  C7  UNL d   1      -1.831   0.571   1.271  0.00  0.00    -0.073 A 
ATOM      7  C8  UNL d   1      -3.242   0.683   0.763  0.00  0.00     0.078 C 
ENDROOT
BRANCH   1   8
ATOM      8  C1  UNL d   1      -0.896   0.301  -1.098  0.00  0.00     0.053 C 
ATOM      9  C   UNL d   1       0.093  -0.663  -1.734  0.00  0.00     0.018 C 
ENDBRANCH   1   8
TORSDOF 1
ENDMDL
