MODEL 1
REMARK minimizedAffinity 7.72588921
REMARK minimizedRMSD -1
REMARK  1 active torsions:
REMARK  status: ('A' for Active; 'I' for Inactive)
REMARK    1  A    between atoms: C1_2  and  C2_3 
ROOT
ATOM      1  C2  UNL d   1       0.444   1.076   1.793  0.00  0.00    -0.076 A 
ATOM      2  C3  UNL d   1       0.156   0.319   2.942  0.00  0.00     0.004 A 
ATOM      3  C4  UNL d   1       0.864   0.515   4.127  0.00  0.00    -0.003 A 
ATOM      4  C5  UNL d   1       1.871   1.473   4.182  0.00  0.00     0.000 A 
ATOM      5  C6  UNL d   1       2.158   2.245   3.057  0.00  0.00     0.000 A 
ATOM      6  C7  UNL d   1       1.443   2.071   1.860  0.00  0.00    -0.073 A 
ATOM      7  C8  UNL d   1       1.799   2.927   0.675  0.00  0.00     0.078 C 
ENDROOT
BRANCH   1   8
ATOM      8  C1  UNL d   1      -0.338   0.799   0.529  0.00  0.00     0.053 C 
ATOM      9  C   UNL d   1      -0.010  -0.558  -0.074  0.00  0.00     0.018 C 
ENDBRANCH   1   8
TORSDOF 1
ENDMDL
