MODEL 1
REMARK minimizedAffinity -1.22658157
REMARK minimizedRMSD -1
REMARK  1 active torsions:
REMARK  status: ('A' for Active; 'I' for Inactive)
REMARK    1  A    between atoms: C1_2  and  C2_3 
ROOT
ATOM      1  C2  UNL d   1      -1.929   0.489   1.670  0.00  0.00    -0.076 A 
ATOM      2  C3  UNL d   1      -1.128   1.011   2.699  0.00  0.00     0.004 A 
ATOM      3  C4  UNL d   1      -1.692   1.724   3.756  0.00  0.00    -0.003 A 
ATOM      4  C5  UNL d   1      -3.067   1.924   3.801  0.00  0.00     0.000 A 
ATOM      5  C6  UNL d   1      -3.880   1.398   2.798  0.00  0.00     0.000 A 
ATOM      6  C7  UNL d   1      -3.329   0.663   1.733  0.00  0.00    -0.073 A 
ATOM      7  C8  UNL d   1      -4.251   0.123   0.675  0.00  0.00     0.078 C 
ENDROOT
BRANCH   1   8
ATOM      8  C1  UNL d   1      -1.259  -0.252   0.535  0.00  0.00     0.053 C 
ATOM      9  C   UNL d   1      -0.741  -1.619   0.956  0.00  0.00     0.018 C 
ENDBRANCH   1   8
TORSDOF 1
ENDMDL
