MODEL 1
REMARK minimizedAffinity -3.02556491
REMARK minimizedRMSD -1
REMARK  1 active torsions:
REMARK  status: ('A' for Active; 'I' for Inactive)
REMARK    1  A    between atoms: C1_2  and  C2_3 
ROOT
ATOM      1  C2  UNL d   1       1.259   1.524   2.106  0.00  0.00    -0.076 A 
ATOM      2  C3  UNL d   1       1.811   2.573   1.351  0.00  0.00     0.004 A 
ATOM      3  C4  UNL d   1       2.572   3.571   1.957  0.00  0.00    -0.003 A 
ATOM      4  C5  UNL d   1       2.795   3.535   3.329  0.00  0.00     0.000 A 
ATOM      5  C6  UNL d   1       2.270   2.492   4.091  0.00  0.00     0.000 A 
ATOM      6  C7  UNL d   1       1.514   1.469   3.493  0.00  0.00    -0.073 A 
ATOM      7  C8  UNL d   1       0.967   0.371   4.364  0.00  0.00     0.078 C 
ENDROOT
BRANCH   1   8
ATOM      8  C1  UNL d   1       0.419   0.485   1.397  0.00  0.00     0.053 C 
ATOM      9  C   UNL d   1       0.347   0.720  -0.104  0.00  0.00     0.018 C 
ENDBRANCH   1   8
TORSDOF 1
ENDMDL
