MODEL 1
REMARK minimizedAffinity -2.16894221
REMARK minimizedRMSD -1
REMARK  1 active torsions:
REMARK  status: ('A' for Active; 'I' for Inactive)
REMARK    1  A    between atoms: C1_2  and  C2_3 
ROOT
ATOM      1  C2  UNL d   1       2.087   1.293   0.746  0.00  0.00    -0.076 A 
ATOM      2  C3  UNL d   1       2.724   1.753   1.911  0.00  0.00     0.004 A 
ATOM      3  C4  UNL d   1       2.091   1.683   3.151  0.00  0.00    -0.003 A 
ATOM      4  C5  UNL d   1       0.810   1.151   3.245  0.00  0.00     0.000 A 
ATOM      5  C6  UNL d   1       0.169   0.674   2.102  0.00  0.00     0.000 A 
ATOM      6  C7  UNL d   1       0.800   0.722   0.847  0.00  0.00    -0.073 A 
ATOM      7  C8  UNL d   1       0.060   0.199  -0.353  0.00  0.00     0.078 C 
ENDROOT
BRANCH   1   8
ATOM      8  C1  UNL d   1       2.812   1.419  -0.575  0.00  0.00     0.053 C 
ATOM      9  C   UNL d   1       4.321   1.300  -0.425  0.00  0.00     0.018 C 
ENDBRANCH   1   8
TORSDOF 1
ENDMDL
