MODEL 1
REMARK minimizedAffinity -0.730683863
REMARK minimizedRMSD -1
REMARK  1 active torsions:
REMARK  status: ('A' for Active; 'I' for Inactive)
REMARK    1  A    between atoms: C1_2  and  C2_3 
ROOT
ATOM      1  C2  UNL d   1      -1.666  -0.998   0.904  0.00  0.00    -0.076 A 
ATOM      2  C3  UNL d   1      -2.953  -1.518   1.125  0.00  0.00     0.004 A 
ATOM      3  C4  UNL d   1      -4.014  -0.684   1.473  0.00  0.00    -0.003 A 
ATOM      4  C5  UNL d   1      -3.806   0.685   1.603  0.00  0.00     0.000 A 
ATOM      5  C6  UNL d   1      -2.540   1.220   1.370  0.00  0.00     0.000 A 
ATOM      6  C7  UNL d   1      -1.463   0.395   1.003  0.00  0.00    -0.073 A 
ATOM      7  C8  UNL d   1      -0.117   1.026   0.769  0.00  0.00     0.078 C 
ENDROOT
BRANCH   1   8
ATOM      8  C1  UNL d   1      -0.548  -1.955   0.556  0.00  0.00     0.053 C 
ATOM      9  C   UNL d   1      -0.167  -1.896  -0.915  0.00  0.00     0.018 C 
ENDBRANCH   1   8
TORSDOF 1
ENDMDL
