MODEL 1
REMARK minimizedAffinity 2.83704376
REMARK minimizedRMSD -1
REMARK  1 active torsions:
REMARK  status: ('A' for Active; 'I' for Inactive)
REMARK    1  A    between atoms: C1_2  and  C2_3 
ROOT
ATOM      1  C2  UNL d   1      -1.208   0.020   1.216  0.00  0.00    -0.076 A 
ATOM      2  C3  UNL d   1       0.081   0.147   1.764  0.00  0.00     0.004 A 
ATOM      3  C4  UNL d   1       0.312   0.964   2.869  0.00  0.00    -0.003 A 
ATOM      4  C5  UNL d   1      -0.741   1.666   3.445  0.00  0.00     0.000 A 
ATOM      5  C6  UNL d   1      -2.029   1.538   2.926  0.00  0.00     0.000 A 
ATOM      6  C7  UNL d   1      -2.282   0.705   1.822  0.00  0.00    -0.073 A 
ATOM      7  C8  UNL d   1      -3.689   0.609   1.299  0.00  0.00     0.078 C 
ENDROOT
BRANCH   1   8
ATOM      8  C1  UNL d   1      -1.393  -0.860  -0.000  0.00  0.00     0.053 C 
ATOM      9  C   UNL d   1      -0.399  -2.010  -0.045  0.00  0.00     0.018 C 
ENDBRANCH   1   8
TORSDOF 1
ENDMDL
