MODEL 1
REMARK minimizedAffinity -2.77475357
REMARK minimizedRMSD -1
REMARK  1 active torsions:
REMARK  status: ('A' for Active; 'I' for Inactive)
REMARK    1  A    between atoms: C1_2  and  C2_3 
ROOT
ATOM      1  C2  UNL d   1       0.794  -0.457  -1.141  0.00  0.00    -0.076 A 
ATOM      2  C3  UNL d   1       0.369   0.642  -0.374  0.00  0.00     0.004 A 
ATOM      3  C4  UNL d   1      -0.417   0.462   0.763  0.00  0.00    -0.003 A 
ATOM      4  C5  UNL d   1      -0.792  -0.819   1.152  0.00  0.00     0.000 A 
ATOM      5  C6  UNL d   1      -0.365  -1.922   0.413  0.00  0.00     0.000 A 
ATOM      6  C7  UNL d   1       0.442  -1.760  -0.726  0.00  0.00    -0.073 A 
ATOM      7  C8  UNL d   1       0.869  -2.984  -1.489  0.00  0.00     0.078 C 
ENDROOT
BRANCH   1   8
ATOM      8  C1  UNL d   1       1.622  -0.200  -2.379  0.00  0.00     0.053 C 
ATOM      9  C   UNL d   1       2.984   0.394  -2.055  0.00  0.00     0.018 C 
ENDBRANCH   1   8
TORSDOF 1
ENDMDL
