MODEL 1
REMARK minimizedAffinity -5.75236416
REMARK minimizedRMSD -1
REMARK  1 active torsions:
REMARK  status: ('A' for Active; 'I' for Inactive)
REMARK    1  A    between atoms: C1_2  and  C2_3 
ROOT
ATOM      1  C2  UNL d   1      -1.386   0.296   2.104  0.00  0.00    -0.076 A 
ATOM      2  C3  UNL d   1      -2.741   0.289   1.729  0.00  0.00     0.004 A 
ATOM      3  C4  UNL d   1      -3.659   1.139   2.342  0.00  0.00    -0.003 A 
ATOM      4  C5  UNL d   1      -3.238   2.011   3.341  0.00  0.00     0.000 A 
ATOM      5  C6  UNL d   1      -1.894   2.044   3.713  0.00  0.00     0.000 A 
ATOM      6  C7  UNL d   1      -0.952   1.205   3.093  0.00  0.00    -0.073 A 
ATOM      7  C8  UNL d   1       0.483   1.278   3.538  0.00  0.00     0.078 C 
ENDROOT
BRANCH   1   8
ATOM      8  C1  UNL d   1      -0.441  -0.668   1.422  0.00  0.00     0.053 C 
ATOM      9  C   UNL d   1       0.087  -0.130   0.102  0.00  0.00     0.018 C 
ENDBRANCH   1   8
TORSDOF 1
ENDMDL
