MODEL 1
REMARK minimizedAffinity -2.46953368
REMARK minimizedRMSD -1
REMARK  1 active torsions:
REMARK  status: ('A' for Active; 'I' for Inactive)
REMARK    1  A    between atoms: C1_2  and  C2_3 
ROOT
ATOM      1  C2  UNL d   1       1.246   0.692  -0.684  0.00  0.00    -0.076 A 
ATOM      2  C3  UNL d   1       2.107   0.287  -1.720  0.00  0.00     0.004 A 
ATOM      3  C4  UNL d   1       1.920  -0.930  -2.373  0.00  0.00    -0.003 A 
ATOM      4  C5  UNL d   1       0.869  -1.761  -2.003  0.00  0.00     0.000 A 
ATOM      5  C6  UNL d   1      -0.005  -1.367  -0.990  0.00  0.00     0.000 A 
ATOM      6  C7  UNL d   1       0.159  -0.136  -0.332  0.00  0.00    -0.073 A 
ATOM      7  C8  UNL d   1      -0.809   0.235   0.757  0.00  0.00     0.078 C 
ENDROOT
BRANCH   1   8
ATOM      8  C1  UNL d   1       1.514   2.010   0.006  0.00  0.00     0.053 C 
ATOM      9  C   UNL d   1       2.174   1.832   1.365  0.00  0.00     0.018 C 
ENDBRANCH   1   8
TORSDOF 1
ENDMDL
