MODEL 1
REMARK minimizedAffinity 3.36649084
REMARK minimizedRMSD -1
REMARK  0 active torsions:
REMARK  status: ('A' for Active; 'I' for Inactive)
ROOT
ATOM      1  C   UNL d   1       1.442  -0.253   0.443  0.00  0.00     0.078 C 
ATOM      2  C1  UNL d   1       0.125   0.005   1.114  0.00  0.00    -0.077 A 
ATOM      3  C2  UNL d   1      -0.094  -0.376   2.443  0.00  0.00    -0.001 A 
ATOM      4  C3  UNL d   1      -1.327  -0.138   3.052  0.00  0.00     0.003 A 
ATOM      5  C4  UNL d   1      -2.351   0.481   2.338  0.00  0.00    -0.005 A 
ATOM      6  C5  UNL d   1      -2.143   0.862   1.014  0.00  0.00     0.003 A 
ATOM      7  C6  UNL d   1      -0.911   0.625   0.404  0.00  0.00    -0.001 A 
ENDROOT
TORSDOF 0
ENDMDL
