MODEL 1
REMARK minimizedAffinity 1.17412007
REMARK minimizedRMSD -1
REMARK  0 active torsions:
REMARK  status: ('A' for Active; 'I' for Inactive)
ROOT
ATOM      1  C   UNL d   1       1.087   0.223   0.147  0.00  0.00     0.078 C 
ATOM      2  C1  UNL d   1      -0.359   0.274   0.540  0.00  0.00    -0.077 A 
ATOM      3  C2  UNL d   1      -0.738   0.412   1.881  0.00  0.00    -0.001 A 
ATOM      4  C3  UNL d   1      -2.088   0.449   2.233  0.00  0.00     0.003 A 
ATOM      5  C4  UNL d   1      -3.070   0.346   1.250  0.00  0.00    -0.005 A 
ATOM      6  C5  UNL d   1      -2.703   0.205  -0.087  0.00  0.00     0.003 A 
ATOM      7  C6  UNL d   1      -1.353   0.169  -0.441  0.00  0.00    -0.001 A 
ENDROOT
TORSDOF 0
ENDMDL
