MODEL 1
REMARK minimizedAffinity 4.89159393
REMARK minimizedRMSD -1
REMARK  0 active torsions:
REMARK  status: ('A' for Active; 'I' for Inactive)
ROOT
ATOM      1  C   UNL d   1      -1.915   1.580   1.554  0.00  0.00     0.078 C 
ATOM      2  C1  UNL d   1      -2.127   0.368   2.412  0.00  0.00    -0.077 A 
ATOM      3  C2  UNL d   1      -3.358  -0.300   2.424  0.00  0.00    -0.001 A 
ATOM      4  C3  UNL d   1      -3.545  -1.421   3.235  0.00  0.00     0.003 A 
ATOM      5  C4  UNL d   1      -2.506  -1.882   4.041  0.00  0.00    -0.005 A 
ATOM      6  C5  UNL d   1      -1.279  -1.222   4.037  0.00  0.00     0.003 A 
ATOM      7  C6  UNL d   1      -1.090  -0.102   3.227  0.00  0.00    -0.001 A 
ENDROOT
TORSDOF 0
ENDMDL
