MODEL 1
REMARK minimizedAffinity -5.13830757
REMARK minimizedRMSD -1
REMARK  0 active torsions:
REMARK  status: ('A' for Active; 'I' for Inactive)
ROOT
ATOM      1  C   UNL d   1      -2.163  -0.677   0.360  0.00  0.00     0.078 C 
ATOM      2  C1  UNL d   1      -1.009  -0.056   1.089  0.00  0.00    -0.077 A 
ATOM      3  C2  UNL d   1       0.072   0.496   0.391  0.00  0.00    -0.001 A 
ATOM      4  C3  UNL d   1       1.145   1.062   1.082  0.00  0.00     0.003 A 
ATOM      5  C4  UNL d   1       1.148   1.079   2.476  0.00  0.00    -0.005 A 
ATOM      6  C5  UNL d   1       0.078   0.530   3.179  0.00  0.00     0.003 A 
ATOM      7  C6  UNL d   1      -0.996  -0.036   2.489  0.00  0.00    -0.001 A 
ENDROOT
TORSDOF 0
ENDMDL
