MODEL 1
REMARK minimizedAffinity 7.41198254
REMARK minimizedRMSD -1
REMARK  0 active torsions:
REMARK  status: ('A' for Active; 'I' for Inactive)
ROOT
ATOM      1  C   UNL d   1       1.501  -0.063   1.015  0.00  0.00     0.078 C 
ATOM      2  C1  UNL d   1       0.032  -0.105   0.715  0.00  0.00    -0.077 A 
ATOM      3  C2  UNL d   1      -0.443  -0.635  -0.491  0.00  0.00    -0.001 A 
ATOM      4  C3  UNL d   1      -1.812  -0.658  -0.760  0.00  0.00     0.003 A 
ATOM      5  C4  UNL d   1      -2.717  -0.152   0.170  0.00  0.00    -0.005 A 
ATOM      6  C5  UNL d   1      -2.254   0.379   1.372  0.00  0.00     0.003 A 
ATOM      7  C6  UNL d   1      -0.885   0.403   1.644  0.00  0.00    -0.001 A 
ENDROOT
TORSDOF 0
ENDMDL
