MODEL 1
REMARK minimizedAffinity 2.35138154
REMARK minimizedRMSD -1
REMARK  0 active torsions:
REMARK  status: ('A' for Active; 'I' for Inactive)
ROOT
ATOM      1  C   UNL d   1       1.142  -0.019   0.405  0.00  0.00     0.078 C 
ATOM      2  C1  UNL d   1      -0.349  -0.165   0.356  0.00  0.00    -0.077 A 
ATOM      3  C2  UNL d   1      -1.134   0.062   1.493  0.00  0.00    -0.001 A 
ATOM      4  C3  UNL d   1      -2.520  -0.087   1.436  0.00  0.00     0.003 A 
ATOM      5  C4  UNL d   1      -3.134  -0.465   0.243  0.00  0.00    -0.005 A 
ATOM      6  C5  UNL d   1      -2.362  -0.695  -0.893  0.00  0.00     0.003 A 
ATOM      7  C6  UNL d   1      -0.975  -0.547  -0.837  0.00  0.00    -0.001 A 
ENDROOT
TORSDOF 0
ENDMDL
