MODEL 1
REMARK minimizedAffinity 3.25525188
REMARK minimizedRMSD -1
REMARK  0 active torsions:
REMARK  status: ('A' for Active; 'I' for Inactive)
ROOT
ATOM      1  C   UNL d   1       1.161  -1.369   4.270  0.00  0.00     0.078 C 
ATOM      2  C1  UNL d   1       0.517  -0.689   3.098  0.00  0.00    -0.077 A 
ATOM      3  C2  UNL d   1       1.275  -0.288   1.991  0.00  0.00    -0.001 A 
ATOM      4  C3  UNL d   1       0.664   0.353   0.912  0.00  0.00     0.003 A 
ATOM      5  C4  UNL d   1      -0.707   0.600   0.930  0.00  0.00    -0.005 A 
ATOM      6  C5  UNL d   1      -1.469   0.207   2.028  0.00  0.00     0.003 A 
ATOM      7  C6  UNL d   1      -0.860  -0.434   3.108  0.00  0.00    -0.001 A 
ENDROOT
TORSDOF 0
ENDMDL
