MODEL 1
REMARK minimizedAffinity -2.70705819
REMARK minimizedRMSD -1
REMARK  0 active torsions:
REMARK  status: ('A' for Active; 'I' for Inactive)
ROOT
ATOM      1  C   UNL d   1       0.750  -1.035   4.100  0.00  0.00     0.078 C 
ATOM      2  C1  UNL d   1       0.042  -0.524   2.881  0.00  0.00    -0.077 A 
ATOM      3  C2  UNL d   1       0.661  -0.545   1.625  0.00  0.00    -0.001 A 
ATOM      4  C3  UNL d   1      -0.007  -0.057   0.501  0.00  0.00     0.003 A 
ATOM      5  C4  UNL d   1      -1.297   0.455   0.621  0.00  0.00    -0.005 A 
ATOM      6  C5  UNL d   1      -1.920   0.482   1.866  0.00  0.00     0.003 A 
ATOM      7  C6  UNL d   1      -1.254  -0.005   2.992  0.00  0.00    -0.001 A 
ENDROOT
TORSDOF 0
ENDMDL
