MODEL 1
REMARK minimizedAffinity 6.17105198
REMARK minimizedRMSD -1
REMARK  0 active torsions:
REMARK  status: ('A' for Active; 'I' for Inactive)
ROOT
ATOM      1  C   UNL d   1       1.432   0.221   1.487  0.00  0.00     0.078 C 
ATOM      2  C1  UNL d   1       0.140  -0.032   0.768  0.00  0.00    -0.077 A 
ATOM      3  C2  UNL d   1       0.092  -0.861  -0.359  0.00  0.00    -0.001 A 
ATOM      4  C3  UNL d   1      -1.116  -1.080  -1.023  0.00  0.00     0.003 A 
ATOM      5  C4  UNL d   1      -2.284  -0.472  -0.569  0.00  0.00    -0.005 A 
ATOM      6  C5  UNL d   1      -2.246   0.357   0.550  0.00  0.00     0.003 A 
ATOM      7  C6  UNL d   1      -1.039   0.577   1.216  0.00  0.00    -0.001 A 
ENDROOT
TORSDOF 0
ENDMDL
