MODEL 1
REMARK minimizedAffinity 9.07111835
REMARK minimizedRMSD -1
REMARK  0 active torsions:
REMARK  status: ('A' for Active; 'I' for Inactive)
ROOT
ATOM      1  C   UNL d   1       1.048  -1.847   3.844  0.00  0.00     0.077 C 
ATOM      2  C1  UNL d   1       0.564  -0.430   3.756  0.00  0.00    -0.074 A 
ATOM      3  C2  UNL d   1      -0.033   0.055   2.588  0.00  0.00    -0.005 A 
ATOM      4  C3  UNL d   1      -0.487   1.372   2.524  0.00  0.00     0.006 A 
ATOM      5  C4  UNL d   1      -0.348   2.217   3.626  0.00  0.00    -0.005 A 
ATOM      6  C5  UNL d   1       0.246   1.750   4.803  0.00  0.00    -0.074 A 
ATOM      7  C6  UNL d   1       0.394   2.642   6.000  0.00  0.00     0.077 C 
ATOM      8  C7  UNL d   1       0.693   0.423   4.861  0.00  0.00    -0.001 A 
ENDROOT
TORSDOF 0
ENDMDL
