MODEL 1
REMARK minimizedAffinity 18.8194122
REMARK minimizedRMSD -1
REMARK  0 active torsions:
REMARK  status: ('A' for Active; 'I' for Inactive)
ROOT
ATOM      1  C   UNL d   1       4.454   1.334   5.093  0.00  0.00     0.077 C 
ATOM      2  C1  UNL d   1       3.375   0.565   4.391  0.00  0.00    -0.074 A 
ATOM      3  C2  UNL d   1       2.558   1.180   3.437  0.00  0.00    -0.005 A 
ATOM      4  C3  UNL d   1       1.565   0.449   2.785  0.00  0.00     0.006 A 
ATOM      5  C4  UNL d   1       1.379  -0.902   3.080  0.00  0.00    -0.005 A 
ATOM      6  C5  UNL d   1       2.188  -1.535   4.029  0.00  0.00    -0.074 A 
ATOM      7  C6  UNL d   1       2.008  -2.989   4.350  0.00  0.00     0.077 C 
ATOM      8  C7  UNL d   1       3.188  -0.795   4.675  0.00  0.00    -0.001 A 
ENDROOT
TORSDOF 0
ENDMDL
