MODEL 1
REMARK minimizedAffinity 14.6839924
REMARK minimizedRMSD -1
REMARK  0 active torsions:
REMARK  status: ('A' for Active; 'I' for Inactive)
ROOT
ATOM      1  C   UNL d   1       1.119  -1.365   3.066  0.00  0.00     0.077 C 
ATOM      2  C1  UNL d   1       0.513  -0.007   3.260  0.00  0.00    -0.074 A 
ATOM      3  C2  UNL d   1      -0.238   0.597   2.246  0.00  0.00    -0.005 A 
ATOM      4  C3  UNL d   1      -0.804   1.856   2.445  0.00  0.00     0.006 A 
ATOM      5  C4  UNL d   1      -0.625   2.523   3.657  0.00  0.00    -0.005 A 
ATOM      6  C5  UNL d   1       0.123   1.935   4.683  0.00  0.00    -0.074 A 
ATOM      7  C6  UNL d   1       0.317   2.635   5.995  0.00  0.00     0.077 C 
ATOM      8  C7  UNL d   1       0.682   0.667   4.478  0.00  0.00    -0.001 A 
ENDROOT
TORSDOF 0
ENDMDL
