MODEL 1
REMARK minimizedAffinity 19.4285412
REMARK minimizedRMSD -1
REMARK  0 active torsions:
REMARK  status: ('A' for Active; 'I' for Inactive)
ROOT
ATOM      1  C   UNL d   1      -5.620   4.152  -1.533  0.00  0.00     0.077 C 
ATOM      2  C1  UNL d   1      -5.181   2.802  -1.049  0.00  0.00    -0.074 A 
ATOM      3  C2  UNL d   1      -5.429   1.651  -1.805  0.00  0.00    -0.005 A 
ATOM      4  C3  UNL d   1      -5.006   0.404  -1.346  0.00  0.00     0.006 A 
ATOM      5  C4  UNL d   1      -4.334   0.294  -0.128  0.00  0.00    -0.005 A 
ATOM      6  C5  UNL d   1      -4.077   1.433   0.641  0.00  0.00    -0.074 A 
ATOM      7  C6  UNL d   1      -3.346   1.333   1.947  0.00  0.00     0.077 C 
ATOM      8  C7  UNL d   1      -4.498   2.684   0.170  0.00  0.00    -0.001 A 
ENDROOT
TORSDOF 0
ENDMDL
