MODEL 1
REMARK minimizedAffinity 14.4713135
REMARK minimizedRMSD -1
REMARK  0 active torsions:
REMARK  status: ('A' for Active; 'I' for Inactive)
ROOT
ATOM      1  C   UNL d   1       1.978   0.506  -4.434  0.00  0.00     0.077 C 
ATOM      2  C1  UNL d   1       1.083  -0.691  -4.561  0.00  0.00    -0.074 A 
ATOM      3  C2  UNL d   1       1.311  -1.658  -5.545  0.00  0.00    -0.005 A 
ATOM      4  C3  UNL d   1       0.475  -2.770  -5.644  0.00  0.00     0.006 A 
ATOM      5  C4  UNL d   1      -0.595  -2.926  -4.763  0.00  0.00    -0.005 A 
ATOM      6  C5  UNL d   1      -0.838  -1.970  -3.772  0.00  0.00    -0.074 A 
ATOM      7  C6  UNL d   1      -1.978  -2.127  -2.810  0.00  0.00     0.077 C 
ATOM      8  C7  UNL d   1       0.010  -0.858  -3.674  0.00  0.00    -0.001 A 
ENDROOT
TORSDOF 0
ENDMDL
