MODEL 1
REMARK minimizedAffinity 1.33876348
REMARK minimizedRMSD -1
REMARK  0 active torsions:
REMARK  status: ('A' for Active; 'I' for Inactive)
ROOT
ATOM      1  C   UNL d   1       0.111  -0.402   1.904  0.00  0.00     0.077 C 
ATOM      2  C1  UNL d   1       1.068  -0.351   3.057  0.00  0.00    -0.074 A 
ATOM      3  C2  UNL d   1       1.891   0.762   3.259  0.00  0.00    -0.005 A 
ATOM      4  C3  UNL d   1       2.770   0.800   4.341  0.00  0.00     0.006 A 
ATOM      5  C4  UNL d   1       2.835  -0.273   5.231  0.00  0.00    -0.005 A 
ATOM      6  C5  UNL d   1       2.019  -1.394   5.046  0.00  0.00    -0.074 A 
ATOM      7  C6  UNL d   1       2.069  -2.551   5.999  0.00  0.00     0.077 C 
ATOM      8  C7  UNL d   1       1.134  -1.421   3.960  0.00  0.00    -0.001 A 
ENDROOT
TORSDOF 0
ENDMDL
