MODEL 1
REMARK minimizedAffinity 14.1264238
REMARK minimizedRMSD -1
REMARK  0 active torsions:
REMARK  status: ('A' for Active; 'I' for Inactive)
ROOT
ATOM      1  C   UNL d   1      -2.360  -1.487  -3.336  0.00  0.00     0.077 C 
ATOM      2  C1  UNL d   1      -0.972  -1.388  -3.897  0.00  0.00    -0.074 A 
ATOM      3  C2  UNL d   1      -0.182  -0.258  -3.662  0.00  0.00    -0.005 A 
ATOM      4  C3  UNL d   1       1.111  -0.184  -4.182  0.00  0.00     0.006 A 
ATOM      5  C4  UNL d   1       1.624  -1.236  -4.941  0.00  0.00    -0.005 A 
ATOM      6  C5  UNL d   1       0.848  -2.374  -5.186  0.00  0.00    -0.074 A 
ATOM      7  C6  UNL d   1       1.389  -3.518  -5.991  0.00  0.00     0.077 C 
ATOM      8  C7  UNL d   1      -0.446  -2.444  -4.654  0.00  0.00    -0.001 A 
ENDROOT
TORSDOF 0
ENDMDL
