MODEL 1
REMARK minimizedAffinity -4.67991209
REMARK minimizedRMSD -1
REMARK  2 active torsions:
REMARK  status: ('A' for Active; 'I' for Inactive)
REMARK    1  A    between atoms: C1_2  and  C2_3 
REMARK    2  A    between atoms: C2_3  and  C3_4 
ROOT
ATOM      1  C3  UNL d   1       0.382  -0.532  -0.405  0.00  0.00    -0.075 A 
ATOM      2  C4  UNL d   1       0.268  -0.205   0.954  0.00  0.00     0.002 A 
ATOM      3  C5  UNL d   1      -0.020   1.102   1.346  0.00  0.00     0.002 A 
ATOM      4  C6  UNL d   1      -0.188   2.099   0.388  0.00  0.00    -0.004 A 
ATOM      5  C7  UNL d   1      -0.061   1.789  -0.964  0.00  0.00     0.002 A 
ATOM      6  C8  UNL d   1       0.223   0.481  -1.360  0.00  0.00     0.002 A 
ENDROOT
BRANCH   1   7
ATOM      7  C2  UNL d   1       0.665  -1.951  -0.837  0.00  0.00     0.056 C 
BRANCH   7   8
ATOM      8  C1  UNL d   1      -0.546  -2.673  -1.440  0.00  0.00     0.007 C 
ATOM      9  C   UNL d   1      -0.814  -4.030  -0.803  0.00  0.00     0.009 C 
ENDBRANCH   7   8
ENDBRANCH   1   7
TORSDOF 2
ENDMDL
