MODEL 1
REMARK minimizedAffinity -3.69364595
REMARK minimizedRMSD -1
REMARK  2 active torsions:
REMARK  status: ('A' for Active; 'I' for Inactive)
REMARK    1  A    between atoms: C1_2  and  C2_3 
REMARK    2  A    between atoms: C2_3  and  C3_4 
ROOT
ATOM      1  C3  UNL d   1       0.012   0.191   0.141  0.00  0.00    -0.075 A 
ATOM      2  C4  UNL d   1       0.062   1.530  -0.275  0.00  0.00     0.002 A 
ATOM      3  C5  UNL d   1      -0.353   2.552   0.579  0.00  0.00     0.002 A 
ATOM      4  C6  UNL d   1      -0.831   2.250   1.852  0.00  0.00    -0.004 A 
ATOM      5  C7  UNL d   1      -0.901   0.923   2.269  0.00  0.00     0.002 A 
ATOM      6  C8  UNL d   1      -0.483  -0.102   1.419  0.00  0.00     0.002 A 
ENDROOT
BRANCH   1   7
ATOM      7  C2  UNL d   1       0.487  -0.918  -0.768  0.00  0.00     0.056 C 
BRANCH   7   8
ATOM      8  C1  UNL d   1       0.011  -2.313  -0.349  0.00  0.00     0.007 C 
ATOM      9  C   UNL d   1       0.441  -3.409  -1.316  0.00  0.00     0.009 C 
ENDBRANCH   7   8
ENDBRANCH   1   7
TORSDOF 2
ENDMDL
