MODEL 1
REMARK minimizedAffinity -2.67589259
REMARK minimizedRMSD -1
REMARK  2 active torsions:
REMARK  status: ('A' for Active; 'I' for Inactive)
REMARK    1  A    between atoms: C1_2  and  C2_3 
REMARK    2  A    between atoms: C2_3  and  C3_4 
ROOT
ATOM      1  C3  UNL d   1      -0.255  -1.402  -0.374  0.00  0.00    -0.075 A 
ATOM      2  C4  UNL d   1      -1.569  -1.883  -0.476  0.00  0.00     0.002 A 
ATOM      3  C5  UNL d   1      -1.811  -3.205  -0.849  0.00  0.00     0.002 A 
ATOM      4  C6  UNL d   1      -0.747  -4.059  -1.132  0.00  0.00    -0.004 A 
ATOM      5  C7  UNL d   1       0.561  -3.587  -1.050  0.00  0.00     0.002 A 
ATOM      6  C8  UNL d   1       0.807  -2.265  -0.673  0.00  0.00     0.002 A 
ENDROOT
BRANCH   1   7
ATOM      7  C2  UNL d   1       0.015   0.020   0.057  0.00  0.00     0.056 C 
BRANCH   7   8
ATOM      8  C1  UNL d   1       0.346   0.168   1.546  0.00  0.00     0.007 C 
ATOM      9  C   UNL d   1      -0.051   1.523   2.118  0.00  0.00     0.009 C 
ENDBRANCH   7   8
ENDBRANCH   1   7
TORSDOF 2
ENDMDL
