MODEL 1
REMARK minimizedAffinity 0.776204467
REMARK minimizedRMSD -1
REMARK  2 active torsions:
REMARK  status: ('A' for Active; 'I' for Inactive)
REMARK    1  A    between atoms: C1_2  and  C2_3 
REMARK    2  A    between atoms: C2_3  and  C3_4 
ROOT
ATOM      1  C3  UNL d   1       0.038  -2.100  -0.915  0.00  0.00    -0.075 A 
ATOM      2  C4  UNL d   1      -0.968  -2.121  -1.893  0.00  0.00     0.002 A 
ATOM      3  C5  UNL d   1      -1.720  -3.276  -2.110  0.00  0.00     0.002 A 
ATOM      4  C6  UNL d   1      -1.470  -4.425  -1.363  0.00  0.00    -0.004 A 
ATOM      5  C7  UNL d   1      -0.462  -4.421  -0.402  0.00  0.00     0.002 A 
ATOM      6  C8  UNL d   1       0.289  -3.265  -0.178  0.00  0.00     0.002 A 
ENDROOT
BRANCH   1   7
ATOM      7  C2  UNL d   1       0.835  -0.845  -0.654  0.00  0.00     0.056 C 
BRANCH   7   8
ATOM      8  C1  UNL d   1       0.205   0.090   0.384  0.00  0.00     0.007 C 
ATOM      9  C   UNL d   1       0.714  -0.153   1.798  0.00  0.00     0.009 C 
ENDBRANCH   7   8
ENDBRANCH   1   7
TORSDOF 2
ENDMDL
