MODEL 1
REMARK minimizedAffinity -2.79032969
REMARK minimizedRMSD -1
REMARK  2 active torsions:
REMARK  status: ('A' for Active; 'I' for Inactive)
REMARK    1  A    between atoms: C1_2  and  C2_3 
REMARK    2  A    between atoms: C2_3  and  C3_4 
ROOT
ATOM      1  C3  UNL d   1       0.292  -0.493  -0.071  0.00  0.00    -0.075 A 
ATOM      2  C4  UNL d   1       0.854  -0.718   1.194  0.00  0.00     0.002 A 
ATOM      3  C5  UNL d   1       0.700   0.220   2.215  0.00  0.00     0.002 A 
ATOM      4  C6  UNL d   1      -0.008   1.398   1.982  0.00  0.00    -0.004 A 
ATOM      5  C7  UNL d   1      -0.556   1.639   0.725  0.00  0.00     0.002 A 
ATOM      6  C8  UNL d   1      -0.407   0.700  -0.297  0.00  0.00     0.002 A 
ENDROOT
BRANCH   1   7
ATOM      7  C2  UNL d   1       0.430  -1.518  -1.171  0.00  0.00     0.056 C 
BRANCH   7   8
ATOM      8  C1  UNL d   1      -0.883  -2.212  -1.545  0.00  0.00     0.007 C 
ATOM      9  C   UNL d   1      -0.773  -3.730  -1.575  0.00  0.00     0.009 C 
ENDBRANCH   7   8
ENDBRANCH   1   7
TORSDOF 2
ENDMDL
