MODEL 1
REMARK minimizedAffinity -4.01718521
REMARK minimizedRMSD -1
REMARK  2 active torsions:
REMARK  status: ('A' for Active; 'I' for Inactive)
REMARK    1  A    between atoms: C1_2  and  C2_3 
REMARK    2  A    between atoms: C2_3  and  C3_4 
ROOT
ATOM      1  C3  UNL d   1       0.030   0.585   0.193  0.00  0.00    -0.075 A 
ATOM      2  C4  UNL d   1      -0.251   1.403  -0.911  0.00  0.00     0.002 A 
ATOM      3  C5  UNL d   1      -0.431   2.777  -0.747  0.00  0.00     0.002 A 
ATOM      4  C6  UNL d   1      -0.342   3.348   0.521  0.00  0.00    -0.004 A 
ATOM      5  C7  UNL d   1      -0.079   2.542   1.627  0.00  0.00     0.002 A 
ATOM      6  C8  UNL d   1       0.106   1.168   1.465  0.00  0.00     0.002 A 
ENDROOT
BRANCH   1   7
ATOM      7  C2  UNL d   1       0.255  -0.898   0.018  0.00  0.00     0.056 C 
BRANCH   7   8
ATOM      8  C1  UNL d   1       0.493  -1.326  -1.434  0.00  0.00     0.007 C 
ATOM      9  C   UNL d   1      -0.180  -2.644  -1.789  0.00  0.00     0.009 C 
ENDBRANCH   7   8
ENDBRANCH   1   7
TORSDOF 2
ENDMDL
