MODEL 1
REMARK minimizedAffinity -3.25383568
REMARK minimizedRMSD -1
REMARK  2 active torsions:
REMARK  status: ('A' for Active; 'I' for Inactive)
REMARK    1  A    between atoms: C1_2  and  C2_3 
REMARK    2  A    between atoms: C2_3  and  C3_4 
ROOT
ATOM      1  C3  UNL d   1       0.117  -1.345  -0.846  0.00  0.00    -0.075 A 
ATOM      2  C4  UNL d   1      -0.990  -1.627  -1.661  0.00  0.00     0.002 A 
ATOM      3  C5  UNL d   1      -1.289  -2.942  -2.020  0.00  0.00     0.002 A 
ATOM      4  C6  UNL d   1      -0.482  -3.988  -1.578  0.00  0.00    -0.004 A 
ATOM      5  C7  UNL d   1       0.629  -3.718  -0.782  0.00  0.00     0.002 A 
ATOM      6  C8  UNL d   1       0.928  -2.404  -0.418  0.00  0.00     0.002 A 
ENDROOT
BRANCH   1   7
ATOM      7  C2  UNL d   1       0.429   0.073  -0.431  0.00  0.00     0.056 C 
BRANCH   7   8
ATOM      8  C1  UNL d   1       0.801   0.221   1.048  0.00  0.00     0.007 C 
ATOM      9  C   UNL d   1       0.185   1.451   1.702  0.00  0.00     0.009 C 
ENDBRANCH   7   8
ENDBRANCH   1   7
TORSDOF 2
ENDMDL
