MODEL 1
REMARK minimizedAffinity 12.9759178
REMARK minimizedRMSD -1
REMARK  1 active torsions:
REMARK  status: ('A' for Active; 'I' for Inactive)
REMARK    1  A    between atoms: C1_2  and  C2_3 
ROOT
ATOM      1  C2  UNL d   1       1.537   0.903  -2.733  0.00  0.00    -0.081 A 
ATOM      2  C3  UNL d   1       1.375   0.461  -4.051  0.00  0.00     0.006 A 
ATOM      3  C4  UNL d   1       1.940   1.173  -5.112  0.00  0.00     0.002 A 
ATOM      4  C5  UNL d   1       2.682   2.334  -4.871  0.00  0.00    -0.080 A 
ATOM      5  C6  UNL d   1       3.320   3.091  -5.998  0.00  0.00     0.076 C 
ATOM      6  C7  UNL d   1       2.830   2.786  -3.555  0.00  0.00     0.002 A 
ATOM      7  C8  UNL d   1       2.264   2.075  -2.495  0.00  0.00     0.006 A 
ENDROOT
BRANCH   1   8
ATOM      8  C1  UNL d   1       0.983   0.102  -1.582  0.00  0.00     0.054 C 
ATOM      9  C   UNL d   1       1.879  -1.082  -1.251  0.00  0.00     0.018 C 
ENDBRANCH   1   8
TORSDOF 1
ENDMDL
