MODEL 1
REMARK minimizedAffinity 6.06111431
REMARK minimizedRMSD -1
REMARK  1 active torsions:
REMARK  status: ('A' for Active; 'I' for Inactive)
REMARK    1  A    between atoms: C1_2  and  C2_3 
ROOT
ATOM      1  C2  UNL d   1       3.315   1.502   2.295  0.00  0.00    -0.081 A 
ATOM      2  C3  UNL d   1       4.215   2.556   2.097  0.00  0.00     0.006 A 
ATOM      3  C4  UNL d   1       3.835   3.686   1.369  0.00  0.00     0.002 A 
ATOM      4  C5  UNL d   1       2.546   3.784   0.833  0.00  0.00    -0.080 A 
ATOM      5  C6  UNL d   1       2.116   5.004   0.075  0.00  0.00     0.076 C 
ATOM      6  C7  UNL d   1       1.652   2.723   1.015  0.00  0.00     0.002 A 
ATOM      7  C8  UNL d   1       2.032   1.594   1.743  0.00  0.00     0.006 A 
ENDROOT
BRANCH   1   8
ATOM      8  C1  UNL d   1       3.701   0.311   3.135  0.00  0.00     0.054 C 
ATOM      9  C   UNL d   1       5.152   0.399   3.585  0.00  0.00     0.018 C 
ENDBRANCH   1   8
TORSDOF 1
ENDMDL
