MODEL 1
REMARK minimizedAffinity 0.909406662
REMARK minimizedRMSD -1
REMARK  1 active torsions:
REMARK  status: ('A' for Active; 'I' for Inactive)
REMARK    1  A    between atoms: C1_2  and  C2_3 
ROOT
ATOM      1  C2  UNL d   1       1.341   1.204  -2.152  0.00  0.00    -0.081 A 
ATOM      2  C3  UNL d   1       1.172   1.998  -1.011  0.00  0.00     0.006 A 
ATOM      3  C4  UNL d   1       1.689   3.295  -0.967  0.00  0.00     0.002 A 
ATOM      4  C5  UNL d   1       2.375   3.823  -2.066  0.00  0.00    -0.080 A 
ATOM      5  C6  UNL d   1       2.909   5.224  -2.043  0.00  0.00     0.076 C 
ATOM      6  C7  UNL d   1       2.559   3.024  -3.200  0.00  0.00     0.002 A 
ATOM      7  C8  UNL d   1       2.044   1.727  -3.244  0.00  0.00     0.006 A 
ENDROOT
BRANCH   1   8
ATOM      8  C1  UNL d   1       0.729  -0.171  -2.227  0.00  0.00     0.054 C 
ATOM      9  C   UNL d   1       1.519  -1.174  -1.398  0.00  0.00     0.018 C 
ENDBRANCH   1   8
TORSDOF 1
ENDMDL
