MODEL 1
REMARK minimizedAffinity 3.31439495
REMARK minimizedRMSD -1
REMARK  1 active torsions:
REMARK  status: ('A' for Active; 'I' for Inactive)
REMARK    1  A    between atoms: C1_2  and  C2_3 
ROOT
ATOM      1  C2  UNL d   1       5.561   0.224   5.089  0.00  0.00    -0.081 A 
ATOM      2  C3  UNL d   1       4.752  -0.039   3.977  0.00  0.00     0.006 A 
ATOM      3  C4  UNL d   1       4.396   0.989   3.100  0.00  0.00     0.002 A 
ATOM      4  C5  UNL d   1       4.850   2.294   3.317  0.00  0.00    -0.080 A 
ATOM      5  C6  UNL d   1       4.500   3.401   2.367  0.00  0.00     0.076 C 
ATOM      6  C7  UNL d   1       5.644   2.561   4.437  0.00  0.00     0.002 A 
ATOM      7  C8  UNL d   1       5.999   1.533   5.314  0.00  0.00     0.006 A 
ENDROOT
BRANCH   1   8
ATOM      8  C1  UNL d   1       6.000  -0.895   5.999  0.00  0.00     0.054 C 
ATOM      9  C   UNL d   1       5.279  -2.193   5.667  0.00  0.00     0.018 C 
ENDBRANCH   1   8
TORSDOF 1
ENDMDL
