MODEL 1
REMARK minimizedAffinity 12.0157127
REMARK minimizedRMSD -1
REMARK  1 active torsions:
REMARK  status: ('A' for Active; 'I' for Inactive)
REMARK    1  A    between atoms: C1_2  and  C2_3 
ROOT
ATOM      1  C2  UNL d   1       3.908   2.142   2.222  0.00  0.00    -0.081 A 
ATOM      2  C3  UNL d   1       3.637   2.731   0.981  0.00  0.00     0.006 A 
ATOM      3  C4  UNL d   1       2.320   2.991   0.593  0.00  0.00     0.002 A 
ATOM      4  C5  UNL d   1       1.254   2.673   1.442  0.00  0.00    -0.080 A 
ATOM      5  C6  UNL d   1      -0.162   2.974   1.051  0.00  0.00     0.076 C 
ATOM      6  C7  UNL d   1       1.525   2.068   2.675  0.00  0.00     0.002 A 
ATOM      7  C8  UNL d   1       2.841   1.808   3.062  0.00  0.00     0.006 A 
ENDROOT
BRANCH   1   8
ATOM      8  C1  UNL d   1       5.330   1.920   2.670  0.00  0.00     0.054 C 
ATOM      9  C   UNL d   1       5.761   2.970   3.684  0.00  0.00     0.018 C 
ENDBRANCH   1   8
TORSDOF 1
ENDMDL
