MODEL 1
REMARK minimizedAffinity 0.885330021
REMARK minimizedRMSD -1
REMARK  1 active torsions:
REMARK  status: ('A' for Active; 'I' for Inactive)
REMARK    1  A    between atoms: C1_2  and  C2_3 
ROOT
ATOM      1  C2  UNL d   1       5.347   1.276   4.713  0.00  0.00    -0.081 A 
ATOM      2  C3  UNL d   1       5.082   2.108   3.618  0.00  0.00     0.006 A 
ATOM      3  C4  UNL d   1       5.278   3.488   3.713  0.00  0.00     0.002 A 
ATOM      4  C5  UNL d   1       5.750   4.058   4.900  0.00  0.00    -0.080 A 
ATOM      5  C6  UNL d   1       5.994   5.534   5.005  0.00  0.00     0.076 C 
ATOM      6  C7  UNL d   1       5.998   3.229   6.000  0.00  0.00     0.002 A 
ATOM      7  C8  UNL d   1       5.801   1.850   5.906  0.00  0.00     0.006 A 
ENDROOT
BRANCH   1   8
ATOM      8  C1  UNL d   1       5.197  -0.219   4.594  0.00  0.00     0.054 C 
ATOM      9  C   UNL d   1       5.308  -0.896   5.953  0.00  0.00     0.018 C 
ENDBRANCH   1   8
TORSDOF 1
ENDMDL
