MODEL 1
REMARK minimizedAffinity 9.72262287
REMARK minimizedRMSD -1
REMARK  1 active torsions:
REMARK  status: ('A' for Active; 'I' for Inactive)
REMARK    1  A    between atoms: C1_2  and  C2_3 
ROOT
ATOM      1  C2  UNL d   1       0.121  -0.032  -0.320  0.00  0.00    -0.081 A 
ATOM      2  C3  UNL d   1       1.288  -0.769  -0.558  0.00  0.00     0.006 A 
ATOM      3  C4  UNL d   1       1.321  -2.143  -0.308  0.00  0.00     0.002 A 
ATOM      4  C5  UNL d   1       0.188  -2.804   0.176  0.00  0.00    -0.080 A 
ATOM      5  C6  UNL d   1       0.201  -4.284   0.420  0.00  0.00     0.076 C 
ATOM      6  C7  UNL d   1      -0.973  -2.065   0.431  0.00  0.00     0.002 A 
ATOM      7  C8  UNL d   1      -1.007  -0.691   0.182  0.00  0.00     0.006 A 
ENDROOT
BRANCH   1   8
ATOM      8  C1  UNL d   1       0.062   1.437  -0.650  0.00  0.00     0.054 C 
ATOM      9  C   UNL d   1       1.101   2.223   0.137  0.00  0.00     0.018 C 
ENDBRANCH   1   8
TORSDOF 1
ENDMDL
