MODEL 1
REMARK minimizedAffinity 2.67642164
REMARK minimizedRMSD -1
REMARK  1 active torsions:
REMARK  status: ('A' for Active; 'I' for Inactive)
REMARK    1  A    between atoms: C1_2  and  C2_3 
ROOT
ATOM      1  C2  UNL d   1      -0.581  -2.627  -0.056  0.00  0.00    -0.081 A 
ATOM      2  C3  UNL d   1       0.630  -2.144  -0.567  0.00  0.00     0.006 A 
ATOM      3  C4  UNL d   1       0.810  -0.777  -0.788  0.00  0.00     0.002 A 
ATOM      4  C5  UNL d   1      -0.213   0.131  -0.495  0.00  0.00    -0.080 A 
ATOM      5  C6  UNL d   1      -0.022   1.604  -0.700  0.00  0.00     0.076 C 
ATOM      6  C7  UNL d   1      -1.429  -0.353  -0.001  0.00  0.00     0.002 A 
ATOM      7  C8  UNL d   1      -1.610  -1.721   0.220  0.00  0.00     0.006 A 
ENDROOT
BRANCH   1   8
ATOM      8  C1  UNL d   1      -0.755  -4.094   0.245  0.00  0.00     0.054 C 
ATOM      9  C   UNL d   1      -2.163  -4.564  -0.092  0.00  0.00     0.018 C 
ENDBRANCH   1   8
TORSDOF 1
ENDMDL
