MODEL 1
REMARK minimizedAffinity 2.25597715
REMARK minimizedRMSD -1
REMARK  1 active torsions:
REMARK  status: ('A' for Active; 'I' for Inactive)
REMARK    1  A    between atoms: C1_2  and  C2_3 
ROOT
ATOM      1  C2  UNL d   1       5.696  -0.581   4.864  0.00  0.00    -0.081 A 
ATOM      2  C3  UNL d   1       5.332   0.079   3.684  0.00  0.00     0.006 A 
ATOM      3  C4  UNL d   1       5.284   1.474   3.639  0.00  0.00     0.002 A 
ATOM      4  C5  UNL d   1       5.606   2.233   4.770  0.00  0.00    -0.080 A 
ATOM      5  C6  UNL d   1       5.588   3.732   4.726  0.00  0.00     0.076 C 
ATOM      6  C7  UNL d   1       5.952   1.573   5.954  0.00  0.00     0.002 A 
ATOM      7  C8  UNL d   1       6.000   0.178   6.000  0.00  0.00     0.006 A 
ENDROOT
BRANCH   1   8
ATOM      8  C1  UNL d   1       5.811  -2.083   4.898  0.00  0.00     0.054 C 
ATOM      9  C   UNL d   1       4.948  -2.680   6.000  0.00  0.00     0.018 C 
ENDBRANCH   1   8
TORSDOF 1
ENDMDL
