MODEL 1
REMARK minimizedAffinity -2.49077082
REMARK minimizedRMSD -1
REMARK  1 active torsions:
REMARK  status: ('A' for Active; 'I' for Inactive)
REMARK    1  A    between atoms: C1_2  and  C2_3 
ROOT
ATOM      1  C2  UNL d   1       5.075  -0.072   5.017  0.00  0.00    -0.081 A 
ATOM      2  C3  UNL d   1       4.486   0.688   3.999  0.00  0.00     0.006 A 
ATOM      3  C4  UNL d   1       4.656   2.074   3.960  0.00  0.00     0.002 A 
ATOM      4  C5  UNL d   1       5.425   2.721   4.933  0.00  0.00    -0.080 A 
ATOM      5  C6  UNL d   1       5.642   4.205   4.885  0.00  0.00     0.076 C 
ATOM      6  C7  UNL d   1       6.000   1.965   5.960  0.00  0.00     0.002 A 
ATOM      7  C8  UNL d   1       5.829   0.579   5.999  0.00  0.00     0.006 A 
ENDROOT
BRANCH   1   8
ATOM      8  C1  UNL d   1       4.946  -1.574   5.024  0.00  0.00     0.054 C 
ATOM      9  C   UNL d   1       6.000  -2.224   4.140  0.00  0.00     0.018 C 
ENDBRANCH   1   8
TORSDOF 1
ENDMDL
