MODEL 1
REMARK minimizedAffinity -2.05686283
REMARK minimizedRMSD -1
REMARK  0 active torsions:
REMARK  status: ('A' for Active; 'I' for Inactive)
ROOT
ATOM      1  C   UNL d   1      -1.523   0.497  -1.172  0.00  0.00     0.078 C 
ATOM      2  C1  UNL d   1      -1.126   0.909   0.214  0.00  0.00    -0.077 A 
ATOM      3  C2  UNL d   1      -1.907   1.808   0.951  0.00  0.00    -0.001 A 
ATOM      4  C3  UNL d   1      -1.521   2.190   2.236  0.00  0.00     0.003 A 
ATOM      5  C4  UNL d   1      -0.351   1.680   2.796  0.00  0.00    -0.005 A 
ATOM      6  C5  UNL d   1       0.434   0.787   2.070  0.00  0.00     0.003 A 
ATOM      7  C6  UNL d   1       0.049   0.403   0.784  0.00  0.00    -0.001 A 
ENDROOT
TORSDOF 0
ENDMDL
