MODEL 1
REMARK minimizedAffinity -4.7172718
REMARK minimizedRMSD -1
REMARK  0 active torsions:
REMARK  status: ('A' for Active; 'I' for Inactive)
ROOT
ATOM      1  C   UNL d   1       0.084  -1.197  -0.248  0.00  0.00     0.078 C 
ATOM      2  C1  UNL d   1      -0.277  -0.062   0.664  0.00  0.00    -0.077 A 
ATOM      3  C2  UNL d   1       0.316   0.067   1.925  0.00  0.00    -0.001 A 
ATOM      4  C3  UNL d   1      -0.037   1.123   2.767  0.00  0.00     0.003 A 
ATOM      5  C4  UNL d   1      -0.985   2.058   2.357  0.00  0.00    -0.005 A 
ATOM      6  C5  UNL d   1      -1.582   1.937   1.103  0.00  0.00     0.003 A 
ATOM      7  C6  UNL d   1      -1.230   0.882   0.260  0.00  0.00    -0.001 A 
ENDROOT
TORSDOF 0
ENDMDL
