MODEL 1
REMARK minimizedAffinity -5.01419973
REMARK minimizedRMSD -1
REMARK  0 active torsions:
REMARK  status: ('A' for Active; 'I' for Inactive)
ROOT
ATOM      1  C   UNL d   1      -1.466   1.971   1.397  0.00  0.00     0.078 C 
ATOM      2  C1  UNL d   1      -0.653   1.193   0.406  0.00  0.00    -0.077 A 
ATOM      3  C2  UNL d   1      -0.620   1.558  -0.945  0.00  0.00    -0.001 A 
ATOM      4  C3  UNL d   1       0.134   0.819  -1.858  0.00  0.00     0.003 A 
ATOM      5  C4  UNL d   1       0.861  -0.290  -1.430  0.00  0.00    -0.005 A 
ATOM      6  C5  UNL d   1       0.833  -0.662  -0.087  0.00  0.00     0.003 A 
ATOM      7  C6  UNL d   1       0.079   0.076   0.827  0.00  0.00    -0.001 A 
ENDROOT
TORSDOF 0
ENDMDL
