MODEL 1
REMARK minimizedAffinity -1.95189774
REMARK minimizedRMSD -1
REMARK  0 active torsions:
REMARK  status: ('A' for Active; 'I' for Inactive)
ROOT
ATOM      1  C   UNL d   1      -0.395   2.204   1.962  0.00  0.00     0.078 C 
ATOM      2  C1  UNL d   1      -0.041   0.986   1.161  0.00  0.00    -0.077 A 
ATOM      3  C2  UNL d   1       0.603  -0.106   1.755  0.00  0.00    -0.001 A 
ATOM      4  C3  UNL d   1       0.935  -1.229   0.995  0.00  0.00     0.003 A 
ATOM      5  C4  UNL d   1       0.628  -1.270  -0.363  0.00  0.00    -0.005 A 
ATOM      6  C5  UNL d   1      -0.011  -0.187  -0.964  0.00  0.00     0.003 A 
ATOM      7  C6  UNL d   1      -0.344   0.937  -0.205  0.00  0.00    -0.001 A 
ENDROOT
TORSDOF 0
ENDMDL
