MODEL 1
REMARK minimizedAffinity -2.60077047
REMARK minimizedRMSD -1
REMARK  0 active torsions:
REMARK  status: ('A' for Active; 'I' for Inactive)
ROOT
ATOM      1  C   UNL d   1      -0.173   0.661   1.711  0.00  0.00     0.078 C 
ATOM      2  C1  UNL d   1      -0.170  -0.382   0.633  0.00  0.00    -0.077 A 
ATOM      3  C2  UNL d   1      -1.308  -1.156   0.375  0.00  0.00    -0.001 A 
ATOM      4  C3  UNL d   1      -1.287  -2.130  -0.625  0.00  0.00     0.003 A 
ATOM      5  C4  UNL d   1      -0.131  -2.339  -1.374  0.00  0.00    -0.005 A 
ATOM      6  C5  UNL d   1       1.007  -1.576  -1.122  0.00  0.00     0.003 A 
ATOM      7  C6  UNL d   1       0.988  -0.601  -0.123  0.00  0.00    -0.001 A 
ENDROOT
TORSDOF 0
ENDMDL
