MODEL 1
REMARK minimizedAffinity -1.24256051
REMARK minimizedRMSD -1
REMARK  0 active torsions:
REMARK  status: ('A' for Active; 'I' for Inactive)
ROOT
ATOM      1  C   UNL d   1      -1.361   0.826  -0.030  0.00  0.00     0.172 C 
ATOM      2  N   UNL d   1      -0.326  -0.170  -0.186  0.00  0.00    -0.070 N 
ATOM      3  C1  UNL d   1       0.943  -0.088   0.320  0.00  0.00    -0.004 A 
ATOM      4  C2  UNL d   1       1.618  -1.233  -0.046  0.00  0.00    -0.047 A 
ATOM      5  C3  UNL d   1       0.723  -2.030  -0.799  0.00  0.00    -0.047 A 
ATOM      6  C4  UNL d   1      -0.474  -1.348  -0.870  0.00  0.00    -0.004 A 
ENDROOT
TORSDOF 0
ENDMDL
