MODEL 1
REMARK minimizedAffinity -0.686204135
REMARK minimizedRMSD -1
REMARK  0 active torsions:
REMARK  status: ('A' for Active; 'I' for Inactive)
ROOT
ATOM      1  C   UNL d   1      -2.928   3.504   1.924  0.00  0.00     0.172 C 
ATOM      2  N   UNL d   1      -3.155   2.157   1.457  0.00  0.00    -0.070 N 
ATOM      3  C1  UNL d   1      -3.769   1.159   2.166  0.00  0.00    -0.004 A 
ATOM      4  C2  UNL d   1      -3.791   0.031   1.374  0.00  0.00    -0.047 A 
ATOM      5  C3  UNL d   1      -3.168   0.362   0.147  0.00  0.00    -0.047 A 
ATOM      6  C4  UNL d   1      -2.784   1.684   0.226  0.00  0.00    -0.004 A 
ENDROOT
TORSDOF 0
ENDMDL
