MODEL 1
REMARK minimizedAffinity -1.93720675
REMARK minimizedRMSD -1
REMARK  0 active torsions:
REMARK  status: ('A' for Active; 'I' for Inactive)
ROOT
ATOM      1  C   UNL d   1      -0.781   0.013  -0.011  0.00  0.00     0.172 C 
ATOM      2  N   UNL d   1      -2.099   0.293   0.507  0.00  0.00    -0.070 N 
ATOM      3  C1  UNL d   1      -3.023  -0.644   0.886  0.00  0.00    -0.004 A 
ATOM      4  C2  UNL d   1      -4.147   0.023   1.323  0.00  0.00    -0.047 A 
ATOM      5  C3  UNL d   1      -3.889   1.410   1.202  0.00  0.00    -0.047 A 
ATOM      6  C4  UNL d   1      -2.615   1.548   0.695  0.00  0.00    -0.004 A 
ENDROOT
TORSDOF 0
ENDMDL
