MODEL 1
REMARK minimizedAffinity -1.55402768
REMARK minimizedRMSD -1
REMARK  0 active torsions:
REMARK  status: ('A' for Active; 'I' for Inactive)
ROOT
ATOM      1  C   UNL d   1       2.996  -1.859  -0.246  0.00  0.00     0.172 C 
ATOM      2  N   UNL d   1       1.877  -0.946  -0.258  0.00  0.00    -0.070 N 
ATOM      3  C1  UNL d   1       1.961   0.420  -0.214  0.00  0.00    -0.004 A 
ATOM      4  C2  UNL d   1       0.679   0.923  -0.245  0.00  0.00    -0.047 A 
ATOM      5  C3  UNL d   1      -0.207  -0.179  -0.309  0.00  0.00    -0.047 A 
ATOM      6  C4  UNL d   1       0.562  -1.324  -0.316  0.00  0.00    -0.004 A 
ENDROOT
TORSDOF 0
ENDMDL
