MODEL 1
REMARK minimizedAffinity -1.81471264
REMARK minimizedRMSD -1
REMARK  0 active torsions:
REMARK  status: ('A' for Active; 'I' for Inactive)
ROOT
ATOM      1  C   UNL d   1       1.983  -1.484  -0.066  0.00  0.00     0.172 C 
ATOM      2  N   UNL d   1       0.940  -0.503  -0.252  0.00  0.00    -0.070 N 
ATOM      3  C1  UNL d   1      -0.263  -0.722  -0.869  0.00  0.00    -0.004 A 
ATOM      4  C2  UNL d   1      -0.972   0.459  -0.842  0.00  0.00    -0.047 A 
ATOM      5  C3  UNL d   1      -0.168   1.422  -0.186  0.00  0.00    -0.047 A 
ATOM      6  C4  UNL d   1       1.010   0.799   0.168  0.00  0.00    -0.004 A 
ENDROOT
TORSDOF 0
ENDMDL
