MODEL 1
REMARK minimizedAffinity -3.45011377
REMARK minimizedRMSD -1
REMARK  0 active torsions:
REMARK  status: ('A' for Active; 'I' for Inactive)
ROOT
ATOM      1  C   UNL d   1      -0.213   0.390   0.013  0.00  0.00     0.172 C 
ATOM      2  N   UNL d   1       1.218   0.195   0.009  0.00  0.00    -0.070 N 
ATOM      3  C1  UNL d   1       2.159   1.188   0.074  0.00  0.00    -0.004 A 
ATOM      4  C2  UNL d   1       3.402   0.594   0.045  0.00  0.00    -0.047 A 
ATOM      5  C3  UNL d   1       3.201  -0.805  -0.042  0.00  0.00    -0.047 A 
ATOM      6  C4  UNL d   1       1.840  -1.023  -0.063  0.00  0.00    -0.004 A 
ENDROOT
TORSDOF 0
ENDMDL
