MODEL 1
REMARK minimizedAffinity 0.568944693
REMARK minimizedRMSD -1
REMARK  0 active torsions:
REMARK  status: ('A' for Active; 'I' for Inactive)
ROOT
ATOM      1  C   UNL d   1      -4.179   0.416  -0.975  0.00  0.00     0.172 C 
ATOM      2  N   UNL d   1      -4.002   0.681   0.434  0.00  0.00    -0.070 N 
ATOM      3  C1  UNL d   1      -4.427   1.803   1.094  0.00  0.00    -0.004 A 
ATOM      4  C2  UNL d   1      -4.069   1.674   2.419  0.00  0.00    -0.047 A 
ATOM      5  C3  UNL d   1      -3.405   0.432   2.559  0.00  0.00    -0.047 A 
ATOM      6  C4  UNL d   1      -3.378  -0.162   1.315  0.00  0.00    -0.004 A 
ENDROOT
TORSDOF 0
ENDMDL
