MODEL 1
REMARK minimizedAffinity 0.0450337641
REMARK minimizedRMSD -1
REMARK  0 active torsions:
REMARK  status: ('A' for Active; 'I' for Inactive)
ROOT
ATOM      1  C   UNL d   1      -1.126  -2.428  -2.131  0.00  0.00     0.078 C 
ATOM      2  C1  UNL d   1      -1.626  -2.840  -3.484  0.00  0.00    -0.077 A 
ATOM      3  C2  UNL d   1      -1.100  -2.272  -4.651  0.00  0.00    -0.001 A 
ATOM      4  C3  UNL d   1      -1.582  -2.658  -5.902  0.00  0.00     0.003 A 
ATOM      5  C4  UNL d   1      -2.592  -3.613  -5.999  0.00  0.00    -0.005 A 
ATOM      6  C5  UNL d   1      -3.123  -4.182  -4.843  0.00  0.00     0.003 A 
ATOM      7  C6  UNL d   1      -2.642  -3.797  -3.591  0.00  0.00    -0.001 A 
ENDROOT
TORSDOF 0
ENDMDL
