MODEL 1
REMARK minimizedAffinity -2.07515979
REMARK minimizedRMSD -1
REMARK  0 active torsions:
REMARK  status: ('A' for Active; 'I' for Inactive)
ROOT
ATOM      1  C   UNL d   1       2.284   4.676  -5.990  0.00  0.00     0.078 C 
ATOM      2  C1  UNL d   1       3.572   3.908  -5.999  0.00  0.00    -0.077 A 
ATOM      3  C2  UNL d   1       3.577   2.508  -5.999  0.00  0.00    -0.001 A 
ATOM      4  C3  UNL d   1       4.783   1.806  -5.998  0.00  0.00     0.003 A 
ATOM      5  C4  UNL d   1       5.994   2.496  -5.995  0.00  0.00    -0.005 A 
ATOM      6  C5  UNL d   1       5.999   3.889  -5.992  0.00  0.00     0.003 A 
ATOM      7  C6  UNL d   1       4.794   4.593  -5.993  0.00  0.00    -0.001 A 
ENDROOT
TORSDOF 0
ENDMDL
