MODEL 1
REMARK minimizedAffinity -2.88728285
REMARK minimizedRMSD -1
REMARK  0 active torsions:
REMARK  status: ('A' for Active; 'I' for Inactive)
ROOT
ATOM      1  C   UNL d   1      -5.220  -5.542  -2.215  0.00  0.00     0.078 C 
ATOM      2  C1  UNL d   1      -4.762  -4.263  -1.580  0.00  0.00    -0.077 A 
ATOM      3  C2  UNL d   1      -3.626  -3.592  -2.048  0.00  0.00    -0.001 A 
ATOM      4  C3  UNL d   1      -3.205  -2.407  -1.442  0.00  0.00     0.003 A 
ATOM      5  C4  UNL d   1      -3.915  -1.884  -0.362  0.00  0.00    -0.005 A 
ATOM      6  C5  UNL d   1      -5.045  -2.546   0.113  0.00  0.00     0.003 A 
ATOM      7  C6  UNL d   1      -5.467  -3.731  -0.493  0.00  0.00    -0.001 A 
ENDROOT
TORSDOF 0
ENDMDL
