MODEL 1
REMARK minimizedAffinity 4.36933708
REMARK minimizedRMSD -1
REMARK  0 active torsions:
REMARK  status: ('A' for Active; 'I' for Inactive)
ROOT
ATOM      1  C   UNL d   1      -2.477  -2.764  -3.581  0.00  0.00     0.078 C 
ATOM      2  C1  UNL d   1      -1.721  -2.879  -2.291  0.00  0.00    -0.077 A 
ATOM      3  C2  UNL d   1      -1.722  -1.833  -1.360  0.00  0.00    -0.001 A 
ATOM      4  C3  UNL d   1      -1.006  -1.950  -0.167  0.00  0.00     0.003 A 
ATOM      5  C4  UNL d   1      -0.284  -3.110   0.105  0.00  0.00    -0.005 A 
ATOM      6  C5  UNL d   1      -0.275  -4.155  -0.817  0.00  0.00     0.003 A 
ATOM      7  C6  UNL d   1      -0.990  -4.040  -2.010  0.00  0.00    -0.001 A 
ENDROOT
TORSDOF 0
ENDMDL
