MODEL 1
REMARK minimizedAffinity 3.46029615
REMARK minimizedRMSD -1
REMARK  0 active torsions:
REMARK  status: ('A' for Active; 'I' for Inactive)
ROOT
ATOM      1  C   UNL d   1       2.271   2.754  -5.976  0.00  0.00     0.078 C 
ATOM      2  C1  UNL d   1       3.566   2.053  -5.688  0.00  0.00    -0.077 A 
ATOM      3  C2  UNL d   1       3.583   0.785  -5.096  0.00  0.00    -0.001 A 
ATOM      4  C3  UNL d   1       4.796   0.149  -4.825  0.00  0.00     0.003 A 
ATOM      5  C4  UNL d   1       6.000   0.775  -5.140  0.00  0.00    -0.005 A 
ATOM      6  C5  UNL d   1       5.993   2.038  -5.727  0.00  0.00     0.003 A 
ATOM      7  C6  UNL d   1       4.781   2.676  -6.000  0.00  0.00    -0.001 A 
ENDROOT
TORSDOF 0
ENDMDL
