MODEL 1
REMARK minimizedAffinity 4.93108606
REMARK minimizedRMSD -1
REMARK  0 active torsions:
REMARK  status: ('A' for Active; 'I' for Inactive)
ROOT
ATOM      1  C   UNL d   1      -1.549  -2.012   3.723  0.00  0.00     0.078 C 
ATOM      2  C1  UNL d   1      -0.902  -2.868   2.675  0.00  0.00    -0.077 A 
ATOM      3  C2  UNL d   1      -0.796  -4.254   2.842  0.00  0.00    -0.001 A 
ATOM      4  C3  UNL d   1      -0.183  -5.038   1.863  0.00  0.00     0.003 A 
ATOM      5  C4  UNL d   1       0.330  -4.444   0.711  0.00  0.00    -0.005 A 
ATOM      6  C5  UNL d   1       0.231  -3.065   0.538  0.00  0.00     0.003 A 
ATOM      7  C6  UNL d   1      -0.382  -2.280   1.515  0.00  0.00    -0.001 A 
ENDROOT
TORSDOF 0
ENDMDL
