MODEL 1
REMARK minimizedAffinity 2.07959843
REMARK minimizedRMSD -1
REMARK  0 active torsions:
REMARK  status: ('A' for Active; 'I' for Inactive)
ROOT
ATOM      1  C   UNL d   1      -1.695  -2.866  -3.511  0.00  0.00     0.078 C 
ATOM      2  C1  UNL d   1      -1.290  -2.704  -2.076  0.00  0.00    -0.077 A 
ATOM      3  C2  UNL d   1      -1.941  -1.786  -1.242  0.00  0.00    -0.001 A 
ATOM      4  C3  UNL d   1      -1.548  -1.639   0.089  0.00  0.00     0.003 A 
ATOM      5  C4  UNL d   1      -0.501  -2.406   0.598  0.00  0.00    -0.005 A 
ATOM      6  C5  UNL d   1       0.154  -3.320  -0.225  0.00  0.00     0.003 A 
ATOM      7  C6  UNL d   1      -0.238  -3.468  -1.556  0.00  0.00    -0.001 A 
ENDROOT
TORSDOF 0
ENDMDL
