MODEL 1
REMARK minimizedAffinity 3.41294527
REMARK minimizedRMSD -1
REMARK  0 active torsions:
REMARK  status: ('A' for Active; 'I' for Inactive)
ROOT
ATOM      1  C   UNL d   1      -2.024  -3.418  -3.727  0.00  0.00     0.078 C 
ATOM      2  C1  UNL d   1      -1.566  -3.020  -2.356  0.00  0.00    -0.077 A 
ATOM      3  C2  UNL d   1      -0.652  -3.805  -1.644  0.00  0.00    -0.001 A 
ATOM      4  C3  UNL d   1      -0.242  -3.427  -0.365  0.00  0.00     0.003 A 
ATOM      5  C4  UNL d   1      -0.742  -2.263   0.215  0.00  0.00    -0.005 A 
ATOM      6  C5  UNL d   1      -1.654  -1.476  -0.485  0.00  0.00     0.003 A 
ATOM      7  C6  UNL d   1      -2.065  -1.852  -1.765  0.00  0.00    -0.001 A 
ENDROOT
TORSDOF 0
ENDMDL
