MODEL 1
REMARK minimizedAffinity 8.35181236
REMARK minimizedRMSD -1
REMARK  0 active torsions:
REMARK  status: ('A' for Active; 'I' for Inactive)
ROOT
ATOM      1  C   UNL d   1      -1.869  -3.005  -2.108  0.00  0.00     0.078 C 
ATOM      2  C1  UNL d   1      -2.523  -2.960  -3.456  0.00  0.00    -0.077 A 
ATOM      3  C2  UNL d   1      -3.875  -3.289  -3.613  0.00  0.00    -0.001 A 
ATOM      4  C3  UNL d   1      -4.469  -3.252  -4.876  0.00  0.00     0.003 A 
ATOM      5  C4  UNL d   1      -3.718  -2.887  -5.991  0.00  0.00    -0.005 A 
ATOM      6  C5  UNL d   1      -2.372  -2.560  -5.846  0.00  0.00     0.003 A 
ATOM      7  C6  UNL d   1      -1.776  -2.597  -4.584  0.00  0.00    -0.001 A 
ENDROOT
TORSDOF 0
ENDMDL
