MODEL 1
REMARK minimizedAffinity 8.05725384
REMARK minimizedRMSD -1
REMARK  0 active torsions:
REMARK  status: ('A' for Active; 'I' for Inactive)
ROOT
ATOM      1  C   UNL d   1      -1.980  -3.320  -3.325  0.00  0.00     0.078 C 
ATOM      2  C1  UNL d   1      -1.256  -3.377  -2.013  0.00  0.00    -0.077 A 
ATOM      3  C2  UNL d   1      -1.375  -2.342  -1.078  0.00  0.00    -0.001 A 
ATOM      4  C3  UNL d   1      -0.687  -2.404   0.135  0.00  0.00     0.003 A 
ATOM      5  C4  UNL d   1       0.125  -3.498   0.424  0.00  0.00    -0.005 A 
ATOM      6  C5  UNL d   1       0.252  -4.532  -0.502  0.00  0.00     0.003 A 
ATOM      7  C6  UNL d   1      -0.435  -4.472  -1.715  0.00  0.00    -0.001 A 
ENDROOT
TORSDOF 0
ENDMDL
