MODEL 1
REMARK minimizedAffinity 5.64413834
REMARK minimizedRMSD -1
REMARK  0 active torsions:
REMARK  status: ('A' for Active; 'I' for Inactive)
ROOT
ATOM      1  C   UNL d   1      -1.471  -2.264  -1.937  0.00  0.00     0.078 C 
ATOM      2  C1  UNL d   1      -1.882  -2.562  -3.348  0.00  0.00    -0.077 A 
ATOM      3  C2  UNL d   1      -2.978  -3.389  -3.621  0.00  0.00    -0.001 A 
ATOM      4  C3  UNL d   1      -3.344  -3.665  -4.939  0.00  0.00     0.003 A 
ATOM      5  C4  UNL d   1      -2.618  -3.119  -5.996  0.00  0.00    -0.005 A 
ATOM      6  C5  UNL d   1      -1.524  -2.296  -5.734  0.00  0.00     0.003 A 
ATOM      7  C6  UNL d   1      -1.157  -2.019  -4.416  0.00  0.00    -0.001 A 
ENDROOT
TORSDOF 0
ENDMDL
