MODEL 1
REMARK minimizedAffinity 6.09210873
REMARK minimizedRMSD -1
REMARK  0 active torsions:
REMARK  status: ('A' for Active; 'I' for Inactive)
ROOT
ATOM      1  C   UNL d   1      -2.248  -1.812  -2.376  0.00  0.00     0.078 C 
ATOM      2  C1  UNL d   1      -2.154  -2.626  -3.633  0.00  0.00    -0.077 A 
ATOM      3  C2  UNL d   1      -1.498  -3.863  -3.643  0.00  0.00    -0.001 A 
ATOM      4  C3  UNL d   1      -1.410  -4.605  -4.822  0.00  0.00     0.003 A 
ATOM      5  C4  UNL d   1      -1.973  -4.117  -6.000  0.00  0.00    -0.005 A 
ATOM      6  C5  UNL d   1      -2.626  -2.886  -5.999  0.00  0.00     0.003 A 
ATOM      7  C6  UNL d   1      -2.715  -2.143  -4.821  0.00  0.00    -0.001 A 
ENDROOT
TORSDOF 0
ENDMDL
