MODEL 1
REMARK minimizedAffinity 7.64679003
REMARK minimizedRMSD -1
REMARK  0 active torsions:
REMARK  status: ('A' for Active; 'I' for Inactive)
ROOT
ATOM      1  C   UNL d   1      -1.330  -2.289  -1.938  0.00  0.00     0.078 C 
ATOM      2  C1  UNL d   1      -1.539  -2.732  -3.356  0.00  0.00    -0.077 A 
ATOM      3  C2  UNL d   1      -0.810  -2.160  -4.405  0.00  0.00    -0.001 A 
ATOM      4  C3  UNL d   1      -1.022  -2.575  -5.721  0.00  0.00     0.003 A 
ATOM      5  C4  UNL d   1      -1.964  -3.563  -6.000  0.00  0.00    -0.005 A 
ATOM      6  C5  UNL d   1      -2.697  -4.136  -4.962  0.00  0.00     0.003 A 
ATOM      7  C6  UNL d   1      -2.486  -3.723  -3.646  0.00  0.00    -0.001 A 
ENDROOT
TORSDOF 0
ENDMDL
