MODEL 1
REMARK minimizedAffinity -0.586881697
REMARK minimizedRMSD -1
REMARK  0 active torsions:
REMARK  status: ('A' for Active; 'I' for Inactive)
ROOT
ATOM      1  C   UNL d   1       6.000   0.346  -5.363  0.00  0.00     0.078 C 
ATOM      2  C1  UNL d   1       5.053  -0.814  -5.283  0.00  0.00    -0.077 A 
ATOM      3  C2  UNL d   1       3.850  -0.814  -6.000  0.00  0.00    -0.001 A 
ATOM      4  C3  UNL d   1       2.974  -1.897  -5.907  0.00  0.00     0.003 A 
ATOM      5  C4  UNL d   1       3.290  -2.986  -5.098  0.00  0.00    -0.005 A 
ATOM      6  C5  UNL d   1       4.484  -2.994  -4.380  0.00  0.00     0.003 A 
ATOM      7  C6  UNL d   1       5.362  -1.912  -4.471  0.00  0.00    -0.001 A 
ENDROOT
TORSDOF 0
ENDMDL
