MODEL 1
REMARK minimizedAffinity 2.89051056
REMARK minimizedRMSD -1
REMARK  0 active torsions:
REMARK  status: ('A' for Active; 'I' for Inactive)
ROOT
ATOM      1  C   UNL d   1      -1.383  -2.593  -2.123  0.00  0.00     0.078 C 
ATOM      2  C1  UNL d   1      -1.855  -3.035  -3.475  0.00  0.00    -0.077 A 
ATOM      3  C2  UNL d   1      -0.982  -3.067  -4.569  0.00  0.00    -0.001 A 
ATOM      4  C3  UNL d   1      -1.437  -3.472  -5.825  0.00  0.00     0.003 A 
ATOM      5  C4  UNL d   1      -2.768  -3.846  -5.999  0.00  0.00    -0.005 A 
ATOM      6  C5  UNL d   1      -3.645  -3.816  -4.917  0.00  0.00     0.003 A 
ATOM      7  C6  UNL d   1      -3.191  -3.412  -3.660  0.00  0.00    -0.001 A 
ENDROOT
TORSDOF 0
ENDMDL
