MODEL 1
REMARK minimizedAffinity 5.14373016
REMARK minimizedRMSD -1
REMARK  0 active torsions:
REMARK  status: ('A' for Active; 'I' for Inactive)
ROOT
ATOM      1  C   UNL d   1      -2.232  -2.023  -2.183  0.00  0.00     0.078 C 
ATOM      2  C1  UNL d   1      -2.224  -2.725  -3.509  0.00  0.00    -0.077 A 
ATOM      3  C2  UNL d   1      -2.213  -4.123  -3.585  0.00  0.00    -0.001 A 
ATOM      4  C3  UNL d   1      -2.196  -4.762  -4.826  0.00  0.00     0.003 A 
ATOM      5  C4  UNL d   1      -2.189  -4.011  -5.999  0.00  0.00    -0.005 A 
ATOM      6  C5  UNL d   1      -2.198  -2.619  -5.934  0.00  0.00     0.003 A 
ATOM      7  C6  UNL d   1      -2.215  -1.978  -4.694  0.00  0.00    -0.001 A 
ENDROOT
TORSDOF 0
ENDMDL
