MODEL 1
REMARK minimizedAffinity 2.00764155
REMARK minimizedRMSD -1
REMARK  0 active torsions:
REMARK  status: ('A' for Active; 'I' for Inactive)
ROOT
ATOM      1  C   UNL d   1      -1.125  -2.210  -2.042  0.00  0.00     0.078 C 
ATOM      2  C1  UNL d   1      -1.414  -2.714  -3.425  0.00  0.00    -0.077 A 
ATOM      3  C2  UNL d   1      -0.786  -2.153  -4.543  0.00  0.00    -0.001 A 
ATOM      4  C3  UNL d   1      -1.072  -2.627  -5.825  0.00  0.00     0.003 A 
ATOM      5  C4  UNL d   1      -1.988  -3.662  -6.000  0.00  0.00    -0.005 A 
ATOM      6  C5  UNL d   1      -2.620  -4.225  -4.893  0.00  0.00     0.003 A 
ATOM      7  C6  UNL d   1      -2.335  -3.753  -3.611  0.00  0.00    -0.001 A 
ENDROOT
TORSDOF 0
ENDMDL
