MODEL 1
REMARK minimizedAffinity 19.239069
REMARK minimizedRMSD -1
REMARK  3 active torsions:
REMARK  status: ('A' for Active; 'I' for Inactive)
REMARK    1  A    between atoms: C3'_2  and  C2'_3 
REMARK    2  A    between atoms: C2'_3  and  C1'_4 
REMARK    3  A    between atoms: C1'_4  and  C1_5 
ROOT
ATOM      1  C1  N4B d   1      -3.940   3.888  -5.101  0.00  0.00    -0.075 A 
ATOM      2  C2  N4B d   1      -3.644   4.958  -4.229  0.00  0.00     0.002 A 
ATOM      3  C3  N4B d   1      -4.530   5.999  -4.094  0.00  0.00     0.002 A 
ATOM      4  C4  N4B d   1      -5.704   6.000  -4.832  0.00  0.00    -0.004 A 
ATOM      5  C5  N4B d   1      -5.994   4.950  -5.653  0.00  0.00     0.002 A 
ATOM      6  C6  N4B d   1      -5.115   3.895  -5.795  0.00  0.00     0.002 A 
ENDROOT
BRANCH   1   7
ATOM      7  C1' N4B d   1      -2.963   2.770  -5.346  0.00  0.00     0.057 C 
BRANCH   7   8
ATOM      8  C2' N4B d   1      -2.154   2.524  -4.076  0.00  0.00     0.009 C 
BRANCH   8   9
ATOM      9  C3' N4B d   1      -0.713   2.154  -4.382  0.00  0.00     0.004 C 
ATOM     10  C4' N4B d   1       0.163   3.354  -4.588  0.00  0.00     0.003 C 
ENDBRANCH   8   9
ENDBRANCH   7   8
ENDBRANCH   1   7
TORSDOF 3
ENDMDL
