MODEL 1
REMARK minimizedAffinity 12.9606171
REMARK minimizedRMSD -1
REMARK  3 active torsions:
REMARK  status: ('A' for Active; 'I' for Inactive)
REMARK    1  A    between atoms: C3'_2  and  C2'_3 
REMARK    2  A    between atoms: C2'_3  and  C1'_4 
REMARK    3  A    between atoms: C1'_4  and  C1_5 
ROOT
ATOM      1  C1  N4B d   1      -0.304   0.835  -3.707  0.00  0.00    -0.075 A 
ATOM      2  C2  N4B d   1      -1.692   1.087  -3.642  0.00  0.00     0.002 A 
ATOM      3  C3  N4B d   1      -2.192   2.292  -4.071  0.00  0.00     0.002 A 
ATOM      4  C4  N4B d   1      -1.326   3.262  -4.551  0.00  0.00    -0.004 A 
ATOM      5  C5  N4B d   1       0.011   3.002  -4.635  0.00  0.00     0.002 A 
ATOM      6  C6  N4B d   1       0.527   1.794  -4.210  0.00  0.00     0.002 A 
ENDROOT
BRANCH   1   7
ATOM      7  C1' N4B d   1       0.300  -0.433  -3.170  0.00  0.00     0.057 C 
BRANCH   7   8
ATOM      8  C2' N4B d   1       1.656  -0.662  -3.829  0.00  0.00     0.009 C 
BRANCH   8   9
ATOM      9  C3' N4B d   1       2.806  -0.289  -2.909  0.00  0.00     0.004 C 
ATOM     10  C4' N4B d   1       2.354   0.026  -1.514  0.00  0.00     0.003 C 
ENDBRANCH   8   9
ENDBRANCH   7   8
ENDBRANCH   1   7
TORSDOF 3
ENDMDL
