MODEL 1
REMARK minimizedAffinity 9.07173824
REMARK minimizedRMSD -1
REMARK  3 active torsions:
REMARK  status: ('A' for Active; 'I' for Inactive)
REMARK    1  A    between atoms: C3'_2  and  C2'_3 
REMARK    2  A    between atoms: C2'_3  and  C1'_4 
REMARK    3  A    between atoms: C1'_4  and  C1_5 
ROOT
ATOM      1  C1  N4B d   1      -1.252  -3.493   0.105  0.00  0.00    -0.075 A 
ATOM      2  C2  N4B d   1      -1.064  -2.582  -0.958  0.00  0.00     0.002 A 
ATOM      3  C3  N4B d   1      -1.917  -1.516  -1.107  0.00  0.00     0.002 A 
ATOM      4  C4  N4B d   1      -2.972  -1.352  -0.221  0.00  0.00    -0.004 A 
ATOM      5  C5  N4B d   1      -3.131  -2.222   0.817  0.00  0.00     0.002 A 
ATOM      6  C6  N4B d   1      -2.279  -3.296   0.982  0.00  0.00     0.002 A 
ENDROOT
BRANCH   1   7
ATOM      7  C1' N4B d   1      -0.397  -4.721   0.258  0.00  0.00     0.057 C 
BRANCH   7   8
ATOM      8  C2' N4B d   1      -1.174  -5.778   1.037  0.00  0.00     0.009 C 
BRANCH   8   9
ATOM      9  C3' N4B d   1      -0.601  -5.995   2.427  0.00  0.00     0.004 C 
ATOM     10  C4' N4B d   1      -1.651  -5.971   3.498  0.00  0.00     0.003 C 
ENDBRANCH   8   9
ENDBRANCH   7   8
ENDBRANCH   1   7
TORSDOF 3
ENDMDL
