MODEL 1
REMARK minimizedAffinity 5.44793653
REMARK minimizedRMSD -1
REMARK  3 active torsions:
REMARK  status: ('A' for Active; 'I' for Inactive)
REMARK    1  A    between atoms: C3'_2  and  C2'_3 
REMARK    2  A    between atoms: C2'_3  and  C1'_4 
REMARK    3  A    between atoms: C1'_4  and  C1_5 
ROOT
ATOM      1  C1  N4B d   1      -1.868   2.358  -4.138  0.00  0.00    -0.075 A 
ATOM      2  C2  N4B d   1      -2.610   3.111  -5.076  0.00  0.00     0.002 A 
ATOM      3  C3  N4B d   1      -1.958   3.890  -5.999  0.00  0.00     0.002 A 
ATOM      4  C4  N4B d   1      -0.572   3.948  -5.993  0.00  0.00    -0.004 A 
ATOM      5  C5  N4B d   1       0.137   3.198  -5.100  0.00  0.00     0.002 A 
ATOM      6  C6  N4B d   1      -0.505   2.407  -4.169  0.00  0.00     0.002 A 
ENDROOT
BRANCH   1   7
ATOM      7  C1' N4B d   1      -2.538   1.558  -3.054  0.00  0.00     0.057 C 
BRANCH   7   8
ATOM      8  C2' N4B d   1      -2.122   0.096  -3.181  0.00  0.00     0.009 C 
BRANCH   8   9
ATOM      9  C3' N4B d   1      -2.190  -0.632  -1.849  0.00  0.00     0.004 C 
ATOM     10  C4' N4B d   1      -0.991  -1.497  -1.598  0.00  0.00     0.003 C 
ENDBRANCH   8   9
ENDBRANCH   7   8
ENDBRANCH   1   7
TORSDOF 3
ENDMDL
