MODEL 1
REMARK minimizedAffinity 2.9532578
REMARK minimizedRMSD -1
REMARK  3 active torsions:
REMARK  status: ('A' for Active; 'I' for Inactive)
REMARK    1  A    between atoms: C3'_2  and  C2'_3 
REMARK    2  A    between atoms: C2'_3  and  C1'_4 
REMARK    3  A    between atoms: C1'_4  and  C1_5 
ROOT
ATOM      1  C1  N4B d   1      -3.713   4.164  -4.731  0.00  0.00    -0.075 A 
ATOM      2  C2  N4B d   1      -4.025   5.272  -3.913  0.00  0.00     0.002 A 
ATOM      3  C3  N4B d   1      -5.168   5.998  -4.147  0.00  0.00     0.002 A 
ATOM      4  C4  N4B d   1      -5.999   5.647  -5.200  0.00  0.00    -0.004 A 
ATOM      5  C5  N4B d   1      -5.704   4.560  -5.970  0.00  0.00     0.002 A 
ATOM      6  C6  N4B d   1      -4.561   3.819  -5.743  0.00  0.00     0.002 A 
ENDROOT
BRANCH   1   7
ATOM      7  C1' N4B d   1      -2.432   3.393  -4.568  0.00  0.00     0.057 C 
BRANCH   7   8
ATOM      8  C2' N4B d   1      -1.704   3.341  -5.908  0.00  0.00     0.009 C 
BRANCH   8   9
ATOM      9  C3' N4B d   1      -0.213   3.108  -5.736  0.00  0.00     0.004 C 
ATOM     10  C4' N4B d   1       0.118   2.378  -4.468  0.00  0.00     0.003 C 
ENDBRANCH   8   9
ENDBRANCH   7   8
ENDBRANCH   1   7
TORSDOF 3
ENDMDL
