MODEL 1
REMARK minimizedAffinity 16.9258213
REMARK minimizedRMSD -1
REMARK  3 active torsions:
REMARK  status: ('A' for Active; 'I' for Inactive)
REMARK    1  A    between atoms: C3'_2  and  C2'_3 
REMARK    2  A    between atoms: C2'_3  and  C1'_4 
REMARK    3  A    between atoms: C1'_4  and  C1_5 
ROOT
ATOM      1  C1  N4B d   1      -2.287   2.203  -3.980  0.00  0.00    -0.075 A 
ATOM      2  C2  N4B d   1      -0.898   2.455  -3.949  0.00  0.00     0.002 A 
ATOM      3  C3  N4B d   1      -0.312   3.196  -4.945  0.00  0.00     0.002 A 
ATOM      4  C4  N4B d   1      -1.089   3.678  -5.989  0.00  0.00    -0.004 A 
ATOM      5  C5  N4B d   1      -2.434   3.452  -5.998  0.00  0.00     0.002 A 
ATOM      6  C6  N4B d   1      -3.037   2.712  -5.000  0.00  0.00     0.002 A 
ENDROOT
BRANCH   1   7
ATOM      7  C1' N4B d   1      -2.958   1.326  -2.958  0.00  0.00     0.057 C 
BRANCH   7   8
ATOM      8  C2' N4B d   1      -2.214  -0.003  -2.873  0.00  0.00     0.009 C 
BRANCH   8   9
ATOM      9  C3' N4B d   1      -2.541  -0.757  -1.596  0.00  0.00     0.004 C 
ATOM     10  C4' N4B d   1      -1.395  -1.589  -1.103  0.00  0.00     0.003 C 
ENDBRANCH   8   9
ENDBRANCH   7   8
ENDBRANCH   1   7
TORSDOF 3
ENDMDL
