MODEL 1
REMARK minimizedAffinity 19.052557
REMARK minimizedRMSD -1
REMARK  3 active torsions:
REMARK  status: ('A' for Active; 'I' for Inactive)
REMARK    1  A    between atoms: C3'_2  and  C2'_3 
REMARK    2  A    between atoms: C2'_3  and  C1'_4 
REMARK    3  A    between atoms: C1'_4  and  C1_5 
ROOT
ATOM      1  C1  N4B d   1       4.113   3.682   0.190  0.00  0.00    -0.075 A 
ATOM      2  C2  N4B d   1       3.931   5.038   0.541  0.00  0.00     0.002 A 
ATOM      3  C3  N4B d   1       4.790   5.994   0.057  0.00  0.00     0.002 A 
ATOM      4  C4  N4B d   1       5.845   5.617  -0.761  0.00  0.00    -0.004 A 
ATOM      5  C5  N4B d   1       5.998   4.309  -1.116  0.00  0.00     0.002 A 
ATOM      6  C6  N4B d   1       5.140   3.338  -0.640  0.00  0.00     0.002 A 
ENDROOT
BRANCH   1   7
ATOM      7  C1' N4B d   1       3.250   2.591   0.763  0.00  0.00     0.057 C 
BRANCH   7   8
ATOM      8  C2' N4B d   1       4.130   1.402   1.135  0.00  0.00     0.009 C 
BRANCH   8   9
ATOM      9  C3' N4B d   1       4.656   1.506   2.557  0.00  0.00     0.004 C 
ATOM     10  C4' N4B d   1       5.988   0.841   2.734  0.00  0.00     0.003 C 
ENDBRANCH   8   9
ENDBRANCH   7   8
ENDBRANCH   1   7
TORSDOF 3
ENDMDL
