MODEL 1
REMARK minimizedAffinity 9.22893333
REMARK minimizedRMSD -1
REMARK  3 active torsions:
REMARK  status: ('A' for Active; 'I' for Inactive)
REMARK    1  A    between atoms: C3'_2  and  C2'_3 
REMARK    2  A    between atoms: C2'_3  and  C1'_4 
REMARK    3  A    between atoms: C1'_4  and  C1_5 
ROOT
ATOM      1  C1  N4B d   1      -3.467   4.236  -5.210  0.00  0.00    -0.075 A 
ATOM      2  C2  N4B d   1      -4.522   3.697  -5.979  0.00  0.00     0.002 A 
ATOM      3  C3  N4B d   1      -5.744   4.323  -6.000  0.00  0.00     0.002 A 
ATOM      4  C4  N4B d   1      -5.940   5.472  -5.249  0.00  0.00    -0.004 A 
ATOM      5  C5  N4B d   1      -4.908   6.000  -4.529  0.00  0.00     0.002 A 
ATOM      6  C6  N4B d   1      -3.673   5.384  -4.501  0.00  0.00     0.002 A 
ENDROOT
BRANCH   1   7
ATOM      7  C1' N4B d   1      -2.138   3.540  -5.087  0.00  0.00     0.057 C 
BRANCH   7   8
ATOM      8  C2' N4B d   1      -2.090   2.783  -3.764  0.00  0.00     0.009 C 
BRANCH   8   9
ATOM      9  C3' N4B d   1      -3.259   1.824  -3.614  0.00  0.00     0.004 C 
ATOM     10  C4' N4B d   1      -3.040   0.803  -2.539  0.00  0.00     0.003 C 
ENDBRANCH   8   9
ENDBRANCH   7   8
ENDBRANCH   1   7
TORSDOF 3
ENDMDL
