MODEL 1
REMARK minimizedAffinity 13.913269
REMARK minimizedRMSD -1
REMARK  3 active torsions:
REMARK  status: ('A' for Active; 'I' for Inactive)
REMARK    1  A    between atoms: C3'_2  and  C2'_3 
REMARK    2  A    between atoms: C2'_3  and  C1'_4 
REMARK    3  A    between atoms: C1'_4  and  C1_5 
ROOT
ATOM      1  C1  N4B d   1      -1.191  -3.628   1.429  0.00  0.00    -0.075 A 
ATOM      2  C2  N4B d   1      -1.407  -2.743   0.350  0.00  0.00     0.002 A 
ATOM      3  C3  N4B d   1      -2.509  -1.923   0.343  0.00  0.00     0.002 A 
ATOM      4  C4  N4B d   1      -3.415  -1.984   1.391  0.00  0.00    -0.004 A 
ATOM      5  C5  N4B d   1      -3.186  -2.823   2.442  0.00  0.00     0.002 A 
ATOM      6  C6  N4B d   1      -2.081  -3.650   2.464  0.00  0.00     0.002 A 
ENDROOT
BRANCH   1   7
ATOM      7  C1' N4B d   1      -0.047  -4.604   1.440  0.00  0.00     0.057 C 
BRANCH   7   8
ATOM      8  C2' N4B d   1      -0.569  -5.992   1.082  0.00  0.00     0.009 C 
BRANCH   8   9
ATOM      9  C3' N4B d   1      -1.313  -5.996  -0.243  0.00  0.00     0.004 C 
ATOM     10  C4' N4B d   1      -0.420  -5.697  -1.410  0.00  0.00     0.003 C 
ENDBRANCH   8   9
ENDBRANCH   7   8
ENDBRANCH   1   7
TORSDOF 3
ENDMDL
