MODEL 1
REMARK minimizedAffinity 17.2766857
REMARK minimizedRMSD -1
REMARK  2 active torsions:
REMARK  status: ('A' for Active; 'I' for Inactive)
REMARK    1  A    between atoms: C2'_3  and  C1'_4 
REMARK    2  A    between atoms: C1'_4  and  C1_5 
ROOT
ATOM      1  C1  I4B d   1      -0.679  -1.631   1.462  0.00  0.00    -0.075 A 
ATOM      2  C2  I4B d   1      -0.807  -0.316   1.837  0.00  0.00     0.003 A 
ATOM      3  C3  I4B d   1      -2.041   0.356   1.668  0.00  0.00     0.002 A 
ATOM      4  C4  I4B d   1      -3.100  -0.303   1.078  0.00  0.00    -0.004 A 
ATOM      5  C5  I4B d   1      -2.975  -1.643   0.720  0.00  0.00     0.002 A 
ATOM      6  C6  I4B d   1      -1.761  -2.314   0.924  0.00  0.00     0.003 A 
ENDROOT
BRANCH   1   7
ATOM      7  C1' I4B d   1       0.648  -2.301   1.624  0.00  0.00     0.060 C 
BRANCH   7   8
ATOM      8  C2' I4B d   1       1.370  -1.634   2.777  0.00  0.00    -0.013 C 
ATOM      9  C4' I4B d   1       1.739  -2.635   3.841  0.00  0.00     0.013 C 
ATOM     10  C3' I4B d   1       2.588  -0.953   2.230  0.00  0.00     0.013 C 
ENDBRANCH   7   8
ENDBRANCH   1   7
TORSDOF 2
ENDMDL
