MODEL 1
REMARK minimizedAffinity 24.2073975
REMARK minimizedRMSD -1
REMARK  2 active torsions:
REMARK  status: ('A' for Active; 'I' for Inactive)
REMARK    1  A    between atoms: C2'_3  and  C1'_4 
REMARK    2  A    between atoms: C1'_4  and  C1_5 
ROOT
ATOM      1  C1  I4B d   1      -0.697  -2.004   1.328  0.00  0.00    -0.075 A 
ATOM      2  C2  I4B d   1      -0.557  -0.642   1.416  0.00  0.00     0.003 A 
ATOM      3  C3  I4B d   1      -1.570   0.213   0.919  0.00  0.00     0.002 A 
ATOM      4  C4  I4B d   1      -2.676  -0.333   0.300  0.00  0.00    -0.004 A 
ATOM      5  C5  I4B d   1      -2.827  -1.715   0.231  0.00  0.00     0.002 A 
ATOM      6  C6  I4B d   1      -1.837  -2.556   0.759  0.00  0.00     0.003 A 
ENDROOT
BRANCH   1   7
ATOM      7  C1' I4B d   1       0.408  -2.877   1.833  0.00  0.00     0.060 C 
BRANCH   7   8
ATOM      8  C2' I4B d   1       1.192  -2.088   2.863  0.00  0.00    -0.013 C 
ATOM      9  C4' I4B d   1       1.397  -2.888   4.122  0.00  0.00     0.013 C 
ATOM     10  C3' I4B d   1       2.504  -1.700   2.248  0.00  0.00     0.013 C 
ENDBRANCH   7   8
ENDBRANCH   1   7
TORSDOF 2
ENDMDL
