MODEL 1
REMARK minimizedAffinity 15.5880098
REMARK minimizedRMSD -1
REMARK  2 active torsions:
REMARK  status: ('A' for Active; 'I' for Inactive)
REMARK    1  A    between atoms: C2'_3  and  C1'_4 
REMARK    2  A    between atoms: C1'_4  and  C1_5 
ROOT
ATOM      1  C1  I4B d   1       0.459   5.030  -3.791  0.00  0.00    -0.075 A 
ATOM      2  C2  I4B d   1       1.065   5.597  -4.885  0.00  0.00     0.003 A 
ATOM      3  C3  I4B d   1       0.291   6.000  -6.000  0.00  0.00     0.002 A 
ATOM      4  C4  I4B d   1      -1.070   5.773  -6.000  0.00  0.00    -0.004 A 
ATOM      5  C5  I4B d   1      -1.686   5.219  -4.881  0.00  0.00     0.002 A 
ATOM      6  C6  I4B d   1      -0.919   4.856  -3.765  0.00  0.00     0.003 A 
ENDROOT
BRANCH   1   7
ATOM      7  C1' I4B d   1       1.310   4.586  -2.645  0.00  0.00     0.060 C 
BRANCH   7   8
ATOM      8  C2' I4B d   1       1.934   3.255  -3.014  0.00  0.00    -0.013 C 
ATOM      9  C4' I4B d   1       3.436   3.347  -3.045  0.00  0.00     0.013 C 
ATOM     10  C3' I4B d   1       1.474   2.235  -2.015  0.00  0.00     0.013 C 
ENDBRANCH   7   8
ENDBRANCH   1   7
TORSDOF 2
ENDMDL
