MODEL 1
REMARK minimizedAffinity 13.8876858
REMARK minimizedRMSD -1
REMARK  2 active torsions:
REMARK  status: ('A' for Active; 'I' for Inactive)
REMARK    1  A    between atoms: C2'_3  and  C1'_4 
REMARK    2  A    between atoms: C1'_4  and  C1_5 
ROOT
ATOM      1  C1  I4B d   1      -1.647  -4.150  -3.506  0.00  0.00    -0.075 A 
ATOM      2  C2  I4B d   1      -2.660  -5.070  -3.405  0.00  0.00     0.003 A 
ATOM      3  C3  I4B d   1      -2.886  -6.000  -4.449  0.00  0.00     0.002 A 
ATOM      4  C4  I4B d   1      -2.113  -5.941  -5.590  0.00  0.00    -0.004 A 
ATOM      5  C5  I4B d   1      -1.071  -5.022  -5.682  0.00  0.00     0.002 A 
ATOM      6  C6  I4B d   1      -0.829  -4.129  -4.628  0.00  0.00     0.003 A 
ENDROOT
BRANCH   1   7
ATOM      7  C1' I4B d   1      -1.458  -3.162  -2.399  0.00  0.00     0.060 C 
BRANCH   7   8
ATOM      8  C2' I4B d   1      -1.108  -3.931  -1.142  0.00  0.00    -0.013 C 
ATOM      9  C4' I4B d   1       0.361  -3.824  -0.828  0.00  0.00     0.013 C 
ATOM     10  C3' I4B d   1      -1.942  -3.388  -0.020  0.00  0.00     0.013 C 
ENDBRANCH   7   8
ENDBRANCH   1   7
TORSDOF 2
ENDMDL
