MODEL 1
REMARK minimizedAffinity 5.69712973
REMARK minimizedRMSD -1
REMARK  2 active torsions:
REMARK  status: ('A' for Active; 'I' for Inactive)
REMARK    1  A    between atoms: C2'_3  and  C1'_4 
REMARK    2  A    between atoms: C1'_4  and  C1_5 
ROOT
ATOM      1  C1  I4B d   1      -2.206  -0.285   1.421  0.00  0.00    -0.075 A 
ATOM      2  C2  I4B d   1      -2.072  -1.464   0.730  0.00  0.00     0.003 A 
ATOM      3  C3  I4B d   1      -1.278  -2.512   1.255  0.00  0.00     0.002 A 
ATOM      4  C4  I4B d   1      -0.598  -2.321   2.441  0.00  0.00    -0.004 A 
ATOM      5  C5  I4B d   1      -0.753  -1.135   3.152  0.00  0.00     0.002 A 
ATOM      6  C6  I4B d   1      -1.572  -0.115   2.645  0.00  0.00     0.003 A 
ENDROOT
BRANCH   1   7
ATOM      7  C1' I4B d   1      -3.026   0.813   0.822  0.00  0.00     0.060 C 
BRANCH   7   8
ATOM      8  C2' I4B d   1      -4.133   0.176   0.007  0.00  0.00    -0.013 C 
ATOM      9  C4' I4B d   1      -5.442   0.199   0.752  0.00  0.00     0.013 C 
ATOM     10  C3' I4B d   1      -4.237   0.919  -1.292  0.00  0.00     0.013 C 
ENDBRANCH   7   8
ENDBRANCH   1   7
TORSDOF 2
ENDMDL
