MODEL 1
REMARK minimizedAffinity 11.2921267
REMARK minimizedRMSD -1
REMARK  2 active torsions:
REMARK  status: ('A' for Active; 'I' for Inactive)
REMARK    1  A    between atoms: C2'_3  and  C1'_4 
REMARK    2  A    between atoms: C1'_4  and  C1_5 
ROOT
ATOM      1  C1  I4B d   1      -0.936  -1.492   2.497  0.00  0.00    -0.075 A 
ATOM      2  C2  I4B d   1      -1.552  -2.266   1.545  0.00  0.00     0.003 A 
ATOM      3  C3  I4B d   1      -0.831  -3.291   0.885  0.00  0.00     0.002 A 
ATOM      4  C4  I4B d   1       0.506  -3.474   1.170  0.00  0.00    -0.004 A 
ATOM      5  C5  I4B d   1       1.122  -2.704   2.153  0.00  0.00     0.002 A 
ATOM      6  C6  I4B d   1       0.394  -1.715   2.829  0.00  0.00     0.003 A 
ENDROOT
BRANCH   1   7
ATOM      7  C1' I4B d   1      -1.718  -0.397   3.151  0.00  0.00     0.060 C 
BRANCH   7   8
ATOM      8  C2' I4B d   1      -1.889   0.720   2.141  0.00  0.00    -0.013 C 
ATOM      9  C4' I4B d   1      -0.587   1.039   1.454  0.00  0.00     0.013 C 
ATOM     10  C3' I4B d   1      -2.933   0.294   1.152  0.00  0.00     0.013 C 
ENDBRANCH   7   8
ENDBRANCH   1   7
TORSDOF 2
ENDMDL
