MODEL 1
REMARK minimizedAffinity 18.2376099
REMARK minimizedRMSD -1
REMARK  2 active torsions:
REMARK  status: ('A' for Active; 'I' for Inactive)
REMARK    1  A    between atoms: C2'_3  and  C1'_4 
REMARK    2  A    between atoms: C1'_4  and  C1_5 
ROOT
ATOM      1  C1  I4B d   1      -1.128  -1.333   1.955  0.00  0.00    -0.075 A 
ATOM      2  C2  I4B d   1      -2.395  -1.694   1.570  0.00  0.00     0.003 A 
ATOM      3  C3  I4B d   1      -2.615  -2.928   0.911  0.00  0.00     0.002 A 
ATOM      4  C4  I4B d   1      -1.540  -3.742   0.615  0.00  0.00    -0.004 A 
ATOM      5  C5  I4B d   1      -0.259  -3.384   1.028  0.00  0.00     0.002 A 
ATOM      6  C6  I4B d   1      -0.053  -2.178   1.713  0.00  0.00     0.003 A 
ENDROOT
BRANCH   1   7
ATOM      7  C1' I4B d   1      -0.927  -0.007   2.619  0.00  0.00     0.060 C 
BRANCH   7   8
ATOM      8  C2' I4B d   1      -2.059   0.197   3.606  0.00  0.00    -0.013 C 
ATOM      9  C4' I4B d   1      -1.562   0.132   5.026  0.00  0.00     0.013 C 
ATOM     10  C3' I4B d   1      -2.693   1.524   3.314  0.00  0.00     0.013 C 
ENDBRANCH   7   8
ENDBRANCH   1   7
TORSDOF 2
ENDMDL
