MODEL 1
REMARK minimizedAffinity 11.010313
REMARK minimizedRMSD -1
REMARK  2 active torsions:
REMARK  status: ('A' for Active; 'I' for Inactive)
REMARK    1  A    between atoms: C2'_3  and  C1'_4 
REMARK    2  A    between atoms: C1'_4  and  C1_5 
ROOT
ATOM      1  C1  I4B d   1      -5.933  -0.557  -2.842  0.00  0.00    -0.075 A 
ATOM      2  C2  I4B d   1      -5.977  -1.760  -3.500  0.00  0.00     0.003 A 
ATOM      3  C3  I4B d   1      -5.977  -1.799  -4.916  0.00  0.00     0.002 A 
ATOM      4  C4  I4B d   1      -5.984  -0.617  -5.628  0.00  0.00    -0.004 A 
ATOM      5  C5  I4B d   1      -5.916   0.602  -4.960  0.00  0.00     0.002 A 
ATOM      6  C6  I4B d   1      -5.878   0.632  -3.558  0.00  0.00     0.003 A 
ENDROOT
BRANCH   1   7
ATOM      7  C1' I4B d   1      -5.968  -0.551  -1.347  0.00  0.00     0.060 C 
BRANCH   7   8
ATOM      8  C2' I4B d   1      -5.321   0.733  -0.870  0.00  0.00    -0.013 C 
ATOM      9  C4' I4B d   1      -5.978   1.938  -1.489  0.00  0.00     0.013 C 
ATOM     10  C3' I4B d   1      -5.418   0.772   0.626  0.00  0.00     0.013 C 
ENDBRANCH   7   8
ENDBRANCH   1   7
TORSDOF 2
ENDMDL
