MODEL 1
REMARK minimizedAffinity 15.0911627
REMARK minimizedRMSD -1
REMARK  2 active torsions:
REMARK  status: ('A' for Active; 'I' for Inactive)
REMARK    1  A    between atoms: C2'_3  and  C1'_4 
REMARK    2  A    between atoms: C1'_4  and  C1_5 
ROOT
ATOM      1  C1  I4B d   1       2.985   3.307  -2.730  0.00  0.00    -0.075 A 
ATOM      2  C2  I4B d   1       2.515   2.584  -1.662  0.00  0.00     0.003 A 
ATOM      3  C3  I4B d   1       1.141   2.258  -1.571  0.00  0.00     0.002 A 
ATOM      4  C4  I4B d   1       0.269   2.714  -2.539  0.00  0.00    -0.004 A 
ATOM      5  C5  I4B d   1       0.750   3.427  -3.633  0.00  0.00     0.002 A 
ATOM      6  C6  I4B d   1       2.119   3.715  -3.736  0.00  0.00     0.003 A 
ENDROOT
BRANCH   1   7
ATOM      7  C1' I4B d   1       4.437   3.663  -2.777  0.00  0.00     0.060 C 
BRANCH   7   8
ATOM      8  C2' I4B d   1       4.750   4.510  -1.561  0.00  0.00    -0.013 C 
ATOM      9  C4' I4B d   1       5.999   4.032  -0.870  0.00  0.00     0.013 C 
ATOM     10  C3' I4B d   1       4.892   5.933  -2.012  0.00  0.00     0.013 C 
ENDBRANCH   7   8
ENDBRANCH   1   7
TORSDOF 2
ENDMDL
