MODEL 1
REMARK minimizedAffinity 7.79089499
REMARK minimizedRMSD -1
REMARK  2 active torsions:
REMARK  status: ('A' for Active; 'I' for Inactive)
REMARK    1  A    between atoms: C2'_3  and  C1'_4 
REMARK    2  A    between atoms: C1'_4  and  C1_5 
ROOT
ATOM      1  C1  I4B d   1      -0.556   4.302  -4.275  0.00  0.00    -0.075 A 
ATOM      2  C2  I4B d   1       0.133   5.118  -5.137  0.00  0.00     0.003 A 
ATOM      3  C3  I4B d   1      -0.567   6.000  -5.997  0.00  0.00     0.002 A 
ATOM      4  C4  I4B d   1      -1.947   5.996  -5.996  0.00  0.00    -0.004 A 
ATOM      5  C5  I4B d   1      -2.643   5.185  -5.105  0.00  0.00     0.002 A 
ATOM      6  C6  I4B d   1      -1.944   4.341  -4.229  0.00  0.00     0.003 A 
ENDROOT
BRANCH   1   7
ATOM      7  C1' I4B d   1       0.214   3.360  -3.404  0.00  0.00     0.060 C 
BRANCH   7   8
ATOM      8  C2' I4B d   1       1.500   4.048  -2.995  0.00  0.00    -0.013 C 
ATOM      9  C4' I4B d   1       1.283   4.950  -1.809  0.00  0.00     0.013 C 
ATOM     10  C3' I4B d   1       2.516   2.988  -2.690  0.00  0.00     0.013 C 
ENDBRANCH   7   8
ENDBRANCH   1   7
TORSDOF 2
ENDMDL
