MODEL 1
REMARK minimizedAffinity 10.3910704
REMARK minimizedRMSD -1
REMARK  2 active torsions:
REMARK  status: ('A' for Active; 'I' for Inactive)
REMARK    1  A    between atoms: C2'_3  and  C1'_4 
REMARK    2  A    between atoms: C1'_4  and  C1_5 
ROOT
ATOM      1  C1  I4B d   1       3.464   4.204  -2.801  0.00  0.00    -0.075 A 
ATOM      2  C2  I4B d   1       3.805   3.666  -4.017  0.00  0.00     0.003 A 
ATOM      3  C3  I4B d   1       5.100   3.874  -4.551  0.00  0.00     0.002 A 
ATOM      4  C4  I4B d   1       6.000   4.663  -3.864  0.00  0.00    -0.004 A 
ATOM      5  C5  I4B d   1       5.660   5.189  -2.621  0.00  0.00     0.002 A 
ATOM      6  C6  I4B d   1       4.389   4.948  -2.080  0.00  0.00     0.003 A 
ENDROOT
BRANCH   1   7
ATOM      7  C1' I4B d   1       2.077   3.992  -2.283  0.00  0.00     0.060 C 
BRANCH   7   8
ATOM      8  C2' I4B d   1       1.219   5.147  -2.759  0.00  0.00    -0.013 C 
ATOM      9  C4' I4B d   1       0.022   4.655  -3.530  0.00  0.00     0.013 C 
ATOM     10  C3' I4B d   1       0.801   5.940  -1.557  0.00  0.00     0.013 C 
ENDBRANCH   7   8
ENDBRANCH   1   7
TORSDOF 2
ENDMDL
