MODEL 1
REMARK minimizedAffinity 14.4659634
REMARK minimizedRMSD -1
REMARK  2 active torsions:
REMARK  status: ('A' for Active; 'I' for Inactive)
REMARK    1  A    between atoms: C2'_3  and  C1'_4 
REMARK    2  A    between atoms: C1'_4  and  C1_5 
ROOT
ATOM      1  C1  I4B d   1      -2.617  -4.583  -5.659  0.00  0.00    -0.075 A 
ATOM      2  C2  I4B d   1      -3.199  -5.823  -5.752  0.00  0.00     0.003 A 
ATOM      3  C3  I4B d   1      -4.597  -5.941  -5.947  0.00  0.00     0.002 A 
ATOM      4  C4  I4B d   1      -5.376  -4.803  -5.992  0.00  0.00    -0.004 A 
ATOM      5  C5  I4B d   1      -4.781  -3.547  -5.920  0.00  0.00     0.002 A 
ATOM      6  C6  I4B d   1      -3.392  -3.435  -5.765  0.00  0.00     0.003 A 
ENDROOT
BRANCH   1   7
ATOM      7  C1' I4B d   1      -1.143  -4.495  -5.420  0.00  0.00     0.060 C 
BRANCH   7   8
ATOM      8  C2' I4B d   1      -0.927  -4.093  -3.976  0.00  0.00    -0.013 C 
ATOM      9  C4' I4B d   1      -1.063  -2.604  -3.798  0.00  0.00     0.013 C 
ATOM     10  C3' I4B d   1      -1.926  -4.832  -3.135  0.00  0.00     0.013 C 
ENDBRANCH   7   8
ENDBRANCH   1   7
TORSDOF 2
ENDMDL
