MODEL 1
REMARK minimizedAffinity 16.2661572
REMARK minimizedRMSD -1
REMARK  0 active torsions:
REMARK  status: ('A' for Active; 'I' for Inactive)
ROOT
ATOM      1  N1  IND d   1       0.199  -1.848   5.200  0.00  0.00    -0.196 N 
ATOM      2  C2  IND d   1      -1.061  -2.211   4.812  0.00  0.00     0.054 A 
ATOM      3  C3  IND d   1      -1.146  -2.245   3.463  0.00  0.00    -0.031 A 
ATOM      4  C4  IND d   1       0.685  -1.842   1.699  0.00  0.00     0.051 A 
ATOM      5  C5  IND d   1       1.987  -1.447   1.568  0.00  0.00    -0.031 A 
ATOM      6  C6  IND d   1       2.776  -1.164   2.663  0.00  0.00     0.015 A 
ATOM      7  C7  IND d   1       2.294  -1.275   3.937  0.00  0.00    -0.016 A 
ATOM      8  C8  IND d   1       0.970  -1.668   4.073  0.00  0.00    -0.047 A 
ATOM      9  C9  IND d   1       0.152  -1.916   2.964  0.00  0.00    -0.096 A 
ATOM     10  HN1 IND d   1       0.465  -1.749   6.012  0.00  0.00     0.298 HD
ENDROOT
TORSDOF 0
ENDMDL
