MODEL 1
REMARK minimizedAffinity 8.42205811
REMARK minimizedRMSD -1
REMARK  0 active torsions:
REMARK  status: ('A' for Active; 'I' for Inactive)
ROOT
ATOM      1  N1  IND d   1      -0.745  -0.561   0.085  0.00  0.00    -0.196 N 
ATOM      2  C2  IND d   1      -1.665   0.375  -0.297  0.00  0.00     0.054 A 
ATOM      3  C3  IND d   1      -1.537   1.494   0.452  0.00  0.00    -0.031 A 
ATOM      4  C4  IND d   1       0.181   2.044   2.289  0.00  0.00     0.051 A 
ATOM      5  C5  IND d   1       1.199   1.490   3.012  0.00  0.00    -0.031 A 
ATOM      6  C6  IND d   1       1.632   0.198   2.791  0.00  0.00     0.015 A 
ATOM      7  C7  IND d   1       1.067  -0.587   1.826  0.00  0.00    -0.016 A 
ATOM      8  C8  IND d   1       0.029  -0.029   1.094  0.00  0.00    -0.047 A 
ATOM      9  C9  IND d   1      -0.443   1.266   1.342  0.00  0.00    -0.096 A 
ATOM     10  HN1 IND d   1      -0.663  -1.349  -0.248  0.00  0.00     0.298 HD
ENDROOT
TORSDOF 0
ENDMDL
