MODEL 1
REMARK minimizedAffinity 7.35534668
REMARK minimizedRMSD -1
REMARK  0 active torsions:
REMARK  status: ('A' for Active; 'I' for Inactive)
ROOT
ATOM      1  N1  IND d   1      -3.855   5.822  -5.541  0.00  0.00    -0.196 N 
ATOM      2  C2  IND d   1      -5.139   5.977  -5.983  0.00  0.00     0.054 A 
ATOM      3  C3  IND d   1      -5.998   5.993  -4.938  0.00  0.00    -0.031 A 
ATOM      4  C4  IND d   1      -5.504   5.884  -2.414  0.00  0.00     0.051 A 
ATOM      5  C5  IND d   1      -4.484   5.704  -1.523  0.00  0.00    -0.031 A 
ATOM      6  C6  IND d   1      -3.175   5.554  -1.933  0.00  0.00     0.015 A 
ATOM      7  C7  IND d   1      -2.835   5.590  -3.256  0.00  0.00    -0.016 A 
ATOM      8  C8  IND d   1      -3.869   5.765  -4.164  0.00  0.00    -0.047 A 
ATOM      9  C9  IND d   1      -5.205   5.876  -3.756  0.00  0.00    -0.096 A 
ATOM     10  HN1 IND d   1      -3.156   5.769  -6.039  0.00  0.00     0.298 HD
ENDROOT
TORSDOF 0
ENDMDL
