MODEL 1
REMARK minimizedAffinity -1.07211494
REMARK minimizedRMSD -1
REMARK  0 active torsions:
REMARK  status: ('A' for Active; 'I' for Inactive)
ROOT
ATOM      1  N1  IND d   1      -4.739   5.998  -3.723  0.00  0.00    -0.196 N 
ATOM      2  C2  IND d   1      -5.434   5.939  -4.899  0.00  0.00     0.054 A 
ATOM      3  C3  IND d   1      -6.000   4.720  -5.050  0.00  0.00    -0.031 A 
ATOM      4  C4  IND d   1      -5.998   2.707  -3.446  0.00  0.00     0.051 A 
ATOM      5  C5  IND d   1      -5.467   2.271  -2.264  0.00  0.00    -0.031 A 
ATOM      6  C6  IND d   1      -4.651   3.072  -1.492  0.00  0.00     0.015 A 
ATOM      7  C7  IND d   1      -4.345   4.349  -1.868  0.00  0.00    -0.016 A 
ATOM      8  C8  IND d   1      -4.877   4.793  -3.071  0.00  0.00    -0.047 A 
ATOM      9  C9  IND d   1      -5.670   3.969  -3.880  0.00  0.00    -0.096 A 
ATOM     10  HN1 IND d   1      -4.290   6.675  -3.439  0.00  0.00     0.298 HD
ENDROOT
TORSDOF 0
ENDMDL
