MODEL 1
REMARK minimizedAffinity 15.2387524
REMARK minimizedRMSD -1
REMARK  0 active torsions:
REMARK  status: ('A' for Active; 'I' for Inactive)
ROOT
ATOM      1  N1  IND d   1       1.896   2.798   3.496  0.00  0.00    -0.196 N 
ATOM      2  C2  IND d   1       1.198   3.972   3.549  0.00  0.00     0.054 A 
ATOM      3  C3  IND d   1       0.101   3.903   2.763  0.00  0.00    -0.031 A 
ATOM      4  C4  IND d   1      -0.799   1.927   1.379  0.00  0.00     0.051 A 
ATOM      5  C5  IND d   1      -0.486   0.656   0.988  0.00  0.00    -0.031 A 
ATOM      6  C6  IND d   1       0.658   0.019   1.423  0.00  0.00     0.015 A 
ATOM      7  C7  IND d   1       1.531   0.630   2.279  0.00  0.00    -0.016 A 
ATOM      8  C8  IND d   1       1.220   1.923   2.673  0.00  0.00    -0.047 A 
ATOM      9  C9  IND d   1       0.082   2.590   2.201  0.00  0.00    -0.096 A 
ATOM     10  HN1 IND d   1       2.633   2.633   3.907  0.00  0.00     0.298 HD
ENDROOT
TORSDOF 0
ENDMDL
