MODEL 1
REMARK minimizedAffinity 3.01145148
REMARK minimizedRMSD -1
REMARK  0 active torsions:
REMARK  status: ('A' for Active; 'I' for Inactive)
ROOT
ATOM      1  N1  IND d   1       0.765  -5.047   0.343  0.00  0.00    -0.196 N 
ATOM      2  C2  IND d   1       0.085  -4.516  -0.717  0.00  0.00     0.054 A 
ATOM      3  C3  IND d   1       0.897  -4.416  -1.794  0.00  0.00    -0.031 A 
ATOM      4  C4  IND d   1       3.347  -5.158  -2.069  0.00  0.00     0.051 A 
ATOM      5  C5  IND d   1       4.405  -5.663  -1.367  0.00  0.00    -0.031 A 
ATOM      6  C6  IND d   1       4.301  -5.998  -0.032  0.00  0.00     0.015 A 
ATOM      7  C7  IND d   1       3.126  -5.850   0.650  0.00  0.00    -0.016 A 
ATOM      8  C8  IND d   1       2.052  -5.331  -0.058  0.00  0.00    -0.047 A 
ATOM      9  C9  IND d   1       2.163  -4.949  -1.402  0.00  0.00    -0.096 A 
ATOM     10  HN1 IND d   1       0.443  -5.181   1.129  0.00  0.00     0.298 HD
ENDROOT
TORSDOF 0
ENDMDL
