MODEL 1
REMARK minimizedAffinity 8.84621048
REMARK minimizedRMSD -1
REMARK  0 active torsions:
REMARK  status: ('A' for Active; 'I' for Inactive)
ROOT
ATOM      1  N1  IND d   1      -1.059   1.253   2.109  0.00  0.00    -0.196 N 
ATOM      2  C2  IND d   1      -1.881   1.728   1.126  0.00  0.00     0.054 A 
ATOM      3  C3  IND d   1      -1.427   1.353  -0.091  0.00  0.00    -0.031 A 
ATOM      4  C4  IND d   1       0.589  -0.129  -0.698  0.00  0.00     0.051 A 
ATOM      5  C5  IND d   1       1.661  -0.770  -0.142  0.00  0.00    -0.031 A 
ATOM      6  C6  IND d   1       1.885  -0.771   1.219  0.00  0.00     0.015 A 
ATOM      7  C7  IND d   1       1.034  -0.138   2.081  0.00  0.00    -0.016 A 
ATOM      8  C8  IND d   1      -0.052   0.519   1.521  0.00  0.00    -0.047 A 
ATOM      9  C9  IND d   1      -0.261   0.559   0.136  0.00  0.00    -0.096 A 
ATOM     10  HN1 IND d   1      -1.154   1.389   2.952  0.00  0.00     0.298 HD
ENDROOT
TORSDOF 0
ENDMDL
