MODEL 1
REMARK minimizedAffinity 10.495203
REMARK minimizedRMSD -1
REMARK  0 active torsions:
REMARK  status: ('A' for Active; 'I' for Inactive)
ROOT
ATOM      1  N1  IND d   1      -1.837  -4.519  -1.914  0.00  0.00    -0.196 N 
ATOM      2  C2  IND d   1      -0.716  -4.548  -1.133  0.00  0.00     0.054 A 
ATOM      3  C3  IND d   1      -0.363  -3.295  -0.770  0.00  0.00    -0.031 A 
ATOM      4  C4  IND d   1      -1.540  -1.058  -1.260  0.00  0.00     0.051 A 
ATOM      5  C5  IND d   1      -2.580  -0.520  -1.964  0.00  0.00    -0.031 A 
ATOM      6  C6  IND d   1      -3.445  -1.303  -2.700  0.00  0.00     0.015 A 
ATOM      7  C7  IND d   1      -3.308  -2.662  -2.751  0.00  0.00    -0.016 A 
ATOM      8  C8  IND d   1      -2.249  -3.211  -2.043  0.00  0.00    -0.047 A 
ATOM      9  C9  IND d   1      -1.342  -2.417  -1.328  0.00  0.00    -0.096 A 
ATOM     10  HN1 IND d   1      -2.221  -5.204  -2.266  0.00  0.00     0.298 HD
ENDROOT
TORSDOF 0
ENDMDL
