MODEL 1
REMARK minimizedAffinity 4.90831661
REMARK minimizedRMSD -1
REMARK  0 active torsions:
REMARK  status: ('A' for Active; 'I' for Inactive)
ROOT
ATOM      1  N1  IND d   1       1.441   0.443   1.023  0.00  0.00    -0.196 N 
ATOM      2  C2  IND d   1       1.752  -0.886   1.092  0.00  0.00     0.054 A 
ATOM      3  C3  IND d   1       0.685  -1.638   0.742  0.00  0.00    -0.031 A 
ATOM      4  C4  IND d   1      -1.640  -0.895  -0.078  0.00  0.00     0.051 A 
ATOM      5  C5  IND d   1      -2.409   0.218  -0.272  0.00  0.00    -0.031 A 
ATOM      6  C6  IND d   1      -1.924   1.489  -0.041  0.00  0.00     0.015 A 
ATOM      7  C7  IND d   1      -0.641   1.695   0.382  0.00  0.00    -0.016 A 
ATOM      8  C8  IND d   1       0.141   0.567   0.587  0.00  0.00    -0.047 A 
ATOM      9  C9  IND d   1      -0.360  -0.727   0.395  0.00  0.00    -0.096 A 
ATOM     10  HN1 IND d   1       1.969   1.093   1.220  0.00  0.00     0.298 HD
ENDROOT
TORSDOF 0
ENDMDL
