MODEL 1
REMARK minimizedAffinity 5.60379744
REMARK minimizedRMSD -1
REMARK  0 active torsions:
REMARK  status: ('A' for Active; 'I' for Inactive)
ROOT
ATOM      1  N1  IND d   1       3.632   1.832   4.665  0.00  0.00    -0.196 N 
ATOM      2  C2  IND d   1       2.900   2.833   4.090  0.00  0.00     0.054 A 
ATOM      3  C3  IND d   1       2.165   2.348   3.065  0.00  0.00    -0.031 A 
ATOM      4  C4  IND d   1       1.931  -0.073   2.221  0.00  0.00     0.051 A 
ATOM      5  C5  IND d   1       2.430  -1.331   2.407  0.00  0.00    -0.031 A 
ATOM      6  C6  IND d   1       3.374  -1.605   3.376  0.00  0.00     0.015 A 
ATOM      7  C7  IND d   1       3.845  -0.629   4.207  0.00  0.00    -0.016 A 
ATOM      8  C8  IND d   1       3.345   0.651   4.017  0.00  0.00    -0.047 A 
ATOM      9  C9  IND d   1       2.420   0.944   3.007  0.00  0.00    -0.096 A 
ATOM     10  HN1 IND d   1       4.180   1.925   5.322  0.00  0.00     0.298 HD
ENDROOT
TORSDOF 0
ENDMDL
