MODEL 1
REMARK minimizedAffinity 0.804403722
REMARK minimizedRMSD -1
REMARK  0 active torsions:
REMARK  status: ('A' for Active; 'I' for Inactive)
ROOT
ATOM      1  N1  IND d   1      -0.735  -0.704  -2.405  0.00  0.00    -0.196 N 
ATOM      2  C2  IND d   1      -0.858   0.400  -1.609  0.00  0.00     0.054 A 
ATOM      3  C3  IND d   1      -1.193   0.038  -0.350  0.00  0.00    -0.031 A 
ATOM      4  C4  IND d   1      -1.492  -2.316   0.649  0.00  0.00     0.051 A 
ATOM      5  C5  IND d   1      -1.518  -3.637   0.303  0.00  0.00    -0.031 A 
ATOM      6  C6  IND d   1      -1.276  -4.058  -0.989  0.00  0.00     0.015 A 
ATOM      7  C7  IND d   1      -0.988  -3.169  -1.985  0.00  0.00    -0.016 A 
ATOM      8  C8  IND d   1      -0.968  -1.825  -1.639  0.00  0.00    -0.047 A 
ATOM      9  C9  IND d   1      -1.254  -1.389  -0.339  0.00  0.00    -0.096 A 
ATOM     10  HN1 IND d   1      -0.544  -0.699  -3.244  0.00  0.00     0.298 HD
ENDROOT
TORSDOF 0
ENDMDL
