MODEL 1
REMARK minimizedAffinity -4.40581131
REMARK minimizedRMSD -1
REMARK  0 active torsions:
REMARK  status: ('A' for Active; 'I' for Inactive)
ROOT
ATOM      1  C   UNL d   1      -1.782  -0.571   3.027  0.00  0.00     0.077 C 
ATOM      2  C1  UNL d   1      -0.712  -0.090   2.093  0.00  0.00    -0.074 A 
ATOM      3  C2  UNL d   1       0.514   0.373   2.582  0.00  0.00    -0.005 A 
ATOM      4  C3  UNL d   1       1.504   0.808   1.701  0.00  0.00     0.006 A 
ATOM      5  C4  UNL d   1       1.278   0.784   0.324  0.00  0.00    -0.005 A 
ATOM      6  C5  UNL d   1       0.059   0.323  -0.184  0.00  0.00    -0.074 A 
ATOM      7  C6  UNL d   1      -0.195   0.282  -1.661  0.00  0.00     0.077 C 
ATOM      8  C7  UNL d   1      -0.928  -0.119   0.708  0.00  0.00    -0.001 A 
ENDROOT
TORSDOF 0
ENDMDL
