MODEL 1
REMARK minimizedAffinity -5.42962027
REMARK minimizedRMSD -1
REMARK  0 active torsions:
REMARK  status: ('A' for Active; 'I' for Inactive)
ROOT
ATOM      1  C   UNL d   1       1.552  -0.059   3.165  0.00  0.00     0.077 C 
ATOM      2  C1  UNL d   1       0.332  -0.169   2.299  0.00  0.00    -0.074 A 
ATOM      3  C2  UNL d   1      -0.793  -0.880   2.730  0.00  0.00    -0.005 A 
ATOM      4  C3  UNL d   1      -1.924  -0.966   1.918  0.00  0.00     0.006 A 
ATOM      5  C4  UNL d   1      -1.942  -0.343   0.669  0.00  0.00    -0.005 A 
ATOM      6  C5  UNL d   1      -0.826   0.373   0.222  0.00  0.00    -0.074 A 
ATOM      7  C6  UNL d   1      -0.832   1.056  -1.113  0.00  0.00     0.077 C 
ATOM      8  C7  UNL d   1       0.304   0.460   1.047  0.00  0.00    -0.001 A 
ENDROOT
TORSDOF 0
ENDMDL
