MODEL 1
REMARK minimizedAffinity -5.51531124
REMARK minimizedRMSD -1
REMARK  0 active torsions:
REMARK  status: ('A' for Active; 'I' for Inactive)
ROOT
ATOM      1  C   UNL d   1      -2.716   0.766  -1.062  0.00  0.00     0.077 C 
ATOM      2  C1  UNL d   1      -1.579   0.426  -0.145  0.00  0.00    -0.074 A 
ATOM      3  C2  UNL d   1      -0.253   0.646  -0.531  0.00  0.00    -0.005 A 
ATOM      4  C3  UNL d   1       0.793   0.333   0.336  0.00  0.00     0.006 A 
ATOM      5  C4  UNL d   1       0.525  -0.202   1.596  0.00  0.00    -0.005 A 
ATOM      6  C5  UNL d   1      -0.794  -0.429   2.000  0.00  0.00    -0.074 A 
ATOM      7  C6  UNL d   1      -1.100  -0.995   3.355  0.00  0.00     0.077 C 
ATOM      8  C7  UNL d   1      -1.841  -0.106   1.126  0.00  0.00    -0.001 A 
ENDROOT
TORSDOF 0
ENDMDL
