MODEL 1
REMARK minimizedAffinity -5.57685089
REMARK minimizedRMSD -1
REMARK  0 active torsions:
REMARK  status: ('A' for Active; 'I' for Inactive)
ROOT
ATOM      1  C   UNL d   1       1.218   0.436   3.450  0.00  0.00     0.077 C 
ATOM      2  C1  UNL d   1       0.088   0.169   2.501  0.00  0.00    -0.074 A 
ATOM      3  C2  UNL d   1      -1.107  -0.403   2.949  0.00  0.00    -0.005 A 
ATOM      4  C3  UNL d   1      -2.153  -0.637   2.056  0.00  0.00     0.006 A 
ATOM      5  C4  UNL d   1      -2.015  -0.302   0.709  0.00  0.00    -0.005 A 
ATOM      6  C5  UNL d   1      -0.828   0.272   0.243  0.00  0.00    -0.074 A 
ATOM      7  C6  UNL d   1      -0.666   0.648  -1.200  0.00  0.00     0.077 C 
ATOM      8  C7  UNL d   1       0.216   0.510   1.148  0.00  0.00    -0.001 A 
ENDROOT
TORSDOF 0
ENDMDL
