MODEL 1
REMARK minimizedAffinity -4.37442064
REMARK minimizedRMSD -1
REMARK  0 active torsions:
REMARK  status: ('A' for Active; 'I' for Inactive)
ROOT
ATOM      1  C   UNL d   1      -0.188  -0.443   1.133  0.00  0.00     0.077 C 
ATOM      2  C1  UNL d   1      -0.018  -0.183  -0.335  0.00  0.00    -0.074 A 
ATOM      3  C2  UNL d   1      -0.319   1.068  -0.882  0.00  0.00    -0.005 A 
ATOM      4  C3  UNL d   1      -0.147   1.298  -2.247  0.00  0.00     0.006 A 
ATOM      5  C4  UNL d   1       0.327   0.281  -3.077  0.00  0.00    -0.005 A 
ATOM      6  C5  UNL d   1       0.633  -0.976  -2.547  0.00  0.00    -0.074 A 
ATOM      7  C6  UNL d   1       1.153  -2.078  -3.423  0.00  0.00     0.077 C 
ATOM      8  C7  UNL d   1       0.465  -1.197  -1.173  0.00  0.00    -0.001 A 
ENDROOT
TORSDOF 0
ENDMDL
