MODEL 1
REMARK minimizedAffinity -4.45346737
REMARK minimizedRMSD -1
REMARK  0 active torsions:
REMARK  status: ('A' for Active; 'I' for Inactive)
ROOT
ATOM      1  C   UNL d   1      -0.649   0.953  -1.754  0.00  0.00     0.077 C 
ATOM      2  C1  UNL d   1      -0.130   0.729  -0.365  0.00  0.00    -0.074 A 
ATOM      3  C2  UNL d   1       1.090   1.278   0.044  0.00  0.00    -0.005 A 
ATOM      4  C3  UNL d   1       1.555   1.069   1.343  0.00  0.00     0.006 A 
ATOM      5  C4  UNL d   1       0.806   0.310   2.243  0.00  0.00    -0.005 A 
ATOM      6  C5  UNL d   1      -0.416  -0.246   1.852  0.00  0.00    -0.074 A 
ATOM      7  C6  UNL d   1      -1.238  -1.056   2.811  0.00  0.00     0.077 C 
ATOM      8  C7  UNL d   1      -0.880  -0.025   0.548  0.00  0.00    -0.001 A 
ENDROOT
TORSDOF 0
ENDMDL
