MODEL 1
REMARK minimizedAffinity -6.00379229
REMARK minimizedRMSD -1
REMARK  0 active torsions:
REMARK  status: ('A' for Active; 'I' for Inactive)
ROOT
ATOM      1  C   UNL d   1       0.031   0.294  -1.613  0.00  0.00     0.077 C 
ATOM      2  C1  UNL d   1       0.083   0.282  -0.114  0.00  0.00    -0.074 A 
ATOM      3  C2  UNL d   1       1.259   0.613   0.567  0.00  0.00    -0.005 A 
ATOM      4  C3  UNL d   1       1.291   0.608   1.961  0.00  0.00     0.006 A 
ATOM      5  C4  UNL d   1       0.148   0.271   2.688  0.00  0.00    -0.005 A 
ATOM      6  C5  UNL d   1      -1.038  -0.061   2.025  0.00  0.00    -0.074 A 
ATOM      7  C6  UNL d   1      -2.277  -0.416   2.791  0.00  0.00     0.077 C 
ATOM      8  C7  UNL d   1      -1.063  -0.047   0.623  0.00  0.00    -0.001 A 
ENDROOT
TORSDOF 0
ENDMDL
