MODEL 1
REMARK minimizedAffinity -5.2287302
REMARK minimizedRMSD -1
REMARK  0 active torsions:
REMARK  status: ('A' for Active; 'I' for Inactive)
ROOT
ATOM      1  C   UNL d   1      -0.950  -0.971   3.082  0.00  0.00     0.077 C 
ATOM      2  C1  UNL d   1      -0.488  -0.230   1.863  0.00  0.00    -0.074 A 
ATOM      3  C2  UNL d   1      -1.274  -0.188   0.707  0.00  0.00    -0.005 A 
ATOM      4  C3  UNL d   1      -0.836   0.514  -0.416  0.00  0.00     0.006 A 
ATOM      5  C4  UNL d   1       0.390   1.179  -0.395  0.00  0.00    -0.005 A 
ATOM      6  C5  UNL d   1       1.190   1.149   0.752  0.00  0.00    -0.074 A 
ATOM      7  C6  UNL d   1       2.506   1.866   0.795  0.00  0.00     0.077 C 
ATOM      8  C7  UNL d   1       0.739   0.447   1.879  0.00  0.00    -0.001 A 
ENDROOT
TORSDOF 0
ENDMDL
