MODEL 1
REMARK minimizedAffinity -4.56589651
REMARK minimizedRMSD -1
REMARK  0 active torsions:
REMARK  status: ('A' for Active; 'I' for Inactive)
ROOT
ATOM      1  C   UNL d   1      -2.198   0.648  -1.259  0.00  0.00     0.077 C 
ATOM      2  C1  UNL d   1      -1.255   0.408  -0.118  0.00  0.00    -0.074 A 
ATOM      3  C2  UNL d   1       0.109   0.694  -0.240  0.00  0.00    -0.005 A 
ATOM      4  C3  UNL d   1       0.972   0.475   0.833  0.00  0.00     0.006 A 
ATOM      5  C4  UNL d   1       0.481  -0.032   2.037  0.00  0.00    -0.005 A 
ATOM      6  C5  UNL d   1      -0.879  -0.322   2.178  0.00  0.00    -0.074 A 
ATOM      7  C6  UNL d   1      -1.425  -0.858   3.469  0.00  0.00     0.077 C 
ATOM      8  C7  UNL d   1      -1.742  -0.093   1.098  0.00  0.00    -0.001 A 
ENDROOT
TORSDOF 0
ENDMDL
