MODEL 1
REMARK minimizedAffinity -6.44179392
REMARK minimizedRMSD -1
REMARK  0 active torsions:
REMARK  status: ('A' for Active; 'I' for Inactive)
ROOT
ATOM      1  C   UNL d   1      -2.277  -0.309   3.429  0.00  0.00     0.077 C 
ATOM      2  C1  UNL d   1      -1.141   0.009   2.502  0.00  0.00    -0.074 A 
ATOM      3  C2  UNL d   1       0.149   0.229   2.995  0.00  0.00    -0.005 A 
ATOM      4  C3  UNL d   1       1.197   0.515   2.120  0.00  0.00     0.006 A 
ATOM      5  C4  UNL d   1       0.966   0.583   0.746  0.00  0.00    -0.005 A 
ATOM      6  C5  UNL d   1      -0.317   0.365   0.234  0.00  0.00    -0.074 A 
ATOM      7  C6  UNL d   1      -0.581   0.425  -1.241  0.00  0.00     0.077 C 
ATOM      8  C7  UNL d   1      -1.364   0.072   1.119  0.00  0.00    -0.001 A 
ENDROOT
TORSDOF 0
ENDMDL
