MODEL 1
REMARK minimizedAffinity -5.09495735
REMARK minimizedRMSD -1
REMARK  0 active torsions:
REMARK  status: ('A' for Active; 'I' for Inactive)
ROOT
ATOM      1  C   UNL d   1      -1.127  -0.759   3.147  0.00  0.00     0.077 C 
ATOM      2  C1  UNL d   1      -0.580  -0.146   1.893  0.00  0.00    -0.074 A 
ATOM      3  C2  UNL d   1      -1.327  -0.140   0.710  0.00  0.00    -0.005 A 
ATOM      4  C3  UNL d   1      -0.809   0.442  -0.446  0.00  0.00     0.006 A 
ATOM      5  C4  UNL d   1       0.459   1.024  -0.433  0.00  0.00    -0.005 A 
ATOM      6  C5  UNL d   1       1.221   1.028   0.740  0.00  0.00    -0.074 A 
ATOM      7  C6  UNL d   1       2.582   1.657   0.774  0.00  0.00     0.077 C 
ATOM      8  C7  UNL d   1       0.691   0.447   1.900  0.00  0.00    -0.001 A 
ENDROOT
TORSDOF 0
ENDMDL
