MODEL 1
REMARK minimizedAffinity -5.41056252
REMARK minimizedRMSD -1
REMARK  0 active torsions:
REMARK  status: ('A' for Active; 'I' for Inactive)
ROOT
ATOM      1  C   UNL d   1      -0.118  -0.418   2.640  0.00  0.00     0.077 C 
ATOM      2  C1  UNL d   1      -0.719  -0.063   1.312  0.00  0.00    -0.074 A 
ATOM      3  C2  UNL d   1      -2.105   0.023   1.151  0.00  0.00    -0.005 A 
ATOM      4  C3  UNL d   1      -2.649   0.364  -0.087  0.00  0.00     0.006 A 
ATOM      5  C4  UNL d   1      -1.814   0.622  -1.175  0.00  0.00    -0.005 A 
ATOM      6  C5  UNL d   1      -0.425   0.542  -1.032  0.00  0.00    -0.074 A 
ATOM      7  C6  UNL d   1       0.487   0.825  -2.189  0.00  0.00     0.077 C 
ATOM      8  C7  UNL d   1       0.114   0.205   0.217  0.00  0.00    -0.001 A 
ENDROOT
TORSDOF 0
ENDMDL
