MODEL 1
REMARK minimizedAffinity -4.71782064
REMARK minimizedRMSD -1
REMARK  0 active torsions:
REMARK  status: ('A' for Active; 'I' for Inactive)
ROOT
ATOM      1  C   UNL d   1       0.546   0.390   2.927  0.00  0.00     0.077 C 
ATOM      2  C1  UNL d   1      -0.177   0.447   1.614  0.00  0.00    -0.074 A 
ATOM      3  C2  UNL d   1       0.525   0.569   0.411  0.00  0.00    -0.005 A 
ATOM      4  C3  UNL d   1      -0.161   0.611  -0.803  0.00  0.00     0.006 A 
ATOM      5  C4  UNL d   1      -1.554   0.532  -0.825  0.00  0.00    -0.005 A 
ATOM      6  C5  UNL d   1      -2.273   0.408   0.368  0.00  0.00    -0.074 A 
ATOM      7  C6  UNL d   1      -3.770   0.311   0.360  0.00  0.00     0.077 C 
ATOM      8  C7  UNL d   1      -1.576   0.359   1.583  0.00  0.00    -0.001 A 
ENDROOT
TORSDOF 0
ENDMDL
