MODEL 1
REMARK minimizedAffinity 4.26024151
REMARK minimizedRMSD -1
REMARK  0 active torsions:
REMARK  status: ('A' for Active; 'I' for Inactive)
ROOT
ATOM      1  C2' OXE d   1      -5.999   1.099  -1.009  0.00  0.00     0.078 C 
ATOM      2  C1' OXE d   1      -5.333   3.805  -1.353  0.00  0.00     0.078 C 
ATOM      3  C1  OXE d   1      -4.272   2.883  -0.804  0.00  0.00    -0.078 A 
ATOM      4  C2  OXE d   1      -4.621   1.571  -0.595  0.00  0.00    -0.078 A 
ATOM      5  C3  OXE d   1      -3.665   0.667  -0.142  0.00  0.00     0.003 A 
ATOM      6  C4  OXE d   1      -2.396   1.113   0.247  0.00  0.00    -0.002 A 
ATOM      7  C5  OXE d   1      -2.033   2.454   0.080  0.00  0.00    -0.002 A 
ATOM      8  C6  OXE d   1      -2.943   3.341  -0.483  0.00  0.00     0.003 A 
ENDROOT
TORSDOF 0
ENDMDL
