MODEL 1
REMARK minimizedAffinity 13.3060265
REMARK minimizedRMSD -1
REMARK  0 active torsions:
REMARK  status: ('A' for Active; 'I' for Inactive)
ROOT
ATOM      1  C2' OXE d   1       0.402   1.372  -0.841  0.00  0.00     0.078 C 
ATOM      2  C1' OXE d   1       2.722   0.254   0.276  0.00  0.00     0.078 C 
ATOM      3  C1  OXE d   1       1.467   0.254   1.113  0.00  0.00    -0.078 A 
ATOM      4  C2  OXE d   1       0.349   0.845   0.577  0.00  0.00    -0.078 A 
ATOM      5  C3  OXE d   1      -0.849   0.823   1.285  0.00  0.00     0.003 A 
ATOM      6  C4  OXE d   1      -0.887   0.342   2.599  0.00  0.00    -0.002 A 
ATOM      7  C5  OXE d   1       0.251  -0.228   3.180  0.00  0.00    -0.002 A 
ATOM      8  C6  OXE d   1       1.422  -0.319   2.436  0.00  0.00     0.003 A 
ENDROOT
TORSDOF 0
ENDMDL
