MODEL 1
REMARK minimizedAffinity 12.6510363
REMARK minimizedRMSD -1
REMARK  0 active torsions:
REMARK  status: ('A' for Active; 'I' for Inactive)
ROOT
ATOM      1  C2' OXE d   1       3.123  -2.222   0.365  0.00  0.00     0.078 C 
ATOM      2  C1' OXE d   1       1.606  -0.015  -0.479  0.00  0.00     0.078 C 
ATOM      3  C1  OXE d   1       3.098   0.166  -0.344  0.00  0.00    -0.078 A 
ATOM      4  C2  OXE d   1       3.826  -0.906   0.114  0.00  0.00    -0.078 A 
ATOM      5  C3  OXE d   1       5.212  -0.809   0.204  0.00  0.00     0.003 A 
ATOM      6  C4  OXE d   1       5.853   0.415  -0.021  0.00  0.00    -0.002 A 
ATOM      7  C5  OXE d   1       5.125   1.530  -0.450  0.00  0.00    -0.002 A 
ATOM      8  C6  OXE d   1       3.755   1.411  -0.657  0.00  0.00     0.003 A 
ENDROOT
TORSDOF 0
ENDMDL
