MODEL 1
REMARK minimizedAffinity 9.0525074
REMARK minimizedRMSD -1
REMARK  0 active torsions:
REMARK  status: ('A' for Active; 'I' for Inactive)
ROOT
ATOM      1  C2' OXE d   1      -5.985   2.793  -3.826  0.00  0.00     0.078 C 
ATOM      2  C1' OXE d   1      -6.000   0.064  -4.483  0.00  0.00     0.078 C 
ATOM      3  C1  OXE d   1      -4.801   0.881  -4.896  0.00  0.00    -0.078 A 
ATOM      4  C2  OXE d   1      -4.823   2.225  -4.612  0.00  0.00    -0.078 A 
ATOM      5  C3  OXE d   1      -3.719   3.014  -4.923  0.00  0.00     0.003 A 
ATOM      6  C4  OXE d   1      -2.653   2.482  -5.659  0.00  0.00    -0.002 A 
ATOM      7  C5  OXE d   1      -2.629   1.124  -5.993  0.00  0.00    -0.002 A 
ATOM      8  C6  OXE d   1      -3.673   0.303  -5.583  0.00  0.00     0.003 A 
ENDROOT
TORSDOF 0
ENDMDL
