MODEL 1
REMARK minimizedAffinity 12.6258974
REMARK minimizedRMSD -1
REMARK  0 active torsions:
REMARK  status: ('A' for Active; 'I' for Inactive)
ROOT
ATOM      1  C2' OXE d   1      -5.933   5.886   5.992  0.00  0.00     0.078 C 
ATOM      2  C1' OXE d   1      -5.842   5.845   3.186  0.00  0.00     0.078 C 
ATOM      3  C1  OXE d   1      -5.861   4.522   3.909  0.00  0.00    -0.078 A 
ATOM      4  C2  OXE d   1      -5.858   4.551   5.283  0.00  0.00    -0.078 A 
ATOM      5  C3  OXE d   1      -5.930   3.359   5.998  0.00  0.00     0.003 A 
ATOM      6  C4  OXE d   1      -5.850   2.128   5.334  0.00  0.00    -0.002 A 
ATOM      7  C5  OXE d   1      -5.812   2.076   3.937  0.00  0.00    -0.002 A 
ATOM      8  C6  OXE d   1      -5.860   3.260   3.209  0.00  0.00     0.003 A 
ENDROOT
TORSDOF 0
ENDMDL
