MODEL 1
REMARK minimizedAffinity 12.5063868
REMARK minimizedRMSD -1
REMARK  0 active torsions:
REMARK  status: ('A' for Active; 'I' for Inactive)
ROOT
ATOM      1  C2' OXE d   1      -5.413   1.928   2.917  0.00  0.00     0.078 C 
ATOM      2  C1' OXE d   1      -5.719   1.576   5.685  0.00  0.00     0.078 C 
ATOM      3  C1  OXE d   1      -5.773   2.983   5.145  0.00  0.00    -0.078 A 
ATOM      4  C2  OXE d   1      -5.575   3.150   3.795  0.00  0.00    -0.078 A 
ATOM      5  C3  OXE d   1      -5.669   4.422   3.237  0.00  0.00     0.003 A 
ATOM      6  C4  OXE d   1      -5.809   5.548   4.058  0.00  0.00    -0.002 A 
ATOM      7  C5  OXE d   1      -5.973   5.403   5.439  0.00  0.00    -0.002 A 
ATOM      8  C6  OXE d   1      -5.999   4.128   5.993  0.00  0.00     0.003 A 
ENDROOT
TORSDOF 0
ENDMDL
