MODEL 1
REMARK minimizedAffinity 10.9603148
REMARK minimizedRMSD -1
REMARK  0 active torsions:
REMARK  status: ('A' for Active; 'I' for Inactive)
ROOT
ATOM      1  C2' OXE d   1       1.206  -1.908   3.759  0.00  0.00     0.078 C 
ATOM      2  C1' OXE d   1       2.738  -2.931   5.877  0.00  0.00     0.078 C 
ATOM      3  C1  OXE d   1       1.551  -3.738   5.413  0.00  0.00    -0.078 A 
ATOM      4  C2  OXE d   1       0.780  -3.207   4.408  0.00  0.00    -0.078 A 
ATOM      5  C3  OXE d   1      -0.295  -3.936   3.905  0.00  0.00     0.003 A 
ATOM      6  C4  OXE d   1      -0.688  -5.132   4.517  0.00  0.00    -0.002 A 
ATOM      7  C5  OXE d   1       0.061  -5.671   5.569  0.00  0.00    -0.002 A 
ATOM      8  C6  OXE d   1       1.205  -5.009   6.000  0.00  0.00     0.003 A 
ENDROOT
TORSDOF 0
ENDMDL
