MODEL 1
REMARK minimizedAffinity 15.3441448
REMARK minimizedRMSD -1
REMARK  0 active torsions:
REMARK  status: ('A' for Active; 'I' for Inactive)
ROOT
ATOM      1  C2' OXE d   1       5.999   1.899  -1.870  0.00  0.00     0.078 C 
ATOM      2  C1' OXE d   1       5.539   2.094   0.892  0.00  0.00     0.078 C 
ATOM      3  C1  OXE d   1       4.569   1.279   0.073  0.00  0.00    -0.078 A 
ATOM      4  C2  OXE d   1       4.776   1.228  -1.285  0.00  0.00    -0.078 A 
ATOM      5  C3  OXE d   1       3.942   0.445  -2.079  0.00  0.00     0.003 A 
ATOM      6  C4  OXE d   1       2.807  -0.164  -1.531  0.00  0.00    -0.002 A 
ATOM      7  C5  OXE d   1       2.556  -0.091  -0.157  0.00  0.00    -0.002 A 
ATOM      8  C6  OXE d   1       3.449   0.590   0.664  0.00  0.00     0.003 A 
ENDROOT
TORSDOF 0
ENDMDL
