MODEL 1
REMARK minimizedAffinity 3.07822442
REMARK minimizedRMSD -1
REMARK  0 active torsions:
REMARK  status: ('A' for Active; 'I' for Inactive)
ROOT
ATOM      1  C2' OXE d   1       1.501  -3.090  -0.018  0.00  0.00     0.078 C 
ATOM      2  C1' OXE d   1       1.143  -3.325  -2.793  0.00  0.00     0.078 C 
ATOM      3  C1  OXE d   1       0.322  -4.221  -1.899  0.00  0.00    -0.078 A 
ATOM      4  C2  OXE d   1       0.538  -4.132  -0.544  0.00  0.00    -0.078 A 
ATOM      5  C3  OXE d   1      -0.232  -4.896   0.328  0.00  0.00     0.003 A 
ATOM      6  C4  OXE d   1      -1.113  -5.865  -0.167  0.00  0.00    -0.002 A 
ATOM      7  C5  OXE d   1      -1.319  -6.000  -1.544  0.00  0.00    -0.002 A 
ATOM      8  C6  OXE d   1      -0.642  -5.158  -2.420  0.00  0.00     0.003 A 
ENDROOT
TORSDOF 0
ENDMDL
