MODEL 1
REMARK minimizedAffinity 11.0339518
REMARK minimizedRMSD -1
REMARK  3 active torsions:
REMARK  status: ('A' for Active; 'I' for Inactive)
REMARK    1  A    between atoms: C3'_2  and  C2'_3 
REMARK    2  A    between atoms: C2'_3  and  C1'_4 
REMARK    3  A    between atoms: C1'_4  and  C1_5 
ROOT
ATOM      1  C1  N4B d   1      -4.232   1.615   2.421  0.00  0.00    -0.075 A 
ATOM      2  C2  N4B d   1      -5.118   1.460   3.509  0.00  0.00     0.002 A 
ATOM      3  C3  N4B d   1      -5.993   2.468   3.831  0.00  0.00     0.002 A 
ATOM      4  C4  N4B d   1      -5.988   3.643   3.094  0.00  0.00    -0.004 A 
ATOM      5  C5  N4B d   1      -5.147   3.774   2.028  0.00  0.00     0.002 A 
ATOM      6  C6  N4B d   1      -4.264   2.768   1.691  0.00  0.00     0.002 A 
ENDROOT
BRANCH   1   7
ATOM      7  C1' N4B d   1      -3.197   0.576   2.084  0.00  0.00     0.057 C 
BRANCH   7   8
ATOM      8  C2' N4B d   1      -3.499  -0.701   2.862  0.00  0.00     0.009 C 
BRANCH   8   9
ATOM      9  C3' N4B d   1      -3.830  -1.863   1.941  0.00  0.00     0.004 C 
ATOM     10  C4' N4B d   1      -5.071  -1.628   1.132  0.00  0.00     0.003 C 
ENDBRANCH   8   9
ENDBRANCH   7   8
ENDBRANCH   1   7
TORSDOF 3
ENDMDL
