MODEL 1
REMARK minimizedAffinity 15.7184381
REMARK minimizedRMSD -1
REMARK  3 active torsions:
REMARK  status: ('A' for Active; 'I' for Inactive)
REMARK    1  A    between atoms: C3'_2  and  C2'_3 
REMARK    2  A    between atoms: C2'_3  and  C1'_4 
REMARK    3  A    between atoms: C1'_4  and  C1_5 
ROOT
ATOM      1  C1  N4B d   1      -3.316   0.859   0.445  0.00  0.00    -0.075 A 
ATOM      2  C2  N4B d   1      -3.863   2.115   0.792  0.00  0.00     0.002 A 
ATOM      3  C3  N4B d   1      -3.123   3.005   1.531  0.00  0.00     0.002 A 
ATOM      4  C4  N4B d   1      -1.847   2.656   1.949  0.00  0.00    -0.004 A 
ATOM      5  C5  N4B d   1      -1.317   1.452   1.589  0.00  0.00     0.002 A 
ATOM      6  C6  N4B d   1      -2.048   0.549   0.843  0.00  0.00     0.002 A 
ENDROOT
BRANCH   1   7
ATOM      7  C1' N4B d   1      -4.118  -0.181  -0.288  0.00  0.00     0.057 C 
BRANCH   7   8
ATOM      8  C2' N4B d   1      -4.018   0.076  -1.789  0.00  0.00     0.009 C 
BRANCH   8   9
ATOM      9  C3' N4B d   1      -4.884  -0.882  -2.588  0.00  0.00     0.004 C 
ATOM     10  C4' N4B d   1      -4.732  -0.704  -4.070  0.00  0.00     0.003 C 
ENDBRANCH   8   9
ENDBRANCH   7   8
ENDBRANCH   1   7
TORSDOF 3
ENDMDL
