MODEL 1
REMARK minimizedAffinity 5.4960413
REMARK minimizedRMSD -1
REMARK  3 active torsions:
REMARK  status: ('A' for Active; 'I' for Inactive)
REMARK    1  A    between atoms: C3'_2  and  C2'_3 
REMARK    2  A    between atoms: C2'_3  and  C1'_4 
REMARK    3  A    between atoms: C1'_4  and  C1_5 
ROOT
ATOM      1  C1  N4B d   1       3.679  -5.969   3.354  0.00  0.00    -0.075 A 
ATOM      2  C2  N4B d   1       5.055  -5.952   3.034  0.00  0.00     0.002 A 
ATOM      3  C3  N4B d   1       5.993  -5.950   4.037  0.00  0.00     0.002 A 
ATOM      4  C4  N4B d   1       5.581  -5.945   5.362  0.00  0.00    -0.004 A 
ATOM      5  C5  N4B d   1       4.251  -5.988   5.662  0.00  0.00     0.002 A 
ATOM      6  C6  N4B d   1       3.297  -5.994   4.664  0.00  0.00     0.002 A 
ENDROOT
BRANCH   1   7
ATOM      7  C1' N4B d   1       2.616  -5.885   2.293  0.00  0.00     0.057 C 
BRANCH   7   8
ATOM      8  C2' N4B d   1       1.274  -5.581   2.952  0.00  0.00     0.009 C 
BRANCH   8   9
ATOM      9  C3' N4B d   1       0.376  -4.748   2.054  0.00  0.00     0.004 C 
ATOM     10  C4' N4B d   1       1.148  -3.856   1.128  0.00  0.00     0.003 C 
ENDBRANCH   8   9
ENDBRANCH   7   8
ENDBRANCH   1   7
TORSDOF 3
ENDMDL
