MODEL 1
REMARK minimizedAffinity 15.2029924
REMARK minimizedRMSD -1
REMARK  3 active torsions:
REMARK  status: ('A' for Active; 'I' for Inactive)
REMARK    1  A    between atoms: C3'_2  and  C2'_3 
REMARK    2  A    between atoms: C2'_3  and  C1'_4 
REMARK    3  A    between atoms: C1'_4  and  C1_5 
ROOT
ATOM      1  C1  N4B d   1       3.269   2.164  -5.814  0.00  0.00    -0.075 A 
ATOM      2  C2  N4B d   1       2.974   3.545  -5.833  0.00  0.00     0.002 A 
ATOM      3  C3  N4B d   1       3.990   4.463  -5.931  0.00  0.00     0.002 A 
ATOM      4  C4  N4B d   1       5.305   4.026  -5.991  0.00  0.00    -0.004 A 
ATOM      5  C5  N4B d   1       5.580   2.690  -5.998  0.00  0.00     0.002 A 
ATOM      6  C6  N4B d   1       4.568   1.756  -5.904  0.00  0.00     0.002 A 
ENDROOT
BRANCH   1   7
ATOM      7  C1' N4B d   1       2.197   1.126  -5.622  0.00  0.00     0.057 C 
BRANCH   7   8
ATOM      8  C2' N4B d   1       2.835  -0.164  -5.114  0.00  0.00     0.009 C 
BRANCH   8   9
ATOM      9  C3' N4B d   1       2.479  -0.441  -3.663  0.00  0.00     0.004 C 
ATOM     10  C4' N4B d   1       3.053   0.575  -2.720  0.00  0.00     0.003 C 
ENDBRANCH   8   9
ENDBRANCH   7   8
ENDBRANCH   1   7
TORSDOF 3
ENDMDL
