MODEL 1
REMARK minimizedAffinity 11.5320139
REMARK minimizedRMSD -1
REMARK  3 active torsions:
REMARK  status: ('A' for Active; 'I' for Inactive)
REMARK    1  A    between atoms: C3'_2  and  C2'_3 
REMARK    2  A    between atoms: C2'_3  and  C1'_4 
REMARK    3  A    between atoms: C1'_4  and  C1_5 
ROOT
ATOM      1  C1  N4B d   1       2.820   0.660  -4.665  0.00  0.00    -0.075 A 
ATOM      2  C2  N4B d   1       1.650   0.257  -5.346  0.00  0.00     0.002 A 
ATOM      3  C3  N4B d   1       0.660  -0.414  -4.672  0.00  0.00     0.002 A 
ATOM      4  C4  N4B d   1       0.823  -0.708  -3.327  0.00  0.00    -0.004 A 
ATOM      5  C5  N4B d   1       1.944  -0.292  -2.670  0.00  0.00     0.002 A 
ATOM      6  C6  N4B d   1       2.947   0.386  -3.334  0.00  0.00     0.002 A 
ENDROOT
BRANCH   1   7
ATOM      7  C1' N4B d   1       3.967   1.320  -5.379  0.00  0.00     0.057 C 
BRANCH   7   8
ATOM      8  C2' N4B d   1       3.499   2.652  -5.957  0.00  0.00     0.009 C 
BRANCH   8   9
ATOM      9  C3' N4B d   1       4.436   3.791  -5.592  0.00  0.00     0.004 C 
ATOM     10  C4' N4B d   1       5.882   3.426  -5.751  0.00  0.00     0.003 C 
ENDBRANCH   8   9
ENDBRANCH   7   8
ENDBRANCH   1   7
TORSDOF 3
ENDMDL
