MODEL 1
REMARK minimizedAffinity 3.63968897
REMARK minimizedRMSD -1
REMARK  3 active torsions:
REMARK  status: ('A' for Active; 'I' for Inactive)
REMARK    1  A    between atoms: C3'_2  and  C2'_3 
REMARK    2  A    between atoms: C2'_3  and  C1'_4 
REMARK    3  A    between atoms: C1'_4  and  C1_5 
ROOT
ATOM      1  C1  N4B d   1       0.432   0.421   2.962  0.00  0.00    -0.075 A 
ATOM      2  C2  N4B d   1       0.271   1.683   2.350  0.00  0.00     0.002 A 
ATOM      3  C3  N4B d   1      -0.984   2.134   2.024  0.00  0.00     0.002 A 
ATOM      4  C4  N4B d   1      -2.088   1.335   2.284  0.00  0.00    -0.004 A 
ATOM      5  C5  N4B d   1      -1.927   0.128   2.899  0.00  0.00     0.002 A 
ATOM      6  C6  N4B d   1      -0.671  -0.336   3.235  0.00  0.00     0.002 A 
ENDROOT
BRANCH   1   7
ATOM      7  C1' N4B d   1       1.791  -0.152   3.258  0.00  0.00     0.057 C 
BRANCH   7   8
ATOM      8  C2' N4B d   1       2.805   0.437   2.282  0.00  0.00     0.009 C 
BRANCH   8   9
ATOM      9  C3' N4B d   1       4.073  -0.396   2.209  0.00  0.00     0.004 C 
ATOM     10  C4' N4B d   1       5.091   0.175   1.267  0.00  0.00     0.003 C 
ENDBRANCH   8   9
ENDBRANCH   7   8
ENDBRANCH   1   7
TORSDOF 3
ENDMDL
