MODEL 1
REMARK minimizedAffinity 14.3625259
REMARK minimizedRMSD -1
REMARK  3 active torsions:
REMARK  status: ('A' for Active; 'I' for Inactive)
REMARK    1  A    between atoms: C3'_2  and  C2'_3 
REMARK    2  A    between atoms: C2'_3  and  C1'_4 
REMARK    3  A    between atoms: C1'_4  and  C1_5 
ROOT
ATOM      1  C1  N4B d   1      -3.922   1.645   2.107  0.00  0.00    -0.075 A 
ATOM      2  C2  N4B d   1      -3.355   2.626   2.950  0.00  0.00     0.002 A 
ATOM      3  C3  N4B d   1      -4.125   3.669   3.404  0.00  0.00     0.002 A 
ATOM      4  C4  N4B d   1      -5.453   3.762   3.015  0.00  0.00    -0.004 A 
ATOM      5  C5  N4B d   1      -5.999   2.796   2.221  0.00  0.00     0.002 A 
ATOM      6  C6  N4B d   1      -5.239   1.740   1.761  0.00  0.00     0.002 A 
ENDROOT
BRANCH   1   7
ATOM      7  C1' N4B d   1      -3.098   0.533   1.517  0.00  0.00     0.057 C 
BRANCH   7   8
ATOM      8  C2' N4B d   1      -1.624   0.790   1.814  0.00  0.00     0.009 C 
BRANCH   8   9
ATOM      9  C3' N4B d   1      -1.008  -0.326   2.640  0.00  0.00     0.004 C 
ATOM     10  C4' N4B d   1      -1.830  -0.677   3.845  0.00  0.00     0.003 C 
ENDBRANCH   8   9
ENDBRANCH   7   8
ENDBRANCH   1   7
TORSDOF 3
ENDMDL
