MODEL 1
REMARK minimizedAffinity 15.9290495
REMARK minimizedRMSD -1
REMARK  3 active torsions:
REMARK  status: ('A' for Active; 'I' for Inactive)
REMARK    1  A    between atoms: C3'_2  and  C2'_3 
REMARK    2  A    between atoms: C2'_3  and  C1'_4 
REMARK    3  A    between atoms: C1'_4  and  C1_5 
ROOT
ATOM      1  C1  N4B d   1      -4.133  -0.744   3.746  0.00  0.00    -0.075 A 
ATOM      2  C2  N4B d   1      -4.876  -1.945   3.749  0.00  0.00     0.002 A 
ATOM      3  C3  N4B d   1      -4.908  -2.730   4.875  0.00  0.00     0.002 A 
ATOM      4  C4  N4B d   1      -4.194  -2.345   6.000  0.00  0.00    -0.004 A 
ATOM      5  C5  N4B d   1      -3.500  -1.171   5.998  0.00  0.00     0.002 A 
ATOM      6  C6  N4B d   1      -3.461  -0.370   4.874  0.00  0.00     0.002 A 
ENDROOT
BRANCH   1   7
ATOM      7  C1' N4B d   1      -3.998   0.103   2.510  0.00  0.00     0.057 C 
BRANCH   7   8
ATOM      8  C2' N4B d   1      -2.803   1.038   2.673  0.00  0.00     0.009 C 
BRANCH   8   9
ATOM      9  C3' N4B d   1      -1.505   0.384   2.230  0.00  0.00     0.004 C 
ATOM     10  C4' N4B d   1      -1.339   0.373   0.740  0.00  0.00     0.003 C 
ENDBRANCH   8   9
ENDBRANCH   7   8
ENDBRANCH   1   7
TORSDOF 3
ENDMDL
