MODEL 1
REMARK minimizedAffinity 15.2046328
REMARK minimizedRMSD -1
REMARK  3 active torsions:
REMARK  status: ('A' for Active; 'I' for Inactive)
REMARK    1  A    between atoms: C3'_2  and  C2'_3 
REMARK    2  A    between atoms: C2'_3  and  C1'_4 
REMARK    3  A    between atoms: C1'_4  and  C1_5 
ROOT
ATOM      1  C1  N4B d   1      -5.012  -1.805   3.782  0.00  0.00    -0.075 A 
ATOM      2  C2  N4B d   1      -4.894  -2.661   4.899  0.00  0.00     0.002 A 
ATOM      3  C3  N4B d   1      -4.178  -2.260   6.000  0.00  0.00     0.002 A 
ATOM      4  C4  N4B d   1      -3.558  -1.019   5.999  0.00  0.00    -0.004 A 
ATOM      5  C5  N4B d   1      -3.698  -0.187   4.927  0.00  0.00     0.002 A 
ATOM      6  C6  N4B d   1      -4.418  -0.576   3.816  0.00  0.00     0.002 A 
ENDROOT
BRANCH   1   7
ATOM      7  C1' N4B d   1      -5.713  -2.234   2.522  0.00  0.00     0.057 C 
BRANCH   7   8
ATOM      8  C2' N4B d   1      -5.981  -3.735   2.585  0.00  0.00     0.009 C 
BRANCH   8   9
ATOM      9  C3' N4B d   1      -4.990  -4.525   1.748  0.00  0.00     0.004 C 
ATOM     10  C4' N4B d   1      -5.326  -5.984   1.672  0.00  0.00     0.003 C 
ENDBRANCH   8   9
ENDBRANCH   7   8
ENDBRANCH   1   7
TORSDOF 3
ENDMDL
