MODEL 1
REMARK minimizedAffinity 6.18259382
REMARK minimizedRMSD -1
REMARK  3 active torsions:
REMARK  status: ('A' for Active; 'I' for Inactive)
REMARK    1  A    between atoms: C3'_2  and  C2'_3 
REMARK    2  A    between atoms: C2'_3  and  C1'_4 
REMARK    3  A    between atoms: C1'_4  and  C1_5 
ROOT
ATOM      1  C1  N4B d   1      -2.503   0.557   1.838  0.00  0.00    -0.075 A 
ATOM      2  C2  N4B d   1      -3.612  -0.318   1.843  0.00  0.00     0.002 A 
ATOM      3  C3  N4B d   1      -4.881   0.182   1.685  0.00  0.00     0.002 A 
ATOM      4  C4  N4B d   1      -5.067   1.549   1.540  0.00  0.00    -0.004 A 
ATOM      5  C5  N4B d   1      -3.989   2.384   1.511  0.00  0.00     0.002 A 
ATOM      6  C6  N4B d   1      -2.707   1.895   1.664  0.00  0.00     0.002 A 
ENDROOT
BRANCH   1   7
ATOM      7  C1' N4B d   1      -1.104   0.067   2.093  0.00  0.00     0.057 C 
BRANCH   7   8
ATOM      8  C2' N4B d   1      -0.117   1.192   1.795  0.00  0.00     0.009 C 
BRANCH   8   9
ATOM      9  C3' N4B d   1       0.958   1.303   2.863  0.00  0.00     0.004 C 
ATOM     10  C4' N4B d   1       1.486   2.698   3.013  0.00  0.00     0.003 C 
ENDBRANCH   8   9
ENDBRANCH   7   8
ENDBRANCH   1   7
TORSDOF 3
ENDMDL
