MODEL 1
REMARK minimizedAffinity 17.7287922
REMARK minimizedRMSD -1
REMARK  3 active torsions:
REMARK  status: ('A' for Active; 'I' for Inactive)
REMARK    1  A    between atoms: C3'_2  and  C2'_3 
REMARK    2  A    between atoms: C2'_3  and  C1'_4 
REMARK    3  A    between atoms: C1'_4  and  C1_5 
ROOT
ATOM      1  C1  N4B d   1      -1.609  -1.197   1.181  0.00  0.00    -0.075 A 
ATOM      2  C2  N4B d   1      -2.178  -0.042   0.602  0.00  0.00     0.002 A 
ATOM      3  C3  N4B d   1      -2.203   1.138   1.305  0.00  0.00     0.002 A 
ATOM      4  C4  N4B d   1      -1.684   1.180   2.591  0.00  0.00    -0.004 A 
ATOM      5  C5  N4B d   1      -1.113   0.066   3.133  0.00  0.00     0.002 A 
ATOM      6  C6  N4B d   1      -1.078  -1.125   2.436  0.00  0.00     0.002 A 
ENDROOT
BRANCH   1   7
ATOM      7  C1' N4B d   1      -1.635  -2.530   0.484  0.00  0.00     0.057 C 
BRANCH   7   8
ATOM      8  C2' N4B d   1      -0.219  -3.096   0.431  0.00  0.00     0.009 C 
BRANCH   8   9
ATOM      9  C3' N4B d   1       0.010  -4.153   1.498  0.00  0.00     0.004 C 
ATOM     10  C4' N4B d   1       1.446  -4.252   1.918  0.00  0.00     0.003 C 
ENDBRANCH   8   9
ENDBRANCH   7   8
ENDBRANCH   1   7
TORSDOF 3
ENDMDL
