MODEL 1
REMARK minimizedAffinity 13.5232534
REMARK minimizedRMSD -1
REMARK  3 active torsions:
REMARK  status: ('A' for Active; 'I' for Inactive)
REMARK    1  A    between atoms: C3'_2  and  C2'_3 
REMARK    2  A    between atoms: C2'_3  and  C1'_4 
REMARK    3  A    between atoms: C1'_4  and  C1_5 
ROOT
ATOM      1  C1  N4B d   1      -4.064  -0.962   1.239  0.00  0.00    -0.075 A 
ATOM      2  C2  N4B d   1      -2.802  -0.496   0.810  0.00  0.00     0.002 A 
ATOM      3  C3  N4B d   1      -2.363   0.748   1.193  0.00  0.00     0.002 A 
ATOM      4  C4  N4B d   1      -3.173   1.547   1.985  0.00  0.00    -0.004 A 
ATOM      5  C5  N4B d   1      -4.380   1.080   2.416  0.00  0.00     0.002 A 
ATOM      6  C6  N4B d   1      -4.832  -0.170   2.042  0.00  0.00     0.002 A 
ENDROOT
BRANCH   1   7
ATOM      7  C1' N4B d   1      -4.623  -2.279   0.775  0.00  0.00     0.057 C 
BRANCH   7   8
ATOM      8  C2' N4B d   1      -3.625  -2.943  -0.169  0.00  0.00     0.009 C 
BRANCH   8   9
ATOM      9  C3' N4B d   1      -2.800  -4.008   0.533  0.00  0.00     0.004 C 
ATOM     10  C4' N4B d   1      -1.386  -3.576   0.783  0.00  0.00     0.003 C 
ENDBRANCH   8   9
ENDBRANCH   7   8
ENDBRANCH   1   7
TORSDOF 3
ENDMDL
