MODEL 1
REMARK minimizedAffinity -4.5161109
REMARK minimizedRMSD -1
REMARK  0 active torsions:
REMARK  status: ('A' for Active; 'I' for Inactive)
ROOT
ATOM      1  C   UNL d   1       0.175   2.817   0.269  0.00  0.00     0.077 C 
ATOM      2  C1  UNL d   1      -0.785   1.669   0.375  0.00  0.00    -0.074 A 
ATOM      3  C2  UNL d   1      -0.344   0.348   0.244  0.00  0.00    -0.005 A 
ATOM      4  C3  UNL d   1      -1.247  -0.709   0.355  0.00  0.00     0.006 A 
ATOM      5  C4  UNL d   1      -2.598  -0.457   0.598  0.00  0.00    -0.005 A 
ATOM      6  C5  UNL d   1      -3.057   0.857   0.732  0.00  0.00    -0.074 A 
ATOM      7  C6  UNL d   1      -4.504   1.145   1.003  0.00  0.00     0.077 C 
ATOM      8  C7  UNL d   1      -2.143   1.914   0.627  0.00  0.00    -0.001 A 
ENDROOT
TORSDOF 0
ENDMDL
