MODEL 1
REMARK minimizedAffinity 4.38152742
REMARK minimizedRMSD -1
REMARK  0 active torsions:
REMARK  status: ('A' for Active; 'I' for Inactive)
ROOT
ATOM      1  C   UNL d   1      -2.775  -0.763  -2.928  0.00  0.00     0.077 C 
ATOM      2  C1  UNL d   1      -2.761  -2.193  -2.475  0.00  0.00    -0.074 A 
ATOM      3  C2  UNL d   1      -3.368  -2.572  -1.273  0.00  0.00    -0.005 A 
ATOM      4  C3  UNL d   1      -3.356  -3.907  -0.870  0.00  0.00     0.006 A 
ATOM      5  C4  UNL d   1      -2.738  -4.875  -1.663  0.00  0.00    -0.005 A 
ATOM      6  C5  UNL d   1      -2.127  -4.515  -2.868  0.00  0.00    -0.074 A 
ATOM      7  C6  UNL d   1      -1.466  -5.544  -3.737  0.00  0.00     0.077 C 
ATOM      8  C7  UNL d   1      -2.149  -3.172  -3.270  0.00  0.00    -0.001 A 
ENDROOT
TORSDOF 0
ENDMDL
