MODEL 1
REMARK minimizedAffinity 0.48728925
REMARK minimizedRMSD -1
REMARK  0 active torsions:
REMARK  status: ('A' for Active; 'I' for Inactive)
ROOT
ATOM      1  C   UNL d   1      -5.236   1.073   1.297  0.00  0.00     0.077 C 
ATOM      2  C1  UNL d   1      -3.883   1.469   0.785  0.00  0.00    -0.074 A 
ATOM      3  C2  UNL d   1      -3.723   2.595  -0.029  0.00  0.00    -0.005 A 
ATOM      4  C3  UNL d   1      -2.457   2.956  -0.490  0.00  0.00     0.006 A 
ATOM      5  C4  UNL d   1      -1.340   2.197  -0.142  0.00  0.00    -0.005 A 
ATOM      6  C5  UNL d   1      -1.479   1.068   0.672  0.00  0.00    -0.074 A 
ATOM      7  C6  UNL d   1      -0.287   0.246   1.064  0.00  0.00     0.077 C 
ATOM      8  C7  UNL d   1      -2.754   0.715   1.137  0.00  0.00    -0.001 A 
ENDROOT
TORSDOF 0
ENDMDL
