MODEL 1
REMARK minimizedAffinity -2.63699913
REMARK minimizedRMSD -1
REMARK  0 active torsions:
REMARK  status: ('A' for Active; 'I' for Inactive)
ROOT
ATOM      1  C   UNL d   1       2.871   1.118   1.370  0.00  0.00     0.077 C 
ATOM      2  C1  UNL d   1       1.426   1.158   0.971  0.00  0.00    -0.074 A 
ATOM      3  C2  UNL d   1       0.992   1.979  -0.075  0.00  0.00    -0.005 A 
ATOM      4  C3  UNL d   1      -0.354   1.999  -0.441  0.00  0.00     0.006 A 
ATOM      5  C4  UNL d   1      -1.277   1.199   0.234  0.00  0.00    -0.005 A 
ATOM      6  C5  UNL d   1      -0.861   0.372   1.282  0.00  0.00    -0.074 A 
ATOM      7  C6  UNL d   1      -1.839  -0.501   2.011  0.00  0.00     0.077 C 
ATOM      8  C7  UNL d   1       0.494   0.352   1.639  0.00  0.00    -0.001 A 
ENDROOT
TORSDOF 0
ENDMDL
