MODEL 1
REMARK minimizedAffinity -3.02802539
REMARK minimizedRMSD -1
REMARK  0 active torsions:
REMARK  status: ('A' for Active; 'I' for Inactive)
ROOT
ATOM      1  C   UNL d   1      -0.199   3.488  -0.644  0.00  0.00     0.077 C 
ATOM      2  C1  UNL d   1      -0.750   2.390   0.217  0.00  0.00    -0.074 A 
ATOM      3  C2  UNL d   1       0.069   1.707   1.122  0.00  0.00    -0.005 A 
ATOM      4  C3  UNL d   1      -0.460   0.695   1.923  0.00  0.00     0.006 A 
ATOM      5  C4  UNL d   1      -1.811   0.357   1.828  0.00  0.00    -0.005 A 
ATOM      6  C5  UNL d   1      -2.645   1.030   0.929  0.00  0.00    -0.074 A 
ATOM      7  C6  UNL d   1      -4.101   0.685   0.821  0.00  0.00     0.077 C 
ATOM      8  C7  UNL d   1      -2.107   2.050   0.133  0.00  0.00    -0.001 A 
ENDROOT
TORSDOF 0
ENDMDL
