MODEL 1
REMARK minimizedAffinity 0.213332802
REMARK minimizedRMSD -1
REMARK  0 active torsions:
REMARK  status: ('A' for Active; 'I' for Inactive)
ROOT
ATOM      1  C   UNL d   1       0.576   0.428   1.074  0.00  0.00     0.077 C 
ATOM      2  C1  UNL d   1      -0.744   1.134   0.978  0.00  0.00    -0.074 A 
ATOM      3  C2  UNL d   1      -0.808   2.527   0.873  0.00  0.00    -0.005 A 
ATOM      4  C3  UNL d   1      -2.043   3.169   0.774  0.00  0.00     0.006 A 
ATOM      5  C4  UNL d   1      -3.224   2.425   0.780  0.00  0.00    -0.005 A 
ATOM      6  C5  UNL d   1      -3.179   1.031   0.884  0.00  0.00    -0.074 A 
ATOM      7  C6  UNL d   1      -4.439   0.216   0.881  0.00  0.00     0.077 C 
ATOM      8  C7  UNL d   1      -1.935   0.393   0.975  0.00  0.00    -0.001 A 
ENDROOT
TORSDOF 0
ENDMDL
