MODEL 1
REMARK minimizedAffinity 2.83842659
REMARK minimizedRMSD -1
REMARK  0 active torsions:
REMARK  status: ('A' for Active; 'I' for Inactive)
ROOT
ATOM      1  C   UNL d   1      -1.011  -0.843   2.466  0.00  0.00     0.077 C 
ATOM      2  C1  UNL d   1      -1.097   0.400   1.631  0.00  0.00    -0.074 A 
ATOM      3  C2  UNL d   1      -0.039   0.783   0.800  0.00  0.00    -0.005 A 
ATOM      4  C3  UNL d   1      -0.138   1.936   0.022  0.00  0.00     0.006 A 
ATOM      5  C4  UNL d   1      -1.293   2.718   0.068  0.00  0.00    -0.005 A 
ATOM      6  C5  UNL d   1      -2.361   2.351   0.893  0.00  0.00    -0.074 A 
ATOM      7  C6  UNL d   1      -3.613   3.175   0.947  0.00  0.00     0.077 C 
ATOM      8  C7  UNL d   1      -2.257   1.186   1.666  0.00  0.00    -0.001 A 
ENDROOT
TORSDOF 0
ENDMDL
