MODEL 1
REMARK minimizedAffinity 6.35543013
REMARK minimizedRMSD -1
REMARK  0 active torsions:
REMARK  status: ('A' for Active; 'I' for Inactive)
ROOT
ATOM      1  C   UNL d   1       3.201  -0.697   1.150  0.00  0.00     0.077 C 
ATOM      2  C1  UNL d   1       3.123  -2.104   0.636  0.00  0.00    -0.074 A 
ATOM      3  C2  UNL d   1       4.146  -2.639  -0.153  0.00  0.00    -0.005 A 
ATOM      4  C3  UNL d   1       4.064  -3.952  -0.616  0.00  0.00     0.006 A 
ATOM      5  C4  UNL d   1       2.960  -4.743  -0.293  0.00  0.00    -0.005 A 
ATOM      6  C5  UNL d   1       1.928  -4.225   0.496  0.00  0.00    -0.074 A 
ATOM      7  C6  UNL d   1       0.739  -5.065   0.860  0.00  0.00     0.077 C 
ATOM      8  C7  UNL d   1       2.021  -2.907   0.962  0.00  0.00    -0.001 A 
ENDROOT
TORSDOF 0
ENDMDL
