MODEL 1
REMARK minimizedAffinity -2.99816084
REMARK minimizedRMSD -1
REMARK  0 active torsions:
REMARK  status: ('A' for Active; 'I' for Inactive)
ROOT
ATOM      1  C   UNL d   1       3.340   0.537  -0.421  0.00  0.00     0.077 C 
ATOM      2  C1  UNL d   1       2.372   0.942   0.650  0.00  0.00    -0.074 A 
ATOM      3  C2  UNL d   1       2.748   0.942   1.997  0.00  0.00    -0.005 A 
ATOM      4  C3  UNL d   1       1.840   1.331   2.981  0.00  0.00     0.006 A 
ATOM      5  C4  UNL d   1       0.547   1.723   2.629  0.00  0.00    -0.005 A 
ATOM      6  C5  UNL d   1       0.153   1.730   1.287  0.00  0.00    -0.074 A 
ATOM      7  C6  UNL d   1      -1.229   2.157   0.891  0.00  0.00     0.077 C 
ATOM      8  C7  UNL d   1       1.074   1.345   0.303  0.00  0.00    -0.001 A 
ENDROOT
TORSDOF 0
ENDMDL
