MODEL 1
REMARK minimizedAffinity 0.232267767
REMARK minimizedRMSD -1
REMARK  0 active torsions:
REMARK  status: ('A' for Active; 'I' for Inactive)
ROOT
ATOM      1  C   UNL d   1      -3.578  -0.483   1.163  0.00  0.00     0.077 C 
ATOM      2  C1  UNL d   1      -2.877   0.777   0.748  0.00  0.00    -0.074 A 
ATOM      3  C2  UNL d   1      -3.600   1.938   0.454  0.00  0.00    -0.005 A 
ATOM      4  C3  UNL d   1      -2.934   3.105   0.079  0.00  0.00     0.006 A 
ATOM      5  C4  UNL d   1      -1.542   3.123  -0.006  0.00  0.00    -0.005 A 
ATOM      6  C5  UNL d   1      -0.802   1.972   0.285  0.00  0.00    -0.074 A 
ATOM      7  C6  UNL d   1       0.696   1.977   0.208  0.00  0.00     0.077 C 
ATOM      8  C7  UNL d   1      -1.478   0.805   0.668  0.00  0.00    -0.001 A 
ENDROOT
TORSDOF 0
ENDMDL
