MODEL 1
REMARK minimizedAffinity -5.29352379
REMARK minimizedRMSD -1
REMARK  0 active torsions:
REMARK  status: ('A' for Active; 'I' for Inactive)
ROOT
ATOM      1  C   UNL d   1      -1.679  -1.080   1.528  0.00  0.00     0.077 C 
ATOM      2  C1  UNL d   1      -2.087   0.213   0.887  0.00  0.00    -0.074 A 
ATOM      3  C2  UNL d   1      -1.166   0.980   0.167  0.00  0.00    -0.005 A 
ATOM      4  C3  UNL d   1      -1.562   2.176  -0.432  0.00  0.00     0.006 A 
ATOM      5  C4  UNL d   1      -2.881   2.617  -0.316  0.00  0.00    -0.005 A 
ATOM      6  C5  UNL d   1      -3.816   1.863   0.399  0.00  0.00    -0.074 A 
ATOM      7  C6  UNL d   1      -5.240   2.316   0.524  0.00  0.00     0.077 C 
ATOM      8  C7  UNL d   1      -3.412   0.658   0.992  0.00  0.00    -0.001 A 
ENDROOT
TORSDOF 0
ENDMDL
