MODEL 1
REMARK minimizedAffinity 1.60192764
REMARK minimizedRMSD -1
REMARK  0 active torsions:
REMARK  status: ('A' for Active; 'I' for Inactive)
ROOT
ATOM      1  C   UNL d   1      -2.712   2.951   0.144  0.00  0.00     0.077 C 
ATOM      2  C1  UNL d   1      -1.486   2.205   0.578  0.00  0.00    -0.074 A 
ATOM      3  C2  UNL d   1      -0.613   1.649  -0.362  0.00  0.00    -0.005 A 
ATOM      4  C3  UNL d   1       0.529   0.965   0.057  0.00  0.00     0.006 A 
ATOM      5  C4  UNL d   1       0.808   0.831   1.417  0.00  0.00    -0.005 A 
ATOM      6  C5  UNL d   1      -0.053   1.381   2.372  0.00  0.00    -0.074 A 
ATOM      7  C6  UNL d   1       0.238   1.255   3.838  0.00  0.00     0.077 C 
ATOM      8  C7  UNL d   1      -1.194   2.073   1.943  0.00  0.00    -0.001 A 
ENDROOT
TORSDOF 0
ENDMDL
