MODEL 1
REMARK minimizedAffinity -2.19266796
REMARK minimizedRMSD -1
REMARK  0 active torsions:
REMARK  status: ('A' for Active; 'I' for Inactive)
ROOT
ATOM      1  C   UNL d   1      -3.764  -0.372   0.714  0.00  0.00     0.077 C 
ATOM      2  C1  UNL d   1      -2.641   0.604   0.526  0.00  0.00    -0.074 A 
ATOM      3  C2  UNL d   1      -2.868   1.859  -0.047  0.00  0.00    -0.005 A 
ATOM      4  C3  UNL d   1      -1.815   2.761  -0.206  0.00  0.00     0.006 A 
ATOM      5  C4  UNL d   1      -0.527   2.416   0.204  0.00  0.00    -0.005 A 
ATOM      6  C5  UNL d   1      -0.281   1.165   0.780  0.00  0.00    -0.074 A 
ATOM      7  C6  UNL d   1       1.096   0.783   1.235  0.00  0.00     0.077 C 
ATOM      8  C7  UNL d   1      -1.345   0.268   0.943  0.00  0.00    -0.001 A 
ENDROOT
TORSDOF 0
ENDMDL
