MODEL 1
REMARK minimizedAffinity -1.03002393
REMARK minimizedRMSD -1
REMARK  0 active torsions:
REMARK  status: ('A' for Active; 'I' for Inactive)
ROOT
ATOM      1  C   UNL d   1       2.704   1.407   2.718  0.00  0.00     0.077 C 
ATOM      2  C1  UNL d   1       1.630   1.352   1.673  0.00  0.00    -0.074 A 
ATOM      3  C2  UNL d   1       1.828   0.660   0.474  0.00  0.00    -0.005 A 
ATOM      4  C3  UNL d   1       0.816   0.610  -0.485  0.00  0.00     0.006 A 
ATOM      5  C4  UNL d   1      -0.402   1.251  -0.255  0.00  0.00    -0.005 A 
ATOM      6  C5  UNL d   1      -0.618   1.947   0.938  0.00  0.00    -0.074 A 
ATOM      7  C6  UNL d   1      -1.925   2.633   1.205  0.00  0.00     0.077 C 
ATOM      8  C7  UNL d   1       0.401   1.987   1.900  0.00  0.00    -0.001 A 
ENDROOT
TORSDOF 0
ENDMDL
