MODEL 1
REMARK minimizedAffinity -5.50413799
REMARK minimizedRMSD -1
REMARK  1 active torsions:
REMARK  status: ('A' for Active; 'I' for Inactive)
REMARK    1  A    between atoms: C1_2  and  C2_3 
ROOT
ATOM      1  C2  UNL d   1      -0.228   0.678  -0.120  0.00  0.00    -0.077 A 
ATOM      2  C3  UNL d   1      -1.161   1.107   0.835  0.00  0.00     0.002 A 
ATOM      3  C4  UNL d   1      -1.354   2.470   1.070  0.00  0.00     0.002 A 
ATOM      4  C5  UNL d   1      -0.622   3.414   0.353  0.00  0.00    -0.004 A 
ATOM      5  C6  UNL d   1       0.309   2.997  -0.597  0.00  0.00     0.002 A 
ATOM      6  C7  UNL d   1       0.505   1.635  -0.833  0.00  0.00     0.002 A 
ENDROOT
BRANCH   1   7
ATOM      7  C1  UNL d   1      -0.054  -0.790  -0.410  0.00  0.00     0.055 C 
ATOM      8  C   UNL d   1       1.092  -1.381   0.398  0.00  0.00     0.019 C 
ENDBRANCH   1   7
TORSDOF 1
ENDMDL
