MODEL 1
REMARK minimizedAffinity -2.40944386
REMARK minimizedRMSD -1
REMARK  1 active torsions:
REMARK  status: ('A' for Active; 'I' for Inactive)
REMARK    1  A    between atoms: C1_2  and  C2_3 
ROOT
ATOM      1  C2  UNL d   1       0.239   0.909  -0.157  0.00  0.00    -0.077 A 
ATOM      2  C3  UNL d   1       0.284   2.296  -0.356  0.00  0.00     0.002 A 
ATOM      3  C4  UNL d   1      -0.696   3.121   0.199  0.00  0.00     0.002 A 
ATOM      4  C5  UNL d   1      -1.726   2.569   0.958  0.00  0.00    -0.004 A 
ATOM      5  C6  UNL d   1      -1.781   1.190   1.159  0.00  0.00     0.002 A 
ATOM      6  C7  UNL d   1      -0.802   0.364   0.605  0.00  0.00     0.002 A 
ENDROOT
BRANCH   1   7
ATOM      7  C1  UNL d   1       1.323   0.022  -0.713  0.00  0.00     0.055 C 
ATOM      8  C   UNL d   1       2.616   0.168   0.076  0.00  0.00     0.019 C 
ENDBRANCH   1   7
TORSDOF 1
ENDMDL
