MODEL 1
REMARK minimizedAffinity -3.28416109
REMARK minimizedRMSD -1
REMARK  1 active torsions:
REMARK  status: ('A' for Active; 'I' for Inactive)
REMARK    1  A    between atoms: C1_2  and  C2_3 
ROOT
ATOM      1  C2  UNL d   1       0.189  -1.129  -0.022  0.00  0.00    -0.077 A 
ATOM      2  C3  UNL d   1      -0.392   0.134  -0.204  0.00  0.00     0.002 A 
ATOM      3  C4  UNL d   1       0.410   1.268  -0.344  0.00  0.00     0.002 A 
ATOM      4  C5  UNL d   1       1.798   1.149  -0.310  0.00  0.00    -0.004 A 
ATOM      5  C6  UNL d   1       2.386  -0.102  -0.127  0.00  0.00     0.002 A 
ATOM      6  C7  UNL d   1       1.585  -1.236   0.015  0.00  0.00     0.002 A 
ENDROOT
BRANCH   1   7
ATOM      7  C1  UNL d   1      -0.674  -2.359   0.081  0.00  0.00     0.055 C 
ATOM      8  C   UNL d   1      -0.937  -2.967  -1.289  0.00  0.00     0.019 C 
ENDBRANCH   1   7
TORSDOF 1
ENDMDL
