MODEL 1
REMARK minimizedAffinity -4.99082232
REMARK minimizedRMSD -1
REMARK  1 active torsions:
REMARK  status: ('A' for Active; 'I' for Inactive)
REMARK    1  A    between atoms: C1_2  and  C2_3 
ROOT
ATOM      1  C2  UNL d   1      -0.178  -0.351   0.142  0.00  0.00    -0.077 A 
ATOM      2  C3  UNL d   1       0.688   0.525  -0.527  0.00  0.00     0.002 A 
ATOM      3  C4  UNL d   1       0.496   1.906  -0.448  0.00  0.00     0.002 A 
ATOM      4  C5  UNL d   1      -0.559   2.422   0.302  0.00  0.00    -0.004 A 
ATOM      5  C6  UNL d   1      -1.427   1.559   0.969  0.00  0.00     0.002 A 
ATOM      6  C7  UNL d   1      -1.237   0.179   0.891  0.00  0.00     0.002 A 
ENDROOT
BRANCH   1   7
ATOM      7  C1  UNL d   1       0.058  -1.838   0.099  0.00  0.00     0.055 C 
ATOM      8  C   UNL d   1      -0.443  -2.440  -1.206  0.00  0.00     0.019 C 
ENDBRANCH   1   7
TORSDOF 1
ENDMDL
