MODEL 1
REMARK minimizedAffinity -2.8441
REMARK minimizedRMSD -1
REMARK  1 active torsions:
REMARK  status: ('A' for Active; 'I' for Inactive)
REMARK    1  A    between atoms: C1_2  and  C2_3 
ROOT
ATOM      1  C2  UNL d   1      -1.516  -4.846  -1.686  0.00  0.00    -0.077 A 
ATOM      2  C3  UNL d   1      -1.509  -3.461  -1.902  0.00  0.00     0.002 A 
ATOM      3  C4  UNL d   1      -0.583  -2.887  -2.774  0.00  0.00     0.002 A 
ATOM      4  C5  UNL d   1       0.340  -3.691  -3.441  0.00  0.00    -0.004 A 
ATOM      5  C6  UNL d   1       0.342  -5.069  -3.231  0.00  0.00     0.002 A 
ATOM      6  C7  UNL d   1      -0.583  -5.645  -2.358  0.00  0.00     0.002 A 
ENDROOT
BRANCH   1   7
ATOM      7  C1  UNL d   1      -2.547  -5.473  -0.783  0.00  0.00     0.055 C 
ATOM      8  C   UNL d   1      -2.938  -4.531   0.347  0.00  0.00     0.019 C 
ENDBRANCH   1   7
TORSDOF 1
ENDMDL
