MODEL 1
REMARK minimizedAffinity -3.76987767
REMARK minimizedRMSD -1
REMARK  1 active torsions:
REMARK  status: ('A' for Active; 'I' for Inactive)
REMARK    1  A    between atoms: C1_2  and  C2_3 
ROOT
ATOM      1  C2  UNL d   1      -0.357  -0.350   0.027  0.00  0.00    -0.077 A 
ATOM      2  C3  UNL d   1       0.749   0.411  -0.378  0.00  0.00     0.002 A 
ATOM      3  C4  UNL d   1       0.693   1.806  -0.355  0.00  0.00     0.002 A 
ATOM      4  C5  UNL d   1      -0.465   2.452   0.076  0.00  0.00    -0.004 A 
ATOM      5  C6  UNL d   1      -1.570   1.704   0.478  0.00  0.00     0.002 A 
ATOM      6  C7  UNL d   1      -1.516   0.309   0.455  0.00  0.00     0.002 A 
ENDROOT
BRANCH   1   7
ATOM      7  C1  UNL d   1      -0.281  -1.854   0.050  0.00  0.00     0.055 C 
ATOM      8  C   UNL d   1       0.099  -2.410  -1.315  0.00  0.00     0.019 C 
ENDBRANCH   1   7
TORSDOF 1
ENDMDL
