MODEL 1
REMARK minimizedAffinity -4.83799124
REMARK minimizedRMSD -1
REMARK  1 active torsions:
REMARK  status: ('A' for Active; 'I' for Inactive)
REMARK    1  A    between atoms: C1_2  and  C2_3 
ROOT
ATOM      1  C2  UNL d   1      -1.929  -3.602  -1.235  0.00  0.00    -0.077 A 
ATOM      2  C3  UNL d   1      -1.454  -3.016  -0.054  0.00  0.00     0.002 A 
ATOM      3  C4  UNL d   1      -0.331  -2.187  -0.079  0.00  0.00     0.002 A 
ATOM      4  C5  UNL d   1       0.323  -1.933  -1.283  0.00  0.00    -0.004 A 
ATOM      5  C6  UNL d   1      -0.140  -2.513  -2.463  0.00  0.00     0.002 A 
ATOM      6  C7  UNL d   1      -1.262  -3.343  -2.440  0.00  0.00     0.002 A 
ENDROOT
BRANCH   1   7
ATOM      7  C1  UNL d   1      -3.169  -4.457  -1.218  0.00  0.00     0.055 C 
ATOM      8  C   UNL d   1      -3.533  -4.877   0.199  0.00  0.00     0.019 C 
ENDBRANCH   1   7
TORSDOF 1
ENDMDL
