MODEL 1
REMARK minimizedAffinity -4.44548082
REMARK minimizedRMSD -1
REMARK  1 active torsions:
REMARK  status: ('A' for Active; 'I' for Inactive)
REMARK    1  A    between atoms: C1_2  and  C2_3 
ROOT
ATOM      1  C2  UNL d   1       0.234  -0.781  -0.104  0.00  0.00    -0.077 A 
ATOM      2  C3  UNL d   1      -0.976  -0.212   0.319  0.00  0.00     0.002 A 
ATOM      3  C4  UNL d   1      -1.141   1.174   0.319  0.00  0.00     0.002 A 
ATOM      4  C5  UNL d   1      -0.104   2.002  -0.105  0.00  0.00    -0.004 A 
ATOM      5  C6  UNL d   1       1.103   1.445  -0.525  0.00  0.00     0.002 A 
ATOM      6  C7  UNL d   1       1.271   0.060  -0.525  0.00  0.00     0.002 A 
ENDROOT
BRANCH   1   7
ATOM      7  C1  UNL d   1       0.397  -2.278  -0.152  0.00  0.00     0.055 C 
ATOM      8  C   UNL d   1      -0.412  -2.887  -1.288  0.00  0.00     0.019 C 
ENDBRANCH   1   7
TORSDOF 1
ENDMDL
