MODEL 1
REMARK minimizedAffinity -3.99195766
REMARK minimizedRMSD -1
REMARK  1 active torsions:
REMARK  status: ('A' for Active; 'I' for Inactive)
REMARK    1  A    between atoms: C1_2  and  C2_3 
ROOT
ATOM      1  C2  UNL d   1      -0.807   0.360   0.615  0.00  0.00    -0.077 A 
ATOM      2  C3  UNL d   1      -0.215   1.591   0.930  0.00  0.00     0.002 A 
ATOM      3  C4  UNL d   1      -1.006   2.722   1.144  0.00  0.00     0.002 A 
ATOM      4  C5  UNL d   1      -2.393   2.631   1.049  0.00  0.00    -0.004 A 
ATOM      5  C6  UNL d   1      -2.992   1.412   0.735  0.00  0.00     0.002 A 
ATOM      6  C7  UNL d   1      -2.203   0.281   0.520  0.00  0.00     0.002 A 
ENDROOT
BRANCH   1   7
ATOM      7  C1  UNL d   1       0.041  -0.871   0.432  0.00  0.00     0.055 C 
ATOM      8  C   UNL d   1      -0.551  -1.801  -0.616  0.00  0.00     0.019 C 
ENDBRANCH   1   7
TORSDOF 1
ENDMDL
