MODEL 1
REMARK minimizedAffinity -3.32770419
REMARK minimizedRMSD -1
REMARK  1 active torsions:
REMARK  status: ('A' for Active; 'I' for Inactive)
REMARK    1  A    between atoms: C1_2  and  C2_3 
ROOT
ATOM      1  C2  UNL d   1       0.433  -0.765  -0.068  0.00  0.00    -0.077 A 
ATOM      2  C3  UNL d   1      -0.287   0.428  -0.218  0.00  0.00     0.002 A 
ATOM      3  C4  UNL d   1       0.377   1.656  -0.247  0.00  0.00     0.002 A 
ATOM      4  C5  UNL d   1       1.765   1.702  -0.131  0.00  0.00    -0.004 A 
ATOM      5  C6  UNL d   1       2.490   0.521   0.021  0.00  0.00     0.002 A 
ATOM      6  C7  UNL d   1       1.828  -0.707   0.051  0.00  0.00     0.002 A 
ENDROOT
BRANCH   1   7
ATOM      7  C1  UNL d   1      -0.277  -2.093  -0.086  0.00  0.00     0.055 C 
ATOM      8  C   UNL d   1      -0.414  -2.629  -1.504  0.00  0.00     0.019 C 
ENDBRANCH   1   7
TORSDOF 1
ENDMDL
