MODEL 1
REMARK minimizedAffinity -3.571877
REMARK minimizedRMSD -1
REMARK  1 active torsions:
REMARK  status: ('A' for Active; 'I' for Inactive)
REMARK    1  A    between atoms: C1_2  and  C2_3 
ROOT
ATOM      1  C2  UNL d   1       0.705   1.262  -0.658  0.00  0.00    -0.077 A 
ATOM      2  C3  UNL d   1      -0.302   0.309  -0.451  0.00  0.00     0.002 A 
ATOM      3  C4  UNL d   1      -0.003  -0.914   0.155  0.00  0.00     0.002 A 
ATOM      4  C5  UNL d   1       1.300  -1.192   0.560  0.00  0.00    -0.004 A 
ATOM      5  C6  UNL d   1       2.309  -0.252   0.356  0.00  0.00     0.002 A 
ATOM      6  C7  UNL d   1       2.013   0.970  -0.250  0.00  0.00     0.002 A 
ENDROOT
BRANCH   1   7
ATOM      7  C1  UNL d   1       0.376   2.600  -1.266  0.00  0.00     0.055 C 
ATOM      8  C   UNL d   1       0.365   3.699  -0.213  0.00  0.00     0.019 C 
ENDBRANCH   1   7
TORSDOF 1
ENDMDL
