MODEL 1
REMARK minimizedAffinity -1.96101701
REMARK minimizedRMSD -1
REMARK  3 active torsions:
REMARK  status: ('A' for Active; 'I' for Inactive)
REMARK    1  A    between atoms: C3'_2  and  C2'_3 
REMARK    2  A    between atoms: C2'_3  and  C1'_4 
REMARK    3  A    between atoms: C1'_4  and  C1_5 
ROOT
ATOM      1  C1  N4B d   1       0.262   3.840  -5.909  0.00  0.00    -0.075 A 
ATOM      2  C2  N4B d   1      -0.159   5.188  -5.944  0.00  0.00     0.002 A 
ATOM      3  C3  N4B d   1      -1.499   5.488  -5.939  0.00  0.00     0.002 A 
ATOM      4  C4  N4B d   1      -2.432   4.462  -5.920  0.00  0.00    -0.004 A 
ATOM      5  C5  N4B d   1      -2.017   3.164  -5.861  0.00  0.00     0.002 A 
ATOM      6  C6  N4B d   1      -0.673   2.847  -5.861  0.00  0.00     0.002 A 
ENDROOT
BRANCH   1   7
ATOM      7  C1' N4B d   1       1.715   3.460  -6.000  0.00  0.00     0.057 C 
BRANCH   7   8
ATOM      8  C2' N4B d   1       2.573   4.699  -5.761  0.00  0.00     0.009 C 
BRANCH   8   9
ATOM      9  C3' N4B d   1       4.048   4.422  -5.993  0.00  0.00     0.004 C 
ATOM     10  C4' N4B d   1       4.881   5.669  -5.991  0.00  0.00     0.003 C 
ENDBRANCH   8   9
ENDBRANCH   7   8
ENDBRANCH   1   7
TORSDOF 3
ENDMDL
