MODEL 1
REMARK minimizedAffinity 4.42375803
REMARK minimizedRMSD -1
REMARK  3 active torsions:
REMARK  status: ('A' for Active; 'I' for Inactive)
REMARK    1  A    between atoms: C3'_2  and  C2'_3 
REMARK    2  A    between atoms: C2'_3  and  C1'_4 
REMARK    3  A    between atoms: C1'_4  and  C1_5 
ROOT
ATOM      1  C1  N4B d   1      -0.560   0.207   0.076  0.00  0.00    -0.075 A 
ATOM      2  C2  N4B d   1      -0.259   0.931   1.251  0.00  0.00     0.002 A 
ATOM      3  C3  N4B d   1       0.470   2.092   1.175  0.00  0.00     0.002 A 
ATOM      4  C4  N4B d   1       0.924   2.537  -0.058  0.00  0.00    -0.004 A 
ATOM      5  C5  N4B d   1       0.608   1.845  -1.191  0.00  0.00     0.002 A 
ATOM      6  C6  N4B d   1      -0.127   0.679  -1.129  0.00  0.00     0.002 A 
ENDROOT
BRANCH   1   7
ATOM      7  C1' N4B d   1      -1.280  -1.113   0.119  0.00  0.00     0.057 C 
BRANCH   7   8
ATOM      8  C2' N4B d   1      -1.944  -1.365  -1.232  0.00  0.00     0.009 C 
BRANCH   8   9
ATOM      9  C3' N4B d   1      -2.022  -2.846  -1.559  0.00  0.00     0.004 C 
ATOM     10  C4' N4B d   1      -3.094  -3.556  -0.787  0.00  0.00     0.003 C 
ENDBRANCH   8   9
ENDBRANCH   7   8
ENDBRANCH   1   7
TORSDOF 3
ENDMDL
