MODEL 1
REMARK minimizedAffinity -1.13730228
REMARK minimizedRMSD -1
REMARK  3 active torsions:
REMARK  status: ('A' for Active; 'I' for Inactive)
REMARK    1  A    between atoms: C3'_2  and  C2'_3 
REMARK    2  A    between atoms: C2'_3  and  C1'_4 
REMARK    3  A    between atoms: C1'_4  and  C1_5 
ROOT
ATOM      1  C1  N4B d   1      -0.658   5.158  -5.848  0.00  0.00    -0.075 A 
ATOM      2  C2  N4B d   1      -1.843   5.926  -5.873  0.00  0.00     0.002 A 
ATOM      3  C3  N4B d   1      -3.066   5.302  -5.884  0.00  0.00     0.002 A 
ATOM      4  C4  N4B d   1      -3.129   3.916  -5.888  0.00  0.00    -0.004 A 
ATOM      5  C5  N4B d   1      -1.980   3.182  -5.837  0.00  0.00     0.002 A 
ATOM      6  C6  N4B d   1      -0.744   3.796  -5.823  0.00  0.00     0.002 A 
ENDROOT
BRANCH   1   7
ATOM      7  C1' N4B d   1       0.702   5.795  -5.923  0.00  0.00     0.057 C 
BRANCH   7   8
ATOM      8  C2' N4B d   1       1.767   4.702  -5.942  0.00  0.00     0.009 C 
BRANCH   8   9
ATOM      9  C3' N4B d   1       3.172   5.277  -5.970  0.00  0.00     0.004 C 
ATOM     10  C4' N4B d   1       4.233   4.218  -5.984  0.00  0.00     0.003 C 
ENDBRANCH   8   9
ENDBRANCH   7   8
ENDBRANCH   1   7
TORSDOF 3
ENDMDL
