MODEL 1
REMARK minimizedAffinity -2.92046809
REMARK minimizedRMSD -1
REMARK  3 active torsions:
REMARK  status: ('A' for Active; 'I' for Inactive)
REMARK    1  A    between atoms: C3'_2  and  C2'_3 
REMARK    2  A    between atoms: C2'_3  and  C1'_4 
REMARK    3  A    between atoms: C1'_4  and  C1_5 
ROOT
ATOM      1  C1  N4B d   1       0.787   4.901  -5.936  0.00  0.00    -0.075 A 
ATOM      2  C2  N4B d   1      -0.452   5.578  -5.909  0.00  0.00     0.002 A 
ATOM      3  C3  N4B d   1      -1.625   4.864  -5.931  0.00  0.00     0.002 A 
ATOM      4  C4  N4B d   1      -1.583   3.479  -5.999  0.00  0.00    -0.004 A 
ATOM      5  C5  N4B d   1      -0.382   2.832  -6.000  0.00  0.00     0.002 A 
ATOM      6  C6  N4B d   1       0.804   3.537  -5.974  0.00  0.00     0.002 A 
ENDROOT
BRANCH   1   7
ATOM      7  C1' N4B d   1       2.095   5.642  -6.000  0.00  0.00     0.057 C 
BRANCH   7   8
ATOM      8  C2' N4B d   1       3.230   4.685  -5.645  0.00  0.00     0.009 C 
BRANCH   8   9
ATOM      9  C3' N4B d   1       4.591   5.350  -5.763  0.00  0.00     0.004 C 
ATOM     10  C4' N4B d   1       5.638   4.683  -4.921  0.00  0.00     0.003 C 
ENDBRANCH   8   9
ENDBRANCH   7   8
ENDBRANCH   1   7
TORSDOF 3
ENDMDL
