MODEL 1
REMARK minimizedAffinity -3.00919867
REMARK minimizedRMSD -1
REMARK  3 active torsions:
REMARK  status: ('A' for Active; 'I' for Inactive)
REMARK    1  A    between atoms: C3'_2  and  C2'_3 
REMARK    2  A    between atoms: C2'_3  and  C1'_4 
REMARK    3  A    between atoms: C1'_4  and  C1_5 
ROOT
ATOM      1  C1  N4B d   1       1.394   4.505  -6.000  0.00  0.00    -0.075 A 
ATOM      2  C2  N4B d   1       1.357   3.094  -5.998  0.00  0.00     0.002 A 
ATOM      3  C3  N4B d   1       0.150   2.438  -5.973  0.00  0.00     0.002 A 
ATOM      4  C4  N4B d   1      -1.027   3.170  -5.931  0.00  0.00    -0.004 A 
ATOM      5  C5  N4B d   1      -0.983   4.534  -5.958  0.00  0.00     0.002 A 
ATOM      6  C6  N4B d   1       0.222   5.205  -5.988  0.00  0.00     0.002 A 
ENDROOT
BRANCH   1   7
ATOM      7  C1' N4B d   1       2.690   5.266  -5.940  0.00  0.00     0.057 C 
BRANCH   7   8
ATOM      8  C2' N4B d   1       3.833   4.288  -5.687  0.00  0.00     0.009 C 
BRANCH   8   9
ATOM      9  C3' N4B d   1       5.181   4.988  -5.640  0.00  0.00     0.004 C 
ATOM     10  C4' N4B d   1       6.000   4.591  -4.448  0.00  0.00     0.003 C 
ENDBRANCH   8   9
ENDBRANCH   7   8
ENDBRANCH   1   7
TORSDOF 3
ENDMDL
