MODEL 1
REMARK minimizedAffinity -2.53750706
REMARK minimizedRMSD -1
REMARK  3 active torsions:
REMARK  status: ('A' for Active; 'I' for Inactive)
REMARK    1  A    between atoms: C3'_2  and  C2'_3 
REMARK    2  A    between atoms: C2'_3  and  C1'_4 
REMARK    3  A    between atoms: C1'_4  and  C1_5 
ROOT
ATOM      1  C1  N4B d   1      -1.949   4.131  -5.792  0.00  0.00    -0.075 A 
ATOM      2  C2  N4B d   1      -2.185   5.519  -5.895  0.00  0.00     0.002 A 
ATOM      3  C3  N4B d   1      -3.472   5.998  -5.904  0.00  0.00     0.002 A 
ATOM      4  C4  N4B d   1      -4.535   5.110  -5.832  0.00  0.00    -0.004 A 
ATOM      5  C5  N4B d   1      -4.298   3.772  -5.707  0.00  0.00     0.002 A 
ATOM      6  C6  N4B d   1      -3.009   3.277  -5.691  0.00  0.00     0.002 A 
ENDROOT
BRANCH   1   7
ATOM      7  C1' N4B d   1      -0.562   3.553  -5.863  0.00  0.00     0.057 C 
BRANCH   7   8
ATOM      8  C2' N4B d   1       0.454   4.692  -5.871  0.00  0.00     0.009 C 
BRANCH   8   9
ATOM      9  C3' N4B d   1       1.879   4.181  -5.998  0.00  0.00     0.004 C 
ATOM     10  C4' N4B d   1       2.895   5.283  -5.982  0.00  0.00     0.003 C 
ENDBRANCH   8   9
ENDBRANCH   7   8
ENDBRANCH   1   7
TORSDOF 3
ENDMDL
