MODEL 1
REMARK minimizedAffinity -1.63080013
REMARK minimizedRMSD -1
REMARK  3 active torsions:
REMARK  status: ('A' for Active; 'I' for Inactive)
REMARK    1  A    between atoms: C3'_2  and  C2'_3 
REMARK    2  A    between atoms: C2'_3  and  C1'_4 
REMARK    3  A    between atoms: C1'_4  and  C1_5 
ROOT
ATOM      1  C1  N4B d   1      -0.069   3.831  -5.905  0.00  0.00    -0.075 A 
ATOM      2  C2  N4B d   1      -0.520   5.168  -5.851  0.00  0.00     0.002 A 
ATOM      3  C3  N4B d   1      -1.867   5.439  -5.860  0.00  0.00     0.002 A 
ATOM      4  C4  N4B d   1      -2.776   4.396  -5.942  0.00  0.00    -0.004 A 
ATOM      5  C5  N4B d   1      -2.333   3.106  -5.968  0.00  0.00     0.002 A 
ATOM      6  C6  N4B d   1      -0.983   2.818  -5.956  0.00  0.00     0.002 A 
ENDROOT
BRANCH   1   7
ATOM      7  C1' N4B d   1       1.394   3.489  -5.985  0.00  0.00     0.057 C 
BRANCH   7   8
ATOM      8  C2' N4B d   1       2.209   4.778  -5.997  0.00  0.00     0.009 C 
BRANCH   8   9
ATOM      9  C3' N4B d   1       3.698   4.510  -5.863  0.00  0.00     0.004 C 
ATOM     10  C4' N4B d   1       4.525   5.757  -5.966  0.00  0.00     0.003 C 
ENDBRANCH   8   9
ENDBRANCH   7   8
ENDBRANCH   1   7
TORSDOF 3
ENDMDL
