MODEL 1
REMARK minimizedAffinity -0.869822919
REMARK minimizedRMSD -1
REMARK  3 active torsions:
REMARK  status: ('A' for Active; 'I' for Inactive)
REMARK    1  A    between atoms: C3'_2  and  C2'_3 
REMARK    2  A    between atoms: C2'_3  and  C1'_4 
REMARK    3  A    between atoms: C1'_4  and  C1_5 
ROOT
ATOM      1  C1  N4B d   1      -0.105   3.578  -5.758  0.00  0.00    -0.075 A 
ATOM      2  C2  N4B d   1      -0.199   4.985  -5.693  0.00  0.00     0.002 A 
ATOM      3  C3  N4B d   1      -1.430   5.589  -5.627  0.00  0.00     0.002 A 
ATOM      4  C4  N4B d   1      -2.578   4.811  -5.644  0.00  0.00    -0.004 A 
ATOM      5  C5  N4B d   1      -2.478   3.451  -5.682  0.00  0.00     0.002 A 
ATOM      6  C6  N4B d   1      -1.247   2.830  -5.744  0.00  0.00     0.002 A 
ENDROOT
BRANCH   1   7
ATOM      7  C1' N4B d   1       1.216   2.876  -5.918  0.00  0.00     0.057 C 
BRANCH   7   8
ATOM      8  C2' N4B d   1       2.342   3.902  -5.828  0.00  0.00     0.009 C 
BRANCH   8   9
ATOM      9  C3' N4B d   1       3.710   3.257  -5.964  0.00  0.00     0.004 C 
ATOM     10  C4' N4B d   1       4.827   4.258  -5.966  0.00  0.00     0.003 C 
ENDBRANCH   8   9
ENDBRANCH   7   8
ENDBRANCH   1   7
TORSDOF 3
ENDMDL
