MODEL 1
REMARK minimizedAffinity -3.56320333
REMARK minimizedRMSD -1
REMARK  3 active torsions:
REMARK  status: ('A' for Active; 'I' for Inactive)
REMARK    1  A    between atoms: C3'_2  and  C2'_3 
REMARK    2  A    between atoms: C2'_3  and  C1'_4 
REMARK    3  A    between atoms: C1'_4  and  C1_5 
ROOT
ATOM      1  C1  N4B d   1       0.816   4.930  -6.000  0.00  0.00    -0.075 A 
ATOM      2  C2  N4B d   1       0.951   3.525  -5.986  0.00  0.00     0.002 A 
ATOM      3  C3  N4B d   1      -0.165   2.728  -5.918  0.00  0.00     0.002 A 
ATOM      4  C4  N4B d   1      -1.421   3.312  -5.844  0.00  0.00    -0.004 A 
ATOM      5  C5  N4B d   1      -1.544   4.670  -5.884  0.00  0.00     0.002 A 
ATOM      6  C6  N4B d   1      -0.431   5.483  -5.956  0.00  0.00     0.002 A 
ENDROOT
BRANCH   1   7
ATOM      7  C1' N4B d   1       2.012   5.843  -5.987  0.00  0.00     0.057 C 
BRANCH   7   8
ATOM      8  C2' N4B d   1       3.284   5.002  -6.000  0.00  0.00     0.009 C 
BRANCH   8   9
ATOM      9  C3' N4B d   1       4.532   5.857  -5.861  0.00  0.00     0.004 C 
ATOM     10  C4' N4B d   1       5.680   5.114  -5.245  0.00  0.00     0.003 C 
ENDBRANCH   8   9
ENDBRANCH   7   8
ENDBRANCH   1   7
TORSDOF 3
ENDMDL
