MODEL 1
REMARK minimizedAffinity 0.342276365
REMARK minimizedRMSD -1
REMARK  1 active torsions:
REMARK  status: ('A' for Active; 'I' for Inactive)
REMARK    1  A    between atoms: N_2  and  C1_3 
ROOT
ATOM      1  C1  UNL d   1      -0.178  -0.740   0.707  0.00  0.00     0.143 A 
ATOM      2  C2  UNL d   1      -1.379  -0.067   0.456  0.00  0.00    -0.057 A 
ATOM      3  C3  UNL d   1      -2.443  -0.117   1.364  0.00  0.00     0.033 A 
ATOM      4  C4  UNL d   1      -2.335  -0.867   2.531  0.00  0.00    -0.042 A 
ATOM      5  C5  UNL d   1      -1.161  -1.564   2.789  0.00  0.00     0.033 A 
ATOM      6  C6  UNL d   1      -0.099  -1.505   1.881  0.00  0.00    -0.057 A 
ENDROOT
BRANCH   1   7
ATOM      7  N   UNL d   1       0.879  -0.809  -0.203  0.00  0.00    -0.732 N 
ATOM      8  C   UNL d   1       1.704  -1.995  -0.284  0.00  0.00     0.284 C 
ATOM      9  H3  UNL d   1       0.643  -0.405  -1.105  0.00  0.00     0.395 HD
ENDBRANCH   1   7
TORSDOF 1
ENDMDL
