MODEL 1
REMARK minimizedAffinity 2.01776719
REMARK minimizedRMSD -1
REMARK  1 active torsions:
REMARK  status: ('A' for Active; 'I' for Inactive)
REMARK    1  A    between atoms: N_2  and  C1_3 
ROOT
ATOM      1  C1  UNL d   1      -1.671  -0.390   1.075  0.00  0.00     0.143 A 
ATOM      2  C2  UNL d   1      -2.257  -1.657   1.167  0.00  0.00    -0.057 A 
ATOM      3  C3  UNL d   1      -1.887  -2.557   2.173  0.00  0.00     0.033 A 
ATOM      4  C4  UNL d   1      -0.900  -2.215   3.092  0.00  0.00    -0.042 A 
ATOM      5  C5  UNL d   1      -0.287  -0.971   3.005  0.00  0.00     0.033 A 
ATOM      6  C6  UNL d   1      -0.665  -0.074   2.002  0.00  0.00    -0.057 A 
ENDROOT
BRANCH   1   7
ATOM      7  N   UNL d   1      -1.925   0.512   0.039  0.00  0.00    -0.732 N 
ATOM      8  C   UNL d   1      -1.630   0.159  -1.334  0.00  0.00     0.284 C 
ATOM      9  H3  UNL d   1      -2.805   1.006   0.161  0.00  0.00     0.395 HD
ENDBRANCH   1   7
TORSDOF 1
ENDMDL
