MODEL 1
REMARK minimizedAffinity 2.52206779
REMARK minimizedRMSD -1
REMARK  1 active torsions:
REMARK  status: ('A' for Active; 'I' for Inactive)
REMARK    1  A    between atoms: N_2  and  C1_3 
ROOT
ATOM      1  C1  UNL d   1       3.137  -3.908  -0.082  0.00  0.00     0.143 A 
ATOM      2  C2  UNL d   1       4.279  -4.716  -0.064  0.00  0.00    -0.057 A 
ATOM      3  C3  UNL d   1       4.416  -5.759   0.860  0.00  0.00     0.033 A 
ATOM      4  C4  UNL d   1       3.423  -5.994   1.805  0.00  0.00    -0.042 A 
ATOM      5  C5  UNL d   1       2.290  -5.189   1.821  0.00  0.00     0.033 A 
ATOM      6  C6  UNL d   1       2.156  -4.153   0.891  0.00  0.00    -0.057 A 
ENDROOT
BRANCH   1   7
ATOM      7  N   UNL d   1       2.985  -2.794  -0.911  0.00  0.00    -0.732 N 
ATOM      8  C   UNL d   1       2.163  -1.676  -0.501  0.00  0.00     0.284 C 
ATOM      9  H3  UNL d   1       3.856  -2.526  -1.364  0.00  0.00     0.395 HD
ENDBRANCH   1   7
TORSDOF 1
ENDMDL
