MODEL 1
REMARK minimizedAffinity -4.85395527
REMARK minimizedRMSD -1
REMARK  0 active torsions:
REMARK  status: ('A' for Active; 'I' for Inactive)
ROOT
ATOM      1  C   UNL d   1      -0.662   2.154   0.335  0.00  0.00     0.020 A 
ATOM      2  C1  UNL d   1       0.309   1.420  -0.346  0.00  0.00     0.020 A 
ATOM      3  C2  UNL d   1       0.387   0.036  -0.171  0.00  0.00     0.034 A 
ATOM      4  C3  UNL d   1      -0.506  -0.617   0.686  0.00  0.00     0.017 A 
ATOM      5  C4  UNL d   1      -1.480   0.121   1.368  0.00  0.00     0.017 A 
ATOM      6  C5  UNL d   1      -1.554   1.506   1.190  0.00  0.00     0.034 A 
ATOM      7 Cl   UNL d   1      -2.616  -0.615   2.442  0.00  0.00    -0.070 Cl
ATOM      8 Cl1  UNL d   1      -0.351  -2.330   0.854  0.00  0.00    -0.070 Cl
ENDROOT
TORSDOF 0
ENDMDL
