MODEL 1
REMARK minimizedAffinity -0.938309312
REMARK minimizedRMSD -1
REMARK  0 active torsions:
REMARK  status: ('A' for Active; 'I' for Inactive)
ROOT
ATOM      1  C   UNL d   1      -0.505  -2.526   1.617  0.00  0.00     0.020 A 
ATOM      2  C1  UNL d   1       0.507  -2.491   0.659  0.00  0.00     0.020 A 
ATOM      3  C2  UNL d   1       0.754  -1.315  -0.053  0.00  0.00     0.034 A 
ATOM      4  C3  UNL d   1      -0.012  -0.170   0.192  0.00  0.00     0.017 A 
ATOM      5  C4  UNL d   1      -1.028  -0.206   1.154  0.00  0.00     0.017 A 
ATOM      6  C5  UNL d   1      -1.270  -1.386   1.864  0.00  0.00     0.034 A 
ATOM      7 Cl   UNL d   1      -2.015   1.167   1.512  0.00  0.00    -0.070 Cl
ATOM      8 Cl1  UNL d   1       0.348   1.249  -0.725  0.00  0.00    -0.070 Cl
ENDROOT
TORSDOF 0
ENDMDL
