MODEL 1
REMARK minimizedAffinity -3.90234447
REMARK minimizedRMSD -1
REMARK  0 active torsions:
REMARK  status: ('A' for Active; 'I' for Inactive)
ROOT
ATOM      1  C   UNL d   1      -2.344  -2.189   0.464  0.00  0.00     0.020 A 
ATOM      2  C1  UNL d   1      -1.473  -3.056   1.121  0.00  0.00     0.020 A 
ATOM      3  C2  UNL d   1      -0.112  -2.751   1.203  0.00  0.00     0.034 A 
ATOM      4  C3  UNL d   1       0.380  -1.575   0.625  0.00  0.00     0.017 A 
ATOM      5  C4  UNL d   1      -0.495  -0.705  -0.035  0.00  0.00     0.017 A 
ATOM      6  C5  UNL d   1      -1.856  -1.016  -0.113  0.00  0.00     0.034 A 
ATOM      7 Cl   UNL d   1       0.039   0.764  -0.772  0.00  0.00    -0.070 Cl
ATOM      8 Cl1  UNL d   1       2.074  -1.260   0.764  0.00  0.00    -0.070 Cl
ENDROOT
TORSDOF 0
ENDMDL
