MODEL 1
REMARK minimizedAffinity -1.43212521
REMARK minimizedRMSD -1
REMARK  0 active torsions:
REMARK  status: ('A' for Active; 'I' for Inactive)
ROOT
ATOM      1  C   UNL d   1       0.361  -2.636   0.195  0.00  0.00     0.020 A 
ATOM      2  C1  UNL d   1      -0.685  -2.758   1.109  0.00  0.00     0.020 A 
ATOM      3  C2  UNL d   1      -1.361  -1.620   1.553  0.00  0.00     0.034 A 
ATOM      4  C3  UNL d   1      -0.993  -0.354   1.082  0.00  0.00     0.017 A 
ATOM      5  C4  UNL d   1       0.056  -0.232   0.164  0.00  0.00     0.017 A 
ATOM      6  C5  UNL d   1       0.731  -1.375  -0.276  0.00  0.00     0.034 A 
ATOM      7 Cl   UNL d   1       0.568   1.295  -0.461  0.00  0.00    -0.070 Cl
ATOM      8 Cl1  UNL d   1      -1.874   1.010   1.673  0.00  0.00    -0.070 Cl
ENDROOT
TORSDOF 0
ENDMDL
