MODEL 1
REMARK minimizedAffinity -0.702031434
REMARK minimizedRMSD -1
REMARK  0 active torsions:
REMARK  status: ('A' for Active; 'I' for Inactive)
ROOT
ATOM      1  C   UNL d   1      -1.221  -3.110   0.813  0.00  0.00     0.020 A 
ATOM      2  C1  UNL d   1      -1.882  -2.333  -0.138  0.00  0.00     0.020 A 
ATOM      3  C2  UNL d   1      -1.374  -1.081  -0.491  0.00  0.00     0.034 A 
ATOM      4  C3  UNL d   1      -0.203  -0.602   0.106  0.00  0.00     0.017 A 
ATOM      5  C4  UNL d   1       0.460  -1.383   1.060  0.00  0.00     0.017 A 
ATOM      6  C5  UNL d   1      -0.053  -2.636   1.411  0.00  0.00     0.034 A 
ATOM      7 Cl   UNL d   1       1.910  -0.860   1.841  0.00  0.00    -0.070 Cl
ATOM      8 Cl1  UNL d   1       0.369   0.954  -0.379  0.00  0.00    -0.070 Cl
ENDROOT
TORSDOF 0
ENDMDL
