MODEL 1
REMARK minimizedAffinity -5.04619789
REMARK minimizedRMSD -1
REMARK  0 active torsions:
REMARK  status: ('A' for Active; 'I' for Inactive)
ROOT
ATOM      1  C   UNL d   1      -1.645  -2.098   0.998  0.00  0.00     0.020 A 
ATOM      2  C1  UNL d   1      -2.330  -0.912   0.742  0.00  0.00     0.020 A 
ATOM      3  C2  UNL d   1      -1.655   0.180   0.193  0.00  0.00     0.034 A 
ATOM      4  C3  UNL d   1      -0.290   0.088  -0.102  0.00  0.00     0.017 A 
ATOM      5  C4  UNL d   1       0.397  -1.104   0.156  0.00  0.00     0.017 A 
ATOM      6  C5  UNL d   1      -0.284  -2.194   0.706  0.00  0.00     0.034 A 
ATOM      7 Cl   UNL d   1       2.082  -1.294  -0.181  0.00  0.00    -0.070 Cl
ATOM      8 Cl1  UNL d   1       0.482   1.477  -0.780  0.00  0.00    -0.070 Cl
ENDROOT
TORSDOF 0
ENDMDL
