MODEL 1
REMARK minimizedAffinity -4.55290556
REMARK minimizedRMSD -1
REMARK  0 active torsions:
REMARK  status: ('A' for Active; 'I' for Inactive)
ROOT
ATOM      1  C   UNL d   1       1.273   0.875   0.066  0.00  0.00     0.020 A 
ATOM      2  C1  UNL d   1       1.689  -0.456   0.029  0.00  0.00     0.020 A 
ATOM      3  C2  UNL d   1       0.777  -1.480   0.291  0.00  0.00     0.034 A 
ATOM      4  C3  UNL d   1      -0.556  -1.176   0.593  0.00  0.00     0.017 A 
ATOM      5  C4  UNL d   1      -0.972   0.160   0.631  0.00  0.00     0.017 A 
ATOM      6  C5  UNL d   1      -0.055   1.182   0.367  0.00  0.00     0.034 A 
ATOM      7 Cl   UNL d   1      -2.600   0.613   0.996  0.00  0.00    -0.070 Cl
ATOM      8 Cl1  UNL d   1      -1.629  -2.493   0.907  0.00  0.00    -0.070 Cl
ENDROOT
TORSDOF 0
ENDMDL
