MODEL 1
REMARK minimizedAffinity -3.94800568
REMARK minimizedRMSD -1
REMARK  0 active torsions:
REMARK  status: ('A' for Active; 'I' for Inactive)
ROOT
ATOM      1  C   UNL d   1      -0.116  -2.707   0.772  0.00  0.00     0.020 A 
ATOM      2  C1  UNL d   1      -1.416  -2.666   1.274  0.00  0.00     0.020 A 
ATOM      3  C2  UNL d   1      -2.128  -1.465   1.270  0.00  0.00     0.034 A 
ATOM      4  C3  UNL d   1      -1.539  -0.299   0.765  0.00  0.00     0.017 A 
ATOM      5  C4  UNL d   1      -0.234  -0.342   0.262  0.00  0.00     0.017 A 
ATOM      6  C5  UNL d   1       0.474  -1.548   0.268  0.00  0.00     0.034 A 
ATOM      7 Cl   UNL d   1       0.559   1.054  -0.377  0.00  0.00    -0.070 Cl
ATOM      8 Cl1  UNL d   1      -2.478   1.151   0.792  0.00  0.00    -0.070 Cl
ENDROOT
TORSDOF 0
ENDMDL
