MODEL 1
REMARK minimizedAffinity 0.948647618
REMARK minimizedRMSD -1
REMARK  0 active torsions:
REMARK  status: ('A' for Active; 'I' for Inactive)
ROOT
ATOM      1  C   UNL d   1       1.135  -2.033   1.020  0.00  0.00     0.020 A 
ATOM      2  C1  UNL d   1       1.137  -0.698   0.617  0.00  0.00     0.020 A 
ATOM      3  C2  UNL d   1      -0.051   0.035   0.621  0.00  0.00     0.034 A 
ATOM      4  C3  UNL d   1      -1.248  -0.566   1.029  0.00  0.00     0.017 A 
ATOM      5  C4  UNL d   1      -1.249  -1.906   1.433  0.00  0.00     0.017 A 
ATOM      6  C5  UNL d   1      -0.056  -2.635   1.427  0.00  0.00     0.034 A 
ATOM      7 Cl   UNL d   1      -2.685  -2.717   1.949  0.00  0.00    -0.070 Cl
ATOM      8 Cl1  UNL d   1      -2.680   0.399   1.009  0.00  0.00    -0.070 Cl
ENDROOT
TORSDOF 0
ENDMDL
