MODEL 1
REMARK minimizedAffinity -0.835277855
REMARK minimizedRMSD -1
REMARK  0 active torsions:
REMARK  status: ('A' for Active; 'I' for Inactive)
ROOT
ATOM      1  C   UNL d   1       1.559   0.115  -0.462  0.00  0.00     0.020 A 
ATOM      2  C1  UNL d   1       1.829  -1.221  -0.169  0.00  0.00     0.020 A 
ATOM      3  C2  UNL d   1       0.914  -1.971   0.573  0.00  0.00     0.034 A 
ATOM      4  C3  UNL d   1      -0.275  -1.386   1.024  0.00  0.00     0.017 A 
ATOM      5  C4  UNL d   1      -0.544  -0.045   0.729  0.00  0.00     0.017 A 
ATOM      6  C5  UNL d   1       0.375   0.702  -0.014  0.00  0.00     0.034 A 
ATOM      7 Cl   UNL d   1      -1.990   0.747   1.251  0.00  0.00    -0.070 Cl
ATOM      8 Cl1  UNL d   1      -1.361  -2.373   1.936  0.00  0.00    -0.070 Cl
ENDROOT
TORSDOF 0
ENDMDL
