MODEL 1
REMARK minimizedAffinity -1.69205618
REMARK minimizedRMSD -1
REMARK  0 active torsions:
REMARK  status: ('A' for Active; 'I' for Inactive)
ROOT
ATOM      1  C   UNL d   1       0.591  -1.828   0.409  0.00  0.00     0.020 A 
ATOM      2  C1  UNL d   1      -0.289  -1.609   1.468  0.00  0.00     0.020 A 
ATOM      3  C2  UNL d   1      -0.874  -0.353   1.641  0.00  0.00     0.034 A 
ATOM      4  C3  UNL d   1      -0.581   0.689   0.753  0.00  0.00     0.017 A 
ATOM      5  C4  UNL d   1       0.302   0.468  -0.310  0.00  0.00     0.017 A 
ATOM      6  C5  UNL d   1       0.886  -0.792  -0.478  0.00  0.00     0.034 A 
ATOM      7 Cl   UNL d   1       0.713   1.704  -1.446  0.00  0.00    -0.070 Cl
ATOM      8 Cl1  UNL d   1      -1.341   2.216   1.027  0.00  0.00    -0.070 Cl
ENDROOT
TORSDOF 0
ENDMDL
