MODEL 1
REMARK minimizedAffinity -1.2062825
REMARK minimizedRMSD -1
REMARK  0 active torsions:
REMARK  status: ('A' for Active; 'I' for Inactive)
ROOT
ATOM      1  C   UNL d   1      -2.023  -0.817   0.309  0.00  0.00     0.020 A 
ATOM      2  C1  UNL d   1      -1.473  -1.829   1.095  0.00  0.00     0.020 A 
ATOM      3  C2  UNL d   1      -0.088  -1.928   1.238  0.00  0.00     0.034 A 
ATOM      4  C3  UNL d   1       0.753  -1.014   0.593  0.00  0.00     0.017 A 
ATOM      5  C4  UNL d   1       0.201   0.002  -0.196  0.00  0.00     0.017 A 
ATOM      6  C5  UNL d   1      -1.187   0.096  -0.335  0.00  0.00     0.034 A 
ATOM      7 Cl   UNL d   1       1.174   1.167  -1.022  0.00  0.00    -0.070 Cl
ATOM      8 Cl1  UNL d   1       2.457  -1.195   0.814  0.00  0.00    -0.070 Cl
ENDROOT
TORSDOF 0
ENDMDL
