MODEL 1
REMARK minimizedAffinity -5.36345863
REMARK minimizedRMSD -1
REMARK  0 active torsions:
REMARK  status: ('A' for Active; 'I' for Inactive)
ROOT
ATOM      1  C   UNL d   1      -2.480  -0.925   1.736  0.00  0.00     0.020 A 
ATOM      2  C1  UNL d   1      -1.961  -2.219   1.756  0.00  0.00     0.020 A 
ATOM      3  C2  UNL d   1      -0.714  -2.480   1.184  0.00  0.00     0.034 A 
ATOM      4  C3  UNL d   1       0.018  -1.446   0.589  0.00  0.00     0.017 A 
ATOM      5  C4  UNL d   1      -0.504  -0.148   0.569  0.00  0.00     0.017 A 
ATOM      6  C5  UNL d   1      -1.753   0.108   1.144  0.00  0.00     0.034 A 
ATOM      7 Cl   UNL d   1       0.341   1.180  -0.146  0.00  0.00    -0.070 Cl
ATOM      8 Cl1  UNL d   1       1.552  -1.841  -0.099  0.00  0.00    -0.070 Cl
ENDROOT
TORSDOF 0
ENDMDL
