MODEL 1
REMARK minimizedAffinity -5.01221561
REMARK minimizedRMSD -1
REMARK  0 active torsions:
REMARK  status: ('A' for Active; 'I' for Inactive)
ROOT
ATOM      1  C   UNL d   1      -2.945  -1.752   1.883  0.00  0.00     0.020 A 
ATOM      2  C1  UNL d   1      -3.012  -0.361   1.948  0.00  0.00     0.020 A 
ATOM      3  C2  UNL d   1      -1.925   0.412   1.533  0.00  0.00     0.034 A 
ATOM      4  C3  UNL d   1      -0.766  -0.207   1.052  0.00  0.00     0.017 A 
ATOM      5  C4  UNL d   1      -0.699  -1.603   0.986  0.00  0.00     0.017 A 
ATOM      6  C5  UNL d   1      -1.790  -2.372   1.403  0.00  0.00     0.034 A 
ATOM      7 Cl   UNL d   1       0.698  -2.438   0.404  0.00  0.00    -0.070 Cl
ATOM      8 Cl1  UNL d   1       0.540   0.810   0.555  0.00  0.00    -0.070 Cl
ENDROOT
TORSDOF 0
ENDMDL
