MODEL 1
REMARK minimizedAffinity -3.25219035
REMARK minimizedRMSD -1
REMARK  0 active torsions:
REMARK  status: ('A' for Active; 'I' for Inactive)
ROOT
ATOM      1  C   UNL d   1      -1.249  -1.912   1.555  0.00  0.00     0.020 A 
ATOM      2  C1  UNL d   1      -1.896  -0.782   1.058  0.00  0.00     0.020 A 
ATOM      3  C2  UNL d   1      -1.196   0.133   0.269  0.00  0.00     0.034 A 
ATOM      4  C3  UNL d   1       0.156  -0.080  -0.025  0.00  0.00     0.017 A 
ATOM      5  C4  UNL d   1       0.805  -1.215   0.475  0.00  0.00     0.017 A 
ATOM      6  C5  UNL d   1       0.099  -2.128   1.264  0.00  0.00     0.034 A 
ATOM      7 Cl   UNL d   1       2.471  -1.545   0.155  0.00  0.00    -0.070 Cl
ATOM      8 Cl1  UNL d   1       0.959   1.093  -1.007  0.00  0.00    -0.070 Cl
ENDROOT
TORSDOF 0
ENDMDL
