MODEL 1
REMARK minimizedAffinity -1.41638398
REMARK minimizedRMSD -1
REMARK  0 active torsions:
REMARK  status: ('A' for Active; 'I' for Inactive)
ROOT
ATOM      1  C   UNL d   1      -1.247   1.391   0.419  0.00  0.00     0.020 A 
ATOM      2  C1  UNL d   1      -0.007   1.718  -0.128  0.00  0.00     0.020 A 
ATOM      3  C2  UNL d   1       0.963   0.728  -0.300  0.00  0.00     0.034 A 
ATOM      4  C3  UNL d   1       0.694  -0.594   0.074  0.00  0.00     0.017 A 
ATOM      5  C4  UNL d   1      -0.552  -0.921   0.623  0.00  0.00     0.017 A 
ATOM      6  C5  UNL d   1      -1.519   0.074   0.793  0.00  0.00     0.034 A 
ATOM      7 Cl   UNL d   1      -0.957  -2.529   1.108  0.00  0.00    -0.070 Cl
ATOM      8 Cl1  UNL d   1       1.939  -1.766  -0.168  0.00  0.00    -0.070 Cl
ENDROOT
TORSDOF 0
ENDMDL
