MODEL 1
REMARK minimizedAffinity -4.35015488
REMARK minimizedRMSD -1
REMARK  0 active torsions:
REMARK  status: ('A' for Active; 'I' for Inactive)
ROOT
ATOM      1  C   UNL d   1      -1.632  -2.617   1.094  0.00  0.00     0.020 A 
ATOM      2  C1  UNL d   1      -2.364  -1.459   0.836  0.00  0.00     0.020 A 
ATOM      3  C2  UNL d   1      -1.714  -0.307   0.389  0.00  0.00     0.034 A 
ATOM      4  C3  UNL d   1      -0.328  -0.311   0.197  0.00  0.00     0.017 A 
ATOM      5  C4  UNL d   1       0.406  -1.474   0.456  0.00  0.00     0.017 A 
ATOM      6  C5  UNL d   1      -0.250  -2.625   0.905  0.00  0.00     0.034 A 
ATOM      7 Cl   UNL d   1       2.120  -1.555   0.244  0.00  0.00    -0.070 Cl
ATOM      8 Cl1  UNL d   1       0.410   1.149  -0.358  0.00  0.00    -0.070 Cl
ENDROOT
TORSDOF 0
ENDMDL
