MODEL 1
REMARK minimizedAffinity -3.97526288
REMARK minimizedRMSD -1
REMARK  0 active torsions:
REMARK  status: ('A' for Active; 'I' for Inactive)
ROOT
ATOM      1  C   UNL d   1      -2.003  -2.328   3.356  0.00  0.00     0.020 A 
ATOM      2  C1  UNL d   1      -3.249  -2.069   2.787  0.00  0.00     0.020 A 
ATOM      3  C2  UNL d   1      -3.331  -1.465   1.530  0.00  0.00     0.034 A 
ATOM      4  C3  UNL d   1      -2.164  -1.118   0.839  0.00  0.00     0.017 A 
ATOM      5  C4  UNL d   1      -0.914  -1.378   1.411  0.00  0.00     0.017 A 
ATOM      6  C5  UNL d   1      -0.838  -1.983   2.670  0.00  0.00     0.034 A 
ATOM      7 Cl   UNL d   1       0.569  -0.979   0.619  0.00  0.00    -0.070 Cl
ATOM      8 Cl1  UNL d   1      -2.340  -0.375  -0.711  0.00  0.00    -0.070 Cl
ENDROOT
TORSDOF 0
ENDMDL
