MODEL 1
REMARK minimizedAffinity 6.34885788
REMARK minimizedRMSD -1
REMARK  0 active torsions:
REMARK  status: ('A' for Active; 'I' for Inactive)
ROOT
ATOM      1  C   UNL d   1      -1.477  -5.520  -5.891  0.00  0.00     0.020 A 
ATOM      2  C1  UNL d   1      -1.232  -4.148  -5.888  0.00  0.00     0.020 A 
ATOM      3  C2  UNL d   1      -2.300  -3.248  -5.864  0.00  0.00     0.034 A 
ATOM      4  C3  UNL d   1      -3.618  -3.719  -5.844  0.00  0.00     0.017 A 
ATOM      5  C4  UNL d   1      -3.863  -5.097  -5.848  0.00  0.00     0.017 A 
ATOM      6  C5  UNL d   1      -2.790  -5.994  -5.871  0.00  0.00     0.034 A 
ATOM      7 Cl   UNL d   1      -5.461  -5.754  -5.824  0.00  0.00    -0.070 Cl
ATOM      8 Cl1  UNL d   1      -4.889  -2.550  -5.815  0.00  0.00    -0.070 Cl
ENDROOT
TORSDOF 0
ENDMDL
