MODEL 1
REMARK minimizedAffinity 5.29397631
REMARK minimizedRMSD -1
REMARK  1 active torsions:
REMARK  status: ('A' for Active; 'I' for Inactive)
REMARK    1  A    between atoms: C1_2  and  C2_3 
ROOT
ATOM      1  C2  UNL d   1      -2.880  -0.198   0.443  0.00  0.00    -0.073 A 
ATOM      2  C3  UNL d   1      -3.720   0.725   1.077  0.00  0.00    -0.002 A 
ATOM      3  C4  UNL d   1      -3.627   0.932   2.454  0.00  0.00     0.004 A 
ATOM      4  C5  UNL d   1      -2.691   0.226   3.209  0.00  0.00    -0.004 A 
ATOM      5  C6  UNL d   1      -1.835  -0.692   2.592  0.00  0.00    -0.075 A 
ATOM      6  C7  UNL d   1      -0.824  -1.462   3.390  0.00  0.00     0.076 C 
ATOM      7  C8  UNL d   1      -1.936  -0.897   1.209  0.00  0.00     0.001 A 
ENDROOT
BRANCH   1   8
ATOM      8  C1  UNL d   1      -2.972  -0.420  -1.044  0.00  0.00     0.053 C 
ATOM      9  C   UNL d   1      -1.601  -0.571  -1.684  0.00  0.00     0.018 C 
ENDBRANCH   1   8
TORSDOF 1
ENDMDL
