MODEL 1
REMARK minimizedAffinity 1.22699404
REMARK minimizedRMSD -1
REMARK  1 active torsions:
REMARK  status: ('A' for Active; 'I' for Inactive)
REMARK    1  A    between atoms: C1_2  and  C2_3 
ROOT
ATOM      1  C2  UNL d   1       0.740  -2.408   1.885  0.00  0.00    -0.073 A 
ATOM      2  C3  UNL d   1       0.999  -2.562   3.252  0.00  0.00    -0.002 A 
ATOM      3  C4  UNL d   1       0.259  -1.846   4.195  0.00  0.00     0.004 A 
ATOM      4  C5  UNL d   1      -0.749  -0.975   3.781  0.00  0.00    -0.004 A 
ATOM      5  C6  UNL d   1      -1.030  -0.816   2.421  0.00  0.00    -0.075 A 
ATOM      6  C7  UNL d   1      -2.109   0.119   1.960  0.00  0.00     0.076 C 
ATOM      7  C8  UNL d   1      -0.281  -1.536   1.480  0.00  0.00     0.001 A 
ENDROOT
BRANCH   1   8
ATOM      8  C1  UNL d   1       1.532  -3.184   0.864  0.00  0.00     0.053 C 
ATOM      9  C   UNL d   1       1.447  -4.684   1.097  0.00  0.00     0.018 C 
ENDBRANCH   1   8
TORSDOF 1
ENDMDL
