MODEL 1
REMARK minimizedAffinity 8.91665173
REMARK minimizedRMSD -1
REMARK  1 active torsions:
REMARK  status: ('A' for Active; 'I' for Inactive)
REMARK    1  A    between atoms: C1_2  and  C2_3 
ROOT
ATOM      1  C2  UNL d   1       0.058  -1.222   0.008  0.00  0.00    -0.073 A 
ATOM      2  C3  UNL d   1      -0.795  -1.034   1.101  0.00  0.00    -0.002 A 
ATOM      3  C4  UNL d   1      -0.482  -1.589   2.343  0.00  0.00     0.004 A 
ATOM      4  C5  UNL d   1       0.688  -2.330   2.506  0.00  0.00    -0.004 A 
ATOM      5  C6  UNL d   1       1.559  -2.519   1.429  0.00  0.00    -0.075 A 
ATOM      6  C7  UNL d   1       2.821  -3.316   1.587  0.00  0.00     0.076 C 
ATOM      7  C8  UNL d   1       1.237  -1.962   0.184  0.00  0.00     0.001 A 
ENDROOT
BRANCH   1   8
ATOM      8  C1  UNL d   1      -0.272  -0.620  -1.333  0.00  0.00     0.053 C 
ATOM      9  C   UNL d   1      -0.717   0.829  -1.213  0.00  0.00     0.018 C 
ENDBRANCH   1   8
TORSDOF 1
ENDMDL
