MODEL 1
REMARK minimizedAffinity -0.8176952
REMARK minimizedRMSD -1
REMARK  1 active torsions:
REMARK  status: ('A' for Active; 'I' for Inactive)
REMARK    1  A    between atoms: C1_2  and  C2_3 
ROOT
ATOM      1  C2  UNL d   1       4.134  -3.986   1.157  0.00  0.00    -0.073 A 
ATOM      2  C3  UNL d   1       3.223  -4.655   1.983  0.00  0.00    -0.002 A 
ATOM      3  C4  UNL d   1       1.899  -4.222   2.068  0.00  0.00     0.004 A 
ATOM      4  C5  UNL d   1       1.471  -3.121   1.326  0.00  0.00    -0.004 A 
ATOM      5  C6  UNL d   1       2.364  -2.446   0.487  0.00  0.00    -0.075 A 
ATOM      6  C7  UNL d   1       1.920  -1.259  -0.316  0.00  0.00     0.076 C 
ATOM      7  C8  UNL d   1       3.692  -2.886   0.408  0.00  0.00     0.001 A 
ENDROOT
BRANCH   1   8
ATOM      8  C1  UNL d   1       5.562  -4.454   1.056  0.00  0.00     0.053 C 
ATOM      9  C   UNL d   1       5.656  -5.956   0.837  0.00  0.00     0.018 C 
ENDBRANCH   1   8
TORSDOF 1
ENDMDL
