MODEL 1
REMARK minimizedAffinity 9.61120319
REMARK minimizedRMSD -1
REMARK  1 active torsions:
REMARK  status: ('A' for Active; 'I' for Inactive)
REMARK    1  A    between atoms: C1_2  and  C2_3 
ROOT
ATOM      1  C2  UNL d   1       4.547  -1.326   0.546  0.00  0.00    -0.073 A 
ATOM      2  C3  UNL d   1       5.037  -2.568   0.967  0.00  0.00    -0.002 A 
ATOM      3  C4  UNL d   1       4.183  -3.498   1.561  0.00  0.00     0.004 A 
ATOM      4  C5  UNL d   1       2.831  -3.200   1.734  0.00  0.00    -0.004 A 
ATOM      5  C6  UNL d   1       2.321  -1.969   1.309  0.00  0.00    -0.075 A 
ATOM      6  C7  UNL d   1       0.870  -1.632   1.489  0.00  0.00     0.076 C 
ATOM      7  C8  UNL d   1       3.185  -1.039   0.716  0.00  0.00     0.001 A 
ENDROOT
BRANCH   1   8
ATOM      8  C1  UNL d   1       5.464  -0.322  -0.102  0.00  0.00     0.053 C 
ATOM      9  C   UNL d   1       5.644   0.922   0.755  0.00  0.00     0.018 C 
ENDBRANCH   1   8
TORSDOF 1
ENDMDL
