MODEL 1
REMARK minimizedAffinity 16.983057
REMARK minimizedRMSD -1
REMARK  0 active torsions:
REMARK  status: ('A' for Active; 'I' for Inactive)
ROOT
ATOM      1  C   UNL d   1       0.138  -0.649   0.801  0.00  0.00     0.124 A 
ATOM      2  C1  UNL d   1      -0.477  -1.837   0.431  0.00  0.00     0.062 A 
ATOM      3  C2  UNL d   1       0.285  -2.904  -0.035  0.00  0.00     0.162 A 
ATOM      4  C3  UNL d   1       1.672  -2.789  -0.133  0.00  0.00    -0.034 A 
ATOM      5  C4  UNL d   1       2.283  -1.591   0.240  0.00  0.00     0.162 A 
ATOM      6  C5  UNL d   1       1.517  -0.527   0.705  0.00  0.00     0.062 A 
ATOM      7  F   UNL d   1       2.113   0.620   1.062  0.00  0.00    -0.097 F 
ATOM      8  F1  UNL d   1       3.614  -1.446   0.159  0.00  0.00    -0.096 F 
ATOM      9  I   UNL d   1       2.815  -4.383  -0.829  0.00  0.00    -0.060 I 
ATOM     10  F2  UNL d   1      -0.336  -4.040  -0.386  0.00  0.00    -0.096 F 
ATOM     11  F3  UNL d   1      -1.810  -1.957   0.521  0.00  0.00    -0.097 F 
ATOM     12  F4  UNL d   1      -0.598   0.377   1.248  0.00  0.00    -0.092 F 
ENDROOT
TORSDOF 0
ENDMDL
