MODEL 1
REMARK minimizedAffinity 23.0297451
REMARK minimizedRMSD -1
REMARK  0 active torsions:
REMARK  status: ('A' for Active; 'I' for Inactive)
ROOT
ATOM      1  C   UNL d   1       1.490  -1.272   0.686  0.00  0.00     0.124 A 
ATOM      2  C1  UNL d   1       0.231  -1.146   0.116  0.00  0.00     0.062 A 
ATOM      3  C2  UNL d   1      -0.745  -0.375   0.739  0.00  0.00     0.162 A 
ATOM      4  C3  UNL d   1      -0.466   0.278   1.940  0.00  0.00    -0.034 A 
ATOM      5  C4  UNL d   1       0.802   0.146   2.508  0.00  0.00     0.162 A 
ATOM      6  C5  UNL d   1       1.774  -0.626   1.881  0.00  0.00     0.062 A 
ATOM      7  F   UNL d   1       2.990  -0.747   2.434  0.00  0.00    -0.097 F 
ATOM      8  F1  UNL d   1       1.104   0.760   3.661  0.00  0.00    -0.096 F 
ATOM      9  I   UNL d   1      -1.924   1.433   2.875  0.00  0.00    -0.060 I 
ATOM     10  F2  UNL d   1      -1.953  -0.270   0.165  0.00  0.00    -0.096 F 
ATOM     11  F3  UNL d   1      -0.046  -1.770  -1.038  0.00  0.00    -0.097 F 
ATOM     12  F4  UNL d   1       2.428  -2.016   0.085  0.00  0.00    -0.092 F 
ENDROOT
TORSDOF 0
ENDMDL
