MODEL 1
REMARK minimizedAffinity 7.4247961
REMARK minimizedRMSD -1
REMARK  0 active torsions:
REMARK  status: ('A' for Active; 'I' for Inactive)
ROOT
ATOM      1  C   UNL d   1       1.361  -3.016  -0.399  0.00  0.00     0.124 A 
ATOM      2  C1  UNL d   1       2.100  -2.003   0.197  0.00  0.00     0.062 A 
ATOM      3  C2  UNL d   1       1.478  -1.088   1.041  0.00  0.00     0.162 A 
ATOM      4  C3  UNL d   1       0.110  -1.182   1.296  0.00  0.00    -0.034 A 
ATOM      5  C4  UNL d   1      -0.626  -2.203   0.692  0.00  0.00     0.162 A 
ATOM      6  C5  UNL d   1      -0.000  -3.115  -0.151  0.00  0.00     0.062 A 
ATOM      7  F   UNL d   1      -0.715  -4.093  -0.726  0.00  0.00    -0.097 F 
ATOM      8  F1  UNL d   1      -1.943  -2.323   0.915  0.00  0.00    -0.096 F 
ATOM      9  I   UNL d   1      -0.824   0.184   2.559  0.00  0.00    -0.060 I 
ATOM     10  F2  UNL d   1       2.216  -0.120   1.604  0.00  0.00    -0.096 F 
ATOM     11  F3  UNL d   1       3.415  -1.905  -0.042  0.00  0.00    -0.097 F 
ATOM     12  F4  UNL d   1       1.962  -3.895  -1.212  0.00  0.00    -0.092 F 
ENDROOT
TORSDOF 0
ENDMDL
