MODEL 1
REMARK minimizedAffinity 2.79102802
REMARK minimizedRMSD -1
REMARK  0 active torsions:
REMARK  status: ('A' for Active; 'I' for Inactive)
ROOT
ATOM      1  C   UNL d   1       0.284  -3.044  -0.314  0.00  0.00     0.124 A 
ATOM      2  C1  UNL d   1      -0.296  -2.026   0.429  0.00  0.00     0.062 A 
ATOM      3  C2  UNL d   1       0.493  -1.009   0.960  0.00  0.00     0.162 A 
ATOM      4  C3  UNL d   1       1.872  -1.006   0.748  0.00  0.00    -0.034 A 
ATOM      5  C4  UNL d   1       2.448  -2.034   0.000  0.00  0.00     0.162 A 
ATOM      6  C5  UNL d   1       1.655  -3.047  -0.528  0.00  0.00     0.062 A 
ATOM      7  F   UNL d   1       2.217  -4.031  -1.246  0.00  0.00    -0.097 F 
ATOM      8  F1  UNL d   1       3.771  -2.061  -0.223  0.00  0.00    -0.096 F 
ATOM      9  I   UNL d   1       3.056   0.512   1.540  0.00  0.00    -0.060 I 
ATOM     10  F2  UNL d   1      -0.094  -0.038   1.674  0.00  0.00    -0.096 F 
ATOM     11  F3  UNL d   1      -1.621  -2.021   0.638  0.00  0.00    -0.097 F 
ATOM     12  F4  UNL d   1      -0.478  -4.021  -0.822  0.00  0.00    -0.092 F 
ENDROOT
TORSDOF 0
ENDMDL
