MODEL 1
REMARK minimizedAffinity 12.962328
REMARK minimizedRMSD -1
REMARK  0 active torsions:
REMARK  status: ('A' for Active; 'I' for Inactive)
ROOT
ATOM      1  C   UNL d   1       2.374  -1.960   0.553  0.00  0.00     0.124 A 
ATOM      2  C1  UNL d   1       1.651  -0.959   1.187  0.00  0.00     0.062 A 
ATOM      3  C2  UNL d   1       0.262  -0.934   1.097  0.00  0.00     0.162 A 
ATOM      4  C3  UNL d   1      -0.414  -1.914   0.370  0.00  0.00    -0.034 A 
ATOM      5  C4  UNL d   1       0.320  -2.917  -0.266  0.00  0.00     0.162 A 
ATOM      6  C5  UNL d   1       1.708  -2.938  -0.173  0.00  0.00     0.062 A 
ATOM      7  F   UNL d   1       2.405  -3.906  -0.786  0.00  0.00    -0.097 F 
ATOM      8  F1  UNL d   1      -0.298  -3.875  -0.973  0.00  0.00    -0.096 F 
ATOM      9  I   UNL d   1      -2.490  -1.880   0.233  0.00  0.00    -0.060 I 
ATOM     10  F2  UNL d   1      -0.410   0.045   1.720  0.00  0.00    -0.096 F 
ATOM     11  F3  UNL d   1       2.292  -0.013   1.888  0.00  0.00    -0.097 F 
ATOM     12  F4  UNL d   1       3.710  -1.981   0.641  0.00  0.00    -0.092 F 
ENDROOT
TORSDOF 0
ENDMDL
