MODEL 1
REMARK minimizedAffinity 0.441150874
REMARK minimizedRMSD -1
REMARK  0 active torsions:
REMARK  status: ('A' for Active; 'I' for Inactive)
ROOT
ATOM      1  C   UNL d   1      -1.205  -1.954   0.456  0.00  0.00     0.124 A 
ATOM      2  C1  UNL d   1      -0.439  -3.095   0.265  0.00  0.00     0.062 A 
ATOM      3  C2  UNL d   1       0.947  -3.003   0.186  0.00  0.00     0.162 A 
ATOM      4  C3  UNL d   1       1.577  -1.764   0.298  0.00  0.00    -0.034 A 
ATOM      5  C4  UNL d   1       0.800  -0.620   0.489  0.00  0.00     0.162 A 
ATOM      6  C5  UNL d   1      -0.585  -0.717   0.567  0.00  0.00     0.062 A 
ATOM      7  F   UNL d   1      -1.323   0.387   0.752  0.00  0.00    -0.097 F 
ATOM      8  F1  UNL d   1       1.374   0.587   0.601  0.00  0.00    -0.096 F 
ATOM      9  I   UNL d   1       3.650  -1.621   0.180  0.00  0.00    -0.060 I 
ATOM     10  F2  UNL d   1       1.662  -4.123   0.001  0.00  0.00    -0.096 F 
ATOM     11  F3  UNL d   1      -1.036  -4.291   0.156  0.00  0.00    -0.097 F 
ATOM     12  F4  UNL d   1      -2.539  -2.045   0.531  0.00  0.00    -0.092 F 
ENDROOT
TORSDOF 0
ENDMDL
