MODEL 1
REMARK minimizedAffinity 11.0754328
REMARK minimizedRMSD -1
REMARK  0 active torsions:
REMARK  status: ('A' for Active; 'I' for Inactive)
ROOT
ATOM      1  C   UNL d   1       0.221  -3.756  -0.206  0.00  0.00     0.124 A 
ATOM      2  C1  UNL d   1      -0.399  -2.752   0.523  0.00  0.00     0.062 A 
ATOM      3  C2  UNL d   1       0.344  -1.682   1.015  0.00  0.00     0.162 A 
ATOM      4  C3  UNL d   1       1.717  -1.611   0.777  0.00  0.00    -0.034 A 
ATOM      5  C4  UNL d   1       2.334  -2.626   0.043  0.00  0.00     0.162 A 
ATOM      6  C5  UNL d   1       1.587  -3.692  -0.446  0.00  0.00     0.062 A 
ATOM      7  F   UNL d   1       2.188  -4.662  -1.151  0.00  0.00    -0.097 F 
ATOM      8  F1  UNL d   1       3.652  -2.588  -0.204  0.00  0.00    -0.096 F 
ATOM      9  I   UNL d   1       2.832  -0.014   1.510  0.00  0.00    -0.060 I 
ATOM     10  F2  UNL d   1      -0.282  -0.726   1.717  0.00  0.00    -0.096 F 
ATOM     11  F3  UNL d   1      -1.718  -2.811   0.757  0.00  0.00    -0.097 F 
ATOM     12  F4  UNL d   1      -0.496  -4.784  -0.677  0.00  0.00    -0.092 F 
ENDROOT
TORSDOF 0
ENDMDL
