MODEL 1
REMARK minimizedAffinity 18.053051
REMARK minimizedRMSD -1
REMARK  0 active torsions:
REMARK  status: ('A' for Active; 'I' for Inactive)
ROOT
ATOM      1  C   UNL d   1      -4.914  -2.541   2.271  0.00  0.00     0.124 A 
ATOM      2  C1  UNL d   1      -4.824  -2.212   3.617  0.00  0.00     0.062 A 
ATOM      3  C2  UNL d   1      -5.130  -3.158   4.591  0.00  0.00     0.162 A 
ATOM      4  C3  UNL d   1      -5.529  -4.443   4.223  0.00  0.00    -0.034 A 
ATOM      5  C4  UNL d   1      -5.619  -4.766   2.868  0.00  0.00     0.162 A 
ATOM      6  C5  UNL d   1      -5.312  -3.817   1.898  0.00  0.00     0.062 A 
ATOM      7  F   UNL d   1      -5.400  -4.137   0.599  0.00  0.00    -0.097 F 
ATOM      8  F1  UNL d   1      -5.999  -5.992   2.480  0.00  0.00    -0.096 F 
ATOM      9  I   UNL d   1      -5.988  -5.860   5.677  0.00  0.00    -0.060 I 
ATOM     10  F2  UNL d   1      -5.033  -2.812   5.883  0.00  0.00    -0.096 F 
ATOM     11  F3  UNL d   1      -4.441  -0.979   3.980  0.00  0.00    -0.097 F 
ATOM     12  F4  UNL d   1      -4.620  -1.628   1.336  0.00  0.00    -0.092 F 
ENDROOT
TORSDOF 0
ENDMDL
