MODEL 1
REMARK minimizedAffinity -0.89568162
REMARK minimizedRMSD -1
REMARK  0 active torsions:
REMARK  status: ('A' for Active; 'I' for Inactive)
ROOT
ATOM      1  C   UNL d   1       1.413  -2.635  -0.022  0.00  0.00     0.124 A 
ATOM      2  C1  UNL d   1       0.036  -2.756  -0.146  0.00  0.00     0.062 A 
ATOM      3  C2  UNL d   1      -0.802  -1.761   0.350  0.00  0.00     0.162 A 
ATOM      4  C3  UNL d   1      -0.265  -0.636   0.975  0.00  0.00    -0.034 A 
ATOM      5  C4  UNL d   1       1.121  -0.521   1.097  0.00  0.00     0.162 A 
ATOM      6  C5  UNL d   1       1.954  -1.518   0.599  0.00  0.00     0.062 A 
ATOM      7  F   UNL d   1       3.284  -1.399   0.720  0.00  0.00    -0.097 F 
ATOM      8  F1  UNL d   1       1.671   0.548   1.692  0.00  0.00    -0.096 F 
ATOM      9  I   UNL d   1      -1.514   0.854   1.718  0.00  0.00    -0.060 I 
ATOM     10  F2  UNL d   1      -2.129  -1.905   0.216  0.00  0.00    -0.096 F 
ATOM     11  F3  UNL d   1      -0.490  -3.834  -0.745  0.00  0.00    -0.097 F 
ATOM     12  F4  UNL d   1       2.216  -3.593  -0.500  0.00  0.00    -0.092 F 
ENDROOT
TORSDOF 0
ENDMDL
