MODEL 1
REMARK minimizedAffinity 10.4607964
REMARK minimizedRMSD -1
REMARK  0 active torsions:
REMARK  status: ('A' for Active; 'I' for Inactive)
ROOT
ATOM      1  C   UNL d   1       1.728  -2.759  -0.064  0.00  0.00     0.124 A 
ATOM      2  C1  UNL d   1       0.457  -3.178   0.303  0.00  0.00     0.062 A 
ATOM      3  C2  UNL d   1      -0.440  -2.279   0.873  0.00  0.00     0.162 A 
ATOM      4  C3  UNL d   1      -0.068  -0.950   1.078  0.00  0.00    -0.034 A 
ATOM      5  C4  UNL d   1       1.212  -0.536   0.707  0.00  0.00     0.162 A 
ATOM      6  C5  UNL d   1       2.104  -1.439   0.138  0.00  0.00     0.062 A 
ATOM      7  F   UNL d   1       3.332  -1.032  -0.216  0.00  0.00    -0.097 F 
ATOM      8  F1  UNL d   1       1.602   0.734   0.890  0.00  0.00    -0.096 F 
ATOM      9  I   UNL d   1      -1.406   0.398   1.929  0.00  0.00    -0.060 I 
ATOM     10  F2  UNL d   1      -1.662  -2.711   1.218  0.00  0.00    -0.096 F 
ATOM     11  F3  UNL d   1       0.091  -4.454   0.110  0.00  0.00    -0.097 F 
ATOM     12  F4  UNL d   1       2.589  -3.627  -0.611  0.00  0.00    -0.092 F 
ENDROOT
TORSDOF 0
ENDMDL
