MODEL 1
REMARK minimizedAffinity 7.72254705
REMARK minimizedRMSD -1
REMARK  0 active torsions:
REMARK  status: ('A' for Active; 'I' for Inactive)
ROOT
ATOM      1  C   UNL d   1       0.134  -0.203   1.036  0.00  0.00     0.124 A 
ATOM      2  C1  UNL d   1      -0.538  -1.387   0.762  0.00  0.00     0.062 A 
ATOM      3  C2  UNL d   1       0.164  -2.502   0.312  0.00  0.00     0.162 A 
ATOM      4  C3  UNL d   1       1.546  -2.439   0.134  0.00  0.00    -0.034 A 
ATOM      5  C4  UNL d   1       2.214  -1.245   0.411  0.00  0.00     0.162 A 
ATOM      6  C5  UNL d   1       1.508  -0.133   0.860  0.00  0.00     0.062 A 
ATOM      7  F   UNL d   1       2.159   1.009   1.125  0.00  0.00    -0.097 F 
ATOM      8  F1  UNL d   1       3.542  -1.149   0.251  0.00  0.00    -0.096 F 
ATOM      9  I   UNL d   1       2.599  -4.103  -0.539  0.00  0.00    -0.060 I 
ATOM     10  F2  UNL d   1      -0.511  -3.632   0.054  0.00  0.00    -0.096 F 
ATOM     11  F3  UNL d   1      -1.866  -1.457   0.929  0.00  0.00    -0.097 F 
ATOM     12  F4  UNL d   1      -0.544   0.868   1.468  0.00  0.00    -0.092 F 
ENDROOT
TORSDOF 0
ENDMDL
