MODEL 1
REMARK minimizedAffinity 6.15061951
REMARK minimizedRMSD -1
REMARK  0 active torsions:
REMARK  status: ('A' for Active; 'I' for Inactive)
ROOT
ATOM      1  C   UNL d   1       1.873  -3.188  -0.577  0.00  0.00     0.124 A 
ATOM      2  C1  UNL d   1       2.465  -1.991  -0.200  0.00  0.00     0.062 A 
ATOM      3  C2  UNL d   1       1.721  -1.022   0.466  0.00  0.00     0.162 A 
ATOM      4  C3  UNL d   1       0.376  -1.246   0.761  0.00  0.00    -0.034 A 
ATOM      5  C4  UNL d   1      -0.212  -2.453   0.378  0.00  0.00     0.162 A 
ATOM      6  C5  UNL d   1       0.536  -3.418  -0.288  0.00  0.00     0.062 A 
ATOM      7  F   UNL d   1      -0.038  -4.575  -0.652  0.00  0.00    -0.097 F 
ATOM      8  F1  UNL d   1      -1.503  -2.702   0.645  0.00  0.00    -0.096 F 
ATOM      9  I   UNL d   1      -0.740   0.200   1.757  0.00  0.00    -0.060 I 
ATOM     10  F2  UNL d   1       2.318   0.126   0.818  0.00  0.00    -0.096 F 
ATOM     11  F3  UNL d   1       3.757  -1.766  -0.479  0.00  0.00    -0.097 F 
ATOM     12  F4  UNL d   1       2.592  -4.119  -1.219  0.00  0.00    -0.092 F 
ENDROOT
TORSDOF 0
ENDMDL
