MODEL 1
REMARK minimizedAffinity 5.77485037
REMARK minimizedRMSD -1
REMARK  0 active torsions:
REMARK  status: ('A' for Active; 'I' for Inactive)
ROOT
ATOM      1  C   UNL d   1      -1.919   1.210   3.188  0.00  0.00     0.124 A 
ATOM      2  C1  UNL d   1      -2.267   1.006   1.860  0.00  0.00     0.062 A 
ATOM      3  C2  UNL d   1      -1.822  -0.127   1.185  0.00  0.00     0.162 A 
ATOM      4  C3  UNL d   1      -1.024  -1.066   1.838  0.00  0.00    -0.034 A 
ATOM      5  C4  UNL d   1      -0.677  -0.854   3.174  0.00  0.00     0.162 A 
ATOM      6  C5  UNL d   1      -1.124   0.281   3.843  0.00  0.00     0.062 A 
ATOM      7  F   UNL d   1      -0.787   0.476   5.126  0.00  0.00    -0.097 F 
ATOM      8  F1  UNL d   1       0.089  -1.736   3.832  0.00  0.00    -0.096 F 
ATOM      9  I   UNL d   1      -0.355  -2.762   0.834  0.00  0.00    -0.060 I 
ATOM     10  F2  UNL d   1      -2.174  -0.298  -0.098  0.00  0.00    -0.096 F 
ATOM     11  F3  UNL d   1      -3.034   1.904   1.223  0.00  0.00    -0.097 F 
ATOM     12  F4  UNL d   1      -2.348   2.302   3.834  0.00  0.00    -0.092 F 
ENDROOT
TORSDOF 0
ENDMDL
