MODEL 1
REMARK minimizedAffinity 9.98779392
REMARK minimizedRMSD -1
REMARK  0 active torsions:
REMARK  status: ('A' for Active; 'I' for Inactive)
ROOT
ATOM      1  C   UNL d   1      -0.310  -1.841   0.508  0.00  0.00     0.124 A 
ATOM      2  C1  UNL d   1       0.279  -0.703   1.041  0.00  0.00     0.062 A 
ATOM      3  C2  UNL d   1       1.658  -0.528   0.966  0.00  0.00     0.162 A 
ATOM      4  C3  UNL d   1       2.458  -1.493   0.355  0.00  0.00    -0.034 A 
ATOM      5  C4  UNL d   1       1.858  -2.636  -0.177  0.00  0.00     0.162 A 
ATOM      6  C5  UNL d   1       0.480  -2.806  -0.100  0.00  0.00     0.062 A 
ATOM      7  F   UNL d   1      -0.087  -3.907  -0.615  0.00  0.00    -0.097 F 
ATOM      8  F1  UNL d   1       2.598  -3.584  -0.771  0.00  0.00    -0.096 F 
ATOM      9  I   UNL d   1       4.520  -1.235   0.242  0.00  0.00    -0.060 I 
ATOM     10  F2  UNL d   1       2.200   0.582   1.489  0.00  0.00    -0.096 F 
ATOM     11  F3  UNL d   1      -0.482   0.231   1.630  0.00  0.00    -0.097 F 
ATOM     12  F4  UNL d   1      -1.637  -2.008   0.582  0.00  0.00    -0.092 F 
ENDROOT
TORSDOF 0
ENDMDL
