MODEL 1
REMARK minimizedAffinity 9.79225159
REMARK minimizedRMSD -1
REMARK  0 active torsions:
REMARK  status: ('A' for Active; 'I' for Inactive)
ROOT
ATOM      1  C   UNL d   1      -0.000  -0.617   0.874  0.00  0.00     0.124 A 
ATOM      2  C1  UNL d   1      -0.537  -1.839   0.492  0.00  0.00     0.062 A 
ATOM      3  C2  UNL d   1       0.299  -2.872   0.080  0.00  0.00     0.162 A 
ATOM      4  C3  UNL d   1       1.681  -2.689   0.047  0.00  0.00    -0.034 A 
ATOM      5  C4  UNL d   1       2.214  -1.457   0.431  0.00  0.00     0.162 A 
ATOM      6  C5  UNL d   1       1.374  -0.427   0.843  0.00  0.00     0.062 A 
ATOM      7  F   UNL d   1       1.894   0.753   1.211  0.00  0.00    -0.097 F 
ATOM      8  F1  UNL d   1       3.538  -1.246   0.412  0.00  0.00    -0.096 F 
ATOM      9  I   UNL d   1       2.935  -4.232  -0.569  0.00  0.00    -0.060 I 
ATOM     10  F2  UNL d   1      -0.247  -4.043  -0.283  0.00  0.00    -0.096 F 
ATOM     11  F3  UNL d   1      -1.865  -2.025   0.520  0.00  0.00    -0.097 F 
ATOM     12  F4  UNL d   1      -0.807   0.376   1.269  0.00  0.00    -0.092 F 
ENDROOT
TORSDOF 0
ENDMDL
