MODEL 1
REMARK minimizedAffinity 2.25865364
REMARK minimizedRMSD -1
REMARK  0 active torsions:
REMARK  status: ('A' for Active; 'I' for Inactive)
ROOT
ATOM      1  C   UNL d   1       0.312  -2.851   0.196  0.00  0.00     0.124 A 
ATOM      2  C1  UNL d   1       0.969  -1.983   1.058  0.00  0.00     0.062 A 
ATOM      3  C2  UNL d   1       0.256  -1.003   1.741  0.00  0.00     0.162 A 
ATOM      4  C3  UNL d   1      -1.123  -0.885   1.567  0.00  0.00    -0.034 A 
ATOM      5  C4  UNL d   1      -1.777  -1.761   0.698  0.00  0.00     0.162 A 
ATOM      6  C5  UNL d   1      -1.059  -2.739   0.017  0.00  0.00     0.062 A 
ATOM      7  F   UNL d   1      -1.696  -3.577  -0.814  0.00  0.00    -0.097 F 
ATOM      8  F1  UNL d   1      -3.101  -1.676   0.508  0.00  0.00    -0.096 F 
ATOM      9  I   UNL d   1      -2.193   0.579   2.588  0.00  0.00    -0.060 I 
ATOM     10  F2  UNL d   1       0.917  -0.178   2.567  0.00  0.00    -0.096 F 
ATOM     11  F3  UNL d   1       2.294  -2.089   1.231  0.00  0.00    -0.097 F 
ATOM     12  F4  UNL d   1       1.001  -3.793  -0.461  0.00  0.00    -0.092 F 
ENDROOT
TORSDOF 0
ENDMDL
