MODEL 1
REMARK minimizedAffinity 11.2812634
REMARK minimizedRMSD -1
REMARK  0 active torsions:
REMARK  status: ('A' for Active; 'I' for Inactive)
ROOT
ATOM      1  C   UNL d   1       0.550  -1.057   1.351  0.00  0.00     0.124 A 
ATOM      2  C1  UNL d   1      -0.026  -2.166   0.745  0.00  0.00     0.062 A 
ATOM      3  C2  UNL d   1       0.779  -3.156   0.190  0.00  0.00     0.162 A 
ATOM      4  C3  UNL d   1       2.169  -3.044   0.240  0.00  0.00    -0.034 A 
ATOM      5  C4  UNL d   1       2.740  -1.927   0.851  0.00  0.00     0.162 A 
ATOM      6  C5  UNL d   1       1.931  -0.939   1.404  0.00  0.00     0.062 A 
ATOM      7  F   UNL d   1       2.489   0.131   1.989  0.00  0.00    -0.097 F 
ATOM      8  F1  UNL d   1       4.072  -1.787   0.916  0.00  0.00    -0.096 F 
ATOM      9  I   UNL d   1       3.376  -4.524  -0.588  0.00  0.00    -0.060 I 
ATOM     10  F2  UNL d   1       0.196  -4.216  -0.390  0.00  0.00    -0.096 F 
ATOM     11  F3  UNL d   1      -1.360  -2.282   0.692  0.00  0.00    -0.097 F 
ATOM     12  F4  UNL d   1      -0.227  -0.105   1.883  0.00  0.00    -0.092 F 
ENDROOT
TORSDOF 0
ENDMDL
