MODEL 1
REMARK minimizedAffinity 17.2436581
REMARK minimizedRMSD -1
REMARK  0 active torsions:
REMARK  status: ('A' for Active; 'I' for Inactive)
ROOT
ATOM      1  C   UNL d   1       0.531  -3.816  -0.538  0.00  0.00     0.124 A 
ATOM      2  C1  UNL d   1      -0.103  -2.862   0.247  0.00  0.00     0.062 A 
ATOM      3  C2  UNL d   1       0.648  -1.928   0.956  0.00  0.00     0.162 A 
ATOM      4  C3  UNL d   1       2.040  -1.942   0.882  0.00  0.00    -0.034 A 
ATOM      5  C4  UNL d   1       2.671  -2.904   0.091  0.00  0.00     0.162 A 
ATOM      6  C5  UNL d   1       1.916  -3.836  -0.615  0.00  0.00     0.062 A 
ATOM      7  F   UNL d   1       2.530  -4.756  -1.373  0.00  0.00    -0.097 F 
ATOM      8  F1  UNL d   1       4.008  -2.946  -0.003  0.00  0.00    -0.096 F 
ATOM      9  I   UNL d   1       3.166  -0.547   1.940  0.00  0.00    -0.060 I 
ATOM     10  F2  UNL d   1       0.009  -1.018   1.706  0.00  0.00    -0.096 F 
ATOM     11  F3  UNL d   1      -1.441  -2.841   0.324  0.00  0.00    -0.097 F 
ATOM     12  F4  UNL d   1      -0.193  -4.714  -1.218  0.00  0.00    -0.092 F 
ENDROOT
TORSDOF 0
ENDMDL
