MODEL 1
REMARK minimizedAffinity 17.7617645
REMARK minimizedRMSD -1
REMARK  2 active torsions:
REMARK  status: ('A' for Active; 'I' for Inactive)
REMARK    1  A    between atoms: C2'_3  and  C1'_4 
REMARK    2  A    between atoms: C1'_4  and  C1_5 
ROOT
ATOM      1  C1  I4B d   1      -4.226   1.459   4.531  0.00  0.00    -0.075 A 
ATOM      2  C2  I4B d   1      -4.049   2.120   5.721  0.00  0.00     0.003 A 
ATOM      3  C3  I4B d   1      -4.788   3.295   5.999  0.00  0.00     0.002 A 
ATOM      4  C4  I4B d   1      -5.648   3.799   5.046  0.00  0.00    -0.004 A 
ATOM      5  C5  I4B d   1      -5.843   3.116   3.849  0.00  0.00     0.002 A 
ATOM      6  C6  I4B d   1      -5.137   1.931   3.595  0.00  0.00     0.003 A 
ENDROOT
BRANCH   1   7
ATOM      7  C1' I4B d   1      -3.405   0.239   4.255  0.00  0.00     0.060 C 
BRANCH   7   8
ATOM      8  C2' I4B d   1      -3.514  -0.073   2.776  0.00  0.00    -0.013 C 
ATOM      9  C4' I4B d   1      -2.244   0.282   2.050  0.00  0.00     0.013 C 
ATOM     10  C3' I4B d   1      -3.831  -1.532   2.633  0.00  0.00     0.013 C 
ENDBRANCH   7   8
ENDBRANCH   1   7
TORSDOF 2
ENDMDL
