MODEL 1
REMARK minimizedAffinity 6.51362562
REMARK minimizedRMSD -1
REMARK  2 active torsions:
REMARK  status: ('A' for Active; 'I' for Inactive)
REMARK    1  A    between atoms: C2'_3  and  C1'_4 
REMARK    2  A    between atoms: C1'_4  and  C1_5 
ROOT
ATOM      1  C1  I4B d   1      -4.158   0.706   4.150  0.00  0.00    -0.075 A 
ATOM      2  C2  I4B d   1      -5.120   1.468   3.537  0.00  0.00     0.003 A 
ATOM      3  C3  I4B d   1      -5.585   2.658   4.150  0.00  0.00     0.002 A 
ATOM      4  C4  I4B d   1      -5.099   3.017   5.390  0.00  0.00    -0.004 A 
ATOM      5  C5  I4B d   1      -4.106   2.255   6.000  0.00  0.00     0.002 A 
ATOM      6  C6  I4B d   1      -3.623   1.099   5.370  0.00  0.00     0.003 A 
ENDROOT
BRANCH   1   7
ATOM      7  C1' I4B d   1      -3.714  -0.561   3.491  0.00  0.00     0.060 C 
BRANCH   7   8
ATOM      8  C2' I4B d   1      -4.650  -1.669   3.930  0.00  0.00    -0.013 C 
ATOM      9  C4' I4B d   1      -5.531  -2.120   2.795  0.00  0.00     0.013 C 
ATOM     10  C3' I4B d   1      -3.816  -2.801   4.451  0.00  0.00     0.013 C 
ENDBRANCH   7   8
ENDBRANCH   1   7
TORSDOF 2
ENDMDL
