MODEL 1
REMARK minimizedAffinity 16.3092136
REMARK minimizedRMSD -1
REMARK  2 active torsions:
REMARK  status: ('A' for Active; 'I' for Inactive)
REMARK    1  A    between atoms: C2'_3  and  C1'_4 
REMARK    2  A    between atoms: C1'_4  and  C1_5 
ROOT
ATOM      1  C1  I4B d   1      -3.474  -0.626   3.005  0.00  0.00    -0.075 A 
ATOM      2  C2  I4B d   1      -2.288  -0.454   2.336  0.00  0.00     0.003 A 
ATOM      3  C3  I4B d   1      -1.637   0.803   2.351  0.00  0.00     0.002 A 
ATOM      4  C4  I4B d   1      -2.229   1.868   3.000  0.00  0.00    -0.004 A 
ATOM      5  C5  I4B d   1      -3.420   1.686   3.696  0.00  0.00     0.002 A 
ATOM      6  C6  I4B d   1      -4.041   0.428   3.709  0.00  0.00     0.003 A 
ENDROOT
BRANCH   1   7
ATOM      7  C1' I4B d   1      -4.151  -1.958   2.941  0.00  0.00     0.060 C 
BRANCH   7   8
ATOM      8  C2' I4B d   1      -5.498  -1.766   2.273  0.00  0.00    -0.013 C 
ATOM      9  C4' I4B d   1      -5.396  -0.826   1.100  0.00  0.00     0.013 C 
ATOM     10  C3' I4B d   1      -5.999  -3.113   1.845  0.00  0.00     0.013 C 
ENDBRANCH   7   8
ENDBRANCH   1   7
TORSDOF 2
ENDMDL
