MODEL 1
REMARK minimizedAffinity 12.1869125
REMARK minimizedRMSD -1
REMARK  2 active torsions:
REMARK  status: ('A' for Active; 'I' for Inactive)
REMARK    1  A    between atoms: C2'_3  and  C1'_4 
REMARK    2  A    between atoms: C1'_4  and  C1_5 
ROOT
ATOM      1  C1  I4B d   1       0.430  -0.137  -2.963  0.00  0.00    -0.075 A 
ATOM      2  C2  I4B d   1       0.341   0.710  -4.039  0.00  0.00     0.003 A 
ATOM      3  C3  I4B d   1      -0.920   1.196  -4.462  0.00  0.00     0.002 A 
ATOM      4  C4  I4B d   1      -2.063   0.773  -3.814  0.00  0.00    -0.004 A 
ATOM      5  C5  I4B d   1      -1.969  -0.067  -2.709  0.00  0.00     0.002 A 
ATOM      6  C6  I4B d   1      -0.714  -0.516  -2.272  0.00  0.00     0.003 A 
ENDROOT
BRANCH   1   7
ATOM      7  C1' I4B d   1       1.774  -0.657  -2.564  0.00  0.00     0.060 C 
BRANCH   7   8
ATOM      8  C2' I4B d   1       1.671  -1.182  -1.147  0.00  0.00    -0.013 C 
ATOM      9  C4' I4B d   1       2.090  -2.627  -1.068  0.00  0.00     0.013 C 
ATOM     10  C3' I4B d   1       2.529  -0.321  -0.270  0.00  0.00     0.013 C 
ENDBRANCH   7   8
ENDBRANCH   1   7
TORSDOF 2
ENDMDL
