MODEL 1
REMARK minimizedAffinity 11.5073957
REMARK minimizedRMSD -1
REMARK  2 active torsions:
REMARK  status: ('A' for Active; 'I' for Inactive)
REMARK    1  A    between atoms: C2'_3  and  C1'_4 
REMARK    2  A    between atoms: C1'_4  and  C1_5 
ROOT
ATOM      1  C1  I4B d   1       0.445   1.128   3.443  0.00  0.00    -0.075 A 
ATOM      2  C2  I4B d   1       0.584  -0.019   2.702  0.00  0.00     0.003 A 
ATOM      3  C3  I4B d   1      -0.394  -0.367   1.738  0.00  0.00     0.002 A 
ATOM      4  C4  I4B d   1      -1.511   0.429   1.585  0.00  0.00    -0.004 A 
ATOM      5  C5  I4B d   1      -1.638   1.603   2.321  0.00  0.00     0.002 A 
ATOM      6  C6  I4B d   1      -0.648   1.962   3.247  0.00  0.00     0.003 A 
ENDROOT
BRANCH   1   7
ATOM      7  C1' I4B d   1       1.479   1.448   4.476  0.00  0.00     0.060 C 
BRANCH   7   8
ATOM      8  C2' I4B d   1       0.862   1.222   5.841  0.00  0.00    -0.013 C 
ATOM      9  C4' I4B d   1      -0.413   2.008   6.000  0.00  0.00     0.013 C 
ATOM     10  C3' I4B d   1       0.614  -0.249   5.998  0.00  0.00     0.013 C 
ENDBRANCH   7   8
ENDBRANCH   1   7
TORSDOF 2
ENDMDL
