MODEL 1
REMARK minimizedAffinity 12.2982092
REMARK minimizedRMSD -1
REMARK  2 active torsions:
REMARK  status: ('A' for Active; 'I' for Inactive)
REMARK    1  A    between atoms: C2'_3  and  C1'_4 
REMARK    2  A    between atoms: C1'_4  and  C1_5 
ROOT
ATOM      1  C1  I4B d   1      -1.572   0.289   2.620  0.00  0.00    -0.075 A 
ATOM      2  C2  I4B d   1      -1.976  -1.013   2.465  0.00  0.00     0.003 A 
ATOM      3  C3  I4B d   1      -3.321  -1.377   2.713  0.00  0.00     0.002 A 
ATOM      4  C4  I4B d   1      -4.212  -0.422   3.160  0.00  0.00    -0.004 A 
ATOM      5  C5  I4B d   1      -3.806   0.903   3.295  0.00  0.00     0.002 A 
ATOM      6  C6  I4B d   1      -2.481   1.264   3.011  0.00  0.00     0.003 A 
ENDROOT
BRANCH   1   7
ATOM      7  C1' I4B d   1      -0.135   0.632   2.380  0.00  0.00     0.060 C 
BRANCH   7   8
ATOM      8  C2' I4B d   1       0.296   1.611   3.453  0.00  0.00    -0.013 C 
ATOM      9  C4' I4B d   1       1.734   1.396   3.842  0.00  0.00     0.013 C 
ATOM     10  C3' I4B d   1       0.079   2.999   2.927  0.00  0.00     0.013 C 
ENDBRANCH   7   8
ENDBRANCH   1   7
TORSDOF 2
ENDMDL
