MODEL 1
REMARK minimizedAffinity 15.6755705
REMARK minimizedRMSD -1
REMARK  2 active torsions:
REMARK  status: ('A' for Active; 'I' for Inactive)
REMARK    1  A    between atoms: C2'_3  and  C1'_4 
REMARK    2  A    between atoms: C1'_4  and  C1_5 
ROOT
ATOM      1  C1  I4B d   1      -4.587  -2.878   1.909  0.00  0.00    -0.075 A 
ATOM      2  C2  I4B d   1      -5.547  -3.378   1.065  0.00  0.00     0.003 A 
ATOM      3  C3  I4B d   1      -5.379  -4.651   0.469  0.00  0.00     0.002 A 
ATOM      4  C4  I4B d   1      -4.220  -5.363   0.702  0.00  0.00    -0.004 A 
ATOM      5  C5  I4B d   1      -3.258  -4.864   1.575  0.00  0.00     0.002 A 
ATOM      6  C6  I4B d   1      -3.448  -3.620   2.193  0.00  0.00     0.003 A 
ENDROOT
BRANCH   1   7
ATOM      7  C1' I4B d   1      -4.782  -1.516   2.496  0.00  0.00     0.060 C 
BRANCH   7   8
ATOM      8  C2' I4B d   1      -3.520  -1.148   3.250  0.00  0.00    -0.013 C 
ATOM      9  C4' I4B d   1      -3.168   0.303   3.047  0.00  0.00     0.013 C 
ATOM     10  C3' I4B d   1      -3.742  -1.454   4.701  0.00  0.00     0.013 C 
ENDBRANCH   7   8
ENDBRANCH   1   7
TORSDOF 2
ENDMDL
