MODEL 1
REMARK minimizedAffinity 13.4559355
REMARK minimizedRMSD -1
REMARK  2 active torsions:
REMARK  status: ('A' for Active; 'I' for Inactive)
REMARK    1  A    between atoms: C2'_3  and  C1'_4 
REMARK    2  A    between atoms: C1'_4  and  C1_5 
ROOT
ATOM      1  C1  I4B d   1       2.957  -0.750  -0.867  0.00  0.00    -0.075 A 
ATOM      2  C2  I4B d   1       1.742  -1.388  -0.883  0.00  0.00     0.003 A 
ATOM      3  C3  I4B d   1       1.620  -2.701  -0.368  0.00  0.00     0.002 A 
ATOM      4  C4  I4B d   1       2.740  -3.353   0.104  0.00  0.00    -0.004 A 
ATOM      5  C5  I4B d   1       3.967  -2.696   0.141  0.00  0.00     0.002 A 
ATOM      6  C6  I4B d   1       4.074  -1.382  -0.336  0.00  0.00     0.003 A 
ENDROOT
BRANCH   1   7
ATOM      7  C1' I4B d   1       3.057   0.625  -1.449  0.00  0.00     0.060 C 
BRANCH   7   8
ATOM      8  C2' I4B d   1       3.667   1.532  -0.401  0.00  0.00    -0.013 C 
ATOM      9  C4' I4B d   1       2.869   1.504   0.876  0.00  0.00     0.013 C 
ATOM     10  C3' I4B d   1       5.080   1.086  -0.166  0.00  0.00     0.013 C 
ENDBRANCH   7   8
ENDBRANCH   1   7
TORSDOF 2
ENDMDL
