MODEL 1
REMARK minimizedAffinity 5.54408884
REMARK minimizedRMSD -1
REMARK  2 active torsions:
REMARK  status: ('A' for Active; 'I' for Inactive)
REMARK    1  A    between atoms: C2'_3  and  C1'_4 
REMARK    2  A    between atoms: C1'_4  and  C1_5 
ROOT
ATOM      1  C1  I4B d   1       2.650  -3.011  -2.262  0.00  0.00    -0.075 A 
ATOM      2  C2  I4B d   1       3.404  -3.377  -3.349  0.00  0.00     0.003 A 
ATOM      3  C3  I4B d   1       3.944  -4.683  -3.434  0.00  0.00     0.002 A 
ATOM      4  C4  I4B d   1       3.749  -5.569  -2.394  0.00  0.00    -0.004 A 
ATOM      5  C5  I4B d   1       2.965  -5.203  -1.303  0.00  0.00     0.002 A 
ATOM      6  C6  I4B d   1       2.401  -3.920  -1.242  0.00  0.00     0.003 A 
ENDROOT
BRANCH   1   7
ATOM      7  C1' I4B d   1       2.122  -1.613  -2.189  0.00  0.00     0.060 C 
BRANCH   7   8
ATOM      8  C2' I4B d   1       2.500  -1.041  -0.838  0.00  0.00    -0.013 C 
ATOM      9  C4' I4B d   1       3.554  -1.882  -0.165  0.00  0.00     0.013 C 
ATOM     10  C3' I4B d   1       2.981   0.364  -1.047  0.00  0.00     0.013 C 
ENDBRANCH   7   8
ENDBRANCH   1   7
TORSDOF 2
ENDMDL
