MODEL 1
REMARK minimizedAffinity 4.51211309
REMARK minimizedRMSD -1
REMARK  2 active torsions:
REMARK  status: ('A' for Active; 'I' for Inactive)
REMARK    1  A    between atoms: C2'_3  and  C1'_4 
REMARK    2  A    between atoms: C1'_4  and  C1_5 
ROOT
ATOM      1  C1  I4B d   1       2.491  -0.593  -1.413  0.00  0.00    -0.075 A 
ATOM      2  C2  I4B d   1       1.850  -0.978  -2.564  0.00  0.00     0.003 A 
ATOM      3  C3  I4B d   1       1.478  -2.331  -2.755  0.00  0.00     0.002 A 
ATOM      4  C4  I4B d   1       1.809  -3.268  -1.798  0.00  0.00    -0.004 A 
ATOM      5  C5  I4B d   1       2.438  -2.873  -0.621  0.00  0.00     0.002 A 
ATOM      6  C6  I4B d   1       2.770  -1.525  -0.421  0.00  0.00     0.003 A 
ENDROOT
BRANCH   1   7
ATOM      7  C1' I4B d   1       2.898   0.838  -1.258  0.00  0.00     0.060 C 
BRANCH   7   8
ATOM      8  C2' I4B d   1       3.731   0.952   0.003  0.00  0.00    -0.013 C 
ATOM      9  C4' I4B d   1       5.125   1.430  -0.306  0.00  0.00     0.013 C 
ATOM     10  C3' I4B d   1       3.030   1.894   0.936  0.00  0.00     0.013 C 
ENDBRANCH   7   8
ENDBRANCH   1   7
TORSDOF 2
ENDMDL
