MODEL 1
REMARK minimizedAffinity 10.4185019
REMARK minimizedRMSD -1
REMARK  2 active torsions:
REMARK  status: ('A' for Active; 'I' for Inactive)
REMARK    1  A    between atoms: C2'_3  and  C1'_4 
REMARK    2  A    between atoms: C1'_4  and  C1_5 
ROOT
ATOM      1  C1  I4B d   1       2.151  -2.324  -2.289  0.00  0.00    -0.075 A 
ATOM      2  C2  I4B d   1       2.943  -2.901  -3.250  0.00  0.00     0.003 A 
ATOM      3  C3  I4B d   1       2.356  -3.591  -4.338  0.00  0.00     0.002 A 
ATOM      4  C4  I4B d   1       0.983  -3.722  -4.398  0.00  0.00    -0.004 A 
ATOM      5  C5  I4B d   1       0.181  -3.117  -3.436  0.00  0.00     0.002 A 
ATOM      6  C6  I4B d   1       0.767  -2.402  -2.381  0.00  0.00     0.003 A 
ENDROOT
BRANCH   1   7
ATOM      7  C1' I4B d   1       2.805  -1.631  -1.136  0.00  0.00     0.060 C 
BRANCH   7   8
ATOM      8  C2' I4B d   1       3.109  -2.671  -0.078  0.00  0.00    -0.013 C 
ATOM      9  C4' I4B d   1       2.222  -3.879  -0.230  0.00  0.00     0.013 C 
ATOM     10  C3' I4B d   1       4.557  -3.044  -0.196  0.00  0.00     0.013 C 
ENDBRANCH   7   8
ENDBRANCH   1   7
TORSDOF 2
ENDMDL
