MODEL 1
REMARK minimizedAffinity 4.9984355
REMARK minimizedRMSD -1
REMARK  2 active torsions:
REMARK  status: ('A' for Active; 'I' for Inactive)
REMARK    1  A    between atoms: C2'_3  and  C1'_4 
REMARK    2  A    between atoms: C1'_4  and  C1_5 
ROOT
ATOM      1  C1  I4B d   1       1.115  -2.958  -2.209  0.00  0.00    -0.075 A 
ATOM      2  C2  I4B d   1       1.640  -3.553  -1.090  0.00  0.00     0.003 A 
ATOM      3  C3  I4B d   1       2.479  -2.818  -0.218  0.00  0.00     0.002 A 
ATOM      4  C4  I4B d   1       2.805  -1.513  -0.528  0.00  0.00    -0.004 A 
ATOM      5  C5  I4B d   1       2.253  -0.904  -1.651  0.00  0.00     0.002 A 
ATOM      6  C6  I4B d   1       1.393  -1.626  -2.491  0.00  0.00     0.003 A 
ENDROOT
BRANCH   1   7
ATOM      7  C1' I4B d   1       0.260  -3.774  -3.126  0.00  0.00     0.060 C 
BRANCH   7   8
ATOM      8  C2' I4B d   1      -1.173  -3.666  -2.646  0.00  0.00    -0.013 C 
ATOM      9  C4' I4B d   1      -2.085  -3.202  -3.751  0.00  0.00     0.013 C 
ATOM     10  C3' I4B d   1      -1.590  -5.010  -2.129  0.00  0.00     0.013 C 
ENDBRANCH   7   8
ENDBRANCH   1   7
TORSDOF 2
ENDMDL
