MODEL 1
REMARK minimizedAffinity 13.7924709
REMARK minimizedRMSD -1
REMARK  2 active torsions:
REMARK  status: ('A' for Active; 'I' for Inactive)
REMARK    1  A    between atoms: C2'_3  and  C1'_4 
REMARK    2  A    between atoms: C1'_4  and  C1_5 
ROOT
ATOM      1  C1  I4B d   1       2.484  -0.452  -1.114  0.00  0.00    -0.075 A 
ATOM      2  C2  I4B d   1       1.983  -0.719  -2.364  0.00  0.00     0.003 A 
ATOM      3  C3  I4B d   1       1.680  -2.050  -2.741  0.00  0.00     0.002 A 
ATOM      4  C4  I4B d   1       1.940  -3.081  -1.862  0.00  0.00    -0.004 A 
ATOM      5  C5  I4B d   1       2.426  -2.806  -0.587  0.00  0.00     0.002 A 
ATOM      6  C6  I4B d   1       2.689  -1.483  -0.206  0.00  0.00     0.003 A 
ENDROOT
BRANCH   1   7
ATOM      7  C1' I4B d   1       2.823   0.961  -0.760  0.00  0.00     0.060 C 
BRANCH   7   8
ATOM      8  C2' I4B d   1       4.076   0.941   0.092  0.00  0.00    -0.013 C 
ATOM      9  C4' I4B d   1       5.249   1.526  -0.649  0.00  0.00     0.013 C 
ATOM     10  C3' I4B d   1       3.792   1.708   1.349  0.00  0.00     0.013 C 
ENDBRANCH   7   8
ENDBRANCH   1   7
TORSDOF 2
ENDMDL
