MODEL 1
REMARK minimizedAffinity 7.42400169
REMARK minimizedRMSD -1
REMARK  2 active torsions:
REMARK  status: ('A' for Active; 'I' for Inactive)
REMARK    1  A    between atoms: C2'_3  and  C1'_4 
REMARK    2  A    between atoms: C1'_4  and  C1_5 
ROOT
ATOM      1  C1  I4B d   1       0.610  -3.599  -2.819  0.00  0.00    -0.075 A 
ATOM      2  C2  I4B d   1      -0.509  -3.002  -3.345  0.00  0.00     0.003 A 
ATOM      3  C3  I4B d   1      -1.794  -3.533  -3.075  0.00  0.00     0.002 A 
ATOM      4  C4  I4B d   1      -1.909  -4.683  -2.321  0.00  0.00    -0.004 A 
ATOM      5  C5  I4B d   1      -0.776  -5.273  -1.770  0.00  0.00     0.002 A 
ATOM      6  C6  I4B d   1       0.491  -4.721  -2.010  0.00  0.00     0.003 A 
ENDROOT
BRANCH   1   7
ATOM      7  C1' I4B d   1       1.953  -3.031  -3.152  0.00  0.00     0.060 C 
BRANCH   7   8
ATOM      8  C2' I4B d   1       2.349  -2.085  -2.037  0.00  0.00    -0.013 C 
ATOM      9  C4' I4B d   1       1.530  -0.821  -2.078  0.00  0.00     0.013 C 
ATOM     10  C3' I4B d   1       2.169  -2.804  -0.733  0.00  0.00     0.013 C 
ENDBRANCH   7   8
ENDBRANCH   1   7
TORSDOF 2
ENDMDL
