MODEL 1
REMARK minimizedAffinity 12.5973549
REMARK minimizedRMSD -1
REMARK  2 active torsions:
REMARK  status: ('A' for Active; 'I' for Inactive)
REMARK    1  A    between atoms: C2'_3  and  C1'_4 
REMARK    2  A    between atoms: C1'_4  and  C1_5 
ROOT
ATOM      1  C1  I4B d   1      -2.296   0.269   3.925  0.00  0.00    -0.075 A 
ATOM      2  C2  I4B d   1      -1.426   1.259   4.311  0.00  0.00     0.003 A 
ATOM      3  C3  I4B d   1      -1.229   2.395   3.489  0.00  0.00     0.002 A 
ATOM      4  C4  I4B d   1      -1.879   2.476   2.275  0.00  0.00    -0.004 A 
ATOM      5  C5  I4B d   1      -2.778   1.483   1.896  0.00  0.00     0.002 A 
ATOM      6  C6  I4B d   1      -2.998   0.379   2.732  0.00  0.00     0.003 A 
ENDROOT
BRANCH   1   7
ATOM      7  C1' I4B d   1      -2.456  -0.932   4.802  0.00  0.00     0.060 C 
BRANCH   7   8
ATOM      8  C2' I4B d   1      -1.945  -2.138   4.039  0.00  0.00    -0.013 C 
ATOM      9  C4' I4B d   1      -0.441  -2.206   4.071  0.00  0.00     0.013 C 
ATOM     10  C3' I4B d   1      -2.556  -3.364   4.649  0.00  0.00     0.013 C 
ENDBRANCH   7   8
ENDBRANCH   1   7
TORSDOF 2
ENDMDL
