MODEL 1
REMARK minimizedAffinity -5.94303083
REMARK minimizedRMSD -1
REMARK  0 active torsions:
REMARK  status: ('A' for Active; 'I' for Inactive)
ROOT
ATOM      1  O1  BZF d   1       0.949  -0.740   0.193  0.00  0.00    -0.204 OA
ATOM      2  C2  BZF d   1      -0.418  -0.642   0.366  0.00  0.00     0.174 A 
ATOM      3  C3  BZF d   1      -0.796   0.648   0.474  0.00  0.00    -0.012 A 
ATOM      4  C3A BZF d   1       0.399   1.408   0.269  0.00  0.00    -0.107 A 
ATOM      5  C4  BZF d   1       0.667   2.747   0.242  0.00  0.00     0.055 A 
ATOM      6  C5  BZF d   1       1.953   3.160   0.091  0.00  0.00    -0.016 A 
ATOM      7  C6  BZF d   1       2.994   2.264  -0.029  0.00  0.00     0.022 A 
ATOM      8  C7  BZF d   1       2.777   0.926  -0.012  0.00  0.00     0.029 A 
ATOM      9  C7A BZF d   1       1.475   0.506   0.107  0.00  0.00     0.058 A 
ENDROOT
TORSDOF 0
ENDMDL
