MODEL 1
REMARK minimizedAffinity -4.40649128
REMARK minimizedRMSD -1
REMARK  0 active torsions:
REMARK  status: ('A' for Active; 'I' for Inactive)
ROOT
ATOM      1  O1  BZF d   1       1.050  -0.398   0.227  0.00  0.00    -0.204 OA
ATOM      2  C2  BZF d   1      -0.150  -1.061   0.398  0.00  0.00     0.174 A 
ATOM      3  C3  BZF d   1      -1.156  -0.185   0.599  0.00  0.00    -0.012 A 
ATOM      4  C3A BZF d   1      -0.561   1.109   0.460  0.00  0.00    -0.107 A 
ATOM      5  C4  BZF d   1      -1.053   2.381   0.534  0.00  0.00     0.055 A 
ATOM      6  C5  BZF d   1      -0.194   3.429   0.423  0.00  0.00    -0.016 A 
ATOM      7  C6  BZF d   1       1.161   3.241   0.243  0.00  0.00     0.022 A 
ATOM      8  C7  BZF d   1       1.694   1.998   0.158  0.00  0.00     0.029 A 
ATOM      9  C7A BZF d   1       0.825   0.938   0.237  0.00  0.00     0.058 A 
ENDROOT
TORSDOF 0
ENDMDL
