MODEL 1
REMARK minimizedAffinity -5.87590218
REMARK minimizedRMSD -1
REMARK  0 active torsions:
REMARK  status: ('A' for Active; 'I' for Inactive)
ROOT
ATOM      1  O1  BZF d   1       0.930  -0.642   0.006  0.00  0.00    -0.204 OA
ATOM      2  C2  BZF d   1      -0.436  -0.835  -0.062  0.00  0.00     0.174 A 
ATOM      3  C3  BZF d   1      -1.091   0.340   0.038  0.00  0.00    -0.012 A 
ATOM      4  C3A BZF d   1      -0.067   1.338   0.083  0.00  0.00    -0.107 A 
ATOM      5  C4  BZF d   1      -0.088   2.701   0.165  0.00  0.00     0.055 A 
ATOM      6  C5  BZF d   1       1.089   3.375   0.264  0.00  0.00    -0.016 A 
ATOM      7  C6  BZF d   1       2.302   2.718   0.288  0.00  0.00     0.022 A 
ATOM      8  C7  BZF d   1       2.373   1.368   0.204  0.00  0.00     0.029 A 
ATOM      9  C7A BZF d   1       1.188   0.686   0.071  0.00  0.00     0.058 A 
ENDROOT
TORSDOF 0
ENDMDL
