MODEL 1
REMARK minimizedAffinity -4.64964056
REMARK minimizedRMSD -1
REMARK  0 active torsions:
REMARK  status: ('A' for Active; 'I' for Inactive)
ROOT
ATOM      1  O1  BZF d   1       0.905  -0.950  -0.148  0.00  0.00    -0.204 OA
ATOM      2  C2  BZF d   1      -0.407  -1.375  -0.055  0.00  0.00     0.174 A 
ATOM      3  C3  BZF d   1      -1.211  -0.364   0.332  0.00  0.00    -0.012 A 
ATOM      4  C3A BZF d   1      -0.363   0.786   0.400  0.00  0.00    -0.107 A 
ATOM      5  C4  BZF d   1      -0.583   2.098   0.712  0.00  0.00     0.055 A 
ATOM      6  C5  BZF d   1       0.472   2.952   0.756  0.00  0.00    -0.016 A 
ATOM      7  C6  BZF d   1       1.760   2.529   0.499  0.00  0.00     0.022 A 
ATOM      8  C7  BZF d   1       2.027   1.240   0.180  0.00  0.00     0.029 A 
ATOM      9  C7A BZF d   1       0.958   0.381   0.103  0.00  0.00     0.058 A 
ENDROOT
TORSDOF 0
ENDMDL
