MODEL 1
REMARK minimizedAffinity -4.27571392
REMARK minimizedRMSD -1
REMARK  0 active torsions:
REMARK  status: ('A' for Active; 'I' for Inactive)
ROOT
ATOM      1  O1  BZF d   1       2.348   0.795   0.478  0.00  0.00    -0.204 OA
ATOM      2  C2  BZF d   1       3.169   1.885   0.693  0.00  0.00     0.174 A 
ATOM      3  C3  BZF d   1       2.454   3.029   0.700  0.00  0.00    -0.012 A 
ATOM      4  C3A BZF d   1       1.090   2.620   0.567  0.00  0.00    -0.107 A 
ATOM      5  C4  BZF d   1      -0.094   3.300   0.525  0.00  0.00     0.055 A 
ATOM      6  C5  BZF d   1      -1.245   2.610   0.313  0.00  0.00    -0.016 A 
ATOM      7  C6  BZF d   1      -1.249   1.242   0.136  0.00  0.00     0.022 A 
ATOM      8  C7  BZF d   1      -0.100   0.523   0.174  0.00  0.00     0.029 A 
ATOM      9  C7A BZF d   1       1.061   1.214   0.420  0.00  0.00     0.058 A 
ENDROOT
TORSDOF 0
ENDMDL
