MODEL 1
REMARK minimizedAffinity -3.83550978
REMARK minimizedRMSD -1
REMARK  0 active torsions:
REMARK  status: ('A' for Active; 'I' for Inactive)
ROOT
ATOM      1  O1  BZF d   1       1.281  -0.085  -0.144  0.00  0.00    -0.204 OA
ATOM      2  C2  BZF d   1       0.693  -1.330  -0.028  0.00  0.00     0.174 A 
ATOM      3  C3  BZF d   1      -0.577  -1.219   0.412  0.00  0.00    -0.012 A 
ATOM      4  C3A BZF d   1      -0.826   0.187   0.493  0.00  0.00    -0.107 A 
ATOM      5  C4  BZF d   1      -1.916   0.928   0.852  0.00  0.00     0.055 A 
ATOM      6  C5  BZF d   1      -1.809   2.282   0.893  0.00  0.00    -0.016 A 
ATOM      7  C6  BZF d   1      -0.628   2.927   0.588  0.00  0.00     0.022 A 
ATOM      8  C7  BZF d   1       0.478   2.235   0.221  0.00  0.00     0.029 A 
ATOM      9  C7A BZF d   1       0.364   0.868   0.147  0.00  0.00     0.058 A 
ENDROOT
TORSDOF 0
ENDMDL
