MODEL 1
REMARK minimizedAffinity -2.89134741
REMARK minimizedRMSD -1
REMARK  0 active torsions:
REMARK  status: ('A' for Active; 'I' for Inactive)
ROOT
ATOM      1  O1  BZF d   1      -1.365   0.332   1.012  0.00  0.00    -0.204 OA
ATOM      2  C2  BZF d   1      -0.897  -0.866   0.508  0.00  0.00     0.174 A 
ATOM      3  C3  BZF d   1       0.261  -0.685  -0.159  0.00  0.00    -0.012 A 
ATOM      4  C3A BZF d   1       0.582   0.699   0.013  0.00  0.00    -0.107 A 
ATOM      5  C4  BZF d   1       1.622   1.481  -0.403  0.00  0.00     0.055 A 
ATOM      6  C5  BZF d   1       1.598   2.811  -0.129  0.00  0.00    -0.016 A 
ATOM      7  C6  BZF d   1       0.550   3.394   0.553  0.00  0.00     0.022 A 
ATOM      8  C7  BZF d   1      -0.502   2.659   0.989  0.00  0.00     0.029 A 
ATOM      9  C7A BZF d   1      -0.465   1.308   0.743  0.00  0.00     0.058 A 
ENDROOT
TORSDOF 0
ENDMDL
