MODEL 1
REMARK minimizedAffinity -5.83707905
REMARK minimizedRMSD -1
REMARK  0 active torsions:
REMARK  status: ('A' for Active; 'I' for Inactive)
ROOT
ATOM      1  O1  BZF d   1       2.367   1.116   0.620  0.00  0.00    -0.204 OA
ATOM      2  C2  BZF d   1       2.902   2.341   0.969  0.00  0.00     0.174 A 
ATOM      3  C3  BZF d   1       1.956   3.302   0.937  0.00  0.00    -0.012 A 
ATOM      4  C3A BZF d   1       0.736   2.620   0.631  0.00  0.00    -0.107 A 
ATOM      5  C4  BZF d   1      -0.557   3.032   0.478  0.00  0.00     0.055 A 
ATOM      6  C5  BZF d   1      -1.499   2.125   0.109  0.00  0.00    -0.016 A 
ATOM      7  C6  BZF d   1      -1.184   0.802  -0.120  0.00  0.00     0.022 A 
ATOM      8  C7  BZF d   1       0.084   0.345   0.024  0.00  0.00     0.029 A 
ATOM      9  C7A BZF d   1       1.033   1.252   0.429  0.00  0.00     0.058 A 
ENDROOT
TORSDOF 0
ENDMDL
