MODEL 1
REMARK minimizedAffinity -4.42347574
REMARK minimizedRMSD -1
REMARK  0 active torsions:
REMARK  status: ('A' for Active; 'I' for Inactive)
ROOT
ATOM      1  O1  BZF d   1      -1.006   2.603   0.834  0.00  0.00    -0.204 OA
ATOM      2  C2  BZF d   1       0.139   3.099   0.242  0.00  0.00     0.174 A 
ATOM      3  C3  BZF d   1       0.894   2.097  -0.253  0.00  0.00    -0.012 A 
ATOM      4  C3A BZF d   1       0.130   0.907  -0.034  0.00  0.00    -0.107 A 
ATOM      5  C4  BZF d   1       0.341  -0.411  -0.322  0.00  0.00     0.055 A 
ATOM      6  C5  BZF d   1      -0.568  -1.332   0.092  0.00  0.00    -0.016 A 
ATOM      7  C6  BZF d   1      -1.696  -0.971   0.800  0.00  0.00     0.022 A 
ATOM      8  C7  BZF d   1      -1.952   0.325   1.105  0.00  0.00     0.029 A 
ATOM      9  C7A BZF d   1      -1.051   1.261   0.659  0.00  0.00     0.058 A 
ENDROOT
TORSDOF 0
ENDMDL
