MODEL 1
REMARK minimizedAffinity -6.606987
REMARK minimizedRMSD -1
REMARK  0 active torsions:
REMARK  status: ('A' for Active; 'I' for Inactive)
ROOT
ATOM      1  O1  BZF d   1       1.054  -0.161   0.124  0.00  0.00    -0.204 OA
ATOM      2  C2  BZF d   1      -0.286  -0.462   0.268  0.00  0.00     0.174 A 
ATOM      3  C3  BZF d   1      -1.014   0.661   0.432  0.00  0.00    -0.012 A 
ATOM      4  C3A BZF d   1      -0.081   1.737   0.296  0.00  0.00    -0.107 A 
ATOM      5  C4  BZF d   1      -0.203   3.097   0.342  0.00  0.00     0.055 A 
ATOM      6  C5  BZF d   1       0.914   3.864   0.244  0.00  0.00    -0.016 A 
ATOM      7  C6  BZF d   1       2.168   3.305   0.104  0.00  0.00     0.022 A 
ATOM      8  C7  BZF d   1       2.338   1.962   0.047  0.00  0.00     0.029 A 
ATOM      9  C7A BZF d   1       1.207   1.185   0.113  0.00  0.00     0.058 A 
ENDROOT
TORSDOF 0
ENDMDL
