MODEL 1
REMARK minimizedAffinity -5.38116932
REMARK minimizedRMSD -1
REMARK  0 active torsions:
REMARK  status: ('A' for Active; 'I' for Inactive)
ROOT
ATOM      1  O1  BZF d   1       0.814  -0.703  -0.135  0.00  0.00    -0.204 OA
ATOM      2  C2  BZF d   1      -0.554  -0.895  -0.149  0.00  0.00     0.174 A 
ATOM      3  C3  BZF d   1      -1.202   0.271   0.048  0.00  0.00    -0.012 A 
ATOM      4  C3A BZF d   1      -0.177   1.268   0.103  0.00  0.00    -0.107 A 
ATOM      5  C4  BZF d   1      -0.193   2.623   0.264  0.00  0.00     0.055 A 
ATOM      6  C5  BZF d   1       0.986   3.293   0.346  0.00  0.00    -0.016 A 
ATOM      7  C6  BZF d   1       2.199   2.639   0.275  0.00  0.00     0.022 A 
ATOM      8  C7  BZF d   1       2.266   1.295   0.111  0.00  0.00     0.029 A 
ATOM      9  C7A BZF d   1       1.075   0.620  -0.005  0.00  0.00     0.058 A 
ENDROOT
TORSDOF 0
ENDMDL
