MODEL 1
REMARK minimizedAffinity -2.85239196
REMARK minimizedRMSD -1
REMARK  0 active torsions:
REMARK  status: ('A' for Active; 'I' for Inactive)
ROOT
ATOM      1  O1  BZF d   1      -1.614   1.297   0.646  0.00  0.00    -0.204 OA
ATOM      2  C2  BZF d   1      -1.196   2.614   0.660  0.00  0.00     0.174 A 
ATOM      3  C3  BZF d   1       0.151   2.688   0.664  0.00  0.00    -0.012 A 
ATOM      4  C3A BZF d   1       0.602   1.335   0.558  0.00  0.00    -0.107 A 
ATOM      5  C4  BZF d   1       1.840   0.760   0.496  0.00  0.00     0.055 A 
ATOM      6  C5  BZF d   1       1.938  -0.595   0.471  0.00  0.00    -0.016 A 
ATOM      7  C6  BZF d   1       0.822  -1.405   0.511  0.00  0.00     0.022 A 
ATOM      8  C7  BZF d   1      -0.427  -0.881   0.567  0.00  0.00     0.029 A 
ATOM      9  C7A BZF d   1      -0.531   0.489   0.560  0.00  0.00     0.058 A 
ENDROOT
TORSDOF 0
ENDMDL
