MODEL 1
REMARK minimizedAffinity -5.14256001
REMARK minimizedRMSD -1
REMARK  0 active torsions:
REMARK  status: ('A' for Active; 'I' for Inactive)
ROOT
ATOM      1  O1  BZF d   1       0.850  -0.358  -0.059  0.00  0.00    -0.204 OA
ATOM      2  C2  BZF d   1      -0.526  -0.474  -0.102  0.00  0.00     0.174 A 
ATOM      3  C3  BZF d   1      -1.107   0.742  -0.147  0.00  0.00    -0.012 A 
ATOM      4  C3A BZF d   1      -0.024   1.674  -0.225  0.00  0.00    -0.107 A 
ATOM      5  C4  BZF d   1       0.039   3.036  -0.310  0.00  0.00     0.055 A 
ATOM      6  C5  BZF d   1       1.255   3.643  -0.296  0.00  0.00    -0.016 A 
ATOM      7  C6  BZF d   1       2.426   2.921  -0.192  0.00  0.00     0.022 A 
ATOM      8  C7  BZF d   1       2.414   1.568  -0.110  0.00  0.00     0.029 A 
ATOM      9  C7A BZF d   1       1.189   0.950  -0.157  0.00  0.00     0.058 A 
ENDROOT
TORSDOF 0
ENDMDL
