MODEL 1
REMARK minimizedAffinity -6.42491531
REMARK minimizedRMSD -1
REMARK  0 active torsions:
REMARK  status: ('A' for Active; 'I' for Inactive)
ROOT
ATOM      1  O1  BZF d   1       0.832  -0.444   0.664  0.00  0.00    -0.204 OA
ATOM      2  C2  BZF d   1      -0.532  -0.593   0.498  0.00  0.00     0.174 A 
ATOM      3  C3  BZF d   1      -1.117   0.598   0.256  0.00  0.00    -0.012 A 
ATOM      4  C3A BZF d   1      -0.040   1.538   0.180  0.00  0.00    -0.107 A 
ATOM      5  C4  BZF d   1       0.018   2.882  -0.055  0.00  0.00     0.055 A 
ATOM      6  C5  BZF d   1       1.220   3.512   0.010  0.00  0.00    -0.016 A 
ATOM      7  C6  BZF d   1       2.381   2.832   0.312  0.00  0.00     0.022 A 
ATOM      8  C7  BZF d   1       2.375   1.497   0.548  0.00  0.00     0.029 A 
ATOM      9  C7A BZF d   1       1.166   0.851   0.450  0.00  0.00     0.058 A 
ENDROOT
TORSDOF 0
ENDMDL
