MODEL 1
REMARK minimizedAffinity -3.9098947
REMARK minimizedRMSD -1
REMARK  0 active torsions:
REMARK  status: ('A' for Active; 'I' for Inactive)
ROOT
ATOM      1  O1  BZF d   1       0.820  -0.674  -1.337  0.00  0.00    -0.204 OA
ATOM      2  C2  BZF d   1       0.592  -0.104  -0.099  0.00  0.00     0.174 A 
ATOM      3  C3  BZF d   1      -0.167  -0.913   0.667  0.00  0.00    -0.012 A 
ATOM      4  C3A BZF d   1      -0.354  -2.101  -0.108  0.00  0.00    -0.107 A 
ATOM      5  C4  BZF d   1      -1.008  -3.278   0.120  0.00  0.00     0.055 A 
ATOM      6  C5  BZF d   1      -1.062  -4.206  -0.871  0.00  0.00    -0.016 A 
ATOM      7  C6  BZF d   1      -0.479  -3.988  -2.102  0.00  0.00     0.022 A 
ATOM      8  C7  BZF d   1       0.185  -2.839  -2.374  0.00  0.00     0.029 A 
ATOM      9  C7A BZF d   1       0.270  -1.912  -1.363  0.00  0.00     0.058 A 
ENDROOT
TORSDOF 0
ENDMDL
