MODEL 1
REMARK minimizedAffinity -1.26352453
REMARK minimizedRMSD -1
REMARK  0 active torsions:
REMARK  status: ('A' for Active; 'I' for Inactive)
ROOT
ATOM      1  O1  BZF d   1       0.303  -0.176  -1.676  0.00  0.00    -0.204 OA
ATOM      2  C2  BZF d   1       0.117   0.237  -0.371  0.00  0.00     0.174 A 
ATOM      3  C3  BZF d   1      -0.357  -0.772   0.387  0.00  0.00    -0.012 A 
ATOM      4  C3A BZF d   1      -0.388  -1.911  -0.478  0.00  0.00    -0.107 A 
ATOM      5  C4  BZF d   1      -0.750  -3.216  -0.301  0.00  0.00     0.055 A 
ATOM      6  C5  BZF d   1      -0.733  -4.057  -1.368  0.00  0.00    -0.016 A 
ATOM      7  C6  BZF d   1      -0.364  -3.627  -2.625  0.00  0.00     0.022 A 
ATOM      8  C7  BZF d   1       0.008  -2.343  -2.850  0.00  0.00     0.029 A 
ATOM      9  C7A BZF d   1       0.023  -1.499  -1.767  0.00  0.00     0.058 A 
ENDROOT
TORSDOF 0
ENDMDL
