MODEL 1
REMARK minimizedAffinity -1.26070797
REMARK minimizedRMSD -1
REMARK  0 active torsions:
REMARK  status: ('A' for Active; 'I' for Inactive)
ROOT
ATOM      1  C   UNL d   1      -2.110   0.135   2.025  0.00  0.00     0.023 A 
ATOM      2  C1  UNL d   1      -1.225   0.719   2.931  0.00  0.00     0.003 A 
ATOM      3  C2  UNL d   1       0.067   1.061   2.526  0.00  0.00     0.048 A 
ATOM      4  C3  UNL d   1       0.466   0.817   1.213  0.00  0.00     0.023 A 
ATOM      5  C4  UNL d   1      -0.416   0.234   0.302  0.00  0.00     0.048 A 
ATOM      6  C5  UNL d   1      -1.706  -0.107   0.712  0.00  0.00     0.003 A 
ATOM      7  I   UNL d   1       2.389   1.325   0.607  0.00  0.00    -0.146 I 
ENDROOT
TORSDOF 0
ENDMDL
