MODEL 1
REMARK minimizedAffinity 0.522345901
REMARK minimizedRMSD -1
REMARK  0 active torsions:
REMARK  status: ('A' for Active; 'I' for Inactive)
ROOT
ATOM      1  C   UNL d   1      -1.947   0.118   1.995  0.00  0.00     0.023 A 
ATOM      2  C1  UNL d   1      -1.116   0.813   2.873  0.00  0.00     0.003 A 
ATOM      3  C2  UNL d   1       0.180   1.158   2.484  0.00  0.00     0.048 A 
ATOM      4  C3  UNL d   1       0.637   0.807   1.214  0.00  0.00     0.023 A 
ATOM      5  C4  UNL d   1      -0.192   0.113   0.332  0.00  0.00     0.048 A 
ATOM      6  C5  UNL d   1      -1.486  -0.232   0.726  0.00  0.00     0.003 A 
ATOM      7  I   UNL d   1       2.565   1.321   0.632  0.00  0.00    -0.146 I 
ENDROOT
TORSDOF 0
ENDMDL
