MODEL 1
REMARK minimizedAffinity 2.56384635
REMARK minimizedRMSD -1
REMARK  0 active torsions:
REMARK  status: ('A' for Active; 'I' for Inactive)
ROOT
ATOM      1  C   UNL d   1      -2.130  -0.195   1.897  0.00  0.00     0.023 A 
ATOM      2  C1  UNL d   1      -1.329   0.370   2.889  0.00  0.00     0.003 A 
ATOM      3  C2  UNL d   1       0.025   0.607   2.643  0.00  0.00     0.048 A 
ATOM      4  C3  UNL d   1       0.571   0.278   1.403  0.00  0.00     0.023 A 
ATOM      5  C4  UNL d   1      -0.228  -0.287   0.407  0.00  0.00     0.048 A 
ATOM      6  C5  UNL d   1      -1.580  -0.523   0.658  0.00  0.00     0.003 A 
ATOM      7  I   UNL d   1       2.586   0.631   1.035  0.00  0.00    -0.146 I 
ENDROOT
TORSDOF 0
ENDMDL
