MODEL 1
REMARK minimizedAffinity 2.09179282
REMARK minimizedRMSD -1
REMARK  0 active torsions:
REMARK  status: ('A' for Active; 'I' for Inactive)
ROOT
ATOM      1  C   UNL d   1       0.286   1.983   2.963  0.00  0.00     0.023 A 
ATOM      2  C1  UNL d   1       0.629   1.929   1.612  0.00  0.00     0.003 A 
ATOM      3  C2  UNL d   1      -0.073   1.088   0.746  0.00  0.00     0.048 A 
ATOM      4  C3  UNL d   1      -1.117   0.305   1.237  0.00  0.00     0.023 A 
ATOM      5  C4  UNL d   1      -1.464   0.357   2.588  0.00  0.00     0.048 A 
ATOM      6  C5  UNL d   1      -0.759   1.198   3.451  0.00  0.00     0.003 A 
ATOM      7  I   UNL d   1      -2.163  -0.947  -0.050  0.00  0.00    -0.146 I 
ENDROOT
TORSDOF 0
ENDMDL
