MODEL 1
REMARK minimizedAffinity 3.2455399
REMARK minimizedRMSD -1
REMARK  0 active torsions:
REMARK  status: ('A' for Active; 'I' for Inactive)
ROOT
ATOM      1  C   UNL d   1      -1.629   0.033   0.134  0.00  0.00     0.023 A 
ATOM      2  C1  UNL d   1      -2.451  -0.425   1.164  0.00  0.00     0.003 A 
ATOM      3  C2  UNL d   1      -1.900  -0.751   2.405  0.00  0.00     0.048 A 
ATOM      4  C3  UNL d   1      -0.528  -0.614   2.610  0.00  0.00     0.023 A 
ATOM      5  C4  UNL d   1       0.298  -0.156   1.583  0.00  0.00     0.048 A 
ATOM      6  C5  UNL d   1      -0.256   0.167   0.343  0.00  0.00     0.003 A 
ATOM      7  I   UNL d   1       0.294  -1.098   4.457  0.00  0.00    -0.146 I 
ENDROOT
TORSDOF 0
ENDMDL
