MODEL 1
REMARK minimizedAffinity -5.24264431
REMARK minimizedRMSD -1
REMARK  1 active torsions:
REMARK  status: ('A' for Active; 'I' for Inactive)
REMARK    1  A    between atoms: C1_2  and  C2_3 
ROOT
ATOM      1  C2  UNL d   1       0.865   0.479  -0.689  0.00  0.00    -0.077 A 
ATOM      2  C3  UNL d   1       1.024   1.588  -1.533  0.00  0.00     0.002 A 
ATOM      3  C4  UNL d   1       2.130   1.679  -2.379  0.00  0.00     0.002 A 
ATOM      4  C5  UNL d   1       3.084   0.663  -2.394  0.00  0.00    -0.004 A 
ATOM      5  C6  UNL d   1       2.936  -0.443  -1.557  0.00  0.00     0.002 A 
ATOM      6  C7  UNL d   1       1.831  -0.535  -0.709  0.00  0.00     0.002 A 
ENDROOT
BRANCH   1   7
ATOM      7  C1  UNL d   1      -0.352   0.356   0.189  0.00  0.00     0.055 C 
ATOM      8  C   UNL d   1      -0.836  -1.085   0.266  0.00  0.00     0.019 C 
ENDBRANCH   1   7
TORSDOF 1
ENDMDL
