MODEL 1
REMARK minimizedAffinity -5.76803112
REMARK minimizedRMSD -1
REMARK  1 active torsions:
REMARK  status: ('A' for Active; 'I' for Inactive)
REMARK    1  A    between atoms: C1_2  and  C2_3 
ROOT
ATOM      1  C2  UNL d   1       0.121   0.060  -0.455  0.00  0.00    -0.077 A 
ATOM      2  C3  UNL d   1       0.929   0.898  -1.236  0.00  0.00     0.002 A 
ATOM      3  C4  UNL d   1       2.179   0.463  -1.678  0.00  0.00     0.002 A 
ATOM      4  C5  UNL d   1       2.631  -0.813  -1.349  0.00  0.00    -0.004 A 
ATOM      5  C6  UNL d   1       1.836  -1.655  -0.572  0.00  0.00     0.002 A 
ATOM      6  C7  UNL d   1       0.586  -1.220  -0.127  0.00  0.00     0.002 A 
ENDROOT
BRANCH   1   7
ATOM      7  C1  UNL d   1      -1.249   0.509  -0.018  0.00  0.00     0.055 C 
ATOM      8  C   UNL d   1      -1.418   0.382   1.489  0.00  0.00     0.019 C 
ENDBRANCH   1   7
TORSDOF 1
ENDMDL
