MODEL 1
REMARK minimizedAffinity -4.65436602
REMARK minimizedRMSD -1
REMARK  1 active torsions:
REMARK  status: ('A' for Active; 'I' for Inactive)
REMARK    1  A    between atoms: C1_2  and  C2_3 
ROOT
ATOM      1  C2  UNL d   1       1.311   0.466  -0.897  0.00  0.00    -0.077 A 
ATOM      2  C3  UNL d   1       1.118   1.512  -1.810  0.00  0.00     0.002 A 
ATOM      3  C4  UNL d   1       1.548   1.384  -3.132  0.00  0.00     0.002 A 
ATOM      4  C5  UNL d   1       2.169   0.210  -3.554  0.00  0.00    -0.004 A 
ATOM      5  C6  UNL d   1       2.367  -0.835  -2.653  0.00  0.00     0.002 A 
ATOM      6  C7  UNL d   1       1.940  -0.708  -1.330  0.00  0.00     0.002 A 
ENDROOT
BRANCH   1   7
ATOM      7  C1  UNL d   1       0.804   0.583   0.517  0.00  0.00     0.055 C 
ATOM      8  C   UNL d   1      -0.637   0.107   0.630  0.00  0.00     0.019 C 
ENDBRANCH   1   7
TORSDOF 1
ENDMDL
