MODEL 1
REMARK minimizedAffinity -4.00745773
REMARK minimizedRMSD -1
REMARK  1 active torsions:
REMARK  status: ('A' for Active; 'I' for Inactive)
REMARK    1  A    between atoms: C1_2  and  C2_3 
ROOT
ATOM      1  C2  UNL d   1       1.639  -0.709  -0.472  0.00  0.00    -0.077 A 
ATOM      2  C3  UNL d   1       0.719  -1.683  -0.060  0.00  0.00     0.002 A 
ATOM      3  C4  UNL d   1      -0.594  -1.328   0.253  0.00  0.00     0.002 A 
ATOM      4  C5  UNL d   1      -1.001   0.001   0.152  0.00  0.00    -0.004 A 
ATOM      5  C6  UNL d   1      -0.093   0.978  -0.255  0.00  0.00     0.002 A 
ATOM      6  C7  UNL d   1       1.220   0.625  -0.567  0.00  0.00     0.002 A 
ENDROOT
BRANCH   1   7
ATOM      7  C1  UNL d   1       3.042  -1.097  -0.856  0.00  0.00     0.055 C 
ATOM      8  C   UNL d   1       3.531  -0.294  -2.053  0.00  0.00     0.019 C 
ENDBRANCH   1   7
TORSDOF 1
ENDMDL
