MODEL 1
REMARK minimizedAffinity -5.65089369
REMARK minimizedRMSD -1
REMARK  1 active torsions:
REMARK  status: ('A' for Active; 'I' for Inactive)
REMARK    1  A    between atoms: C1_2  and  C2_3 
ROOT
ATOM      1  C2  UNL d   1       0.313  -0.113  -0.092  0.00  0.00    -0.077 A 
ATOM      2  C3  UNL d   1       1.082   0.842  -0.772  0.00  0.00     0.002 A 
ATOM      3  C4  UNL d   1       2.245   0.463  -1.445  0.00  0.00     0.002 A 
ATOM      4  C5  UNL d   1       2.647  -0.871  -1.449  0.00  0.00    -0.004 A 
ATOM      5  C6  UNL d   1       1.890  -1.828  -0.774  0.00  0.00     0.002 A 
ATOM      6  C7  UNL d   1       0.728  -1.451  -0.100  0.00  0.00     0.002 A 
ENDROOT
BRANCH   1   7
ATOM      7  C1  UNL d   1      -0.968   0.285   0.593  0.00  0.00     0.055 C 
ATOM      8  C   UNL d   1      -0.714   0.735   2.024  0.00  0.00     0.019 C 
ENDBRANCH   1   7
TORSDOF 1
ENDMDL
