MODEL 1
REMARK minimizedAffinity -2.46292543
REMARK minimizedRMSD -1
REMARK  1 active torsions:
REMARK  status: ('A' for Active; 'I' for Inactive)
REMARK    1  A    between atoms: C1_2  and  C2_3 
ROOT
ATOM      1  C2  UNL d   1      -0.830   0.274   1.118  0.00  0.00    -0.077 A 
ATOM      2  C3  UNL d   1       0.351  -0.105   1.770  0.00  0.00     0.002 A 
ATOM      3  C4  UNL d   1       1.480  -0.466   1.033  0.00  0.00     0.002 A 
ATOM      4  C5  UNL d   1       1.440  -0.447  -0.360  0.00  0.00    -0.004 A 
ATOM      5  C6  UNL d   1       0.269  -0.073  -1.018  0.00  0.00     0.002 A 
ATOM      6  C7  UNL d   1      -0.861   0.287  -0.282  0.00  0.00     0.002 A 
ENDROOT
BRANCH   1   7
ATOM      7  C1  UNL d   1      -2.034   0.711   1.912  0.00  0.00     0.055 C 
ATOM      8  C   UNL d   1      -1.647   1.113   3.328  0.00  0.00     0.019 C 
ENDBRANCH   1   7
TORSDOF 1
ENDMDL
