MODEL 1
REMARK minimizedAffinity -3.11288905
REMARK minimizedRMSD -1
REMARK  1 active torsions:
REMARK  status: ('A' for Active; 'I' for Inactive)
REMARK    1  A    between atoms: C1_2  and  C2_3 
ROOT
ATOM      1  C2  UNL d   1      -1.287   0.049   1.144  0.00  0.00    -0.077 A 
ATOM      2  C3  UNL d   1      -0.599  -1.171   1.087  0.00  0.00     0.002 A 
ATOM      3  C4  UNL d   1       0.311  -1.422   0.058  0.00  0.00     0.002 A 
ATOM      4  C5  UNL d   1       0.544  -0.456  -0.918  0.00  0.00    -0.004 A 
ATOM      5  C6  UNL d   1      -0.136   0.760  -0.872  0.00  0.00     0.002 A 
ATOM      6  C7  UNL d   1      -1.047   1.012   0.155  0.00  0.00     0.002 A 
ENDROOT
BRANCH   1   7
ATOM      7  C1  UNL d   1      -2.232   0.341   2.280  0.00  0.00     0.055 C 
ATOM      8  C   UNL d   1      -1.669   1.408   3.208  0.00  0.00     0.019 C 
ENDBRANCH   1   7
TORSDOF 1
ENDMDL
