MODEL 1
REMARK minimizedAffinity -5.61283731
REMARK minimizedRMSD -1
REMARK  1 active torsions:
REMARK  status: ('A' for Active; 'I' for Inactive)
REMARK    1  A    between atoms: C1_2  and  C2_3 
ROOT
ATOM      1  C2  UNL d   1       1.082   0.325  -0.849  0.00  0.00    -0.077 A 
ATOM      2  C3  UNL d   1       1.123   1.498  -1.615  0.00  0.00     0.002 A 
ATOM      3  C4  UNL d   1       2.193   1.739  -2.480  0.00  0.00     0.002 A 
ATOM      4  C5  UNL d   1       3.225   0.810  -2.590  0.00  0.00    -0.004 A 
ATOM      5  C6  UNL d   1       3.194  -0.359  -1.830  0.00  0.00     0.002 A 
ATOM      6  C7  UNL d   1       2.127  -0.601  -0.964  0.00  0.00     0.002 A 
ENDROOT
BRANCH   1   7
ATOM      7  C1  UNL d   1      -0.095   0.040   0.048  0.00  0.00     0.055 C 
ATOM      8  C   UNL d   1      -0.279  -1.456   0.261  0.00  0.00     0.019 C 
ENDBRANCH   1   7
TORSDOF 1
ENDMDL
