MODEL 1
REMARK minimizedAffinity -5.71925879
REMARK minimizedRMSD -1
REMARK  1 active torsions:
REMARK  status: ('A' for Active; 'I' for Inactive)
REMARK    1  A    between atoms: C1_2  and  C2_3 
ROOT
ATOM      1  C2  UNL d   1       1.373  -0.134  -0.706  0.00  0.00    -0.077 A 
ATOM      2  C3  UNL d   1       1.102   1.153  -1.192  0.00  0.00     0.002 A 
ATOM      3  C4  UNL d   1       1.972   1.764  -2.096  0.00  0.00     0.002 A 
ATOM      4  C5  UNL d   1       3.116   1.095  -2.526  0.00  0.00    -0.004 A 
ATOM      5  C6  UNL d   1       3.395  -0.184  -2.047  0.00  0.00     0.002 A 
ATOM      6  C7  UNL d   1       2.528  -0.797  -1.142  0.00  0.00     0.002 A 
ENDROOT
BRANCH   1   7
ATOM      7  C1  UNL d   1       0.410  -0.815   0.231  0.00  0.00     0.055 C 
ATOM      8  C   UNL d   1      -0.955  -0.144   0.207  0.00  0.00     0.019 C 
ENDBRANCH   1   7
TORSDOF 1
ENDMDL
