MODEL 1
REMARK minimizedAffinity -3.43272614
REMARK minimizedRMSD -1
REMARK  1 active torsions:
REMARK  status: ('A' for Active; 'I' for Inactive)
REMARK    1  A    between atoms: C1_2  and  C2_3 
ROOT
ATOM      1  C2  UNL d   1       1.190   0.529  -0.720  0.00  0.00    -0.077 A 
ATOM      2  C3  UNL d   1       0.444  -0.220   0.200  0.00  0.00     0.002 A 
ATOM      3  C4  UNL d   1      -0.892   0.098   0.453  0.00  0.00     0.002 A 
ATOM      4  C5  UNL d   1      -1.494   1.163  -0.214  0.00  0.00    -0.004 A 
ATOM      5  C6  UNL d   1      -0.760   1.916  -1.130  0.00  0.00     0.002 A 
ATOM      6  C7  UNL d   1       0.576   1.600  -1.382  0.00  0.00     0.002 A 
ENDROOT
BRANCH   1   7
ATOM      7  C1  UNL d   1       2.616   0.156  -1.030  0.00  0.00     0.055 C 
ATOM      8  C   UNL d   1       2.685  -1.075  -1.921  0.00  0.00     0.019 C 
ENDBRANCH   1   7
TORSDOF 1
ENDMDL
