MODEL 1
REMARK minimizedAffinity -2.9385879
REMARK minimizedRMSD -1
REMARK  1 active torsions:
REMARK  status: ('A' for Active; 'I' for Inactive)
REMARK    1  A    between atoms: C1_2  and  C2_3 
ROOT
ATOM      1  C2  UNL d   1      -0.694   0.108   0.551  0.00  0.00    -0.077 A 
ATOM      2  C3  UNL d   1       0.301   0.684  -0.253  0.00  0.00     0.002 A 
ATOM      3  C4  UNL d   1       1.325  -0.104  -0.781  0.00  0.00     0.002 A 
ATOM      4  C5  UNL d   1       1.362  -1.472  -0.516  0.00  0.00    -0.004 A 
ATOM      5  C6  UNL d   1       0.379  -2.053   0.283  0.00  0.00     0.002 A 
ATOM      6  C7  UNL d   1      -0.645  -1.267   0.813  0.00  0.00     0.002 A 
ENDROOT
BRANCH   1   7
ATOM      7  C1  UNL d   1      -1.827   0.947   1.081  0.00  0.00     0.055 C 
ATOM      8  C   UNL d   1      -1.587   1.349   2.529  0.00  0.00     0.019 C 
ENDBRANCH   1   7
TORSDOF 1
ENDMDL
