MODEL 1
REMARK minimizedAffinity -4.38930035
REMARK minimizedRMSD -1
REMARK  1 active torsions:
REMARK  status: ('A' for Active; 'I' for Inactive)
REMARK    1  A    between atoms: C1_2  and  C2_3 
ROOT
ATOM      1  C2  UNL d   1       1.880  -0.964  -0.304  0.00  0.00    -0.077 A 
ATOM      2  C3  UNL d   1       1.264  -2.222  -0.244  0.00  0.00     0.002 A 
ATOM      3  C4  UNL d   1      -0.101  -2.327   0.030  0.00  0.00     0.002 A 
ATOM      4  C5  UNL d   1      -0.862  -1.179   0.242  0.00  0.00    -0.004 A 
ATOM      5  C6  UNL d   1      -0.257   0.076   0.187  0.00  0.00     0.002 A 
ATOM      6  C7  UNL d   1       1.107   0.183  -0.086  0.00  0.00     0.002 A 
ENDROOT
BRANCH   1   7
ATOM      7  C1  UNL d   1       3.342  -0.846  -0.648  0.00  0.00     0.055 C 
ATOM      8  C   UNL d   1       3.537  -0.350  -2.073  0.00  0.00     0.019 C 
ENDBRANCH   1   7
TORSDOF 1
ENDMDL
