MODEL 1
REMARK minimizedAffinity 17.2900295
REMARK minimizedRMSD -1
REMARK  1 active torsions:
REMARK  status: ('A' for Active; 'I' for Inactive)
REMARK    1  A    between atoms: C1_2  and  C2_3 
ROOT
ATOM      1  C2  UNL d   1       4.457  -3.906  -3.827  0.00  0.00    -0.081 A 
ATOM      2  C3  UNL d   1       4.539  -3.202  -2.620  0.00  0.00     0.006 A 
ATOM      3  C4  UNL d   1       4.784  -3.877  -1.422  0.00  0.00     0.002 A 
ATOM      4  C5  UNL d   1       4.959  -5.265  -1.412  0.00  0.00    -0.080 A 
ATOM      5  C6  UNL d   1       5.252  -5.999  -0.137  0.00  0.00     0.076 C 
ATOM      6  C7  UNL d   1       4.859  -5.971  -2.616  0.00  0.00     0.002 A 
ATOM      7  C8  UNL d   1       4.613  -5.297  -3.814  0.00  0.00     0.006 A 
ENDROOT
BRANCH   1   8
ATOM      8  C1  UNL d   1       4.257  -3.174  -5.130  0.00  0.00     0.054 C 
ATOM      9  C   UNL d   1       5.138  -1.935  -5.208  0.00  0.00     0.018 C 
ENDBRANCH   1   8
TORSDOF 1
ENDMDL
