MODEL 1
REMARK minimizedAffinity 15.49088
REMARK minimizedRMSD -1
REMARK  1 active torsions:
REMARK  status: ('A' for Active; 'I' for Inactive)
REMARK    1  A    between atoms: C1_2  and  C2_3 
ROOT
ATOM      1  C2  UNL d   1       4.530  -4.840  -3.567  0.00  0.00    -0.081 A 
ATOM      2  C3  UNL d   1       5.261  -3.824  -2.940  0.00  0.00     0.006 A 
ATOM      3  C4  UNL d   1       5.551  -3.898  -1.576  0.00  0.00     0.002 A 
ATOM      4  C5  UNL d   1       5.122  -4.993  -0.818  0.00  0.00    -0.080 A 
ATOM      5  C6  UNL d   1       5.453  -5.099   0.641  0.00  0.00     0.076 C 
ATOM      6  C7  UNL d   1       4.377  -6.000  -1.440  0.00  0.00     0.002 A 
ATOM      7  C8  UNL d   1       4.086  -5.926  -2.804  0.00  0.00     0.006 A 
ENDROOT
BRANCH   1   8
ATOM      8  C1  UNL d   1       4.271  -4.795  -5.051  0.00  0.00     0.054 C 
ATOM      9  C   UNL d   1       3.462  -6.000  -5.509  0.00  0.00     0.018 C 
ENDBRANCH   1   8
TORSDOF 1
ENDMDL
