MODEL 1
REMARK minimizedAffinity 13.4343138
REMARK minimizedRMSD -1
REMARK  1 active torsions:
REMARK  status: ('A' for Active; 'I' for Inactive)
REMARK    1  A    between atoms: C1_2  and  C2_3 
ROOT
ATOM      1  C2  UNL d   1       0.250   0.534   3.773  0.00  0.00    -0.081 A 
ATOM      2  C3  UNL d   1      -0.643   1.612   3.805  0.00  0.00     0.006 A 
ATOM      3  C4  UNL d   1      -0.669   2.542   2.763  0.00  0.00     0.002 A 
ATOM      4  C5  UNL d   1       0.191   2.406   1.669  0.00  0.00    -0.080 A 
ATOM      5  C6  UNL d   1       0.152   3.380   0.529  0.00  0.00     0.076 C 
ATOM      6  C7  UNL d   1       1.096   1.339   1.644  0.00  0.00     0.002 A 
ATOM      7  C8  UNL d   1       1.123   0.409   2.686  0.00  0.00     0.006 A 
ENDROOT
BRANCH   1   8
ATOM      8  C1  UNL d   1       0.236  -0.506   4.863  0.00  0.00     0.054 C 
ATOM      9  C   UNL d   1       0.962  -1.772   4.430  0.00  0.00     0.018 C 
ENDBRANCH   1   8
TORSDOF 1
ENDMDL
