MODEL 1
REMARK minimizedAffinity 13.8159533
REMARK minimizedRMSD -1
REMARK  1 active torsions:
REMARK  status: ('A' for Active; 'I' for Inactive)
REMARK    1  A    between atoms: C1_2  and  C2_3 
ROOT
ATOM      1  C2  UNL d   1      -0.965   5.181  -3.145  0.00  0.00    -0.081 A 
ATOM      2  C3  UNL d   1      -1.335   5.661  -1.883  0.00  0.00     0.006 A 
ATOM      3  C4  UNL d   1      -1.016   4.939  -0.730  0.00  0.00     0.002 A 
ATOM      4  C5  UNL d   1      -0.317   3.731  -0.819  0.00  0.00    -0.080 A 
ATOM      5  C6  UNL d   1       0.058   2.962   0.413  0.00  0.00     0.076 C 
ATOM      6  C7  UNL d   1       0.038   3.243  -2.081  0.00  0.00     0.002 A 
ATOM      7  C8  UNL d   1      -0.281   3.964  -3.235  0.00  0.00     0.006 A 
ENDROOT
BRANCH   1   8
ATOM      8  C1  UNL d   1      -1.249   5.989  -4.386  0.00  0.00     0.054 C 
ATOM      9  C   UNL d   1      -0.052   6.000  -5.326  0.00  0.00     0.018 C 
ENDBRANCH   1   8
TORSDOF 1
ENDMDL
