MODEL 1
REMARK minimizedAffinity 9.21306229
REMARK minimizedRMSD -1
REMARK  1 active torsions:
REMARK  status: ('A' for Active; 'I' for Inactive)
REMARK    1  A    between atoms: C1_2  and  C2_3 
ROOT
ATOM      1  C2  UNL d   1      -0.059   3.958  -0.627  0.00  0.00    -0.081 A 
ATOM      2  C3  UNL d   1      -0.578   2.994   0.246  0.00  0.00     0.006 A 
ATOM      3  C4  UNL d   1       0.180   2.533   1.325  0.00  0.00     0.002 A 
ATOM      4  C5  UNL d   1       1.466   3.034   1.554  0.00  0.00    -0.080 A 
ATOM      5  C6  UNL d   1       2.278   2.570   2.727  0.00  0.00     0.076 C 
ATOM      6  C7  UNL d   1       1.992   3.984   0.672  0.00  0.00     0.002 A 
ATOM      7  C8  UNL d   1       1.235   4.444  -0.407  0.00  0.00     0.006 A 
ENDROOT
BRANCH   1   8
ATOM      8  C1  UNL d   1      -0.898   4.504  -1.753  0.00  0.00     0.054 C 
ATOM      9  C   UNL d   1      -1.242   5.969  -1.527  0.00  0.00     0.018 C 
ENDBRANCH   1   8
TORSDOF 1
ENDMDL
