MODEL 1
REMARK minimizedAffinity 5.44549465
REMARK minimizedRMSD -1
REMARK  1 active torsions:
REMARK  status: ('A' for Active; 'I' for Inactive)
REMARK    1  A    between atoms: C1_2  and  C2_3 
ROOT
ATOM      1  C2  UNL d   1      -0.422   5.416  -3.114  0.00  0.00    -0.081 A 
ATOM      2  C3  UNL d   1       0.740   5.105  -2.398  0.00  0.00     0.006 A 
ATOM      3  C4  UNL d   1       0.657   4.509  -1.137  0.00  0.00     0.002 A 
ATOM      4  C5  UNL d   1      -0.588   4.209  -0.575  0.00  0.00    -0.080 A 
ATOM      5  C6  UNL d   1      -0.690   3.542   0.765  0.00  0.00     0.076 C 
ATOM      6  C7  UNL d   1      -1.750   4.536  -1.282  0.00  0.00     0.002 A 
ATOM      7  C8  UNL d   1      -1.668   5.132  -2.543  0.00  0.00     0.006 A 
ENDROOT
BRANCH   1   8
ATOM      8  C1  UNL d   1      -0.335   5.999  -4.502  0.00  0.00     0.054 C 
ATOM      9  C   UNL d   1       1.098   5.999  -5.012  0.00  0.00     0.018 C 
ENDBRANCH   1   8
TORSDOF 1
ENDMDL
