MODEL 1
REMARK minimizedAffinity -2.9743979
REMARK minimizedRMSD -1
REMARK  0 active torsions:
REMARK  status: ('A' for Active; 'I' for Inactive)
ROOT
ATOM      1  C   UNL d   1       1.495  -4.151  -0.211  0.00  0.00     0.077 C 
ATOM      2  C1  UNL d   1       1.045  -2.735  -0.421  0.00  0.00    -0.074 A 
ATOM      3  C2  UNL d   1       1.967  -1.721  -0.698  0.00  0.00    -0.005 A 
ATOM      4  C3  UNL d   1       1.532  -0.411  -0.900  0.00  0.00     0.006 A 
ATOM      5  C4  UNL d   1       0.173  -0.103  -0.827  0.00  0.00    -0.005 A 
ATOM      6  C5  UNL d   1      -0.764  -1.104  -0.552  0.00  0.00    -0.074 A 
ATOM      7  C6  UNL d   1      -2.229  -0.792  -0.480  0.00  0.00     0.077 C 
ATOM      8  C7  UNL d   1      -0.320  -2.419  -0.357  0.00  0.00    -0.001 A 
ENDROOT
TORSDOF 0
ENDMDL
