MODEL 1
REMARK minimizedAffinity -4.70971012
REMARK minimizedRMSD -1
REMARK  0 active torsions:
REMARK  status: ('A' for Active; 'I' for Inactive)
ROOT
ATOM      1  C   UNL d   1       0.790  -0.335  -0.818  0.00  0.00     0.077 C 
ATOM      2  C1  UNL d   1       0.780  -1.763  -0.360  0.00  0.00    -0.074 A 
ATOM      3  C2  UNL d   1       1.967  -2.496  -0.267  0.00  0.00    -0.005 A 
ATOM      4  C3  UNL d   1       1.943  -3.821   0.170  0.00  0.00     0.006 A 
ATOM      5  C4  UNL d   1       0.734  -4.424   0.518  0.00  0.00    -0.005 A 
ATOM      6  C5  UNL d   1      -0.463  -3.706   0.433  0.00  0.00    -0.074 A 
ATOM      7  C6  UNL d   1      -1.770  -4.336   0.812  0.00  0.00     0.077 C 
ATOM      8  C7  UNL d   1      -0.430  -2.373  -0.001  0.00  0.00    -0.001 A 
ENDROOT
TORSDOF 0
ENDMDL
