MODEL 1
REMARK minimizedAffinity -2.4110837
REMARK minimizedRMSD -1
REMARK  0 active torsions:
REMARK  status: ('A' for Active; 'I' for Inactive)
ROOT
ATOM      1  C   UNL d   1       2.434  -0.570  -1.863  0.00  0.00     0.077 C 
ATOM      2  C1  UNL d   1       1.504  -1.270  -0.918  0.00  0.00    -0.074 A 
ATOM      3  C2  UNL d   1       0.271  -0.708  -0.573  0.00  0.00    -0.005 A 
ATOM      4  C3  UNL d   1      -0.587  -1.376   0.300  0.00  0.00     0.006 A 
ATOM      5  C4  UNL d   1      -0.222  -2.611   0.837  0.00  0.00    -0.005 A 
ATOM      6  C5  UNL d   1       1.007  -3.189   0.503  0.00  0.00    -0.074 A 
ATOM      7  C6  UNL d   1       1.411  -4.520   1.064  0.00  0.00     0.077 C 
ATOM      8  C7  UNL d   1       1.861  -2.515  -0.380  0.00  0.00    -0.001 A 
ENDROOT
TORSDOF 0
ENDMDL
