MODEL 1
REMARK minimizedAffinity -1.30731261
REMARK minimizedRMSD -1
REMARK  0 active torsions:
REMARK  status: ('A' for Active; 'I' for Inactive)
ROOT
ATOM      1  C   UNL d   1      -0.683  -3.836   0.778  0.00  0.00     0.077 C 
ATOM      2  C1  UNL d   1       0.265  -2.871   0.131  0.00  0.00    -0.074 A 
ATOM      3  C2  UNL d   1       1.636  -3.139   0.073  0.00  0.00    -0.005 A 
ATOM      4  C3  UNL d   1       2.505  -2.236  -0.540  0.00  0.00     0.006 A 
ATOM      5  C4  UNL d   1       2.011  -1.058  -1.102  0.00  0.00    -0.005 A 
ATOM      6  C5  UNL d   1       0.643  -0.773  -1.055  0.00  0.00    -0.074 A 
ATOM      7  C6  UNL d   1       0.095   0.484  -1.662  0.00  0.00     0.077 C 
ATOM      8  C7  UNL d   1      -0.224  -1.689  -0.443  0.00  0.00    -0.001 A 
ENDROOT
TORSDOF 0
ENDMDL
