MODEL 1
REMARK minimizedAffinity 2.46732664
REMARK minimizedRMSD -1
REMARK  0 active torsions:
REMARK  status: ('A' for Active; 'I' for Inactive)
ROOT
ATOM      1  C   UNL d   1       0.082  -6.000   1.570  0.00  0.00     0.077 C 
ATOM      2  C1  UNL d   1       0.231  -4.618   1.005  0.00  0.00    -0.074 A 
ATOM      3  C2  UNL d   1      -0.890  -3.823   0.747  0.00  0.00    -0.005 A 
ATOM      4  C3  UNL d   1      -0.735  -2.536   0.231  0.00  0.00     0.006 A 
ATOM      5  C4  UNL d   1       0.540  -2.033  -0.032  0.00  0.00    -0.005 A 
ATOM      6  C5  UNL d   1       1.672  -2.813   0.221  0.00  0.00    -0.074 A 
ATOM      7  C6  UNL d   1       3.050  -2.284  -0.046  0.00  0.00     0.077 C 
ATOM      8  C7  UNL d   1       1.509  -4.103   0.747  0.00  0.00    -0.001 A 
ENDROOT
TORSDOF 0
ENDMDL
