MODEL 1
REMARK minimizedAffinity 5.9245677
REMARK minimizedRMSD -1
REMARK  0 active torsions:
REMARK  status: ('A' for Active; 'I' for Inactive)
ROOT
ATOM      1  C   UNL d   1       2.628  -3.548  -0.005  0.00  0.00     0.077 C 
ATOM      2  C1  UNL d   1       1.799  -2.358  -0.386  0.00  0.00    -0.074 A 
ATOM      3  C2  UNL d   1       2.356  -1.076  -0.423  0.00  0.00    -0.005 A 
ATOM      4  C3  UNL d   1       1.575   0.021  -0.789  0.00  0.00     0.006 A 
ATOM      5  C4  UNL d   1       0.231  -0.154  -1.120  0.00  0.00    -0.005 A 
ATOM      6  C5  UNL d   1      -0.344  -1.428  -1.089  0.00  0.00    -0.074 A 
ATOM      7  C6  UNL d   1      -1.785  -1.635  -1.451  0.00  0.00     0.077 C 
ATOM      8  C7  UNL d   1       0.449  -2.526  -0.727  0.00  0.00    -0.001 A 
ENDROOT
TORSDOF 0
ENDMDL
