MODEL 1
REMARK minimizedAffinity 3.97689176
REMARK minimizedRMSD -1
REMARK  0 active torsions:
REMARK  status: ('A' for Active; 'I' for Inactive)
ROOT
ATOM      1  C   UNL d   1      -0.213  -0.962  -3.471  0.00  0.00     0.077 C 
ATOM      2  C1  UNL d   1       0.112  -1.101  -2.013  0.00  0.00    -0.074 A 
ATOM      3  C2  UNL d   1       0.833  -0.109  -1.340  0.00  0.00    -0.005 A 
ATOM      4  C3  UNL d   1       1.120  -0.247   0.017  0.00  0.00     0.006 A 
ATOM      5  C4  UNL d   1       0.690  -1.377   0.715  0.00  0.00    -0.005 A 
ATOM      6  C5  UNL d   1      -0.033  -2.378   0.059  0.00  0.00    -0.074 A 
ATOM      7  C6  UNL d   1      -0.511  -3.594   0.796  0.00  0.00     0.077 C 
ATOM      8  C7  UNL d   1      -0.323  -2.229  -1.304  0.00  0.00    -0.001 A 
ENDROOT
TORSDOF 0
ENDMDL
