MODEL 1
REMARK minimizedAffinity -2.58896661
REMARK minimizedRMSD -1
REMARK  0 active torsions:
REMARK  status: ('A' for Active; 'I' for Inactive)
ROOT
ATOM      1  C   UNL d   1       0.241   0.677  -2.056  0.00  0.00     0.077 C 
ATOM      2  C1  UNL d   1       0.158  -0.514  -1.149  0.00  0.00    -0.074 A 
ATOM      3  C2  UNL d   1      -1.073  -0.953  -0.651  0.00  0.00    -0.005 A 
ATOM      4  C3  UNL d   1      -1.136  -2.069   0.184  0.00  0.00     0.006 A 
ATOM      5  C4  UNL d   1       0.029  -2.756   0.528  0.00  0.00    -0.005 A 
ATOM      6  C5  UNL d   1       1.268  -2.332   0.039  0.00  0.00    -0.074 A 
ATOM      7  C6  UNL d   1       2.529  -3.064   0.391  0.00  0.00     0.077 C 
ATOM      8  C7  UNL d   1       1.323  -1.214  -0.805  0.00  0.00    -0.001 A 
ENDROOT
TORSDOF 0
ENDMDL
