MODEL 1
REMARK minimizedAffinity -5.08099508
REMARK minimizedRMSD -1
REMARK  0 active torsions:
REMARK  status: ('A' for Active; 'I' for Inactive)
ROOT
ATOM      1  C   UNL d   1       1.338  -5.169   1.059  0.00  0.00     0.077 C 
ATOM      2  C1  UNL d   1       0.837  -3.847   0.559  0.00  0.00    -0.074 A 
ATOM      3  C2  UNL d   1      -0.463  -3.417   0.844  0.00  0.00    -0.005 A 
ATOM      4  C3  UNL d   1      -0.913  -2.181   0.381  0.00  0.00     0.006 A 
ATOM      5  C4  UNL d   1      -0.068  -1.363  -0.371  0.00  0.00    -0.005 A 
ATOM      6  C5  UNL d   1       1.235  -1.775  -0.665  0.00  0.00    -0.074 A 
ATOM      7  C6  UNL d   1       2.159  -0.904  -1.463  0.00  0.00     0.077 C 
ATOM      8  C7  UNL d   1       1.682  -3.016  -0.190  0.00  0.00    -0.001 A 
ENDROOT
TORSDOF 0
ENDMDL
