MODEL 1
REMARK minimizedAffinity -6.97774506
REMARK minimizedRMSD -1
REMARK  0 active torsions:
REMARK  status: ('A' for Active; 'I' for Inactive)
ROOT
ATOM      1  C   UNL d   1       1.238  -4.766   0.897  0.00  0.00     0.077 C 
ATOM      2  C1  UNL d   1       0.796  -3.419   0.407  0.00  0.00    -0.074 A 
ATOM      3  C2  UNL d   1      -0.534  -3.007   0.539  0.00  0.00    -0.005 A 
ATOM      4  C3  UNL d   1      -0.929  -1.748   0.087  0.00  0.00     0.006 A 
ATOM      5  C4  UNL d   1       0.001  -0.889  -0.500  0.00  0.00    -0.005 A 
ATOM      6  C5  UNL d   1       1.336  -1.283  -0.639  0.00  0.00    -0.074 A 
ATOM      7  C6  UNL d   1       2.350  -0.368  -1.259  0.00  0.00     0.077 C 
ATOM      8  C7  UNL d   1       1.726  -2.547  -0.176  0.00  0.00    -0.001 A 
ENDROOT
TORSDOF 0
ENDMDL
