MODEL 1
REMARK minimizedAffinity -1.90027213
REMARK minimizedRMSD -1
REMARK  0 active torsions:
REMARK  status: ('A' for Active; 'I' for Inactive)
ROOT
ATOM      1  C   UNL d   1       1.731  -4.634   0.453  0.00  0.00     0.077 C 
ATOM      2  C1  UNL d   1       1.325  -3.272  -0.028  0.00  0.00    -0.074 A 
ATOM      3  C2  UNL d   1       2.280  -2.279  -0.264  0.00  0.00    -0.005 A 
ATOM      4  C3  UNL d   1       1.888  -1.020  -0.720  0.00  0.00     0.006 A 
ATOM      5  C4  UNL d   1       0.539  -0.743  -0.944  0.00  0.00    -0.005 A 
ATOM      6  C5  UNL d   1      -0.430  -1.724  -0.714  0.00  0.00    -0.074 A 
ATOM      7  C6  UNL d   1      -1.883  -1.446  -0.960  0.00  0.00     0.077 C 
ATOM      8  C7  UNL d   1      -0.028  -2.989  -0.263  0.00  0.00    -0.001 A 
ENDROOT
TORSDOF 0
ENDMDL
