MODEL 1
REMARK minimizedAffinity -2.52969503
REMARK minimizedRMSD -1
REMARK  0 active torsions:
REMARK  status: ('A' for Active; 'I' for Inactive)
ROOT
ATOM      1  C   UNL d   1      -0.615  -4.027   1.248  0.00  0.00     0.077 C 
ATOM      2  C1  UNL d   1       0.264  -3.126   0.432  0.00  0.00    -0.074 A 
ATOM      3  C2  UNL d   1       1.640  -3.359   0.335  0.00  0.00    -0.005 A 
ATOM      4  C3  UNL d   1       2.443  -2.519  -0.435  0.00  0.00     0.006 A 
ATOM      5  C4  UNL d   1       1.880  -1.438  -1.115  0.00  0.00    -0.005 A 
ATOM      6  C5  UNL d   1       0.507  -1.189  -1.030  0.00  0.00    -0.074 A 
ATOM      7  C6  UNL d   1      -0.116  -0.037  -1.762  0.00  0.00     0.077 C 
ATOM      8  C7  UNL d   1      -0.295  -2.043  -0.260  0.00  0.00    -0.001 A 
ENDROOT
TORSDOF 0
ENDMDL
