MODEL 1
REMARK minimizedAffinity -3.37745142
REMARK minimizedRMSD -1
REMARK  0 active torsions:
REMARK  status: ('A' for Active; 'I' for Inactive)
ROOT
ATOM      1  C   UNL d   1       3.162  -2.119   0.012  0.00  0.00     0.077 C 
ATOM      2  C1  UNL d   1       1.679  -1.929  -0.103  0.00  0.00    -0.074 A 
ATOM      3  C2  UNL d   1       1.138  -0.691  -0.464  0.00  0.00    -0.005 A 
ATOM      4  C3  UNL d   1      -0.243  -0.533  -0.576  0.00  0.00     0.006 A 
ATOM      5  C4  UNL d   1      -1.096  -1.609  -0.328  0.00  0.00    -0.005 A 
ATOM      6  C5  UNL d   1      -0.574  -2.855   0.033  0.00  0.00    -0.074 A 
ATOM      7  C6  UNL d   1      -1.476  -4.024   0.293  0.00  0.00     0.077 C 
ATOM      8  C7  UNL d   1       0.816  -3.008   0.137  0.00  0.00    -0.001 A 
ENDROOT
TORSDOF 0
ENDMDL
