MODEL 1
REMARK minimizedAffinity -2.85369563
REMARK minimizedRMSD -1
REMARK  0 active torsions:
REMARK  status: ('A' for Active; 'I' for Inactive)
ROOT
ATOM      1  C   UNL d   1       1.999  -4.543   0.854  0.00  0.00     0.077 C 
ATOM      2  C1  UNL d   1       1.020  -3.450   0.546  0.00  0.00    -0.074 A 
ATOM      3  C2  UNL d   1      -0.326  -3.568   0.907  0.00  0.00    -0.005 A 
ATOM      4  C3  UNL d   1      -1.224  -2.539   0.622  0.00  0.00     0.006 A 
ATOM      5  C4  UNL d   1      -0.785  -1.383  -0.025  0.00  0.00    -0.005 A 
ATOM      6  C5  UNL d   1       0.558  -1.247  -0.392  0.00  0.00    -0.074 A 
ATOM      7  C6  UNL d   1       1.048  -0.007  -1.080  0.00  0.00     0.077 C 
ATOM      8  C7  UNL d   1       1.455  -2.282  -0.097  0.00  0.00    -0.001 A 
ENDROOT
TORSDOF 0
ENDMDL
