MODEL 1
REMARK minimizedAffinity -4.55678463
REMARK minimizedRMSD -1
REMARK  0 active torsions:
REMARK  status: ('A' for Active; 'I' for Inactive)
ROOT
ATOM      1  C4' PXY d   1      -3.089   1.232  -1.354  0.00  0.00     0.077 C 
ATOM      2  C1' PXY d   1       0.370   4.142  -4.957  0.00  0.00     0.077 C 
ATOM      3  C1  PXY d   1      -0.548   3.384  -4.018  0.00  0.00    -0.082 A 
ATOM      4  C2  PXY d   1      -0.100   3.001  -2.833  0.00  0.00     0.003 A 
ATOM      5  C3  PXY d   1      -0.906   2.287  -1.985  0.00  0.00     0.003 A 
ATOM      6  C4  PXY d   1      -2.201   2.007  -2.331  0.00  0.00    -0.082 A 
ATOM      7  C5  PXY d   1      -2.669   2.404  -3.533  0.00  0.00     0.003 A 
ATOM      8  C6  PXY d   1      -1.822   3.092  -4.397  0.00  0.00     0.003 A 
ENDROOT
TORSDOF 0
ENDMDL
