MODEL 1
REMARK minimizedAffinity -3.79547238
REMARK minimizedRMSD -1
REMARK  0 active torsions:
REMARK  status: ('A' for Active; 'I' for Inactive)
ROOT
ATOM      1  C4' PXY d   1      -1.421  -1.078   3.369  0.00  0.00     0.077 C 
ATOM      2  C1' PXY d   1       2.808  -1.055  -0.571  0.00  0.00     0.077 C 
ATOM      3  C1  PXY d   1       1.703  -1.073   0.466  0.00  0.00    -0.082 A 
ATOM      4  C2  PXY d   1       0.610  -0.353   0.271  0.00  0.00     0.003 A 
ATOM      5  C3  PXY d   1      -0.385  -0.332   1.214  0.00  0.00     0.003 A 
ATOM      6  C4  PXY d   1      -0.284  -1.098   2.344  0.00  0.00    -0.082 A 
ATOM      7  C5  PXY d   1       0.823  -1.843   2.546  0.00  0.00     0.003 A 
ATOM      8  C6  PXY d   1       1.840  -1.818   1.596  0.00  0.00     0.003 A 
ENDROOT
TORSDOF 0
ENDMDL
