MODEL 1
REMARK minimizedAffinity -3.4623394
REMARK minimizedRMSD -1
REMARK  0 active torsions:
REMARK  status: ('A' for Active; 'I' for Inactive)
ROOT
ATOM      1  C4' PXY d   1      -1.202  -1.556   3.195  0.00  0.00     0.077 C 
ATOM      2  C1' PXY d   1       2.494   0.007  -0.966  0.00  0.00     0.077 C 
ATOM      3  C1  PXY d   1       1.519  -0.391   0.125  0.00  0.00    -0.082 A 
ATOM      4  C2  PXY d   1       1.809  -1.407   0.923  0.00  0.00     0.003 A 
ATOM      5  C3  PXY d   1       0.925  -1.800   1.894  0.00  0.00     0.003 A 
ATOM      6  C4  PXY d   1      -0.244  -1.114   2.086  0.00  0.00    -0.082 A 
ATOM      7  C5  PXY d   1      -0.542  -0.070   1.284  0.00  0.00     0.003 A 
ATOM      8  C6  PXY d   1       0.350   0.288   0.277  0.00  0.00     0.003 A 
ENDROOT
TORSDOF 0
ENDMDL
