MODEL 1
REMARK minimizedAffinity -4.44539738
REMARK minimizedRMSD -1
REMARK  0 active torsions:
REMARK  status: ('A' for Active; 'I' for Inactive)
ROOT
ATOM      1  C4' PXY d   1      -1.648  -1.090   3.362  0.00  0.00     0.077 C 
ATOM      2  C1' PXY d   1       2.882  -0.734  -0.211  0.00  0.00     0.077 C 
ATOM      3  C1  PXY d   1       1.697  -0.840   0.728  0.00  0.00    -0.082 A 
ATOM      4  C2  PXY d   1       0.694   0.016   0.615  0.00  0.00     0.003 A 
ATOM      5  C3  PXY d   1      -0.371  -0.046   1.476  0.00  0.00     0.003 A 
ATOM      6  C4  PXY d   1      -0.435  -1.026   2.430  0.00  0.00    -0.082 A 
ATOM      7  C5  PXY d   1       0.579  -1.909   2.545  0.00  0.00     0.003 A 
ATOM      8  C6  PXY d   1       1.671  -1.804   1.688  0.00  0.00     0.003 A 
ENDROOT
TORSDOF 0
ENDMDL
