MODEL 1
REMARK minimizedAffinity -1.21825016
REMARK minimizedRMSD -1
REMARK  0 active torsions:
REMARK  status: ('A' for Active; 'I' for Inactive)
ROOT
ATOM      1  C4' PXY d   1      -1.473   2.092  -1.121  0.00  0.00     0.077 C 
ATOM      2  C1' PXY d   1       2.217  -1.826   0.987  0.00  0.00     0.077 C 
ATOM      3  C1  PXY d   1       1.239  -0.806   0.438  0.00  0.00    -0.082 A 
ATOM      4  C2  PXY d   1       1.632   0.035  -0.505  0.00  0.00     0.003 A 
ATOM      5  C3  PXY d   1       0.770   0.985  -0.990  0.00  0.00     0.003 A 
ATOM      6  C4  PXY d   1      -0.523   1.039  -0.544  0.00  0.00    -0.082 A 
ATOM      7  C5  PXY d   1      -0.934   0.178   0.410  0.00  0.00     0.003 A 
ATOM      8  C6  PXY d   1      -0.032  -0.752   0.919  0.00  0.00     0.003 A 
ENDROOT
TORSDOF 0
ENDMDL
