MODEL 1
REMARK minimizedAffinity -6.16742992
REMARK minimizedRMSD -1
REMARK  0 active torsions:
REMARK  status: ('A' for Active; 'I' for Inactive)
ROOT
ATOM      1  C4' PXY d   1       1.914   0.483  -1.236  0.00  0.00     0.077 C 
ATOM      2  C1' PXY d   1      -1.181  -1.830   3.064  0.00  0.00     0.077 C 
ATOM      3  C1  PXY d   1      -0.359  -1.230   1.940  0.00  0.00    -0.082 A 
ATOM      4  C2  PXY d   1      -0.729  -0.080   1.401  0.00  0.00     0.003 A 
ATOM      5  C3  PXY d   1      -0.015   0.461   0.362  0.00  0.00     0.003 A 
ATOM      6  C4  PXY d   1       1.119  -0.155  -0.093  0.00  0.00    -0.082 A 
ATOM      7  C5  PXY d   1       1.510  -1.323   0.459  0.00  0.00     0.003 A 
ATOM      8  C6  PXY d   1       0.748  -1.876   1.484  0.00  0.00     0.003 A 
ENDROOT
TORSDOF 0
ENDMDL
