MODEL 1
REMARK minimizedAffinity -3.72670388
REMARK minimizedRMSD -1
REMARK  0 active torsions:
REMARK  status: ('A' for Active; 'I' for Inactive)
ROOT
ATOM      1  C4' PXY d   1      -0.855   1.885  -0.796  0.00  0.00     0.077 C 
ATOM      2  C1' PXY d   1       1.643  -2.474   2.062  0.00  0.00     0.077 C 
ATOM      3  C1  PXY d   1       1.000  -1.325   1.311  0.00  0.00    -0.082 A 
ATOM      4  C2  PXY d   1      -0.286  -1.067   1.487  0.00  0.00     0.003 A 
ATOM      5  C3  PXY d   1      -0.891  -0.052   0.792  0.00  0.00     0.003 A 
ATOM      6  C4  PXY d   1      -0.161   0.741  -0.052  0.00  0.00    -0.082 A 
ATOM      7  C5  PXY d   1       1.154   0.491  -0.229  0.00  0.00     0.003 A 
ATOM      8  C6  PXY d   1       1.740  -0.570   0.455  0.00  0.00     0.003 A 
ENDROOT
TORSDOF 0
ENDMDL
