MODEL 1
REMARK minimizedAffinity -5.86162806
REMARK minimizedRMSD -1
REMARK  0 active torsions:
REMARK  status: ('A' for Active; 'I' for Inactive)
ROOT
ATOM      1  C4' PXY d   1      -0.581   1.721  -0.607  0.00  0.00     0.077 C 
ATOM      2  C1' PXY d   1       1.355  -3.204   1.720  0.00  0.00     0.077 C 
ATOM      3  C1  PXY d   1       0.835  -1.916   1.114  0.00  0.00    -0.082 A 
ATOM      4  C2  PXY d   1       1.515  -1.329   0.142  0.00  0.00     0.003 A 
ATOM      5  C3  PXY d   1       1.076  -0.147  -0.396  0.00  0.00     0.003 A 
ATOM      6  C4  PXY d   1      -0.099   0.414   0.029  0.00  0.00    -0.082 A 
ATOM      7  C5  PXY d   1      -0.804  -0.184   1.012  0.00  0.00     0.003 A 
ATOM      8  C6  PXY d   1      -0.320  -1.362   1.574  0.00  0.00     0.003 A 
ENDROOT
TORSDOF 0
ENDMDL
