MODEL 1
REMARK minimizedAffinity -4.76886988
REMARK minimizedRMSD -1
REMARK  0 active torsions:
REMARK  status: ('A' for Active; 'I' for Inactive)
ROOT
ATOM      1  C4' PXY d   1      -1.105   1.697  -1.121  0.00  0.00     0.077 C 
ATOM      2  C1' PXY d   1       1.739  -2.725   1.283  0.00  0.00     0.077 C 
ATOM      3  C1  PXY d   1       1.004  -1.558   0.652  0.00  0.00    -0.082 A 
ATOM      4  C2  PXY d   1      -0.300  -1.430   0.836  0.00  0.00     0.003 A 
ATOM      5  C3  PXY d   1      -0.985  -0.399   0.247  0.00  0.00     0.003 A 
ATOM      6  C4  PXY d   1      -0.321   0.540  -0.495  0.00  0.00    -0.082 A 
ATOM      7  C5  PXY d   1       1.011   0.422  -0.679  0.00  0.00     0.003 A 
ATOM      8  C6  PXY d   1       1.682  -0.655  -0.106  0.00  0.00     0.003 A 
ENDROOT
TORSDOF 0
ENDMDL
