MODEL 1
REMARK minimizedAffinity -5.11825752
REMARK minimizedRMSD -1
REMARK  0 active torsions:
REMARK  status: ('A' for Active; 'I' for Inactive)
ROOT
ATOM      1  C4' PXY d   1      -1.219  -2.130   3.035  0.00  0.00     0.077 C 
ATOM      2  C1' PXY d   1       2.696  -0.598  -0.932  0.00  0.00     0.077 C 
ATOM      3  C1  PXY d   1       1.676  -1.011   0.110  0.00  0.00    -0.082 A 
ATOM      4  C2  PXY d   1       0.453  -0.508   0.064  0.00  0.00     0.003 A 
ATOM      5  C3  PXY d   1      -0.473  -0.846   1.017  0.00  0.00     0.003 A 
ATOM      6  C4  PXY d   1      -0.159  -1.749   1.998  0.00  0.00    -0.082 A 
ATOM      7  C5  PXY d   1       1.083  -2.274   2.046  0.00  0.00     0.003 A 
ATOM      8  C6  PXY d   1       2.021  -1.887   1.093  0.00  0.00     0.003 A 
ENDROOT
TORSDOF 0
ENDMDL
