MODEL 1
REMARK minimizedAffinity -3.2254281
REMARK minimizedRMSD -1
REMARK  0 active torsions:
REMARK  status: ('A' for Active; 'I' for Inactive)
ROOT
ATOM      1  C4' PXY d   1      -0.298   1.635  -1.351  0.00  0.00     0.077 C 
ATOM      2  C1' PXY d   1       1.050  -3.103   1.673  0.00  0.00     0.077 C 
ATOM      3  C1  PXY d   1       0.709  -1.857   0.879  0.00  0.00    -0.082 A 
ATOM      4  C2  PXY d   1      -0.498  -1.326   0.983  0.00  0.00     0.003 A 
ATOM      5  C3  PXY d   1      -0.833  -0.218   0.248  0.00  0.00     0.003 A 
ATOM      6  C4  PXY d   1       0.093   0.383  -0.561  0.00  0.00    -0.082 A 
ATOM      7  C5  PXY d   1       1.330  -0.147  -0.664  0.00  0.00     0.003 A 
ATOM      8  C6  PXY d   1       1.638  -1.296   0.059  0.00  0.00     0.003 A 
ENDROOT
TORSDOF 0
ENDMDL
