MODEL 1
REMARK minimizedAffinity -2.65442276
REMARK minimizedRMSD -1
REMARK  0 active torsions:
REMARK  status: ('A' for Active; 'I' for Inactive)
ROOT
ATOM      1  C4' PXY d   1      -1.567  -2.611   3.387  0.00  0.00     0.077 C 
ATOM      2  C1' PXY d   1       1.348   0.479  -0.533  0.00  0.00     0.077 C 
ATOM      3  C1  PXY d   1       0.592  -0.341   0.493  0.00  0.00    -0.082 A 
ATOM      4  C2  PXY d   1      -0.672  -0.053   0.758  0.00  0.00     0.003 A 
ATOM      5  C3  PXY d   1      -1.361  -0.764   1.707  0.00  0.00     0.003 A 
ATOM      6  C4  PXY d   1      -0.767  -1.816   2.352  0.00  0.00    -0.082 A 
ATOM      7  C5  PXY d   1       0.519  -2.123   2.079  0.00  0.00     0.003 A 
ATOM      8  C6  PXY d   1       1.214  -1.362   1.143  0.00  0.00     0.003 A 
ENDROOT
TORSDOF 0
ENDMDL
