MODEL 1
REMARK minimizedAffinity -4.34588861
REMARK minimizedRMSD -1
REMARK  0 active torsions:
REMARK  status: ('A' for Active; 'I' for Inactive)
ROOT
ATOM      1  C4' PXY d   1      -1.062   1.796  -0.913  0.00  0.00     0.077 C 
ATOM      2  C1' PXY d   1       1.418  -2.899   1.371  0.00  0.00     0.077 C 
ATOM      3  C1  PXY d   1       0.756  -1.673   0.773  0.00  0.00    -0.082 A 
ATOM      4  C2  PXY d   1       1.444  -0.889  -0.041  0.00  0.00     0.003 A 
ATOM      5  C3  PXY d   1       0.871   0.241  -0.564  0.00  0.00     0.003 A 
ATOM      6  C4  PXY d   1      -0.437   0.543  -0.294  0.00  0.00    -0.082 A 
ATOM      7  C5  PXY d   1      -1.149  -0.258   0.527  0.00  0.00     0.003 A 
ATOM      8  C6  PXY d   1      -0.536  -1.378   1.081  0.00  0.00     0.003 A 
ENDROOT
TORSDOF 0
ENDMDL
