MODEL 1
REMARK minimizedAffinity -6.09416962
REMARK minimizedRMSD -1
REMARK  0 active torsions:
REMARK  status: ('A' for Active; 'I' for Inactive)
ROOT
ATOM      1  C4' PXY d   1      -0.687   1.342  -0.622  0.00  0.00     0.077 C 
ATOM      2  C1' PXY d   1       1.300  -3.291   2.207  0.00  0.00     0.077 C 
ATOM      3  C1  PXY d   1       0.767  -2.079   1.469  0.00  0.00    -0.082 A 
ATOM      4  C2  PXY d   1       1.465  -1.562   0.470  0.00  0.00     0.003 A 
ATOM      5  C3  PXY d   1       1.012  -0.447  -0.187  0.00  0.00     0.003 A 
ATOM      6  C4  PXY d   1      -0.192   0.113   0.146  0.00  0.00    -0.082 A 
ATOM      7  C5  PXY d   1      -0.914  -0.415   1.156  0.00  0.00     0.003 A 
ATOM      8  C6  PXY d   1      -0.418  -1.523   1.838  0.00  0.00     0.003 A 
ENDROOT
TORSDOF 0
ENDMDL
