MODEL 1
REMARK minimizedAffinity -2.3878119
REMARK minimizedRMSD -1
REMARK  0 active torsions:
REMARK  status: ('A' for Active; 'I' for Inactive)
ROOT
ATOM      1  C4' PXY d   1       2.365   0.747  -0.712  0.00  0.00     0.077 C 
ATOM      2  C1' PXY d   1      -2.417  -1.240   1.856  0.00  0.00     0.077 C 
ATOM      3  C1  PXY d   1      -1.170  -0.711   1.176  0.00  0.00    -0.082 A 
ATOM      4  C2  PXY d   1      -0.085  -1.466   1.121  0.00  0.00     0.003 A 
ATOM      5  C3  PXY d   1       1.062  -0.990   0.537  0.00  0.00     0.003 A 
ATOM      6  C4  PXY d   1       1.081   0.250  -0.043  0.00  0.00    -0.082 A 
ATOM      7  C5  PXY d   1      -0.026   1.022  -0.000  0.00  0.00     0.003 A 
ATOM      8  C6  PXY d   1      -1.167   0.537   0.633  0.00  0.00     0.003 A 
ENDROOT
TORSDOF 0
ENDMDL
