MODEL 1
REMARK minimizedAffinity -4.86874485
REMARK minimizedRMSD -1
REMARK  0 active torsions:
REMARK  status: ('A' for Active; 'I' for Inactive)
ROOT
ATOM      1  C4' PXY d   1      -1.289   2.152  -0.966  0.00  0.00     0.077 C 
ATOM      2  C1' PXY d   1       1.892  -2.359   0.751  0.00  0.00     0.077 C 
ATOM      3  C1  PXY d   1       1.068  -1.169   0.300  0.00  0.00    -0.082 A 
ATOM      4  C2  PXY d   1      -0.224  -1.124   0.580  0.00  0.00     0.003 A 
ATOM      5  C3  PXY d   1      -0.990  -0.070   0.153  0.00  0.00     0.003 A 
ATOM      6  C4  PXY d   1      -0.417   0.974  -0.522  0.00  0.00    -0.082 A 
ATOM      7  C5  PXY d   1       0.903   0.941  -0.803  0.00  0.00     0.003 A 
ATOM      8  C6  PXY d   1       1.655  -0.158  -0.396  0.00  0.00     0.003 A 
ENDROOT
TORSDOF 0
ENDMDL
