MODEL 1
REMARK minimizedAffinity -5.31356764
REMARK minimizedRMSD -1
REMARK  0 active torsions:
REMARK  status: ('A' for Active; 'I' for Inactive)
ROOT
ATOM      1  C4' PXY d   1      -0.762   1.587  -1.047  0.00  0.00     0.077 C 
ATOM      2  C1' PXY d   1       1.614  -3.126   1.312  0.00  0.00     0.077 C 
ATOM      3  C1  PXY d   1       1.003  -1.885   0.692  0.00  0.00    -0.082 A 
ATOM      4  C2  PXY d   1      -0.263  -1.587   0.936  0.00  0.00     0.003 A 
ATOM      5  C3  PXY d   1      -0.841  -0.486   0.358  0.00  0.00     0.003 A 
ATOM      6  C4  PXY d   1      -0.100   0.349  -0.435  0.00  0.00    -0.082 A 
ATOM      7  C5  PXY d   1       1.195   0.058  -0.681  0.00  0.00     0.003 A 
ATOM      8  C6  PXY d   1       1.751  -1.087  -0.117  0.00  0.00     0.003 A 
ENDROOT
TORSDOF 0
ENDMDL
