MODEL 1
REMARK minimizedAffinity -5.45002413
REMARK minimizedRMSD -1
REMARK  0 active torsions:
REMARK  status: ('A' for Active; 'I' for Inactive)
ROOT
ATOM      1  C4' PXY d   1      -0.251   2.175  -0.835  0.00  0.00     0.077 C 
ATOM      2  C1' PXY d   1       1.595  -2.934   1.142  0.00  0.00     0.077 C 
ATOM      3  C1  PXY d   1       1.099  -1.599   0.622  0.00  0.00    -0.082 A 
ATOM      4  C2  PXY d   1       1.953  -0.754   0.069  0.00  0.00     0.003 A 
ATOM      5  C3  PXY d   1       1.527   0.471  -0.378  0.00  0.00     0.003 A 
ATOM      6  C4  PXY d   1       0.204   0.812  -0.305  0.00  0.00    -0.082 A 
ATOM      7  C5  PXY d   1      -0.676  -0.048   0.249  0.00  0.00     0.003 A 
ATOM      8  C6  PXY d   1      -0.217  -1.270   0.733  0.00  0.00     0.003 A 
ENDROOT
TORSDOF 0
ENDMDL
