MODEL 1
REMARK minimizedAffinity -5.17442036
REMARK minimizedRMSD -1
REMARK  0 active torsions:
REMARK  status: ('A' for Active; 'I' for Inactive)
ROOT
ATOM      1  C4' PXY d   1      -2.225  -1.911   3.264  0.00  0.00     0.077 C 
ATOM      2  C1' PXY d   1       2.479  -1.480  -0.068  0.00  0.00     0.077 C 
ATOM      3  C1  PXY d   1       1.241  -1.581   0.802  0.00  0.00    -0.082 A 
ATOM      4  C2  PXY d   1       1.249  -2.374   1.860  0.00  0.00     0.003 A 
ATOM      5  C3  PXY d   1       0.128  -2.503   2.640  0.00  0.00     0.003 A 
ATOM      6  C4  PXY d   1      -0.996  -1.771   2.363  0.00  0.00    -0.082 A 
ATOM      7  C5  PXY d   1      -1.008  -0.951   1.290  0.00  0.00     0.003 A 
ATOM      8  C6  PXY d   1       0.127  -0.866   0.488  0.00  0.00     0.003 A 
ENDROOT
TORSDOF 0
ENDMDL
