MODEL 1
REMARK minimizedAffinity 3.95042038
REMARK minimizedRMSD -1
REMARK  1 active torsions:
REMARK  status: ('A' for Active; 'I' for Inactive)
REMARK    1  A    between atoms: C1_2  and  C2_3 
ROOT
ATOM      1  C2  UNL d   1       1.229  -1.120   2.007  0.00  0.00    -0.073 A 
ATOM      2  C3  UNL d   1       2.392  -1.877   2.185  0.00  0.00    -0.002 A 
ATOM      3  C4  UNL d   1       3.028  -2.461   1.089  0.00  0.00     0.004 A 
ATOM      4  C5  UNL d   1       2.513  -2.288  -0.196  0.00  0.00    -0.004 A 
ATOM      5  C6  UNL d   1       1.358  -1.524  -0.395  0.00  0.00    -0.075 A 
ATOM      6  C7  UNL d   1       0.789  -1.331  -1.770  0.00  0.00     0.076 C 
ATOM      7  C8  UNL d   1       0.723  -0.944   0.711  0.00  0.00     0.001 A 
ENDROOT
BRANCH   1   8
ATOM      8  C1  UNL d   1       0.543  -0.483   3.188  0.00  0.00     0.053 C 
ATOM      9  C   UNL d   1      -0.971  -0.579   3.087  0.00  0.00     0.018 C 
ENDBRANCH   1   8
TORSDOF 1
ENDMDL
