MODEL 1
REMARK minimizedAffinity 6.1513381
REMARK minimizedRMSD -1
REMARK  1 active torsions:
REMARK  status: ('A' for Active; 'I' for Inactive)
REMARK    1  A    between atoms: C1_2  and  C2_3 
ROOT
ATOM      1  C2  UNL d   1       1.412  -0.865   0.354  0.00  0.00    -0.073 A 
ATOM      2  C3  UNL d   1       2.523  -1.659   0.660  0.00  0.00    -0.002 A 
ATOM      3  C4  UNL d   1       2.688  -2.175   1.946  0.00  0.00     0.004 A 
ATOM      4  C5  UNL d   1       1.742  -1.909   2.936  0.00  0.00    -0.004 A 
ATOM      5  C6  UNL d   1       0.619  -1.128   2.647  0.00  0.00    -0.075 A 
ATOM      6  C7  UNL d   1      -0.406  -0.831   3.701  0.00  0.00     0.076 C 
ATOM      7  C8  UNL d   1       0.462  -0.611   1.353  0.00  0.00     0.001 A 
ENDROOT
BRANCH   1   8
ATOM      8  C1  UNL d   1       1.226  -0.311  -1.035  0.00  0.00     0.053 C 
ATOM      9  C   UNL d   1       1.569   1.168  -1.109  0.00  0.00     0.018 C 
ENDBRANCH   1   8
TORSDOF 1
ENDMDL
