MODEL 1
REMARK minimizedAffinity 8.80605125
REMARK minimizedRMSD -1
REMARK  1 active torsions:
REMARK  status: ('A' for Active; 'I' for Inactive)
REMARK    1  A    between atoms: C1_2  and  C2_3 
ROOT
ATOM      1  C2  UNL d   1       1.079  -1.836   1.865  0.00  0.00    -0.073 A 
ATOM      2  C3  UNL d   1       2.172  -2.710   1.849  0.00  0.00    -0.002 A 
ATOM      3  C4  UNL d   1       3.006  -2.776   0.733  0.00  0.00     0.004 A 
ATOM      4  C5  UNL d   1       2.762  -1.964  -0.375  0.00  0.00    -0.004 A 
ATOM      5  C6  UNL d   1       1.683  -1.075  -0.373  0.00  0.00    -0.075 A 
ATOM      6  C7  UNL d   1       1.405  -0.197  -1.558  0.00  0.00     0.076 C 
ATOM      7  C8  UNL d   1       0.847  -1.017   0.750  0.00  0.00     0.001 A 
ENDROOT
BRANCH   1   8
ATOM      8  C1  UNL d   1       0.179  -1.757   3.071  0.00  0.00     0.053 C 
ATOM      9  C   UNL d   1      -0.839  -0.634   2.950  0.00  0.00     0.018 C 
ENDBRANCH   1   8
TORSDOF 1
ENDMDL
