MODEL 1
REMARK minimizedAffinity 6.45500755
REMARK minimizedRMSD -1
REMARK  1 active torsions:
REMARK  status: ('A' for Active; 'I' for Inactive)
REMARK    1  A    between atoms: C1_2  and  C2_3 
ROOT
ATOM      1  C2  UNL d   1       2.228  -0.176  -0.828  0.00  0.00    -0.073 A 
ATOM      2  C3  UNL d   1       3.318  -1.035  -1.010  0.00  0.00    -0.002 A 
ATOM      3  C4  UNL d   1       3.541  -2.089  -0.123  0.00  0.00     0.004 A 
ATOM      4  C5  UNL d   1       2.675  -2.298   0.951  0.00  0.00    -0.004 A 
ATOM      5  C6  UNL d   1       1.574  -1.457   1.143  0.00  0.00    -0.075 A 
ATOM      6  C7  UNL d   1       0.634  -1.667   2.294  0.00  0.00     0.076 C 
ATOM      7  C8  UNL d   1       1.358  -0.400   0.248  0.00  0.00     0.001 A 
ENDROOT
BRANCH   1   8
ATOM      8  C1  UNL d   1       1.979   0.959  -1.788  0.00  0.00     0.053 C 
ATOM      9  C   UNL d   1       2.036   2.312  -1.097  0.00  0.00     0.018 C 
ENDBRANCH   1   8
TORSDOF 1
ENDMDL
