MODEL 1
REMARK minimizedAffinity 5.31543255
REMARK minimizedRMSD -1
REMARK  1 active torsions:
REMARK  status: ('A' for Active; 'I' for Inactive)
REMARK    1  A    between atoms: C1_2  and  C2_3 
ROOT
ATOM      1  C2  UNL d   1       2.126  -1.044   0.491  0.00  0.00    -0.073 A 
ATOM      2  C3  UNL d   1       1.417  -1.408  -0.659  0.00  0.00    -0.002 A 
ATOM      3  C4  UNL d   1       0.950  -0.430  -1.538  0.00  0.00     0.004 A 
ATOM      4  C5  UNL d   1       1.192   0.919  -1.281  0.00  0.00    -0.004 A 
ATOM      5  C6  UNL d   1       1.909   1.303  -0.143  0.00  0.00    -0.075 A 
ATOM      6  C7  UNL d   1       2.177   2.750   0.150  0.00  0.00     0.076 C 
ATOM      7  C8  UNL d   1       2.373   0.315   0.737  0.00  0.00     0.001 A 
ENDROOT
BRANCH   1   8
ATOM      8  C1  UNL d   1       2.638  -2.096   1.440  0.00  0.00     0.053 C 
ATOM      9  C   UNL d   1       3.024  -3.376   0.717  0.00  0.00     0.018 C 
ENDBRANCH   1   8
TORSDOF 1
ENDMDL
