MODEL 1
REMARK minimizedAffinity 4.07791662
REMARK minimizedRMSD -1
REMARK  1 active torsions:
REMARK  status: ('A' for Active; 'I' for Inactive)
REMARK    1  A    between atoms: C1_2  and  C2_3 
ROOT
ATOM      1  C2  UNL d   1       0.869  -1.484   2.050  0.00  0.00    -0.073 A 
ATOM      2  C3  UNL d   1       1.376  -1.613   0.752  0.00  0.00    -0.002 A 
ATOM      3  C4  UNL d   1       2.724  -1.909   0.549  0.00  0.00     0.004 A 
ATOM      4  C5  UNL d   1       3.576  -2.086   1.638  0.00  0.00    -0.004 A 
ATOM      5  C6  UNL d   1       3.086  -1.972   2.943  0.00  0.00    -0.075 A 
ATOM      6  C7  UNL d   1       3.990  -2.157   4.126  0.00  0.00     0.076 C 
ATOM      7  C8  UNL d   1       1.731  -1.672   3.140  0.00  0.00     0.001 A 
ENDROOT
BRANCH   1   8
ATOM      8  C1  UNL d   1      -0.588  -1.170   2.276  0.00  0.00     0.053 C 
ATOM      9  C   UNL d   1      -0.796  -0.253   3.471  0.00  0.00     0.018 C 
ENDBRANCH   1   8
TORSDOF 1
ENDMDL
