MODEL 1
REMARK minimizedAffinity 15.2741909
REMARK minimizedRMSD -1
REMARK  0 active torsions:
REMARK  status: ('A' for Active; 'I' for Inactive)
ROOT
ATOM      1  C   UNL d   1       2.374   0.590  -1.848  0.00  0.00     0.124 A 
ATOM      2  C1  UNL d   1       2.061  -0.699  -1.442  0.00  0.00     0.062 A 
ATOM      3  C2  UNL d   1       1.918  -0.991  -0.088  0.00  0.00     0.162 A 
ATOM      4  C3  UNL d   1       2.086   0.009   0.869  0.00  0.00    -0.034 A 
ATOM      5  C4  UNL d   1       2.401   1.304   0.452  0.00  0.00     0.162 A 
ATOM      6  C5  UNL d   1       2.543   1.590  -0.901  0.00  0.00     0.062 A 
ATOM      7  F   UNL d   1       2.845   2.837  -1.292  0.00  0.00    -0.097 F 
ATOM      8  F1  UNL d   1       2.569   2.290   1.346  0.00  0.00    -0.096 F 
ATOM      9  I   UNL d   1       1.872  -0.423   2.894  0.00  0.00    -0.060 I 
ATOM     10  F2  UNL d   1       1.615  -2.246   0.276  0.00  0.00    -0.096 F 
ATOM     11  F3  UNL d   1       1.898  -1.668  -2.355  0.00  0.00    -0.097 F 
ATOM     12  F4  UNL d   1       2.513   0.868  -3.151  0.00  0.00    -0.092 F 
ENDROOT
TORSDOF 0
ENDMDL
