MODEL 1
REMARK minimizedAffinity 3.02276659
REMARK minimizedRMSD -1
REMARK  0 active torsions:
REMARK  status: ('A' for Active; 'I' for Inactive)
ROOT
ATOM      1  C   UNL d   1       0.364  -1.879   2.019  0.00  0.00     0.124 A 
ATOM      2  C1  UNL d   1       1.728  -1.848   1.766  0.00  0.00     0.062 A 
ATOM      3  C2  UNL d   1       2.196  -1.534   0.493  0.00  0.00     0.162 A 
ATOM      4  C3  UNL d   1       1.300  -1.248  -0.536  0.00  0.00    -0.034 A 
ATOM      5  C4  UNL d   1      -0.071  -1.282  -0.274  0.00  0.00     0.162 A 
ATOM      6  C5  UNL d   1      -0.534  -1.596   1.000  0.00  0.00     0.062 A 
ATOM      7  F   UNL d   1      -1.853  -1.626   1.243  0.00  0.00    -0.097 F 
ATOM      8  F1  UNL d   1      -0.961  -1.013  -1.241  0.00  0.00    -0.096 F 
ATOM      9  I   UNL d   1       1.996  -0.779  -2.440  0.00  0.00    -0.060 I 
ATOM     10  F2  UNL d   1       3.520  -1.511   0.277  0.00  0.00    -0.096 F 
ATOM     11  F3  UNL d   1       2.597  -2.121   2.749  0.00  0.00    -0.097 F 
ATOM     12  F4  UNL d   1      -0.085  -2.182   3.244  0.00  0.00    -0.092 F 
ENDROOT
TORSDOF 0
ENDMDL
