MODEL 1
REMARK minimizedAffinity 15.9202404
REMARK minimizedRMSD -1
REMARK  0 active torsions:
REMARK  status: ('A' for Active; 'I' for Inactive)
ROOT
ATOM      1  C   UNL d   1      -3.284  -1.369  -4.875  0.00  0.00     0.124 A 
ATOM      2  C1  UNL d   1      -4.487  -0.953  -4.321  0.00  0.00     0.062 A 
ATOM      3  C2  UNL d   1      -4.831   0.395  -4.327  0.00  0.00     0.162 A 
ATOM      4  C3  UNL d   1      -3.972   1.339  -4.891  0.00  0.00    -0.034 A 
ATOM      5  C4  UNL d   1      -2.764   0.913  -5.445  0.00  0.00     0.162 A 
ATOM      6  C5  UNL d   1      -2.424  -0.436  -5.436  0.00  0.00     0.062 A 
ATOM      7  F   UNL d   1      -1.261  -0.836  -5.972  0.00  0.00    -0.097 F 
ATOM      8  F1  UNL d   1      -1.914   1.793  -5.996  0.00  0.00    -0.096 F 
ATOM      9  I   UNL d   1      -4.484   3.356  -4.903  0.00  0.00    -0.060 I 
ATOM     10  F2  UNL d   1      -6.000   0.769  -3.785  0.00  0.00    -0.096 F 
ATOM     11  F3  UNL d   1      -5.319  -1.852  -3.777  0.00  0.00    -0.097 F 
ATOM     12  F4  UNL d   1      -2.955  -2.667  -4.866  0.00  0.00    -0.092 F 
ENDROOT
TORSDOF 0
ENDMDL
