MODEL 1
REMARK minimizedAffinity 6.38585567
REMARK minimizedRMSD -1
REMARK  0 active torsions:
REMARK  status: ('A' for Active; 'I' for Inactive)
ROOT
ATOM      1  C   UNL d   1       1.944  -3.485   1.141  0.00  0.00     0.124 A 
ATOM      2  C1  UNL d   1       0.915  -3.834   2.005  0.00  0.00     0.062 A 
ATOM      3  C2  UNL d   1       0.188  -2.846   2.663  0.00  0.00     0.162 A 
ATOM      4  C3  UNL d   1       0.487  -1.499   2.459  0.00  0.00    -0.034 A 
ATOM      5  C4  UNL d   1       1.524  -1.156   1.589  0.00  0.00     0.162 A 
ATOM      6  C5  UNL d   1       2.247  -2.147   0.934  0.00  0.00     0.062 A 
ATOM      7  F   UNL d   1       3.241  -1.808   0.100  0.00  0.00    -0.097 F 
ATOM      8  F1  UNL d   1       1.837   0.130   1.370  0.00  0.00    -0.096 F 
ATOM      9  I   UNL d   1      -0.598  -0.019   3.440  0.00  0.00    -0.060 I 
ATOM     10  F2  UNL d   1      -0.801  -3.213   3.491  0.00  0.00    -0.096 F 
ATOM     11  F3  UNL d   1       0.621  -5.127   2.207  0.00  0.00    -0.097 F 
ATOM     12  F4  UNL d   1       2.643  -4.438   0.510  0.00  0.00    -0.092 F 
ENDROOT
TORSDOF 0
ENDMDL
