MODEL 1
REMARK minimizedAffinity 8.89693642
REMARK minimizedRMSD -1
REMARK  0 active torsions:
REMARK  status: ('A' for Active; 'I' for Inactive)
ROOT
ATOM      1  C   UNL d   1      -0.462  -0.649   1.621  0.00  0.00     0.124 A 
ATOM      2  C1  UNL d   1       0.426  -1.032   2.617  0.00  0.00     0.062 A 
ATOM      3  C2  UNL d   1       1.679  -1.537   2.281  0.00  0.00     0.162 A 
ATOM      4  C3  UNL d   1       2.052  -1.661   0.943  0.00  0.00    -0.034 A 
ATOM      5  C4  UNL d   1       1.154  -1.275  -0.053  0.00  0.00     0.162 A 
ATOM      6  C5  UNL d   1      -0.097  -0.770   0.288  0.00  0.00     0.062 A 
ATOM      7  F   UNL d   1      -0.954  -0.401  -0.676  0.00  0.00    -0.097 F 
ATOM      8  F1  UNL d   1       1.480  -1.380  -1.349  0.00  0.00    -0.096 F 
ATOM      9  I   UNL d   1       3.925  -2.416   0.437  0.00  0.00    -0.060 I 
ATOM     10  F2  UNL d   1       2.517  -1.900   3.264  0.00  0.00    -0.096 F 
ATOM     11  F3  UNL d   1       0.076  -0.916   3.906  0.00  0.00    -0.097 F 
ATOM     12  F4  UNL d   1      -1.667  -0.164   1.947  0.00  0.00    -0.092 F 
ENDROOT
TORSDOF 0
ENDMDL
