MODEL 1
REMARK minimizedAffinity 16.3295822
REMARK minimizedRMSD -1
REMARK  0 active torsions:
REMARK  status: ('A' for Active; 'I' for Inactive)
ROOT
ATOM      1  C   UNL d   1       2.513  -2.100  -0.034  0.00  0.00     0.124 A 
ATOM      2  C1  UNL d   1       2.273  -2.388   1.302  0.00  0.00     0.062 A 
ATOM      3  C2  UNL d   1       1.130  -1.901   1.929  0.00  0.00     0.162 A 
ATOM      4  C3  UNL d   1       0.217  -1.120   1.220  0.00  0.00    -0.034 A 
ATOM      5  C4  UNL d   1       0.466  -0.834  -0.123  0.00  0.00     0.162 A 
ATOM      6  C5  UNL d   1       1.609  -1.323  -0.746  0.00  0.00     0.062 A 
ATOM      7  F   UNL d   1       1.839  -1.044  -2.037  0.00  0.00    -0.097 F 
ATOM      8  F1  UNL d   1      -0.392  -0.087  -0.835  0.00  0.00    -0.096 F 
ATOM      9  I   UNL d   1      -1.493  -0.390   2.154  0.00  0.00    -0.060 I 
ATOM     10  F2  UNL d   1       0.924  -2.195   3.221  0.00  0.00    -0.096 F 
ATOM     11  F3  UNL d   1       3.145  -3.138   1.992  0.00  0.00    -0.097 F 
ATOM     12  F4  UNL d   1       3.614  -2.570  -0.635  0.00  0.00    -0.092 F 
ENDROOT
TORSDOF 0
ENDMDL
