MODEL 1
REMARK minimizedAffinity 4.50610733
REMARK minimizedRMSD -1
REMARK  0 active torsions:
REMARK  status: ('A' for Active; 'I' for Inactive)
ROOT
ATOM      1  C   UNL d   1      -0.762  -0.615   1.566  0.00  0.00     0.124 A 
ATOM      2  C1  UNL d   1       0.244  -1.010   2.437  0.00  0.00     0.062 A 
ATOM      3  C2  UNL d   1       1.447  -1.502   1.939  0.00  0.00     0.162 A 
ATOM      4  C3  UNL d   1       1.652  -1.599   0.563  0.00  0.00    -0.034 A 
ATOM      5  C4  UNL d   1       0.636  -1.200  -0.306  0.00  0.00     0.162 A 
ATOM      6  C5  UNL d   1      -0.565  -0.710   0.196  0.00  0.00     0.062 A 
ATOM      7  F   UNL d   1      -1.536  -0.328  -0.647  0.00  0.00    -0.097 F 
ATOM      8  F1  UNL d   1       0.800  -1.281  -1.635  0.00  0.00    -0.096 F 
ATOM      9  I   UNL d   1       3.450  -2.334  -0.185  0.00  0.00    -0.060 I 
ATOM     10  F2  UNL d   1       2.402  -1.877   2.804  0.00  0.00    -0.096 F 
ATOM     11  F3  UNL d   1       0.056  -0.920   3.761  0.00  0.00    -0.097 F 
ATOM     12  F4  UNL d   1      -1.919  -0.143   2.048  0.00  0.00    -0.092 F 
ENDROOT
TORSDOF 0
ENDMDL
