MODEL 1
REMARK minimizedAffinity 13.0922108
REMARK minimizedRMSD -1
REMARK  0 active torsions:
REMARK  status: ('A' for Active; 'I' for Inactive)
ROOT
ATOM      1  C   UNL d   1      -0.212   0.312   3.417  0.00  0.00     0.124 A 
ATOM      2  C1  UNL d   1      -0.954  -0.329   2.434  0.00  0.00     0.062 A 
ATOM      3  C2  UNL d   1      -0.538  -1.560   1.934  0.00  0.00     0.162 A 
ATOM      4  C3  UNL d   1       0.626  -2.158   2.417  0.00  0.00    -0.034 A 
ATOM      5  C4  UNL d   1       1.367  -1.507   3.405  0.00  0.00     0.162 A 
ATOM      6  C5  UNL d   1       0.947  -0.277   3.901  0.00  0.00     0.062 A 
ATOM      7  F   UNL d   1       1.665   0.340   4.851  0.00  0.00    -0.097 F 
ATOM      8  F1  UNL d   1       2.491  -2.055   3.891  0.00  0.00    -0.096 F 
ATOM      9  I   UNL d   1       1.251  -3.998   1.672  0.00  0.00    -0.060 I 
ATOM     10  F2  UNL d   1      -1.274  -2.156   0.985  0.00  0.00    -0.096 F 
ATOM     11  F3  UNL d   1      -2.074   0.239   1.964  0.00  0.00    -0.097 F 
ATOM     12  F4  UNL d   1      -0.614   1.496   3.896  0.00  0.00    -0.092 F 
ENDROOT
TORSDOF 0
ENDMDL
