MODEL 1
REMARK minimizedAffinity 8.7715807
REMARK minimizedRMSD -1
REMARK  0 active torsions:
REMARK  status: ('A' for Active; 'I' for Inactive)
ROOT
ATOM      1  C   UNL d   1      -0.229  -1.132   1.528  0.00  0.00     0.124 A 
ATOM      2  C1  UNL d   1       0.732  -1.533   2.446  0.00  0.00     0.062 A 
ATOM      3  C2  UNL d   1       2.024  -1.832   2.022  0.00  0.00     0.162 A 
ATOM      4  C3  UNL d   1       2.363  -1.730   0.673  0.00  0.00    -0.034 A 
ATOM      5  C4  UNL d   1       1.391  -1.326  -0.245  0.00  0.00     0.162 A 
ATOM      6  C5  UNL d   1       0.102  -1.028   0.184  0.00  0.00     0.062 A 
ATOM      7  F   UNL d   1      -0.825  -0.641  -0.704  0.00  0.00    -0.097 F 
ATOM      8  F1  UNL d   1       1.683  -1.217  -1.549  0.00  0.00    -0.096 F 
ATOM      9  I   UNL d   1       4.293  -2.175   0.035  0.00  0.00    -0.060 I 
ATOM     10  F2  UNL d   1       2.932  -2.217   2.931  0.00  0.00    -0.096 F 
ATOM     11  F3  UNL d   1       0.415  -1.635   3.745  0.00  0.00    -0.097 F 
ATOM     12  F4  UNL d   1      -1.471  -0.846   1.939  0.00  0.00    -0.092 F 
ENDROOT
TORSDOF 0
ENDMDL
