MODEL 1
REMARK minimizedAffinity 3.02419019
REMARK minimizedRMSD -1
REMARK  1 active torsions:
REMARK  status: ('A' for Active; 'I' for Inactive)
REMARK    1  A    between atoms: C1_2  and  C2_3 
ROOT
ATOM      1  C2  UNL d   1      -1.197  -1.569  -4.737  0.00  0.00    -0.081 A 
ATOM      2  C3  UNL d   1      -0.624  -1.181  -3.520  0.00  0.00     0.006 A 
ATOM      3  C4  UNL d   1      -0.422  -2.116  -2.502  0.00  0.00     0.002 A 
ATOM      4  C5  UNL d   1      -0.782  -3.455  -2.687  0.00  0.00    -0.080 A 
ATOM      5  C6  UNL d   1      -0.543  -4.475  -1.614  0.00  0.00     0.076 C 
ATOM      6  C7  UNL d   1      -1.370  -3.840  -3.897  0.00  0.00     0.002 A 
ATOM      7  C8  UNL d   1      -1.573  -2.905  -4.915  0.00  0.00     0.006 A 
ENDROOT
BRANCH   1   8
ATOM      8  C1  UNL d   1      -1.357  -0.576  -5.860  0.00  0.00     0.054 C 
ATOM      9  C   UNL d   1      -1.886   0.756  -5.349  0.00  0.00     0.018 C 
ENDBRANCH   1   8
TORSDOF 1
ENDMDL
