MODEL 1
REMARK minimizedAffinity -4.29650259
REMARK minimizedRMSD -1
REMARK  1 active torsions:
REMARK  status: ('A' for Active; 'I' for Inactive)
REMARK    1  A    between atoms: C1_2  and  C2_3 
ROOT
ATOM      1  C2  UNL d   1       0.997   0.048  -0.208  0.00  0.00    -0.081 A 
ATOM      2  C3  UNL d   1       0.111   0.852  -0.937  0.00  0.00     0.006 A 
ATOM      3  C4  UNL d   1      -0.629   0.313  -1.992  0.00  0.00     0.002 A 
ATOM      4  C5  UNL d   1      -0.502  -1.038  -2.331  0.00  0.00    -0.080 A 
ATOM      5  C6  UNL d   1      -1.314  -1.635  -3.442  0.00  0.00     0.076 C 
ATOM      6  C7  UNL d   1       0.395  -1.837  -1.615  0.00  0.00     0.002 A 
ATOM      7  C8  UNL d   1       1.136  -1.299  -0.560  0.00  0.00     0.006 A 
ENDROOT
BRANCH   1   8
ATOM      8  C1  UNL d   1       1.748   0.610   0.971  0.00  0.00     0.054 C 
ATOM      9  C   UNL d   1       2.480  -0.486   1.734  0.00  0.00     0.018 C 
ENDBRANCH   1   8
TORSDOF 1
ENDMDL
