MODEL 1
REMARK minimizedAffinity -0.595272422
REMARK minimizedRMSD -1
REMARK  1 active torsions:
REMARK  status: ('A' for Active; 'I' for Inactive)
REMARK    1  A    between atoms: C1_2  and  C2_3 
ROOT
ATOM      1  C2  UNL d   1      -0.818  -0.282  -1.317  0.00  0.00    -0.081 A 
ATOM      2  C3  UNL d   1      -1.099   0.475  -0.173  0.00  0.00     0.006 A 
ATOM      3  C4  UNL d   1      -0.124   0.660   0.811  0.00  0.00     0.002 A 
ATOM      4  C5  UNL d   1       1.148   0.097   0.664  0.00  0.00    -0.080 A 
ATOM      5  C6  UNL d   1       2.213   0.312   1.698  0.00  0.00     0.076 C 
ATOM      6  C7  UNL d   1       1.423  -0.675  -0.471  0.00  0.00     0.002 A 
ATOM      7  C8  UNL d   1       0.449  -0.860  -1.454  0.00  0.00     0.006 A 
ENDROOT
BRANCH   1   8
ATOM      8  C1  UNL d   1      -1.846  -0.429  -2.410  0.00  0.00     0.054 C 
ATOM      9  C   UNL d   1      -1.211  -0.916  -3.705  0.00  0.00     0.018 C 
ENDBRANCH   1   8
TORSDOF 1
ENDMDL
