MODEL 1
REMARK minimizedAffinity -4.5637393
REMARK minimizedRMSD -1
REMARK  1 active torsions:
REMARK  status: ('A' for Active; 'I' for Inactive)
REMARK    1  A    between atoms: C1_2  and  C2_3 
ROOT
ATOM      1  C2  UNL d   1      -0.109  -0.002  -1.133  0.00  0.00    -0.081 A 
ATOM      2  C3  UNL d   1       0.525   0.946  -0.322  0.00  0.00     0.006 A 
ATOM      3  C4  UNL d   1       1.668   0.605   0.406  0.00  0.00     0.002 A 
ATOM      4  C5  UNL d   1       2.199  -0.687   0.329  0.00  0.00    -0.080 A 
ATOM      5  C6  UNL d   1       3.442  -1.057   1.082  0.00  0.00     0.076 C 
ATOM      6  C7  UNL d   1       1.555  -1.639  -0.467  0.00  0.00     0.002 A 
ATOM      7  C8  UNL d   1       0.412  -1.299  -1.195  0.00  0.00     0.006 A 
ENDROOT
BRANCH   1   8
ATOM      8  C1  UNL d   1      -1.304   0.380  -1.969  0.00  0.00     0.054 C 
ATOM      9  C   UNL d   1      -1.231  -0.243  -3.355  0.00  0.00     0.018 C 
ENDBRANCH   1   8
TORSDOF 1
ENDMDL
