MODEL 1
REMARK minimizedAffinity -3.75221872
REMARK minimizedRMSD -1
REMARK  1 active torsions:
REMARK  status: ('A' for Active; 'I' for Inactive)
REMARK    1  A    between atoms: C1_2  and  C2_3 
ROOT
ATOM      1  C2  UNL d   1       0.763  -0.294   0.184  0.00  0.00    -0.081 A 
ATOM      2  C3  UNL d   1       0.531  -1.446  -0.578  0.00  0.00     0.006 A 
ATOM      3  C4  UNL d   1      -0.423  -1.439  -1.598  0.00  0.00     0.002 A 
ATOM      4  C5  UNL d   1      -1.154  -0.280  -1.879  0.00  0.00    -0.080 A 
ATOM      5  C6  UNL d   1      -2.159  -0.251  -2.992  0.00  0.00     0.076 C 
ATOM      6  C7  UNL d   1      -0.934   0.865  -1.106  0.00  0.00     0.002 A 
ATOM      7  C8  UNL d   1       0.019   0.859  -0.085  0.00  0.00     0.006 A 
ENDROOT
BRANCH   1   8
ATOM      8  C1  UNL d   1       1.837  -0.279   1.243  0.00  0.00     0.054 C 
ATOM      9  C   UNL d   1       2.968  -1.237   0.897  0.00  0.00     0.018 C 
ENDBRANCH   1   8
TORSDOF 1
ENDMDL
