MODEL 1
REMARK minimizedAffinity 5.51093054
REMARK minimizedRMSD -1
REMARK  1 active torsions:
REMARK  status: ('A' for Active; 'I' for Inactive)
REMARK    1  A    between atoms: C1_2  and  C2_3 
ROOT
ATOM      1  C2  UNL d   1       1.961  -0.555  -0.329  0.00  0.00    -0.081 A 
ATOM      2  C3  UNL d   1       2.033   0.773   0.109  0.00  0.00     0.006 A 
ATOM      3  C4  UNL d   1       0.867   1.508   0.338  0.00  0.00     0.002 A 
ATOM      4  C5  UNL d   1      -0.390   0.925   0.141  0.00  0.00    -0.080 A 
ATOM      5  C6  UNL d   1      -1.649   1.692   0.411  0.00  0.00     0.076 C 
ATOM      6  C7  UNL d   1      -0.461  -0.397  -0.313  0.00  0.00     0.002 A 
ATOM      7  C8  UNL d   1       0.704  -1.131  -0.543  0.00  0.00     0.006 A 
ENDROOT
BRANCH   1   8
ATOM      8  C1  UNL d   1       3.215  -1.370  -0.514  0.00  0.00     0.054 C 
ATOM      9  C   UNL d   1       3.411  -1.761  -1.972  0.00  0.00     0.018 C 
ENDBRANCH   1   8
TORSDOF 1
ENDMDL
