MODEL 1
REMARK minimizedAffinity -4.2726512
REMARK minimizedRMSD -1
REMARK  0 active torsions:
REMARK  status: ('A' for Active; 'I' for Inactive)
ROOT
ATOM      1  O1  BZF d   1       0.221   1.244   0.560  0.00  0.00    -0.204 OA
ATOM      2  C2  BZF d   1       0.191   0.224  -0.372  0.00  0.00     0.174 A 
ATOM      3  C3  BZF d   1      -0.741  -0.695  -0.046  0.00  0.00    -0.012 A 
ATOM      4  C3A BZF d   1      -1.395  -0.172   1.115  0.00  0.00    -0.107 A 
ATOM      5  C4  BZF d   1      -2.420  -0.621   1.898  0.00  0.00     0.055 A 
ATOM      6  C5  BZF d   1      -2.770   0.091   3.001  0.00  0.00    -0.016 A 
ATOM      7  C6  BZF d   1      -2.113   1.252   3.354  0.00  0.00     0.022 A 
ATOM      8  C7  BZF d   1      -1.093   1.739   2.606  0.00  0.00     0.029 A 
ATOM      9  C7A BZF d   1      -0.759   1.039   1.473  0.00  0.00     0.058 A 
ENDROOT
TORSDOF 0
ENDMDL
