MODEL 1
REMARK minimizedAffinity 0.851793051
REMARK minimizedRMSD -1
REMARK  0 active torsions:
REMARK  status: ('A' for Active; 'I' for Inactive)
ROOT
ATOM      1  O1  BZF d   1       1.054  -1.866  -1.803  0.00  0.00    -0.204 OA
ATOM      2  C2  BZF d   1       2.125  -1.038  -2.080  0.00  0.00     0.174 A 
ATOM      3  C3  BZF d   1       1.914   0.198  -1.583  0.00  0.00    -0.012 A 
ATOM      4  C3A BZF d   1       0.673   0.113  -0.876  0.00  0.00    -0.107 A 
ATOM      5  C4  BZF d   1      -0.059   1.011  -0.154  0.00  0.00     0.055 A 
ATOM      6  C5  BZF d   1      -1.264   0.630   0.347  0.00  0.00    -0.016 A 
ATOM      7  C6  BZF d   1      -1.768  -0.637   0.142  0.00  0.00     0.022 A 
ATOM      8  C7  BZF d   1      -1.075  -1.564  -0.563  0.00  0.00     0.029 A 
ATOM      9  C7A BZF d   1       0.157  -1.193  -1.043  0.00  0.00     0.058 A 
ENDROOT
TORSDOF 0
ENDMDL
