MODEL 1
REMARK minimizedAffinity 5.19646263
REMARK minimizedRMSD -1
REMARK  0 active torsions:
REMARK  status: ('A' for Active; 'I' for Inactive)
ROOT
ATOM      1  O1  BZF d   1      -1.590  -1.248   3.213  0.00  0.00    -0.204 OA
ATOM      2  C2  BZF d   1      -2.946  -1.505   3.265  0.00  0.00     0.174 A 
ATOM      3  C3  BZF d   1      -3.510  -1.344   2.050  0.00  0.00    -0.012 A 
ATOM      4  C3A BZF d   1      -2.424  -1.051   1.167  0.00  0.00    -0.107 A 
ATOM      5  C4  BZF d   1      -2.344  -0.806  -0.174  0.00  0.00     0.055 A 
ATOM      6  C5  BZF d   1      -1.140  -0.483  -0.716  0.00  0.00    -0.016 A 
ATOM      7  C6  BZF d   1       0.001  -0.390   0.053  0.00  0.00     0.022 A 
ATOM      8  C7  BZF d   1      -0.027  -0.630   1.387  0.00  0.00     0.029 A 
ATOM      9  C7A BZF d   1      -1.236  -0.989   1.932  0.00  0.00     0.058 A 
ENDROOT
TORSDOF 0
ENDMDL
