MODEL 1
REMARK minimizedAffinity -2.8418808
REMARK minimizedRMSD -1
REMARK  0 active torsions:
REMARK  status: ('A' for Active; 'I' for Inactive)
ROOT
ATOM      1  O1  BZF d   1       0.292   1.575  -1.720  0.00  0.00    -0.204 OA
ATOM      2  C2  BZF d   1      -0.905   1.863  -1.093  0.00  0.00     0.174 A 
ATOM      3  C3  BZF d   1      -1.347   0.798  -0.394  0.00  0.00    -0.012 A 
ATOM      4  C3A BZF d   1      -0.319  -0.189  -0.521  0.00  0.00    -0.107 A 
ATOM      5  C4  BZF d   1      -0.170  -1.457  -0.035  0.00  0.00     0.055 A 
ATOM      6  C5  BZF d   1       0.919  -2.181  -0.405  0.00  0.00    -0.016 A 
ATOM      7  C6  BZF d   1       1.873  -1.673  -1.262  0.00  0.00     0.022 A 
ATOM      8  C7  BZF d   1       1.770  -0.418  -1.765  0.00  0.00     0.029 A 
ATOM      9  C7A BZF d   1       0.688   0.328  -1.367  0.00  0.00     0.058 A 
ENDROOT
TORSDOF 0
ENDMDL
