MODEL 1
REMARK minimizedAffinity 0.354526877
REMARK minimizedRMSD -1
REMARK  0 active torsions:
REMARK  status: ('A' for Active; 'I' for Inactive)
ROOT
ATOM      1  O1  BZF d   1       0.798  -1.124  -3.518  0.00  0.00    -0.204 OA
ATOM      2  C2  BZF d   1       1.242  -0.247  -4.489  0.00  0.00     0.174 A 
ATOM      3  C3  BZF d   1       1.422   0.986  -3.974  0.00  0.00    -0.012 A 
ATOM      4  C3A BZF d   1       1.159   0.851  -2.574  0.00  0.00    -0.107 A 
ATOM      5  C4  BZF d   1       1.187   1.725  -1.525  0.00  0.00     0.055 A 
ATOM      6  C5  BZF d   1       0.805   1.293  -0.294  0.00  0.00    -0.016 A 
ATOM      7  C6  BZF d   1       0.384  -0.003  -0.079  0.00  0.00     0.022 A 
ATOM      8  C7  BZF d   1       0.343  -0.907  -1.087  0.00  0.00     0.029 A 
ATOM      9  C7A BZF d   1       0.760  -0.482  -2.325  0.00  0.00     0.058 A 
ENDROOT
TORSDOF 0
ENDMDL
