MODEL 1
REMARK minimizedAffinity -1.87266517
REMARK minimizedRMSD -1
REMARK  0 active torsions:
REMARK  status: ('A' for Active; 'I' for Inactive)
ROOT
ATOM      1  O1  BZF d   1      -2.847  -0.140   4.063  0.00  0.00    -0.204 OA
ATOM      2  C2  BZF d   1      -3.176  -1.407   3.623  0.00  0.00     0.174 A 
ATOM      3  C3  BZF d   1      -2.980  -1.518   2.293  0.00  0.00    -0.012 A 
ATOM      4  C3A BZF d   1      -2.410  -0.268   1.891  0.00  0.00    -0.107 A 
ATOM      5  C4  BZF d   1      -1.981   0.226   0.693  0.00  0.00     0.055 A 
ATOM      6  C5  BZF d   1      -1.544   1.511   0.627  0.00  0.00    -0.016 A 
ATOM      7  C6  BZF d   1      -1.528   2.331   1.736  0.00  0.00     0.022 A 
ATOM      8  C7  BZF d   1      -1.940   1.884   2.948  0.00  0.00     0.029 A 
ATOM      9  C7A BZF d   1      -2.350   0.575   3.025  0.00  0.00     0.058 A 
ENDROOT
TORSDOF 0
ENDMDL
