MODEL 1
REMARK minimizedAffinity -3.41151643
REMARK minimizedRMSD -1
REMARK  0 active torsions:
REMARK  status: ('A' for Active; 'I' for Inactive)
ROOT
ATOM      1  O1  BZF d   1      -0.260   0.852  -1.224  0.00  0.00    -0.204 OA
ATOM      2  C2  BZF d   1      -1.002   0.334  -0.180  0.00  0.00     0.174 A 
ATOM      3  C3  BZF d   1      -0.310  -0.623   0.471  0.00  0.00    -0.012 A 
ATOM      4  C3A BZF d   1       0.978  -0.644  -0.151  0.00  0.00    -0.107 A 
ATOM      5  C4  BZF d   1       2.113  -1.373   0.064  0.00  0.00     0.055 A 
ATOM      6  C5  BZF d   1       3.175  -1.203  -0.767  0.00  0.00    -0.016 A 
ATOM      7  C6  BZF d   1       3.135  -0.317  -1.823  0.00  0.00     0.022 A 
ATOM      8  C7  BZF d   1       2.034   0.432  -2.074  0.00  0.00     0.029 A 
ATOM      9  C7A BZF d   1       0.971   0.286  -1.216  0.00  0.00     0.058 A 
ENDROOT
TORSDOF 0
ENDMDL
