MODEL 1
REMARK minimizedAffinity -5.53058577
REMARK minimizedRMSD -1
REMARK  0 active torsions:
REMARK  status: ('A' for Active; 'I' for Inactive)
ROOT
ATOM      1  O1  BZF d   1      -0.492   0.970  -0.716  0.00  0.00    -0.204 OA
ATOM      2  C2  BZF d   1      -0.913  -0.171  -0.060  0.00  0.00     0.174 A 
ATOM      3  C3  BZF d   1       0.008  -1.151  -0.166  0.00  0.00    -0.012 A 
ATOM      4  C3A BZF d   1       1.111  -0.557  -0.858  0.00  0.00    -0.107 A 
ATOM      5  C4  BZF d   1       2.333  -1.023  -1.249  0.00  0.00     0.055 A 
ATOM      6  C5  BZF d   1       3.149  -0.210  -1.971  0.00  0.00    -0.016 A 
ATOM      7  C6  BZF d   1       2.773   1.069  -2.324  0.00  0.00     0.022 A 
ATOM      8  C7  BZF d   1       1.571   1.577  -1.954  0.00  0.00     0.029 A 
ATOM      9  C7A BZF d   1       0.758   0.770  -1.196  0.00  0.00     0.058 A 
ENDROOT
TORSDOF 0
ENDMDL
