MODEL 1
REMARK minimizedAffinity -2.7472837
REMARK minimizedRMSD -1
REMARK  0 active torsions:
REMARK  status: ('A' for Active; 'I' for Inactive)
ROOT
ATOM      1  O1  BZF d   1       0.616   1.566  -1.256  0.00  0.00    -0.204 OA
ATOM      2  C2  BZF d   1      -0.709   1.442  -0.885  0.00  0.00     0.174 A 
ATOM      3  C3  BZF d   1      -0.967   0.195  -0.443  0.00  0.00    -0.012 A 
ATOM      4  C3A BZF d   1       0.295  -0.479  -0.458  0.00  0.00    -0.107 A 
ATOM      5  C4  BZF d   1       0.691  -1.740  -0.114  0.00  0.00     0.055 A 
ATOM      6  C5  BZF d   1       1.984  -2.105  -0.316  0.00  0.00    -0.016 A 
ATOM      7  C6  BZF d   1       2.906  -1.237  -0.864  0.00  0.00     0.022 A 
ATOM      8  C7  BZF d   1       2.562   0.026  -1.216  0.00  0.00     0.029 A 
ATOM      9  C7A BZF d   1       1.264   0.408  -0.982  0.00  0.00     0.058 A 
ENDROOT
TORSDOF 0
ENDMDL
