MODEL 1
REMARK minimizedAffinity -2.63997221
REMARK minimizedRMSD -1
REMARK  0 active torsions:
REMARK  status: ('A' for Active; 'I' for Inactive)
ROOT
ATOM      1  O1  BZF d   1      -2.041  -1.753   1.788  0.00  0.00    -0.204 OA
ATOM      2  C2  BZF d   1      -3.000  -1.913   2.770  0.00  0.00     0.174 A 
ATOM      3  C3  BZF d   1      -3.320  -0.725   3.323  0.00  0.00    -0.012 A 
ATOM      4  C3A BZF d   1      -2.579   0.248   2.581  0.00  0.00    -0.107 A 
ATOM      5  C4  BZF d   1      -2.488   1.609   2.646  0.00  0.00     0.055 A 
ATOM      6  C5  BZF d   1      -1.617   2.253   1.825  0.00  0.00    -0.016 A 
ATOM      7  C6  BZF d   1      -0.818   1.568   0.933  0.00  0.00     0.022 A 
ATOM      8  C7  BZF d   1      -0.877   0.218   0.829  0.00  0.00     0.029 A 
ATOM      9  C7A BZF d   1      -1.780  -0.433   1.633  0.00  0.00     0.058 A 
ENDROOT
TORSDOF 0
ENDMDL
