MODEL 1
REMARK minimizedAffinity -6.23720551
REMARK minimizedRMSD -1
REMARK  0 active torsions:
REMARK  status: ('A' for Active; 'I' for Inactive)
ROOT
ATOM      1  O1  BZF d   1      -4.764  -0.470   4.377  0.00  0.00    -0.204 OA
ATOM      2  C2  BZF d   1      -4.630  -1.845   4.348  0.00  0.00     0.174 A 
ATOM      3  C3  BZF d   1      -3.659  -2.213   3.488  0.00  0.00    -0.012 A 
ATOM      4  C3A BZF d   1      -3.092  -0.988   3.014  0.00  0.00    -0.107 A 
ATOM      5  C4  BZF d   1      -2.077  -0.697   2.148  0.00  0.00     0.055 A 
ATOM      6  C5  BZF d   1      -1.822   0.603   1.843  0.00  0.00    -0.016 A 
ATOM      7  C6  BZF d   1      -2.564   1.634   2.381  0.00  0.00     0.022 A 
ATOM      8  C7  BZF d   1      -3.577   1.394   3.248  0.00  0.00     0.029 A 
ATOM      9  C7A BZF d   1      -3.816   0.084   3.584  0.00  0.00     0.058 A 
ENDROOT
TORSDOF 0
ENDMDL
