MODEL 1
REMARK minimizedAffinity -6.17092323
REMARK minimizedRMSD -1
REMARK  0 active torsions:
REMARK  status: ('A' for Active; 'I' for Inactive)
ROOT
ATOM      1  O1  BZF d   1       0.019   1.065  -1.292  0.00  0.00    -0.204 OA
ATOM      2  C2  BZF d   1      -0.393   0.024  -0.483  0.00  0.00     0.174 A 
ATOM      3  C3  BZF d   1       0.593  -0.883  -0.331  0.00  0.00    -0.012 A 
ATOM      4  C3A BZF d   1       1.720  -0.333  -1.019  0.00  0.00    -0.107 A 
ATOM      5  C4  BZF d   1       3.003  -0.761  -1.212  0.00  0.00     0.055 A 
ATOM      6  C5  BZF d   1       3.835  -0.023  -1.993  0.00  0.00    -0.016 A 
ATOM      7  C6  BZF d   1       3.416   1.143  -2.600  0.00  0.00     0.022 A 
ATOM      8  C7  BZF d   1       2.155   1.610  -2.434  0.00  0.00     0.029 A 
ATOM      9  C7A BZF d   1       1.322   0.884  -1.618  0.00  0.00     0.058 A 
ENDROOT
TORSDOF 0
ENDMDL
