MODEL 1
REMARK minimizedAffinity -5.50402832
REMARK minimizedRMSD -1
REMARK  0 active torsions:
REMARK  status: ('A' for Active; 'I' for Inactive)
ROOT
ATOM      1  O1  BZF d   1      -0.258   0.712   0.155  0.00  0.00    -0.204 OA
ATOM      2  C2  BZF d   1      -0.624  -0.505   0.695  0.00  0.00     0.174 A 
ATOM      3  C3  BZF d   1       0.132  -1.500   0.189  0.00  0.00    -0.012 A 
ATOM      4  C3A BZF d   1       1.088  -0.853  -0.656  0.00  0.00    -0.107 A 
ATOM      5  C4  BZF d   1       2.121  -1.308  -1.426  0.00  0.00     0.055 A 
ATOM      6  C5  BZF d   1       2.816  -0.423  -2.188  0.00  0.00    -0.016 A 
ATOM      7  C6  BZF d   1       2.503   0.920  -2.209  0.00  0.00     0.022 A 
ATOM      8  C7  BZF d   1       1.491   1.419  -1.459  0.00  0.00     0.029 A 
ATOM      9  C7A BZF d   1       0.807   0.533  -0.662  0.00  0.00     0.058 A 
ENDROOT
TORSDOF 0
ENDMDL
