MODEL 1
REMARK minimizedAffinity 1.55930448
REMARK minimizedRMSD -1
REMARK  0 active torsions:
REMARK  status: ('A' for Active; 'I' for Inactive)
ROOT
ATOM      1  O1  BZF d   1      -0.371   1.526  -1.929  0.00  0.00    -0.204 OA
ATOM      2  C2  BZF d   1       0.373   1.787  -3.063  0.00  0.00     0.174 A 
ATOM      3  C3  BZF d   1       1.250   0.790  -3.299  0.00  0.00    -0.012 A 
ATOM      4  C3A BZF d   1       0.978  -0.196  -2.299  0.00  0.00    -0.107 A 
ATOM      5  C4  BZF d   1       1.509  -1.422  -2.020  0.00  0.00     0.055 A 
ATOM      6  C5  BZF d   1       1.069  -2.100  -0.928  0.00  0.00    -0.016 A 
ATOM      7  C6  BZF d   1       0.103  -1.580  -0.091  0.00  0.00     0.022 A 
ATOM      8  C7  BZF d   1      -0.457  -0.370  -0.329  0.00  0.00     0.029 A 
ATOM      9  C7A BZF d   1      -0.038   0.304  -1.451  0.00  0.00     0.058 A 
ENDROOT
TORSDOF 0
ENDMDL
