MODEL 1
REMARK minimizedAffinity -5.0505619
REMARK minimizedRMSD -1
REMARK  0 active torsions:
REMARK  status: ('A' for Active; 'I' for Inactive)
ROOT
ATOM      1  O1  BZF d   1      -1.161  -0.974   0.042  0.00  0.00    -0.204 OA
ATOM      2  C2  BZF d   1      -1.740   0.267   0.223  0.00  0.00     0.174 A 
ATOM      3  C3  BZF d   1      -0.888   1.249  -0.137  0.00  0.00    -0.012 A 
ATOM      4  C3A BZF d   1       0.263   0.576  -0.657  0.00  0.00    -0.107 A 
ATOM      5  C4  BZF d   1       1.444   1.011  -1.188  0.00  0.00     0.055 A 
ATOM      6  C5  BZF d   1       2.388   0.097  -1.534  0.00  0.00    -0.016 A 
ATOM      7  C6  BZF d   1       2.187  -1.257  -1.359  0.00  0.00     0.022 A 
ATOM      8  C7  BZF d   1       1.030  -1.736  -0.841  0.00  0.00     0.029 A 
ATOM      9  C7A BZF d   1       0.061  -0.816  -0.520  0.00  0.00     0.058 A 
ENDROOT
TORSDOF 0
ENDMDL
