MODEL 1
REMARK minimizedAffinity -4.90150499
REMARK minimizedRMSD -1
REMARK  1 active torsions:
REMARK  status: ('A' for Active; 'I' for Inactive)
REMARK    1  A    between atoms: C1_2  and  C2_3 
ROOT
ATOM      1  C2  UNL d   1      -0.490  -0.243   0.568  0.00  0.00    -0.077 A 
ATOM      2  C3  UNL d   1       0.098   0.931   0.077  0.00  0.00     0.002 A 
ATOM      3  C4  UNL d   1      -0.240   2.171   0.621  0.00  0.00     0.002 A 
ATOM      4  C5  UNL d   1      -1.163   2.249   1.662  0.00  0.00    -0.004 A 
ATOM      5  C6  UNL d   1      -1.755   1.087   2.156  0.00  0.00     0.002 A 
ATOM      6  C7  UNL d   1      -1.419  -0.153   1.612  0.00  0.00     0.002 A 
ENDROOT
BRANCH   1   7
ATOM      7  C1  UNL d   1      -0.090  -1.587   0.016  0.00  0.00     0.055 C 
ATOM      8  C   UNL d   1       1.310  -1.546  -0.578  0.00  0.00     0.019 C 
ENDBRANCH   1   7
TORSDOF 1
ENDMDL
