MODEL 1
REMARK minimizedAffinity -3.21277595
REMARK minimizedRMSD -1
REMARK  1 active torsions:
REMARK  status: ('A' for Active; 'I' for Inactive)
REMARK    1  A    between atoms: C1_2  and  C2_3 
ROOT
ATOM      1  C2  UNL d   1      -1.813   0.560   1.918  0.00  0.00    -0.077 A 
ATOM      2  C3  UNL d   1      -1.599   1.820   2.494  0.00  0.00     0.002 A 
ATOM      3  C4  UNL d   1      -0.719   2.727   1.900  0.00  0.00     0.002 A 
ATOM      4  C5  UNL d   1      -0.051   2.386   0.727  0.00  0.00    -0.004 A 
ATOM      5  C6  UNL d   1      -0.255   1.135   0.147  0.00  0.00     0.002 A 
ATOM      6  C7  UNL d   1      -1.133   0.226   0.739  0.00  0.00     0.002 A 
ENDROOT
BRANCH   1   7
ATOM      7  C1  UNL d   1      -2.799  -0.402   2.529  0.00  0.00     0.055 C 
ATOM      8  C   UNL d   1      -2.288  -0.951   3.853  0.00  0.00     0.019 C 
ENDBRANCH   1   7
TORSDOF 1
ENDMDL
