MODEL 1
REMARK minimizedAffinity -2.26732707
REMARK minimizedRMSD -1
REMARK  1 active torsions:
REMARK  status: ('A' for Active; 'I' for Inactive)
REMARK    1  A    between atoms: C1_2  and  C2_3 
ROOT
ATOM      1  C2  UNL d   1       0.220   0.095  -0.897  0.00  0.00    -0.077 A 
ATOM      2  C3  UNL d   1      -0.104  -0.888   0.048  0.00  0.00     0.002 A 
ATOM      3  C4  UNL d   1       0.610  -2.087   0.094  0.00  0.00     0.002 A 
ATOM      4  C5  UNL d   1       1.656  -2.311  -0.799  0.00  0.00    -0.004 A 
ATOM      5  C6  UNL d   1       1.984  -1.341  -1.745  0.00  0.00     0.002 A 
ATOM      6  C7  UNL d   1       1.271  -0.142  -1.793  0.00  0.00     0.002 A 
ENDROOT
BRANCH   1   7
ATOM      7  C1  UNL d   1      -0.517   1.408  -0.916  0.00  0.00     0.055 C 
ATOM      8  C   UNL d   1       0.357   2.526  -1.466  0.00  0.00     0.019 C 
ENDBRANCH   1   7
TORSDOF 1
ENDMDL
