MODEL 1
REMARK minimizedAffinity -4.640378
REMARK minimizedRMSD -1
REMARK  1 active torsions:
REMARK  status: ('A' for Active; 'I' for Inactive)
REMARK    1  A    between atoms: C1_2  and  C2_3 
ROOT
ATOM      1  C2  UNL d   1      -0.210   0.721   0.654  0.00  0.00    -0.077 A 
ATOM      2  C3  UNL d   1       0.397  -0.523   0.428  0.00  0.00     0.002 A 
ATOM      3  C4  UNL d   1       1.217  -0.716  -0.686  0.00  0.00     0.002 A 
ATOM      4  C5  UNL d   1       1.441   0.330  -1.579  0.00  0.00    -0.004 A 
ATOM      5  C6  UNL d   1       0.840   1.570  -1.363  0.00  0.00     0.002 A 
ATOM      6  C7  UNL d   1       0.019   1.764  -0.252  0.00  0.00     0.002 A 
ENDROOT
BRANCH   1   7
ATOM      7  C1  UNL d   1      -1.054   0.946   1.881  0.00  0.00     0.055 C 
ATOM      8  C   UNL d   1      -0.686   2.249   2.575  0.00  0.00     0.019 C 
ENDBRANCH   1   7
TORSDOF 1
ENDMDL
