MODEL 1
REMARK minimizedAffinity -5.59678745
REMARK minimizedRMSD -1
REMARK  1 active torsions:
REMARK  status: ('A' for Active; 'I' for Inactive)
REMARK    1  A    between atoms: C1_2  and  C2_3 
ROOT
ATOM      1  C2  UNL d   1       0.172   0.504  -0.660  0.00  0.00    -0.077 A 
ATOM      2  C3  UNL d   1       1.310   0.289  -1.450  0.00  0.00     0.002 A 
ATOM      3  C4  UNL d   1       1.876  -0.984  -1.541  0.00  0.00     0.002 A 
ATOM      4  C5  UNL d   1       1.309  -2.052  -0.849  0.00  0.00    -0.004 A 
ATOM      5  C6  UNL d   1       0.179  -1.848  -0.059  0.00  0.00     0.002 A 
ATOM      6  C7  UNL d   1      -0.388  -0.576   0.034  0.00  0.00     0.002 A 
ENDROOT
BRANCH   1   7
ATOM      7  C1  UNL d   1      -0.469   1.865  -0.600  0.00  0.00     0.055 C 
ATOM      8  C   UNL d   1       0.134   2.808  -1.631  0.00  0.00     0.019 C 
ENDBRANCH   1   7
TORSDOF 1
ENDMDL
