MODEL 1
REMARK minimizedAffinity -2.93275285
REMARK minimizedRMSD -1
REMARK  1 active torsions:
REMARK  status: ('A' for Active; 'I' for Inactive)
REMARK    1  A    between atoms: C1_2  and  C2_3 
ROOT
ATOM      1  C2  UNL d   1       5.448   1.194   4.875  0.00  0.00    -0.077 A 
ATOM      2  C3  UNL d   1       4.795   0.590   3.791  0.00  0.00     0.002 A 
ATOM      3  C4  UNL d   1       4.329   1.365   2.727  0.00  0.00     0.002 A 
ATOM      4  C5  UNL d   1       4.515   2.746   2.734  0.00  0.00    -0.004 A 
ATOM      5  C6  UNL d   1       5.161   3.355   3.808  0.00  0.00     0.002 A 
ATOM      6  C7  UNL d   1       5.627   2.583   4.873  0.00  0.00     0.002 A 
ENDROOT
BRANCH   1   7
ATOM      7  C1  UNL d   1       5.995   0.355   6.000  0.00  0.00     0.055 C 
ATOM      8  C   UNL d   1       5.984  -1.125   5.643  0.00  0.00     0.019 C 
ENDBRANCH   1   7
TORSDOF 1
ENDMDL
