MODEL 1
REMARK minimizedAffinity -4.54984903
REMARK minimizedRMSD -1
REMARK  1 active torsions:
REMARK  status: ('A' for Active; 'I' for Inactive)
REMARK    1  A    between atoms: C1_2  and  C2_3 
ROOT
ATOM      1  C2  UNL d   1      -1.550   0.189   1.304  0.00  0.00    -0.077 A 
ATOM      2  C3  UNL d   1      -1.068   1.335   0.656  0.00  0.00     0.002 A 
ATOM      3  C4  UNL d   1      -0.081   1.228  -0.326  0.00  0.00     0.002 A 
ATOM      4  C5  UNL d   1       0.428  -0.022  -0.672  0.00  0.00    -0.004 A 
ATOM      5  C6  UNL d   1      -0.044  -1.167  -0.031  0.00  0.00     0.002 A 
ATOM      6  C7  UNL d   1      -1.029  -1.062   0.952  0.00  0.00     0.002 A 
ENDROOT
BRANCH   1   7
ATOM      7  C1  UNL d   1      -2.649   0.297   2.329  0.00  0.00     0.055 C 
ATOM      8  C   UNL d   1      -2.096   0.681   3.695  0.00  0.00     0.019 C 
ENDBRANCH   1   7
TORSDOF 1
ENDMDL
