MODEL 1
REMARK minimizedAffinity -1.75857103
REMARK minimizedRMSD -1
REMARK  1 active torsions:
REMARK  status: ('A' for Active; 'I' for Inactive)
REMARK    1  A    between atoms: C1_2  and  C2_3 
ROOT
ATOM      1  C2  UNL d   1       0.328   0.823  -0.296  0.00  0.00    -0.077 A 
ATOM      2  C3  UNL d   1       1.479   0.136  -0.705  0.00  0.00     0.002 A 
ATOM      3  C4  UNL d   1       1.468  -1.256  -0.818  0.00  0.00     0.002 A 
ATOM      4  C5  UNL d   1       0.308  -1.971  -0.528  0.00  0.00    -0.004 A 
ATOM      5  C6  UNL d   1      -0.842  -1.296  -0.118  0.00  0.00     0.002 A 
ATOM      6  C7  UNL d   1      -0.832   0.095  -0.004  0.00  0.00     0.002 A 
ENDROOT
BRANCH   1   7
ATOM      7  C1  UNL d   1       0.324   2.328  -0.222  0.00  0.00     0.055 C 
ATOM      8  C   UNL d   1      -0.108   2.947  -1.543  0.00  0.00     0.019 C 
ENDBRANCH   1   7
TORSDOF 1
ENDMDL
