MODEL 1
REMARK minimizedAffinity -5.8682127
REMARK minimizedRMSD -1
REMARK  1 active torsions:
REMARK  status: ('A' for Active; 'I' for Inactive)
REMARK    1  A    between atoms: C1_2  and  C2_3 
ROOT
ATOM      1  C2  UNL d   1       1.029   0.840  -0.022  0.00  0.00    -0.077 A 
ATOM      2  C3  UNL d   1       2.346   0.463  -0.319  0.00  0.00     0.002 A 
ATOM      3  C4  UNL d   1       2.619  -0.808  -0.828  0.00  0.00     0.002 A 
ATOM      4  C5  UNL d   1       1.581  -1.710  -1.049  0.00  0.00    -0.004 A 
ATOM      5  C6  UNL d   1       0.267  -1.345  -0.755  0.00  0.00     0.002 A 
ATOM      6  C7  UNL d   1      -0.007  -0.076  -0.244  0.00  0.00     0.002 A 
ENDROOT
BRANCH   1   7
ATOM      7  C1  UNL d   1       0.727   2.227   0.481  0.00  0.00     0.055 C 
ATOM      8  C   UNL d   1      -0.134   2.186   1.736  0.00  0.00     0.019 C 
ENDBRANCH   1   7
TORSDOF 1
ENDMDL
