MODEL 1
REMARK minimizedAffinity -2.87027645
REMARK minimizedRMSD -1
REMARK  1 active torsions:
REMARK  status: ('A' for Active; 'I' for Inactive)
REMARK    1  A    between atoms: C1_2  and  C2_3 
ROOT
ATOM      1  C2  UNL d   1       0.050  -0.214  -0.175  0.00  0.00    -0.077 A 
ATOM      2  C3  UNL d   1       1.146  -0.286  -1.046  0.00  0.00     0.002 A 
ATOM      3  C4  UNL d   1       1.665  -1.525  -1.427  0.00  0.00     0.002 A 
ATOM      4  C5  UNL d   1       1.091  -2.700  -0.947  0.00  0.00    -0.004 A 
ATOM      5  C6  UNL d   1       0.002  -2.639  -0.079  0.00  0.00     0.002 A 
ATOM      6  C7  UNL d   1      -0.518  -1.402   0.304  0.00  0.00     0.002 A 
ENDROOT
BRANCH   1   7
ATOM      7  C1  UNL d   1      -0.542   1.120   0.198  0.00  0.00     0.055 C 
ATOM      8  C   UNL d   1      -0.326   2.149  -0.902  0.00  0.00     0.019 C 
ENDBRANCH   1   7
TORSDOF 1
ENDMDL
