MODEL 1
REMARK minimizedAffinity -2.19441772
REMARK minimizedRMSD -1
REMARK  1 active torsions:
REMARK  status: ('A' for Active; 'I' for Inactive)
REMARK    1  A    between atoms: C1_2  and  C2_3 
ROOT
ATOM      1  C2  UNL d   1      -0.637   0.012   0.928  0.00  0.00    -0.077 A 
ATOM      2  C3  UNL d   1      -0.010   1.251   0.735  0.00  0.00     0.002 A 
ATOM      3  C4  UNL d   1      -0.111   2.252   1.704  0.00  0.00     0.002 A 
ATOM      4  C5  UNL d   1      -0.834   2.022   2.872  0.00  0.00    -0.004 A 
ATOM      5  C6  UNL d   1      -1.462   0.794   3.072  0.00  0.00     0.002 A 
ATOM      6  C7  UNL d   1      -1.364  -0.207   2.105  0.00  0.00     0.002 A 
ENDROOT
BRANCH   1   7
ATOM      7  C1  UNL d   1      -0.488  -1.086  -0.093  0.00  0.00     0.055 C 
ATOM      8  C   UNL d   1       0.865  -1.772   0.025  0.00  0.00     0.019 C 
ENDBRANCH   1   7
TORSDOF 1
ENDMDL
