MODEL 1
REMARK minimizedAffinity -5.37223721
REMARK minimizedRMSD -1
REMARK  1 active torsions:
REMARK  status: ('A' for Active; 'I' for Inactive)
REMARK    1  A    between atoms: C1_2  and  C2_3 
ROOT
ATOM      1  C2  UNL d   1       0.336   0.081   0.380  0.00  0.00    -0.077 A 
ATOM      2  C3  UNL d   1       1.529   0.682  -0.045  0.00  0.00     0.002 A 
ATOM      3  C4  UNL d   1       2.500  -0.070  -0.710  0.00  0.00     0.002 A 
ATOM      4  C5  UNL d   1       2.286  -1.424  -0.959  0.00  0.00    -0.004 A 
ATOM      5  C6  UNL d   1       1.103  -2.030  -0.539  0.00  0.00     0.002 A 
ATOM      6  C7  UNL d   1       0.132  -1.281   0.127  0.00  0.00     0.002 A 
ENDROOT
BRANCH   1   7
ATOM      7  C1  UNL d   1      -0.734   0.901   1.053  0.00  0.00     0.055 C 
ATOM      8  C   UNL d   1      -1.602   1.624   0.033  0.00  0.00     0.019 C 
ENDBRANCH   1   7
TORSDOF 1
ENDMDL
