MODEL 1
REMARK minimizedAffinity 0.844035685
REMARK minimizedRMSD -1
REMARK  1 active torsions:
REMARK  status: ('A' for Active; 'I' for Inactive)
REMARK    1  A    between atoms: C3_4  and  O_7 
ROOT
ATOM      1  C   UNL d   1      -4.944  -3.378   6.000  0.00  0.00    -0.033 A 
ATOM      2  C1  UNL d   1      -6.000  -2.859   5.247  0.00  0.00     0.039 A 
ATOM      3  C2  UNL d   1      -5.738  -2.074   4.123  0.00  0.00    -0.080 A 
ATOM      4  C3  UNL d   1      -4.418  -1.815   3.762  0.00  0.00     0.150 A 
ATOM      5  C4  UNL d   1      -3.362  -2.332   4.505  0.00  0.00    -0.007 A 
ATOM      6  C5  UNL d   1      -3.625  -3.116   5.628  0.00  0.00     0.039 A 
ENDROOT
BRANCH   4   7
ATOM      7  O   UNL d   1      -4.114  -1.050   2.676  0.00  0.00    -0.526 OA
ATOM      8  H5  UNL d   1      -4.943  -0.738   2.277  0.00  0.00     0.418 HD
ENDBRANCH   4   7
TORSDOF 1
ENDMDL
