MODEL 1
REMARK minimizedAffinity 7.34566975
REMARK minimizedRMSD -1
REMARK  1 active torsions:
REMARK  status: ('A' for Active; 'I' for Inactive)
REMARK    1  A    between atoms: C3_4  and  O_7 
ROOT
ATOM      1  C   UNL d   1      -5.216  -4.135  -5.996  0.00  0.00    -0.033 A 
ATOM      2  C1  UNL d   1      -4.121  -3.269  -5.998  0.00  0.00     0.039 A 
ATOM      3  C2  UNL d   1      -2.835  -3.765  -5.777  0.00  0.00    -0.080 A 
ATOM      4  C3  UNL d   1      -2.657  -5.128  -5.557  0.00  0.00     0.150 A 
ATOM      5  C4  UNL d   1      -3.743  -5.998  -5.558  0.00  0.00    -0.007 A 
ATOM      6  C5  UNL d   1      -5.026  -5.500  -5.777  0.00  0.00     0.039 A 
ENDROOT
BRANCH   4   7
ATOM      7  O   UNL d   1      -1.421  -5.658  -5.333  0.00  0.00    -0.526 OA
ATOM      8  H5  UNL d   1      -0.772  -4.936  -5.332  0.00  0.00     0.418 HD
ENDBRANCH   4   7
TORSDOF 1
ENDMDL
