MODEL 1
REMARK minimizedAffinity 3.21152496
REMARK minimizedRMSD -1
REMARK  1 active torsions:
REMARK  status: ('A' for Active; 'I' for Inactive)
REMARK    1  A    between atoms: C3_4  and  O_7 
ROOT
ATOM      1  C   UNL d   1      -0.841   1.220   1.607  0.00  0.00    -0.033 A 
ATOM      2  C1  UNL d   1      -1.113   1.035   0.250  0.00  0.00     0.039 A 
ATOM      3  C2  UNL d   1      -0.617   1.938  -0.692  0.00  0.00    -0.080 A 
ATOM      4  C3  UNL d   1       0.149   3.019  -0.266  0.00  0.00     0.150 A 
ATOM      5  C4  UNL d   1       0.428   3.207   1.084  0.00  0.00    -0.007 A 
ATOM      6  C5  UNL d   1      -0.069   2.305   2.024  0.00  0.00     0.039 A 
ENDROOT
BRANCH   4   7
ATOM      7  O   UNL d   1       0.651   3.929  -1.148  0.00  0.00    -0.526 OA
ATOM      8  H5  UNL d   1       0.354   3.688  -2.041  0.00  0.00     0.418 HD
ENDBRANCH   4   7
TORSDOF 1
ENDMDL
