MODEL 1
REMARK minimizedAffinity 2.06949234
REMARK minimizedRMSD -1
REMARK  1 active torsions:
REMARK  status: ('A' for Active; 'I' for Inactive)
REMARK    1  A    between atoms: C3_4  and  O_7 
ROOT
ATOM      1  C   UNL d   1       0.733   4.084  -0.751  0.00  0.00    -0.033 A 
ATOM      2  C1  UNL d   1      -0.002   3.429   0.239  0.00  0.00     0.039 A 
ATOM      3  C2  UNL d   1      -1.099   4.060   0.829  0.00  0.00    -0.080 A 
ATOM      4  C3  UNL d   1      -1.452   5.343   0.419  0.00  0.00     0.150 A 
ATOM      5  C4  UNL d   1      -0.726   6.000  -0.570  0.00  0.00    -0.007 A 
ATOM      6  C5  UNL d   1       0.370   5.369  -1.156  0.00  0.00     0.039 A 
ENDROOT
BRANCH   4   7
ATOM      7  O   UNL d   1      -2.512   6.000   0.968  0.00  0.00    -0.526 OA
ATOM      8  H5  UNL d   1      -2.901   5.436   1.657  0.00  0.00     0.418 HD
ENDBRANCH   4   7
TORSDOF 1
ENDMDL
