MODEL 1
REMARK minimizedAffinity 3.50517297
REMARK minimizedRMSD -1
REMARK  1 active torsions:
REMARK  status: ('A' for Active; 'I' for Inactive)
REMARK    1  A    between atoms: C3_4  and  O_7 
ROOT
ATOM      1  C   UNL d   1      -4.795  -4.865  -6.000  0.00  0.00    -0.033 A 
ATOM      2  C1  UNL d   1      -4.232  -3.597  -5.847  0.00  0.00     0.039 A 
ATOM      3  C2  UNL d   1      -2.958  -3.458  -5.294  0.00  0.00    -0.080 A 
ATOM      4  C3  UNL d   1      -2.258  -4.594  -4.898  0.00  0.00     0.150 A 
ATOM      5  C4  UNL d   1      -2.810  -5.861  -5.050  0.00  0.00    -0.007 A 
ATOM      6  C5  UNL d   1      -4.083  -5.998  -5.603  0.00  0.00     0.039 A 
ENDROOT
BRANCH   4   7
ATOM      7  O   UNL d   1      -1.013  -4.509  -4.348  0.00  0.00    -0.526 OA
ATOM      8  H5  UNL d   1      -0.771  -3.570  -4.278  0.00  0.00     0.418 HD
ENDBRANCH   4   7
TORSDOF 1
ENDMDL
