MODEL 1
REMARK minimizedAffinity 6.44430923
REMARK minimizedRMSD -1
REMARK  1 active torsions:
REMARK  status: ('A' for Active; 'I' for Inactive)
REMARK    1  A    between atoms: C3_4  and  O_7 
ROOT
ATOM      1  C   UNL d   1      -0.582   5.359  -1.893  0.00  0.00    -0.033 A 
ATOM      2  C1  UNL d   1      -0.997   5.682  -0.600  0.00  0.00     0.039 A 
ATOM      3  C2  UNL d   1      -0.762   4.796   0.454  0.00  0.00    -0.080 A 
ATOM      4  C3  UNL d   1      -0.109   3.593   0.201  0.00  0.00     0.150 A 
ATOM      5  C4  UNL d   1       0.311   3.266  -1.084  0.00  0.00    -0.007 A 
ATOM      6  C5  UNL d   1       0.074   4.151  -2.135  0.00  0.00     0.039 A 
ENDROOT
BRANCH   4   7
ATOM      7  O   UNL d   1       0.139   2.694   1.196  0.00  0.00    -0.526 OA
ATOM      8  H5  UNL d   1      -0.233   3.041   2.024  0.00  0.00     0.418 HD
ENDBRANCH   4   7
TORSDOF 1
ENDMDL
