MODEL 1
REMARK minimizedAffinity -2.17048001
REMARK minimizedRMSD -1
REMARK  0 active torsions:
REMARK  status: ('A' for Active; 'I' for Inactive)
ROOT
ATOM      1  C4' PXY d   1      -1.897   0.410  -0.406  0.00  0.00     0.077 C 
ATOM      2  C1' PXY d   1       3.638  -1.140   0.205  0.00  0.00     0.077 C 
ATOM      3  C1  PXY d   1       2.188  -0.723   0.052  0.00  0.00    -0.082 A 
ATOM      4  C2  PXY d   1       1.273  -1.633  -0.236  0.00  0.00     0.003 A 
ATOM      5  C3  PXY d   1      -0.038  -1.269  -0.409  0.00  0.00     0.003 A 
ATOM      6  C4  PXY d   1      -0.423   0.033  -0.233  0.00  0.00    -0.082 A 
ATOM      7  C5  PXY d   1       0.503   0.966   0.072  0.00  0.00     0.003 A 
ATOM      8  C6  PXY d   1       1.835   0.582   0.203  0.00  0.00     0.003 A 
ENDROOT
TORSDOF 0
ENDMDL
