MODEL 1
REMARK minimizedAffinity -2.46466064
REMARK minimizedRMSD -1
REMARK  0 active torsions:
REMARK  status: ('A' for Active; 'I' for Inactive)
ROOT
ATOM      1  C4' PXY d   1       0.550   0.475  -0.029  0.00  0.00     0.077 C 
ATOM      2  C1' PXY d   1      -5.004   1.575   1.136  0.00  0.00     0.077 C 
ATOM      3  C1  PXY d   1      -3.544   1.295   0.840  0.00  0.00    -0.082 A 
ATOM      4  C2  PXY d   1      -3.190   0.869  -0.362  0.00  0.00     0.003 A 
ATOM      5  C3  PXY d   1      -1.878   0.581  -0.637  0.00  0.00     0.003 A 
ATOM      6  C4  PXY d   1      -0.911   0.780   0.312  0.00  0.00    -0.082 A 
ATOM      7  C5  PXY d   1      -1.263   1.223   1.537  0.00  0.00     0.003 A 
ATOM      8  C6  PXY d   1      -2.605   1.471   1.809  0.00  0.00     0.003 A 
ENDROOT
TORSDOF 0
ENDMDL
