MODEL 1
REMARK minimizedAffinity -4.987885
REMARK minimizedRMSD -1
REMARK  0 active torsions:
REMARK  status: ('A' for Active; 'I' for Inactive)
ROOT
ATOM      1  C4' PXY d   1       0.988  -1.219  -0.367  0.00  0.00     0.077 C 
ATOM      2  C1' PXY d   1      -3.318   2.439   0.857  0.00  0.00     0.077 C 
ATOM      3  C1  PXY d   1      -2.193   1.479   0.523  0.00  0.00    -0.082 A 
ATOM      4  C2  PXY d   1      -1.660   0.738   1.481  0.00  0.00     0.003 A 
ATOM      5  C3  PXY d   1      -0.620  -0.112   1.203  0.00  0.00     0.003 A 
ATOM      6  C4  PXY d   1      -0.156  -0.243  -0.078  0.00  0.00    -0.082 A 
ATOM      7  C5  PXY d   1      -0.702   0.501  -1.063  0.00  0.00     0.003 A 
ATOM      8  C6  PXY d   1      -1.729   1.388  -0.753  0.00  0.00     0.003 A 
ENDROOT
TORSDOF 0
ENDMDL
