MODEL 1
REMARK minimizedAffinity -5.00013065
REMARK minimizedRMSD -1
REMARK  0 active torsions:
REMARK  status: ('A' for Active; 'I' for Inactive)
ROOT
ATOM      1  C4' PXY d   1       2.818  -1.928   0.398  0.00  0.00     0.077 C 
ATOM      2  C1' PXY d   1      -1.760   1.361  -0.881  0.00  0.00     0.077 C 
ATOM      3  C1  PXY d   1      -0.552   0.509  -0.544  0.00  0.00    -0.082 A 
ATOM      4  C2  PXY d   1      -0.489  -0.738  -0.982  0.00  0.00     0.003 A 
ATOM      5  C3  PXY d   1       0.582  -1.532  -0.659  0.00  0.00     0.003 A 
ATOM      6  C4  PXY d   1       1.622  -1.029   0.074  0.00  0.00    -0.082 A 
ATOM      7  C5  PXY d   1       1.570   0.246   0.514  0.00  0.00     0.003 A 
ATOM      8  C6  PXY d   1       0.456   1.023   0.211  0.00  0.00     0.003 A 
ENDROOT
TORSDOF 0
ENDMDL
