MODEL 1
REMARK minimizedAffinity -2.36182213
REMARK minimizedRMSD -1
REMARK  0 active torsions:
REMARK  status: ('A' for Active; 'I' for Inactive)
ROOT
ATOM      1  C4' PXY d   1       3.578  -1.120  -0.070  0.00  0.00     0.077 C 
ATOM      2  C1' PXY d   1      -1.598   1.453  -0.115  0.00  0.00     0.077 C 
ATOM      3  C1  PXY d   1      -0.235   0.789  -0.108  0.00  0.00    -0.082 A 
ATOM      4  C2  PXY d   1      -0.149  -0.529  -0.177  0.00  0.00     0.003 A 
ATOM      5  C3  PXY d   1       1.074  -1.148  -0.139  0.00  0.00     0.003 A 
ATOM      6  C4  PXY d   1       2.224  -0.406  -0.084  0.00  0.00    -0.082 A 
ATOM      7  C5  PXY d   1       2.145   0.940  -0.024  0.00  0.00     0.003 A 
ATOM      8  C6  PXY d   1       0.892   1.547  -0.022  0.00  0.00     0.003 A 
ENDROOT
TORSDOF 0
ENDMDL
