MODEL 1
REMARK minimizedAffinity -3.62337661
REMARK minimizedRMSD -1
REMARK  0 active torsions:
REMARK  status: ('A' for Active; 'I' for Inactive)
ROOT
ATOM      1  C4' PXY d   1      -2.486   1.266  -0.405  0.00  0.00     0.077 C 
ATOM      2  C1' PXY d   1       2.437  -1.725   0.075  0.00  0.00     0.077 C 
ATOM      3  C1  PXY d   1       1.152  -0.930  -0.046  0.00  0.00    -0.082 A 
ATOM      4  C2  PXY d   1      -0.008  -1.565  -0.086  0.00  0.00     0.003 A 
ATOM      5  C3  PXY d   1      -1.178  -0.863  -0.227  0.00  0.00     0.003 A 
ATOM      6  C4  PXY d   1      -1.164   0.505  -0.274  0.00  0.00    -0.082 A 
ATOM      7  C5  PXY d   1       0.015   1.160  -0.223  0.00  0.00     0.003 A 
ATOM      8  C6  PXY d   1       1.194   0.428  -0.121  0.00  0.00     0.003 A 
ENDROOT
TORSDOF 0
ENDMDL
