MODEL 1
REMARK minimizedAffinity -4.9006505
REMARK minimizedRMSD -1
REMARK  0 active torsions:
REMARK  status: ('A' for Active; 'I' for Inactive)
ROOT
ATOM      1  C4' PXY d   1      -2.020   0.500  -0.533  0.00  0.00     0.077 C 
ATOM      2  C1' PXY d   1       3.495  -0.924   0.450  0.00  0.00     0.077 C 
ATOM      3  C1  PXY d   1       2.047  -0.562   0.185  0.00  0.00    -0.082 A 
ATOM      4  C2  PXY d   1       1.672   0.706   0.227  0.00  0.00     0.003 A 
ATOM      5  C3  PXY d   1       0.360   1.049   0.021  0.00  0.00     0.003 A 
ATOM      6  C4  PXY d   1      -0.567   0.088  -0.282  0.00  0.00    -0.082 A 
ATOM      7  C5  PXY d   1      -0.190  -1.207  -0.337  0.00  0.00     0.003 A 
ATOM      8  C6  PXY d   1       1.138  -1.538  -0.085  0.00  0.00     0.003 A 
ENDROOT
TORSDOF 0
ENDMDL
