MODEL 1
REMARK minimizedAffinity -4.28039122
REMARK minimizedRMSD -1
REMARK  0 active torsions:
REMARK  status: ('A' for Active; 'I' for Inactive)
ROOT
ATOM      1  C4' PXY d   1      -2.338   1.618  -0.080  0.00  0.00     0.077 C 
ATOM      2  C1' PXY d   1       2.329  -1.780  -0.383  0.00  0.00     0.077 C 
ATOM      3  C1  PXY d   1       1.109  -0.884  -0.293  0.00  0.00    -0.082 A 
ATOM      4  C2  PXY d   1      -0.015  -1.247  -0.887  0.00  0.00     0.003 A 
ATOM      5  C3  PXY d   1      -1.118  -0.433  -0.842  0.00  0.00     0.003 A 
ATOM      6  C4  PXY d   1      -1.085   0.740  -0.137  0.00  0.00    -0.082 A 
ATOM      7  C5  PXY d   1       0.056   1.113   0.481  0.00  0.00     0.003 A 
ATOM      8  C6  PXY d   1       1.176   0.292   0.389  0.00  0.00     0.003 A 
ENDROOT
TORSDOF 0
ENDMDL
