MODEL 1
REMARK minimizedAffinity -3.33347607
REMARK minimizedRMSD -1
REMARK  0 active torsions:
REMARK  status: ('A' for Active; 'I' for Inactive)
ROOT
ATOM      1  C4' PXY d   1      -1.873   0.758  -0.909  0.00  0.00     0.077 C 
ATOM      2  C1' PXY d   1       3.156  -1.263   1.101  0.00  0.00     0.077 C 
ATOM      3  C1  PXY d   1       1.837  -0.742   0.564  0.00  0.00    -0.082 A 
ATOM      4  C2  PXY d   1       1.479   0.508   0.810  0.00  0.00     0.003 A 
ATOM      5  C3  PXY d   1       0.275   0.986   0.359  0.00  0.00     0.003 A 
ATOM      6  C4  PXY d   1      -0.547   0.192  -0.395  0.00  0.00    -0.082 A 
ATOM      7  C5  PXY d   1      -0.183  -1.081  -0.659  0.00  0.00     0.003 A 
ATOM      8  C6  PXY d   1       1.024  -1.559  -0.158  0.00  0.00     0.003 A 
ENDROOT
TORSDOF 0
ENDMDL
