MODEL 1
REMARK minimizedAffinity -4.3142705
REMARK minimizedRMSD -1
REMARK  0 active torsions:
REMARK  status: ('A' for Active; 'I' for Inactive)
ROOT
ATOM      1  C4' PXY d   1      -2.059   1.362  -0.426  0.00  0.00     0.077 C 
ATOM      2  C1' PXY d   1       3.039  -1.240   0.382  0.00  0.00     0.077 C 
ATOM      3  C1  PXY d   1       1.699  -0.566   0.160  0.00  0.00    -0.082 A 
ATOM      4  C2  PXY d   1       1.524   0.686   0.552  0.00  0.00     0.003 A 
ATOM      5  C3  PXY d   1       0.309   1.300   0.388  0.00  0.00     0.003 A 
ATOM      6  C4  PXY d   1      -0.721   0.645  -0.231  0.00  0.00    -0.082 A 
ATOM      7  C5  PXY d   1      -0.547  -0.629  -0.644  0.00  0.00     0.003 A 
ATOM      8  C6  PXY d   1       0.681  -1.248  -0.431  0.00  0.00     0.003 A 
ENDROOT
TORSDOF 0
ENDMDL
