MODEL 1
REMARK minimizedAffinity -4.94297314
REMARK minimizedRMSD -1
REMARK  0 active torsions:
REMARK  status: ('A' for Active; 'I' for Inactive)
ROOT
ATOM      1  C4' PXY d   1      -0.395  -2.354  -0.738  0.00  0.00     0.077 C 
ATOM      2  C1' PXY d   1       3.391   1.554   1.213  0.00  0.00     0.077 C 
ATOM      3  C1  PXY d   1       2.408   0.523   0.696  0.00  0.00    -0.082 A 
ATOM      4  C2  PXY d   1       1.141   0.859   0.516  0.00  0.00     0.003 A 
ATOM      5  C3  PXY d   1       0.232  -0.070   0.079  0.00  0.00     0.003 A 
ATOM      6  C4  PXY d   1       0.635  -1.343  -0.227  0.00  0.00    -0.082 A 
ATOM      7  C5  PXY d   1       1.928  -1.691  -0.056  0.00  0.00     0.003 A 
ATOM      8  C6  PXY d   1       2.826  -0.744   0.427  0.00  0.00     0.003 A 
ENDROOT
TORSDOF 0
ENDMDL
