MODEL 1
REMARK minimizedAffinity -2.92617702
REMARK minimizedRMSD -1
REMARK  0 active torsions:
REMARK  status: ('A' for Active; 'I' for Inactive)
ROOT
ATOM      1  C4' PXY d   1       2.324   1.350   1.273  0.00  0.00     0.077 C 
ATOM      2  C1' PXY d   1      -0.721  -2.579  -1.678  0.00  0.00     0.077 C 
ATOM      3  C1  PXY d   1       0.084  -1.559  -0.898  0.00  0.00    -0.082 A 
ATOM      4  C2  PXY d   1      -0.411  -0.348  -0.700  0.00  0.00     0.003 A 
ATOM      5  C3  PXY d   1       0.317   0.598  -0.025  0.00  0.00     0.003 A 
ATOM      6  C4  PXY d   1       1.542   0.284   0.500  0.00  0.00    -0.082 A 
ATOM      7  C5  PXY d   1       2.050  -0.952   0.311  0.00  0.00     0.003 A 
ATOM      8  C6  PXY d   1       1.313  -1.885  -0.413  0.00  0.00     0.003 A 
ENDROOT
TORSDOF 0
ENDMDL
