MODEL 1
REMARK minimizedAffinity -3.13597369
REMARK minimizedRMSD -1
REMARK  0 active torsions:
REMARK  status: ('A' for Active; 'I' for Inactive)
ROOT
ATOM      1  C4' PXY d   1      -2.653   0.990   0.249  0.00  0.00     0.077 C 
ATOM      2  C1' PXY d   1       2.553  -1.476  -0.236  0.00  0.00     0.077 C 
ATOM      3  C1  PXY d   1       1.193  -0.820  -0.102  0.00  0.00    -0.082 A 
ATOM      4  C2  PXY d   1       0.098  -1.553  -0.219  0.00  0.00     0.003 A 
ATOM      5  C3  PXY d   1      -1.140  -0.970  -0.133  0.00  0.00     0.003 A 
ATOM      6  C4  PXY d   1      -1.259   0.368   0.130  0.00  0.00    -0.082 A 
ATOM      7  C5  PXY d   1      -0.147   1.122   0.261  0.00  0.00     0.003 A 
ATOM      8  C6  PXY d   1       1.101   0.518   0.129  0.00  0.00     0.003 A 
ENDROOT
TORSDOF 0
ENDMDL
