MODEL 1
REMARK minimizedAffinity 4.34573841
REMARK minimizedRMSD -1
REMARK  1 active torsions:
REMARK  status: ('A' for Active; 'I' for Inactive)
REMARK    1  A    between atoms: C3_4  and  O_7 
ROOT
ATOM      1  C   UNL d   1       5.115   4.066  -5.998  0.00  0.00    -0.033 A 
ATOM      2  C1  UNL d   1       3.721   3.992  -5.994  0.00  0.00     0.039 A 
ATOM      3  C2  UNL d   1       3.086   2.748  -5.993  0.00  0.00    -0.080 A 
ATOM      4  C3  UNL d   1       3.856   1.588  -5.995  0.00  0.00     0.150 A 
ATOM      5  C4  UNL d   1       5.246   1.655  -5.996  0.00  0.00    -0.007 A 
ATOM      6  C5  UNL d   1       5.878   2.897  -5.998  0.00  0.00     0.039 A 
ENDROOT
BRANCH   4   7
ATOM      7  O   UNL d   1       3.282   0.352  -5.999  0.00  0.00    -0.526 OA
ATOM      8  H5  UNL d   1       2.317   0.461  -6.027  0.00  0.00     0.418 HD
ENDBRANCH   4   7
TORSDOF 1
ENDMDL
