MODEL 1
REMARK minimizedAffinity 2.35337758
REMARK minimizedRMSD -1
REMARK  1 active torsions:
REMARK  status: ('A' for Active; 'I' for Inactive)
REMARK    1  A    between atoms: C3_4  and  O_7 
ROOT
ATOM      1  C   UNL d   1       4.199   1.096  -5.859  0.00  0.00    -0.033 A 
ATOM      2  C1  UNL d   1       5.564   1.386  -5.803  0.00  0.00     0.039 A 
ATOM      3  C2  UNL d   1       6.000   2.712  -5.848  0.00  0.00    -0.080 A 
ATOM      4  C3  UNL d   1       5.062   3.736  -5.948  0.00  0.00     0.150 A 
ATOM      5  C4  UNL d   1       3.701   3.454  -5.999  0.00  0.00    -0.007 A 
ATOM      6  C5  UNL d   1       3.268   2.130  -5.955  0.00  0.00     0.039 A 
ENDROOT
BRANCH   4   7
ATOM      7  O   UNL d   1       5.440   5.045  -6.000  0.00  0.00    -0.526 OA
ATOM      8  H5  UNL d   1       6.411   5.086  -5.984  0.00  0.00     0.418 HD
ENDBRANCH   4   7
TORSDOF 1
ENDMDL
