MODEL 1
REMARK minimizedAffinity 3.36652613
REMARK minimizedRMSD -1
REMARK  1 active torsions:
REMARK  status: ('A' for Active; 'I' for Inactive)
REMARK    1  A    between atoms: C3_4  and  O_7 
ROOT
ATOM      1  C   UNL d   1       5.681  -5.986  -4.157  0.00  0.00    -0.033 A 
ATOM      2  C1  UNL d   1       4.857  -5.990  -3.029  0.00  0.00     0.039 A 
ATOM      3  C2  UNL d   1       3.469  -5.996  -3.176  0.00  0.00    -0.080 A 
ATOM      4  C3  UNL d   1       2.917  -5.998  -4.455  0.00  0.00     0.150 A 
ATOM      5  C4  UNL d   1       3.732  -5.998  -5.582  0.00  0.00    -0.007 A 
ATOM      6  C5  UNL d   1       5.118  -5.991  -5.433  0.00  0.00     0.039 A 
ENDROOT
BRANCH   4   7
ATOM      7  O   UNL d   1       1.568  -5.999  -4.649  0.00  0.00    -0.526 OA
ATOM      8  H5  UNL d   1       1.132  -5.970  -3.781  0.00  0.00     0.418 HD
ENDBRANCH   4   7
TORSDOF 1
ENDMDL
