MODEL 1
REMARK minimizedAffinity 1.15079391
REMARK minimizedRMSD -1
REMARK  1 active torsions:
REMARK  status: ('A' for Active; 'I' for Inactive)
REMARK    1  A    between atoms: C3_4  and  O_7 
ROOT
ATOM      1  C   UNL d   1       1.880  -5.996  -5.077  0.00  0.00    -0.033 A 
ATOM      2  C1  UNL d   1       2.928  -5.996  -6.000  0.00  0.00     0.039 A 
ATOM      3  C2  UNL d   1       4.252  -5.993  -5.555  0.00  0.00    -0.080 A 
ATOM      4  C3  UNL d   1       4.514  -5.992  -4.188  0.00  0.00     0.150 A 
ATOM      5  C4  UNL d   1       3.474  -5.996  -3.263  0.00  0.00    -0.007 A 
ATOM      6  C5  UNL d   1       2.153  -5.998  -3.709  0.00  0.00     0.039 A 
ENDROOT
BRANCH   4   7
ATOM      7  O   UNL d   1       5.789  -5.984  -3.706  0.00  0.00    -0.526 OA
ATOM      8  H5  UNL d   1       6.402  -5.953  -4.459  0.00  0.00     0.418 HD
ENDBRANCH   4   7
TORSDOF 1
ENDMDL
