MODEL 1
REMARK minimizedAffinity 4.03870058
REMARK minimizedRMSD -1
REMARK  1 active torsions:
REMARK  status: ('A' for Active; 'I' for Inactive)
REMARK    1  A    between atoms: C3_4  and  O_7 
ROOT
ATOM      1  C   UNL d   1      -2.991   2.263  -5.980  0.00  0.00    -0.033 A 
ATOM      2  C1  UNL d   1      -4.387   2.277  -5.980  0.00  0.00     0.039 A 
ATOM      3  C2  UNL d   1      -5.075   3.492  -5.983  0.00  0.00    -0.080 A 
ATOM      4  C3  UNL d   1      -4.356   4.684  -5.988  0.00  0.00     0.150 A 
ATOM      5  C4  UNL d   1      -2.965   4.677  -5.993  0.00  0.00    -0.007 A 
ATOM      6  C5  UNL d   1      -2.280   3.463  -5.989  0.00  0.00     0.039 A 
ENDROOT
BRANCH   4   7
ATOM      7  O   UNL d   1      -4.983   5.894  -5.987  0.00  0.00    -0.526 OA
ATOM      8  H5  UNL d   1      -5.943   5.743  -5.954  0.00  0.00     0.418 HD
ENDBRANCH   4   7
TORSDOF 1
ENDMDL
