MODEL 1
REMARK minimizedAffinity -0.134079948
REMARK minimizedRMSD -1
REMARK  1 active torsions:
REMARK  status: ('A' for Active; 'I' for Inactive)
REMARK    1  A    between atoms: C3_4  and  O_7 
ROOT
ATOM      1  C   UNL d   1       2.207   5.970   5.046  0.00  0.00    -0.033 A 
ATOM      2  C1  UNL d   1       3.228   5.995   5.999  0.00  0.00     0.039 A 
ATOM      3  C2  UNL d   1       4.351   5.181   5.843  0.00  0.00    -0.080 A 
ATOM      4  C3  UNL d   1       4.441   4.347   4.731  0.00  0.00     0.150 A 
ATOM      5  C4  UNL d   1       3.430   4.320   3.777  0.00  0.00    -0.007 A 
ATOM      6  C5  UNL d   1       2.309   5.133   3.934  0.00  0.00     0.039 A 
ENDROOT
BRANCH   4   7
ATOM      7  O   UNL d   1       5.516   3.531   4.539  0.00  0.00    -0.526 OA
ATOM      8  H5  UNL d   1       6.121   3.635   5.292  0.00  0.00     0.418 HD
ENDBRANCH   4   7
TORSDOF 1
ENDMDL
