MODEL 1
REMARK minimizedAffinity 2.82861733
REMARK minimizedRMSD -1
REMARK  1 active torsions:
REMARK  status: ('A' for Active; 'I' for Inactive)
REMARK    1  A    between atoms: C3_4  and  O_7 
ROOT
ATOM      1  C   UNL d   1       1.130   2.055  -0.654  0.00  0.00    -0.033 A 
ATOM      2  C1  UNL d   1       0.740   1.120   0.307  0.00  0.00     0.039 A 
ATOM      3  C2  UNL d   1       1.448   1.011   1.505  0.00  0.00    -0.080 A 
ATOM      4  C3  UNL d   1       2.543   1.842   1.730  0.00  0.00     0.150 A 
ATOM      5  C4  UNL d   1       2.934   2.778   0.778  0.00  0.00    -0.007 A 
ATOM      6  C5  UNL d   1       2.226   2.885  -0.418  0.00  0.00     0.039 A 
ENDROOT
BRANCH   4   7
ATOM      7  O   UNL d   1       3.268   1.769   2.882  0.00  0.00    -0.526 OA
ATOM      8  H5  UNL d   1       2.899   1.058   3.433  0.00  0.00     0.418 HD
ENDBRANCH   4   7
TORSDOF 1
ENDMDL
