MODEL 1
REMARK minimizedAffinity 0.202941358
REMARK minimizedRMSD -1
REMARK  1 active torsions:
REMARK  status: ('A' for Active; 'I' for Inactive)
REMARK    1  A    between atoms: C3_4  and  O_7 
ROOT
ATOM      1  C   UNL d   1       2.962   5.486   6.000  0.00  0.00    -0.033 A 
ATOM      2  C1  UNL d   1       1.896   6.000   5.259  0.00  0.00     0.039 A 
ATOM      3  C2  UNL d   1       1.901   5.902   3.866  0.00  0.00    -0.080 A 
ATOM      4  C3  UNL d   1       2.975   5.288   3.228  0.00  0.00     0.150 A 
ATOM      5  C4  UNL d   1       4.038   4.771   3.960  0.00  0.00    -0.007 A 
ATOM      6  C5  UNL d   1       4.032   4.870   5.351  0.00  0.00     0.039 A 
ENDROOT
BRANCH   4   7
ATOM      7  O   UNL d   1       3.026   5.174   1.870  0.00  0.00    -0.526 OA
ATOM      8  H5  UNL d   1       2.239   5.601   1.495  0.00  0.00     0.418 HD
ENDBRANCH   4   7
TORSDOF 1
ENDMDL
