MODEL 1
REMARK minimizedAffinity 7.31526709
REMARK minimizedRMSD -1
REMARK  1 active torsions:
REMARK  status: ('A' for Active; 'I' for Inactive)
REMARK    1  A    between atoms: C3_4  and  O_7 
ROOT
ATOM      1  C   UNL d   1       5.986   1.043  -2.967  0.00  0.00    -0.033 A 
ATOM      2  C1  UNL d   1       5.980   1.711  -1.742  0.00  0.00     0.039 A 
ATOM      3  C2  UNL d   1       5.983   3.107  -1.706  0.00  0.00    -0.080 A 
ATOM      4  C3  UNL d   1       5.991   3.821  -2.901  0.00  0.00     0.150 A 
ATOM      5  C4  UNL d   1       5.994   3.162  -4.125  0.00  0.00    -0.007 A 
ATOM      6  C5  UNL d   1       5.992   1.768  -4.159  0.00  0.00     0.039 A 
ENDROOT
BRANCH   4   7
ATOM      7  O   UNL d   1       5.999   5.185  -2.916  0.00  0.00    -0.526 OA
ATOM      8  H5  UNL d   1       6.026   5.502  -1.998  0.00  0.00     0.418 HD
ENDBRANCH   4   7
TORSDOF 1
ENDMDL
