MODEL 1
REMARK minimizedAffinity 1.69834363
REMARK minimizedRMSD -1
REMARK  1 active torsions:
REMARK  status: ('A' for Active; 'I' for Inactive)
REMARK    1  A    between atoms: C3_4  and  O_7 
ROOT
ATOM      1  C   UNL d   1       2.432   1.194  -5.770  0.00  0.00    -0.033 A 
ATOM      2  C1  UNL d   1       1.111   0.748  -5.695  0.00  0.00     0.039 A 
ATOM      3  C2  UNL d   1       0.058   1.662  -5.770  0.00  0.00    -0.080 A 
ATOM      4  C3  UNL d   1       0.339   3.017  -5.921  0.00  0.00     0.150 A 
ATOM      5  C4  UNL d   1       1.652   3.468  -6.000  0.00  0.00    -0.007 A 
ATOM      6  C5  UNL d   1       2.703   2.554  -5.923  0.00  0.00     0.039 A 
ENDROOT
BRANCH   4   7
ATOM      7  O   UNL d   1      -0.655   3.947  -5.994  0.00  0.00    -0.526 OA
ATOM      8  H5  UNL d   1      -1.509   3.493  -5.897  0.00  0.00     0.418 HD
ENDBRANCH   4   7
TORSDOF 1
ENDMDL
