MODEL 1
REMARK minimizedAffinity 2.22450829
REMARK minimizedRMSD -1
REMARK  1 active torsions:
REMARK  status: ('A' for Active; 'I' for Inactive)
REMARK    1  A    between atoms: C3_4  and  O_7 
ROOT
ATOM      1  C   UNL d   1       3.398   1.554  -0.756  0.00  0.00    -0.033 A 
ATOM      2  C1  UNL d   1       3.828   0.459  -1.508  0.00  0.00     0.039 A 
ATOM      3  C2  UNL d   1       3.512  -0.838  -1.099  0.00  0.00    -0.080 A 
ATOM      4  C3  UNL d   1       2.764  -1.026   0.061  0.00  0.00     0.150 A 
ATOM      5  C4  UNL d   1       2.329   0.061   0.812  0.00  0.00    -0.007 A 
ATOM      6  C5  UNL d   1       2.647   1.355   0.403  0.00  0.00     0.039 A 
ENDROOT
BRANCH   4   7
ATOM      7  O   UNL d   1       2.435  -2.273   0.502  0.00  0.00    -0.526 OA
ATOM      8  H5  UNL d   1       2.827  -2.926  -0.100  0.00  0.00     0.418 HD
ENDBRANCH   4   7
TORSDOF 1
ENDMDL
