MODEL 1
REMARK minimizedAffinity -1.01746333
REMARK minimizedRMSD -1
REMARK  1 active torsions:
REMARK  status: ('A' for Active; 'I' for Inactive)
REMARK    1  A    between atoms: C3_4  and  O_7 
ROOT
ATOM      1  C   UNL d   1       4.120  -5.990  -3.833  0.00  0.00    -0.033 A 
ATOM      2  C1  UNL d   1       4.173  -5.992  -5.229  0.00  0.00     0.039 A 
ATOM      3  C2  UNL d   1       2.993  -5.994  -5.974  0.00  0.00    -0.080 A 
ATOM      4  C3  UNL d   1       1.767  -5.992  -5.313  0.00  0.00     0.150 A 
ATOM      5  C4  UNL d   1       1.707  -5.986  -3.924  0.00  0.00    -0.007 A 
ATOM      6  C5  UNL d   1       2.887  -5.986  -3.181  0.00  0.00     0.039 A 
ENDROOT
BRANCH   4   7
ATOM      7  O   UNL d   1       0.588  -5.998  -5.998  0.00  0.00    -0.526 OA
ATOM      8  H5  UNL d   1       0.785  -6.031  -6.949  0.00  0.00     0.418 HD
ENDBRANCH   4   7
TORSDOF 1
ENDMDL
