MODEL 1
REMARK minimizedAffinity 12.148468
REMARK minimizedRMSD -1
REMARK  1 active torsions:
REMARK  status: ('A' for Active; 'I' for Inactive)
REMARK    1  A    between atoms: C3_4  and  O_7 
ROOT
ATOM      1  C   UNL d   1      -4.669  -1.452   3.070  0.00  0.00    -0.033 A 
ATOM      2  C1  UNL d   1      -3.522  -1.880   3.741  0.00  0.00     0.039 A 
ATOM      3  C2  UNL d   1      -3.612  -2.876   4.716  0.00  0.00    -0.080 A 
ATOM      4  C3  UNL d   1      -4.853  -3.435   5.009  0.00  0.00     0.150 A 
ATOM      5  C4  UNL d   1      -5.999  -3.015   4.342  0.00  0.00    -0.007 A 
ATOM      6  C5  UNL d   1      -5.908  -2.021   3.369  0.00  0.00     0.039 A 
ENDROOT
BRANCH   4   7
ATOM      7  O   UNL d   1      -4.992  -4.405   5.956  0.00  0.00    -0.526 OA
ATOM      8  H5  UNL d   1      -4.121  -4.573   6.354  0.00  0.00     0.418 HD
ENDBRANCH   4   7
TORSDOF 1
ENDMDL
