MODEL 1
REMARK minimizedAffinity 8.93234348
REMARK minimizedRMSD -1
REMARK  1 active torsions:
REMARK  status: ('A' for Active; 'I' for Inactive)
REMARK    1  A    between atoms: C3_4  and  O_7 
ROOT
ATOM      1  C   UNL d   1       4.216   5.855   5.299  0.00  0.00    -0.033 A 
ATOM      2  C1  UNL d   1       5.073   4.758   5.188  0.00  0.00     0.039 A 
ATOM      3  C2  UNL d   1       4.761   3.711   4.318  0.00  0.00    -0.080 A 
ATOM      4  C3  UNL d   1       3.592   3.775   3.564  0.00  0.00     0.150 A 
ATOM      5  C4  UNL d   1       2.737   4.867   3.666  0.00  0.00    -0.007 A 
ATOM      6  C5  UNL d   1       3.049   5.910   4.537  0.00  0.00     0.039 A 
ENDROOT
BRANCH   4   7
ATOM      7  O   UNL d   1       3.243   2.776   2.705  0.00  0.00    -0.526 OA
ATOM      8  H5  UNL d   1       3.914   2.074   2.760  0.00  0.00     0.418 HD
ENDBRANCH   4   7
TORSDOF 1
ENDMDL
