MODEL 1
REMARK minimizedAffinity 3.50593901
REMARK minimizedRMSD -1
REMARK  1 active torsions:
REMARK  status: ('A' for Active; 'I' for Inactive)
REMARK    1  A    between atoms: N_2  and  C1_3 
ROOT
ATOM      1  C1  UNL d   1      -5.071   4.524   3.063  0.00  0.00     0.143 A 
ATOM      2  C2  UNL d   1      -5.994   4.199   4.062  0.00  0.00    -0.057 A 
ATOM      3  C3  UNL d   1      -5.920   4.778   5.335  0.00  0.00     0.033 A 
ATOM      4  C4  UNL d   1      -4.900   5.673   5.640  0.00  0.00    -0.042 A 
ATOM      5  C5  UNL d   1      -3.957   5.992   4.670  0.00  0.00     0.033 A 
ATOM      6  C6  UNL d   1      -4.040   5.416   3.399  0.00  0.00    -0.057 A 
ENDROOT
BRANCH   1   7
ATOM      7  N   UNL d   1      -5.033   3.909   1.809  0.00  0.00    -0.732 N 
ATOM      8  C   UNL d   1      -4.449   2.594   1.651  0.00  0.00     0.284 C 
ATOM      9  H3  UNL d   1      -5.891   4.049   1.282  0.00  0.00     0.395 HD
ENDBRANCH   1   7
TORSDOF 1
ENDMDL
