MODEL 1
REMARK minimizedAffinity 6.36812115
REMARK minimizedRMSD -1
REMARK  1 active torsions:
REMARK  status: ('A' for Active; 'I' for Inactive)
REMARK    1  A    between atoms: N_2  and  C1_3 
ROOT
ATOM      1  C1  UNL d   1       3.867   1.701   0.876  0.00  0.00     0.143 A 
ATOM      2  C2  UNL d   1       4.037   1.924  -0.495  0.00  0.00    -0.057 A 
ATOM      3  C3  UNL d   1       3.283   1.222  -1.443  0.00  0.00     0.033 A 
ATOM      4  C4  UNL d   1       2.364   0.260  -1.036  0.00  0.00    -0.042 A 
ATOM      5  C5  UNL d   1       2.197   0.004   0.320  0.00  0.00     0.033 A 
ATOM      6  C6  UNL d   1       2.948   0.713   1.263  0.00  0.00    -0.057 A 
ENDROOT
BRANCH   1   7
ATOM      7  N   UNL d   1       4.656   2.296   1.864  0.00  0.00    -0.732 N 
ATOM      8  C   UNL d   1       5.184   3.631   1.681  0.00  0.00     0.284 C 
ATOM      9  H3  UNL d   1       4.308   2.111   2.802  0.00  0.00     0.395 HD
ENDBRANCH   1   7
TORSDOF 1
ENDMDL
