MODEL 1
REMARK minimizedAffinity -4.33726835
REMARK minimizedRMSD -1
REMARK  1 active torsions:
REMARK  status: ('A' for Active; 'I' for Inactive)
REMARK    1  A    between atoms: N_2  and  C1_3 
ROOT
ATOM      1  C1  UNL d   1       2.876   0.174  -0.670  0.00  0.00     0.143 A 
ATOM      2  C2  UNL d   1       1.699   0.876  -0.389  0.00  0.00    -0.057 A 
ATOM      3  C3  UNL d   1       0.502   0.204  -0.110  0.00  0.00     0.033 A 
ATOM      4  C4  UNL d   1       0.455  -1.186  -0.137  0.00  0.00    -0.042 A 
ATOM      5  C5  UNL d   1       1.607  -1.903  -0.439  0.00  0.00     0.033 A 
ATOM      6  C6  UNL d   1       2.801  -1.227  -0.709  0.00  0.00    -0.057 A 
ENDROOT
BRANCH   1   7
ATOM      7  N   UNL d   1       4.073   0.785  -1.051  0.00  0.00    -0.732 N 
ATOM      8  C   UNL d   1       4.242   2.217  -0.929  0.00  0.00     0.284 C 
ATOM      9  H3  UNL d   1       4.890   0.245  -0.775  0.00  0.00     0.395 HD
ENDBRANCH   1   7
TORSDOF 1
ENDMDL
