MODEL 1
REMARK minimizedAffinity 1.20241678
REMARK minimizedRMSD -1
REMARK  0 active torsions:
REMARK  status: ('A' for Active; 'I' for Inactive)
ROOT
ATOM      1  C2' OXE d   1       0.209   1.518  -0.404  0.00  0.00     0.078 C 
ATOM      2  C1' OXE d   1      -1.726  -0.481  -0.036  0.00  0.00     0.078 C 
ATOM      3  C1  OXE d   1      -1.210   0.232   1.188  0.00  0.00    -0.078 A 
ATOM      4  C2  OXE d   1      -0.229   1.176   1.003  0.00  0.00    -0.078 A 
ATOM      5  C3  OXE d   1       0.243   1.902   2.093  0.00  0.00     0.003 A 
ATOM      6  C4  OXE d   1      -0.160   1.573   3.393  0.00  0.00    -0.002 A 
ATOM      7  C5  OXE d   1      -1.129   0.587   3.607  0.00  0.00    -0.002 A 
ATOM      8  C6  OXE d   1      -1.694  -0.062   2.515  0.00  0.00     0.003 A 
ENDROOT
TORSDOF 0
ENDMDL
