MODEL 1
REMARK minimizedAffinity -0.691964984
REMARK minimizedRMSD -1
REMARK  0 active torsions:
REMARK  status: ('A' for Active; 'I' for Inactive)
ROOT
ATOM      1  C2' OXE d   1      -2.476  -0.743  -0.048  0.00  0.00     0.078 C 
ATOM      2  C1' OXE d   1      -0.640   0.923  -1.364  0.00  0.00     0.078 C 
ATOM      3  C1  OXE d   1      -0.566   0.844   0.140  0.00  0.00    -0.078 A 
ATOM      4  C2  OXE d   1      -1.498   0.063   0.779  0.00  0.00    -0.078 A 
ATOM      5  C3  OXE d   1      -1.440  -0.087   2.162  0.00  0.00     0.003 A 
ATOM      6  C4  OXE d   1      -0.539   0.670   2.920  0.00  0.00    -0.002 A 
ATOM      7  C5  OXE d   1       0.393   1.502   2.292  0.00  0.00    -0.002 A 
ATOM      8  C6  OXE d   1       0.421   1.568   0.903  0.00  0.00     0.003 A 
ENDROOT
TORSDOF 0
ENDMDL
