MODEL 1
REMARK minimizedAffinity 1.65261853
REMARK minimizedRMSD -1
REMARK  0 active torsions:
REMARK  status: ('A' for Active; 'I' for Inactive)
ROOT
ATOM      1  C2' OXE d   1      -2.459  -0.652   0.242  0.00  0.00     0.078 C 
ATOM      2  C1' OXE d   1      -0.615   0.950  -1.142  0.00  0.00     0.078 C 
ATOM      3  C1  OXE d   1      -0.588   0.989   0.366  0.00  0.00    -0.078 A 
ATOM      4  C2  OXE d   1      -1.525   0.237   1.034  0.00  0.00    -0.078 A 
ATOM      5  C3  OXE d   1      -1.509   0.194   2.425  0.00  0.00     0.003 A 
ATOM      6  C4  OXE d   1      -0.649   1.027   3.150  0.00  0.00    -0.002 A 
ATOM      7  C5  OXE d   1       0.286   1.830   2.489  0.00  0.00    -0.002 A 
ATOM      8  C6  OXE d   1       0.358   1.790   1.101  0.00  0.00     0.003 A 
ENDROOT
TORSDOF 0
ENDMDL
