MODEL 1
REMARK minimizedAffinity -0.616392493
REMARK minimizedRMSD -1
REMARK  0 active torsions:
REMARK  status: ('A' for Active; 'I' for Inactive)
ROOT
ATOM      1  C2' OXE d   1      -0.756  -0.841   0.340  0.00  0.00     0.078 C 
ATOM      2  C1' OXE d   1      -2.074  -0.362   2.771  0.00  0.00     0.078 C 
ATOM      3  C1  OXE d   1      -0.853   0.466   2.458  0.00  0.00    -0.078 A 
ATOM      4  C2  OXE d   1      -0.187   0.193   1.287  0.00  0.00    -0.078 A 
ATOM      5  C3  OXE d   1       0.913   0.964   0.924  0.00  0.00     0.003 A 
ATOM      6  C4  OXE d   1       1.439   1.911   1.811  0.00  0.00    -0.002 A 
ATOM      7  C5  OXE d   1       0.799   2.178   3.026  0.00  0.00    -0.002 A 
ATOM      8  C6  OXE d   1      -0.370   1.495   3.345  0.00  0.00     0.003 A 
ENDROOT
TORSDOF 0
ENDMDL
