MODEL 1
REMARK minimizedAffinity 2.44620538
REMARK minimizedRMSD -1
REMARK  0 active torsions:
REMARK  status: ('A' for Active; 'I' for Inactive)
ROOT
ATOM      1  C2' OXE d   1      -1.004  -0.676  -0.190  0.00  0.00     0.078 C 
ATOM      2  C1' OXE d   1      -1.804  -0.526   2.497  0.00  0.00     0.078 C 
ATOM      3  C1  OXE d   1      -0.837   0.515   1.992  0.00  0.00    -0.078 A 
ATOM      4  C2  OXE d   1      -0.415   0.407   0.688  0.00  0.00    -0.078 A 
ATOM      5  C3  OXE d   1       0.434   1.373   0.156  0.00  0.00     0.003 A 
ATOM      6  C4  OXE d   1       0.983   2.365   0.978  0.00  0.00    -0.002 A 
ATOM      7  C5  OXE d   1       0.597   2.470   2.318  0.00  0.00    -0.002 A 
ATOM      8  C6  OXE d   1      -0.342   1.581   2.828  0.00  0.00     0.003 A 
ENDROOT
TORSDOF 0
ENDMDL
