MODEL 1
REMARK minimizedAffinity 0.654613674
REMARK minimizedRMSD -1
REMARK  0 active torsions:
REMARK  status: ('A' for Active; 'I' for Inactive)
ROOT
ATOM      1  C2' OXE d   1      -1.685  -0.607   0.109  0.00  0.00     0.078 C 
ATOM      2  C1' OXE d   1      -2.558  -0.686   2.775  0.00  0.00     0.078 C 
ATOM      3  C1  OXE d   1      -1.529   0.351   2.403  0.00  0.00    -0.078 A 
ATOM      4  C2  OXE d   1      -1.073   0.352   1.107  0.00  0.00    -0.078 A 
ATOM      5  C3  OXE d   1      -0.164   1.323   0.697  0.00  0.00     0.003 A 
ATOM      6  C4  OXE d   1       0.405   2.200   1.629  0.00  0.00    -0.002 A 
ATOM      7  C5  OXE d   1      -0.016   2.190   2.962  0.00  0.00    -0.002 A 
ATOM      8  C6  OXE d   1      -1.011   1.302   3.356  0.00  0.00     0.003 A 
ENDROOT
TORSDOF 0
ENDMDL
