MODEL 1
REMARK minimizedAffinity -1.17496932
REMARK minimizedRMSD -1
REMARK  0 active torsions:
REMARK  status: ('A' for Active; 'I' for Inactive)
ROOT
ATOM      1  C2' OXE d   1      -2.178  -0.040   0.301  0.00  0.00     0.078 C 
ATOM      2  C1' OXE d   1      -1.541   0.151   3.028  0.00  0.00     0.078 C 
ATOM      3  C1  OXE d   1      -0.469   0.506   2.029  0.00  0.00    -0.078 A 
ATOM      4  C2  OXE d   1      -0.774   0.365   0.697  0.00  0.00    -0.078 A 
ATOM      5  C3  OXE d   1       0.160   0.731  -0.267  0.00  0.00     0.003 A 
ATOM      6  C4  OXE d   1       1.460   1.095   0.107  0.00  0.00    -0.002 A 
ATOM      7  C5  OXE d   1       1.804   1.206   1.458  0.00  0.00    -0.002 A 
ATOM      8  C6  OXE d   1       0.841   0.957   2.430  0.00  0.00     0.003 A 
ENDROOT
TORSDOF 0
ENDMDL
