MODEL 1
REMARK minimizedAffinity 1.1715126
REMARK minimizedRMSD -1
REMARK  0 active torsions:
REMARK  status: ('A' for Active; 'I' for Inactive)
ROOT
ATOM      1  C2' OXE d   1      -1.716  -0.631   0.171  0.00  0.00     0.078 C 
ATOM      2  C1' OXE d   1      -1.965  -0.266   2.943  0.00  0.00     0.078 C 
ATOM      3  C1  OXE d   1      -0.845   0.455   2.236  0.00  0.00    -0.078 A 
ATOM      4  C2  OXE d   1      -0.701   0.234   0.888  0.00  0.00    -0.078 A 
ATOM      5  C3  OXE d   1       0.282   0.916   0.178  0.00  0.00     0.003 A 
ATOM      6  C4  OXE d   1       1.222   1.706   0.850  0.00  0.00    -0.002 A 
ATOM      7  C5  OXE d   1       1.119   1.914   2.230  0.00  0.00    -0.002 A 
ATOM      8  C6  OXE d   1       0.068   1.330   2.929  0.00  0.00     0.003 A 
ENDROOT
TORSDOF 0
ENDMDL
