MODEL 1
REMARK minimizedAffinity 0.225622967
REMARK minimizedRMSD -1
REMARK  0 active torsions:
REMARK  status: ('A' for Active; 'I' for Inactive)
ROOT
ATOM      1  C2' OXE d   1       1.619   1.338   1.257  0.00  0.00     0.078 C 
ATOM      2  C1' OXE d   1      -0.079   1.640   3.472  0.00  0.00     0.078 C 
ATOM      3  C1  OXE d   1      -0.601   0.870   2.286  0.00  0.00    -0.078 A 
ATOM      4  C2  OXE d   1       0.219   0.766   1.188  0.00  0.00    -0.078 A 
ATOM      5  C3  OXE d   1      -0.193   0.020   0.088  0.00  0.00     0.003 A 
ATOM      6  C4  OXE d   1      -1.493  -0.497   0.028  0.00  0.00    -0.002 A 
ATOM      7  C5  OXE d   1      -2.359  -0.369   1.119  0.00  0.00    -0.002 A 
ATOM      8  C6  OXE d   1      -1.914   0.273   2.270  0.00  0.00     0.003 A 
ENDROOT
TORSDOF 0
ENDMDL
