MODEL 1
REMARK minimizedAffinity -3.71374226
REMARK minimizedRMSD -1
REMARK  0 active torsions:
REMARK  status: ('A' for Active; 'I' for Inactive)
ROOT
ATOM      1  C2' OXE d   1      -1.133  -0.989   0.190  0.00  0.00     0.078 C 
ATOM      2  C1' OXE d   1      -1.892  -0.191   2.772  0.00  0.00     0.078 C 
ATOM      3  C1  OXE d   1      -0.798   0.590   2.087  0.00  0.00    -0.078 A 
ATOM      4  C2  OXE d   1      -0.401   0.164   0.843  0.00  0.00    -0.078 A 
ATOM      5  C3  OXE d   1       0.565   0.881   0.144  0.00  0.00     0.003 A 
ATOM      6  C4  OXE d   1       1.244   1.940   0.759  0.00  0.00    -0.002 A 
ATOM      7  C5  OXE d   1       0.883   2.366   2.041  0.00  0.00    -0.002 A 
ATOM      8  C6  OXE d   1      -0.163   1.730   2.701  0.00  0.00     0.003 A 
ENDROOT
TORSDOF 0
ENDMDL
