MODEL 1
REMARK minimizedAffinity -3.52388239
REMARK minimizedRMSD -1
REMARK  1 active torsions:
REMARK  status: ('A' for Active; 'I' for Inactive)
REMARK    1  A    between atoms: C1_2  and  C2_3 
ROOT
ATOM      1  C2  UNL d   1       0.011  -0.452   0.436  0.00  0.00    -0.077 A 
ATOM      2  C3  UNL d   1       0.806  -0.916   1.493  0.00  0.00     0.002 A 
ATOM      3  C4  UNL d   1       0.294  -0.974   2.790  0.00  0.00     0.002 A 
ATOM      4  C5  UNL d   1      -1.017  -0.575   3.042  0.00  0.00    -0.004 A 
ATOM      5  C6  UNL d   1      -1.816  -0.110   1.998  0.00  0.00     0.002 A 
ATOM      6  C7  UNL d   1      -1.305  -0.049   0.701  0.00  0.00     0.002 A 
ENDROOT
BRANCH   1   7
ATOM      7  C1  UNL d   1       0.546  -0.434  -0.972  0.00  0.00     0.055 C 
ATOM      8  C   UNL d   1       0.000   0.751  -1.756  0.00  0.00     0.019 C 
ENDBRANCH   1   7
TORSDOF 1
ENDMDL
