MODEL 1
REMARK minimizedAffinity -2.94870305
REMARK minimizedRMSD -1
REMARK  1 active torsions:
REMARK  status: ('A' for Active; 'I' for Inactive)
REMARK    1  A    between atoms: C1_2  and  C2_3 
ROOT
ATOM      1  C2  UNL d   1       0.652   0.095  -1.303  0.00  0.00    -0.077 A 
ATOM      2  C3  UNL d   1       1.563  -0.054  -0.248  0.00  0.00     0.002 A 
ATOM      3  C4  UNL d   1       1.122  -0.025   1.076  0.00  0.00     0.002 A 
ATOM      4  C5  UNL d   1      -0.231   0.149   1.358  0.00  0.00    -0.004 A 
ATOM      5  C6  UNL d   1      -1.145   0.300   0.316  0.00  0.00     0.002 A 
ATOM      6  C7  UNL d   1      -0.706   0.272  -1.009  0.00  0.00     0.002 A 
ENDROOT
BRANCH   1   7
ATOM      7  C1  UNL d   1       1.119   0.014  -2.733  0.00  0.00     0.055 C 
ATOM      8  C   UNL d   1       0.568  -1.223  -3.426  0.00  0.00     0.019 C 
ENDBRANCH   1   7
TORSDOF 1
ENDMDL
