MODEL 1
REMARK minimizedAffinity -4.4993906
REMARK minimizedRMSD -1
REMARK  1 active torsions:
REMARK  status: ('A' for Active; 'I' for Inactive)
REMARK    1  A    between atoms: C1_2  and  C2_3 
ROOT
ATOM      1  C2  UNL d   1      -0.378  -0.373   1.066  0.00  0.00    -0.077 A 
ATOM      2  C3  UNL d   1       0.918  -0.221   0.552  0.00  0.00     0.002 A 
ATOM      3  C4  UNL d   1       1.113   0.292  -0.732  0.00  0.00     0.002 A 
ATOM      4  C5  UNL d   1       0.018   0.662  -1.510  0.00  0.00    -0.004 A 
ATOM      5  C6  UNL d   1      -1.275   0.513  -1.009  0.00  0.00     0.002 A 
ATOM      6  C7  UNL d   1      -1.472  -0.002   0.274  0.00  0.00     0.002 A 
ENDROOT
BRANCH   1   7
ATOM      7  C1  UNL d   1      -0.588  -0.881   2.468  0.00  0.00     0.055 C 
ATOM      8  C   UNL d   1      -0.265   0.190   3.499  0.00  0.00     0.019 C 
ENDBRANCH   1   7
TORSDOF 1
ENDMDL
