MODEL 1
REMARK minimizedAffinity -3.60013509
REMARK minimizedRMSD -1
REMARK  1 active torsions:
REMARK  status: ('A' for Active; 'I' for Inactive)
REMARK    1  A    between atoms: C1_2  and  C2_3 
ROOT
ATOM      1  C2  UNL d   1       0.432  -0.592  -1.336  0.00  0.00    -0.077 A 
ATOM      2  C3  UNL d   1       0.730   0.759  -1.108  0.00  0.00     0.002 A 
ATOM      3  C4  UNL d   1       0.962   1.222   0.188  0.00  0.00     0.002 A 
ATOM      4  C5  UNL d   1       0.902   0.341   1.266  0.00  0.00    -0.004 A 
ATOM      5  C6  UNL d   1       0.605  -1.003   1.050  0.00  0.00     0.002 A 
ATOM      6  C7  UNL d   1       0.371  -1.468  -0.245  0.00  0.00     0.002 A 
ENDROOT
BRANCH   1   7
ATOM      7  C1  UNL d   1       0.230  -1.103  -2.738  0.00  0.00     0.055 C 
ATOM      8  C   UNL d   1       1.547  -1.170  -3.498  0.00  0.00     0.019 C 
ENDBRANCH   1   7
TORSDOF 1
ENDMDL
