MODEL 1
REMARK minimizedAffinity -4.09272671
REMARK minimizedRMSD -1
REMARK  1 active torsions:
REMARK  status: ('A' for Active; 'I' for Inactive)
REMARK    1  A    between atoms: C1_2  and  C2_3 
ROOT
ATOM      1  C2  UNL d   1       0.630  -0.767  -1.321  0.00  0.00    -0.077 A 
ATOM      2  C3  UNL d   1       0.922  -1.689  -2.335  0.00  0.00     0.002 A 
ATOM      3  C4  UNL d   1       0.862  -1.307  -3.677  0.00  0.00     0.002 A 
ATOM      4  C5  UNL d   1       0.514  -0.001  -4.016  0.00  0.00    -0.004 A 
ATOM      5  C6  UNL d   1       0.220   0.923  -3.015  0.00  0.00     0.002 A 
ATOM      6  C7  UNL d   1       0.278   0.543  -1.673  0.00  0.00     0.002 A 
ENDROOT
BRANCH   1   7
ATOM      7  C1  UNL d   1       0.742  -1.164   0.128  0.00  0.00     0.055 C 
ATOM      8  C   UNL d   1       0.180  -0.085   1.042  0.00  0.00     0.019 C 
ENDBRANCH   1   7
TORSDOF 1
ENDMDL
