MODEL 1
REMARK minimizedAffinity -3.94876313
REMARK minimizedRMSD -1
REMARK  1 active torsions:
REMARK  status: ('A' for Active; 'I' for Inactive)
REMARK    1  A    between atoms: C1_2  and  C2_3 
ROOT
ATOM      1  C2  UNL d   1       0.807  -0.550   1.243  0.00  0.00    -0.077 A 
ATOM      2  C3  UNL d   1      -0.102   0.105   0.401  0.00  0.00     0.002 A 
ATOM      3  C4  UNL d   1      -0.010  -0.037  -0.985  0.00  0.00     0.002 A 
ATOM      4  C5  UNL d   1       0.986  -0.838  -1.540  0.00  0.00    -0.004 A 
ATOM      5  C6  UNL d   1       1.896  -1.492  -0.711  0.00  0.00     0.002 A 
ATOM      6  C7  UNL d   1       1.806  -1.350   0.675  0.00  0.00     0.002 A 
ENDROOT
BRANCH   1   7
ATOM      7  C1  UNL d   1       0.678  -0.438   2.740  0.00  0.00     0.055 C 
ATOM      8  C   UNL d   1      -0.723  -0.004   3.144  0.00  0.00     0.019 C 
ENDBRANCH   1   7
TORSDOF 1
ENDMDL
