MODEL 1
REMARK minimizedAffinity -5.18364382
REMARK minimizedRMSD -1
REMARK  0 active torsions:
REMARK  status: ('A' for Active; 'I' for Inactive)
ROOT
ATOM      1  C   UNL d   1       0.281   0.444  -0.090  0.00  0.00     0.078 C 
ATOM      2  C1  UNL d   1      -0.473  -0.831   0.146  0.00  0.00    -0.077 A 
ATOM      3  C2  UNL d   1      -0.482  -1.441   1.406  0.00  0.00    -0.001 A 
ATOM      4  C3  UNL d   1      -1.180  -2.633   1.609  0.00  0.00     0.003 A 
ATOM      5  C4  UNL d   1      -1.873  -3.226   0.555  0.00  0.00    -0.005 A 
ATOM      6  C5  UNL d   1      -1.868  -2.627  -0.703  0.00  0.00     0.003 A 
ATOM      7  C6  UNL d   1      -1.171  -1.435  -0.908  0.00  0.00    -0.001 A 
ENDROOT
TORSDOF 0
ENDMDL
