MODEL 1
REMARK minimizedAffinity -2.23180389
REMARK minimizedRMSD -1
REMARK  0 active torsions:
REMARK  status: ('A' for Active; 'I' for Inactive)
ROOT
ATOM      1  C   UNL d   1       0.482   1.138  -0.054  0.00  0.00     0.078 C 
ATOM      2  C1  UNL d   1       0.043  -0.250   0.306  0.00  0.00    -0.077 A 
ATOM      3  C2  UNL d   1      -0.758  -0.484   1.431  0.00  0.00    -0.001 A 
ATOM      4  C3  UNL d   1      -1.151  -1.783   1.759  0.00  0.00     0.003 A 
ATOM      5  C4  UNL d   1      -0.748  -2.857   0.969  0.00  0.00    -0.005 A 
ATOM      6  C5  UNL d   1       0.050  -2.634  -0.151  0.00  0.00     0.003 A 
ATOM      7  C6  UNL d   1       0.445  -1.337  -0.481  0.00  0.00    -0.001 A 
ENDROOT
TORSDOF 0
ENDMDL
