MODEL 1
REMARK minimizedAffinity -5.63970757
REMARK minimizedRMSD -1
REMARK  0 active torsions:
REMARK  status: ('A' for Active; 'I' for Inactive)
ROOT
ATOM      1  C   UNL d   1       0.797   1.176  -0.914  0.00  0.00     0.078 C 
ATOM      2  C1  UNL d   1       0.030   0.070  -0.252  0.00  0.00    -0.077 A 
ATOM      3  C2  UNL d   1       0.639  -1.157   0.037  0.00  0.00    -0.001 A 
ATOM      4  C3  UNL d   1      -0.090  -2.181   0.644  0.00  0.00     0.003 A 
ATOM      5  C4  UNL d   1      -1.431  -1.989   0.966  0.00  0.00    -0.005 A 
ATOM      6  C5  UNL d   1      -2.047  -0.772   0.681  0.00  0.00     0.003 A 
ATOM      7  C6  UNL d   1      -1.320   0.253   0.073  0.00  0.00    -0.001 A 
ENDROOT
TORSDOF 0
ENDMDL
