MODEL 1
REMARK minimizedAffinity -3.62584734
REMARK minimizedRMSD -1
REMARK  0 active torsions:
REMARK  status: ('A' for Active; 'I' for Inactive)
ROOT
ATOM      1  C   UNL d   1       0.209   0.803  -0.899  0.00  0.00     0.078 C 
ATOM      2  C1  UNL d   1      -0.141  -0.480  -0.207  0.00  0.00    -0.077 A 
ATOM      3  C2  UNL d   1       0.739  -1.069   0.710  0.00  0.00    -0.001 A 
ATOM      4  C3  UNL d   1       0.404  -2.269   1.339  0.00  0.00     0.003 A 
ATOM      5  C4  UNL d   1      -0.810  -2.891   1.059  0.00  0.00    -0.005 A 
ATOM      6  C5  UNL d   1      -1.692  -2.314   0.147  0.00  0.00     0.003 A 
ATOM      7  C6  UNL d   1      -1.359  -1.114  -0.484  0.00  0.00    -0.001 A 
ENDROOT
TORSDOF 0
ENDMDL
