MODEL 1
REMARK minimizedAffinity -0.835188627
REMARK minimizedRMSD -1
REMARK  0 active torsions:
REMARK  status: ('A' for Active; 'I' for Inactive)
ROOT
ATOM      1  C   UNL d   1       0.402   0.383  -0.643  0.00  0.00     0.078 C 
ATOM      2  C1  UNL d   1      -0.371  -0.552   0.238  0.00  0.00    -0.077 A 
ATOM      3  C2  UNL d   1      -1.759  -0.429   0.378  0.00  0.00    -0.001 A 
ATOM      4  C3  UNL d   1      -2.464  -1.301   1.210  0.00  0.00     0.003 A 
ATOM      5  C4  UNL d   1      -1.790  -2.300   1.909  0.00  0.00    -0.005 A 
ATOM      6  C5  UNL d   1      -0.409  -2.429   1.778  0.00  0.00     0.003 A 
ATOM      7  C6  UNL d   1       0.298  -1.558   0.946  0.00  0.00    -0.001 A 
ENDROOT
TORSDOF 0
ENDMDL
