MODEL 1
REMARK minimizedAffinity -1.72066092
REMARK minimizedRMSD -1
REMARK  0 active torsions:
REMARK  status: ('A' for Active; 'I' for Inactive)
ROOT
ATOM      1  C   UNL d   1      -1.946   0.974   1.185  0.00  0.00     0.078 C 
ATOM      2  C1  UNL d   1      -0.863  -0.018   0.885  0.00  0.00    -0.077 A 
ATOM      3  C2  UNL d   1      -0.975  -1.353   1.292  0.00  0.00    -0.001 A 
ATOM      4  C3  UNL d   1       0.046  -2.263   1.015  0.00  0.00     0.003 A 
ATOM      5  C4  UNL d   1       1.187  -1.848   0.331  0.00  0.00    -0.005 A 
ATOM      6  C5  UNL d   1       1.309  -0.521  -0.075  0.00  0.00     0.003 A 
ATOM      7  C6  UNL d   1       0.289   0.391   0.201  0.00  0.00    -0.001 A 
ENDROOT
TORSDOF 0
ENDMDL
