MODEL 1
REMARK minimizedAffinity -5.52326822
REMARK minimizedRMSD -1
REMARK  0 active torsions:
REMARK  status: ('A' for Active; 'I' for Inactive)
ROOT
ATOM      1  C   UNL d   1      -2.195  -2.298   1.566  0.00  0.00     0.078 C 
ATOM      2  C1  UNL d   1      -1.023  -1.581   0.965  0.00  0.00    -0.077 A 
ATOM      3  C2  UNL d   1       0.205  -2.230   0.786  0.00  0.00    -0.001 A 
ATOM      4  C3  UNL d   1       1.291  -1.548   0.235  0.00  0.00     0.003 A 
ATOM      5  C4  UNL d   1       1.160  -0.212  -0.141  0.00  0.00    -0.005 A 
ATOM      6  C5  UNL d   1      -0.057   0.443   0.036  0.00  0.00     0.003 A 
ATOM      7  C6  UNL d   1      -1.144  -0.238   0.587  0.00  0.00    -0.001 A 
ENDROOT
TORSDOF 0
ENDMDL
