MODEL 1
REMARK minimizedAffinity -3.4132309
REMARK minimizedRMSD -1
REMARK  0 active torsions:
REMARK  status: ('A' for Active; 'I' for Inactive)
ROOT
ATOM      1  C   UNL d   1       1.393  -1.029   0.436  0.00  0.00     0.078 C 
ATOM      2  C1  UNL d   1       0.006  -0.466   0.525  0.00  0.00    -0.077 A 
ATOM      3  C2  UNL d   1      -0.211   0.852   0.945  0.00  0.00    -0.001 A 
ATOM      4  C3  UNL d   1      -1.508   1.361   1.033  0.00  0.00     0.003 A 
ATOM      5  C4  UNL d   1      -2.598   0.557   0.704  0.00  0.00    -0.005 A 
ATOM      6  C5  UNL d   1      -2.392  -0.756   0.288  0.00  0.00     0.003 A 
ATOM      7  C6  UNL d   1      -1.095  -1.266   0.199  0.00  0.00    -0.001 A 
ENDROOT
TORSDOF 0
ENDMDL
