MODEL 1
REMARK minimizedAffinity -4.3539691
REMARK minimizedRMSD -1
REMARK  0 active torsions:
REMARK  status: ('A' for Active; 'I' for Inactive)
ROOT
ATOM      1  C   UNL d   1       0.480   1.326  -0.944  0.00  0.00     0.078 C 
ATOM      2  C1  UNL d   1       0.134   0.125  -0.115  0.00  0.00    -0.077 A 
ATOM      3  C2  UNL d   1      -1.185  -0.118   0.286  0.00  0.00    -0.001 A 
ATOM      4  C3  UNL d   1      -1.490  -1.235   1.065  0.00  0.00     0.003 A 
ATOM      5  C4  UNL d   1      -0.482  -2.117   1.451  0.00  0.00    -0.005 A 
ATOM      6  C5  UNL d   1       0.833  -1.882   1.058  0.00  0.00     0.003 A 
ATOM      7  C6  UNL d   1       1.141  -0.765   0.279  0.00  0.00    -0.001 A 
ENDROOT
TORSDOF 0
ENDMDL
