MODEL 1
REMARK minimizedAffinity -3.13122821
REMARK minimizedRMSD -1
REMARK  0 active torsions:
REMARK  status: ('A' for Active; 'I' for Inactive)
ROOT
ATOM      1  C   UNL d   1      -1.137  -2.593   1.150  0.00  0.00     0.078 C 
ATOM      2  C1  UNL d   1      -0.562  -1.313   0.624  0.00  0.00    -0.077 A 
ATOM      3  C2  UNL d   1       0.759  -1.252   0.162  0.00  0.00    -0.001 A 
ATOM      4  C3  UNL d   1       1.285  -0.050  -0.316  0.00  0.00     0.003 A 
ATOM      5  C4  UNL d   1       0.498   1.099  -0.335  0.00  0.00    -0.005 A 
ATOM      6  C5  UNL d   1      -0.816   1.049   0.125  0.00  0.00     0.003 A 
ATOM      7  C6  UNL d   1      -1.344  -0.151   0.603  0.00  0.00    -0.001 A 
ENDROOT
TORSDOF 0
ENDMDL
