MODEL 1
REMARK minimizedAffinity -4.27110291
REMARK minimizedRMSD -1
REMARK  0 active torsions:
REMARK  status: ('A' for Active; 'I' for Inactive)
ROOT
ATOM      1  C   UNL d   1      -3.571  -2.391   2.718  0.00  0.00     0.078 C 
ATOM      2  C1  UNL d   1      -2.391  -1.906   1.930  0.00  0.00    -0.077 A 
ATOM      3  C2  UNL d   1      -1.090  -2.300   2.264  0.00  0.00    -0.001 A 
ATOM      4  C3  UNL d   1       0.000  -1.832   1.528  0.00  0.00     0.003 A 
ATOM      5  C4  UNL d   1      -0.200  -0.967   0.454  0.00  0.00    -0.005 A 
ATOM      6  C5  UNL d   1      -1.492  -0.568   0.115  0.00  0.00     0.003 A 
ATOM      7  C6  UNL d   1      -2.583  -1.034   0.850  0.00  0.00    -0.001 A 
ENDROOT
TORSDOF 0
ENDMDL
