MODEL 1
REMARK minimizedAffinity 0.755334675
REMARK minimizedRMSD -1
REMARK  0 active torsions:
REMARK  status: ('A' for Active; 'I' for Inactive)
ROOT
ATOM      1  C   UNL d   1      -4.816  -2.505  -5.976  0.00  0.00     0.078 C 
ATOM      2  C1  UNL d   1      -3.810  -3.617  -5.964  0.00  0.00    -0.077 A 
ATOM      3  C2  UNL d   1      -2.437  -3.347  -5.999  0.00  0.00    -0.001 A 
ATOM      4  C3  UNL d   1      -1.512  -4.393  -5.997  0.00  0.00     0.003 A 
ATOM      5  C4  UNL d   1      -1.950  -5.715  -5.961  0.00  0.00    -0.005 A 
ATOM      6  C5  UNL d   1      -3.315  -5.993  -5.928  0.00  0.00     0.003 A 
ATOM      7  C6  UNL d   1      -4.242  -4.949  -5.930  0.00  0.00    -0.001 A 
ENDROOT
TORSDOF 0
ENDMDL
