MODEL 1
REMARK minimizedAffinity -2.79861712
REMARK minimizedRMSD -1
REMARK  1 active torsions:
REMARK  status: ('A' for Active; 'I' for Inactive)
REMARK    1  A    between atoms: C1_2  and  C2_3 
ROOT
ATOM      1  C2  UNL d   1       0.345   0.590  -1.486  0.00  0.00    -0.073 A 
ATOM      2  C3  UNL d   1       1.242  -0.467  -1.290  0.00  0.00    -0.002 A 
ATOM      3  C4  UNL d   1       1.402  -1.030  -0.023  0.00  0.00     0.004 A 
ATOM      4  C5  UNL d   1       0.663  -0.548   1.057  0.00  0.00    -0.004 A 
ATOM      5  C6  UNL d   1      -0.247   0.499   0.879  0.00  0.00    -0.075 A 
ATOM      6  C7  UNL d   1      -1.048   1.030   2.032  0.00  0.00     0.076 C 
ATOM      7  C8  UNL d   1      -0.400   1.061  -0.396  0.00  0.00     0.001 A 
ENDROOT
BRANCH   1   8
ATOM      8  C1  UNL d   1       0.165   1.197  -2.853  0.00  0.00     0.053 C 
ATOM      9  C   UNL d   1       1.232   0.729  -3.830  0.00  0.00     0.018 C 
ENDBRANCH   1   8
TORSDOF 1
ENDMDL
