MODEL 1
REMARK minimizedAffinity -1.33545589
REMARK minimizedRMSD -1
REMARK  1 active torsions:
REMARK  status: ('A' for Active; 'I' for Inactive)
REMARK    1  A    between atoms: C1_2  and  C2_3 
ROOT
ATOM      1  C2  UNL d   1       0.695  -0.089  -1.642  0.00  0.00    -0.073 A 
ATOM      2  C3  UNL d   1       1.904   0.562  -1.912  0.00  0.00    -0.002 A 
ATOM      3  C4  UNL d   1       2.252   0.888  -3.223  0.00  0.00     0.004 A 
ATOM      4  C5  UNL d   1       1.393   0.574  -4.276  0.00  0.00    -0.004 A 
ATOM      5  C6  UNL d   1       0.175  -0.066  -4.026  0.00  0.00    -0.075 A 
ATOM      6  C7  UNL d   1      -0.759  -0.413  -5.148  0.00  0.00     0.076 C 
ATOM      7  C8  UNL d   1      -0.166  -0.393  -2.707  0.00  0.00     0.001 A 
ENDROOT
BRANCH   1   8
ATOM      8  C1  UNL d   1       0.312  -0.437  -0.227  0.00  0.00     0.053 C 
ATOM      9  C   UNL d   1      -1.140  -0.096   0.071  0.00  0.00     0.018 C 
ENDBRANCH   1   8
TORSDOF 1
ENDMDL
