MODEL 1
REMARK minimizedAffinity 2.14049721
REMARK minimizedRMSD -1
REMARK  1 active torsions:
REMARK  status: ('A' for Active; 'I' for Inactive)
REMARK    1  A    between atoms: C1_2  and  C2_3 
ROOT
ATOM      1  C2  UNL d   1      -1.035   0.015   1.710  0.00  0.00    -0.073 A 
ATOM      2  C3  UNL d   1      -1.463   1.209   2.301  0.00  0.00    -0.002 A 
ATOM      3  C4  UNL d   1      -2.486   1.958   1.716  0.00  0.00     0.004 A 
ATOM      4  C5  UNL d   1      -3.094   1.518   0.540  0.00  0.00    -0.004 A 
ATOM      5  C6  UNL d   1      -2.687   0.321  -0.059  0.00  0.00    -0.075 A 
ATOM      6  C7  UNL d   1      -3.330  -0.165  -1.325  0.00  0.00     0.076 C 
ATOM      7  C8  UNL d   1      -1.658  -0.424   0.533  0.00  0.00     0.001 A 
ENDROOT
BRANCH   1   8
ATOM      8  C1  UNL d   1       0.065  -0.800   2.341  0.00  0.00     0.053 C 
ATOM      9  C   UNL d   1       1.405  -0.572   1.661  0.00  0.00     0.018 C 
ENDBRANCH   1   8
TORSDOF 1
ENDMDL
