MODEL 1
REMARK minimizedAffinity -3.25424814
REMARK minimizedRMSD -1
REMARK  0 active torsions:
REMARK  status: ('A' for Active; 'I' for Inactive)
ROOT
ATOM      1  C   UNL d   1       0.021  -0.149  -1.436  0.00  0.00     0.172 C 
ATOM      2  N   UNL d   1       0.076   0.001  -0.000  0.00  0.00    -0.070 N 
ATOM      3  C1  UNL d   1      -0.969   0.371   0.804  0.00  0.00    -0.004 A 
ATOM      4  C2  UNL d   1      -0.512   0.398   2.104  0.00  0.00    -0.047 A 
ATOM      5  C3  UNL d   1       0.855   0.033   2.080  0.00  0.00    -0.047 A 
ATOM      6  C4  UNL d   1       1.193  -0.207   0.765  0.00  0.00    -0.004 A 
ENDROOT
TORSDOF 0
ENDMDL
