MODEL 1
REMARK minimizedAffinity -3.34844947
REMARK minimizedRMSD -1
REMARK  0 active torsions:
REMARK  status: ('A' for Active; 'I' for Inactive)
ROOT
ATOM      1  C   UNL d   1      -0.576   0.358  -1.335  0.00  0.00     0.172 C 
ATOM      2  N   UNL d   1      -0.209  -0.022   0.008  0.00  0.00    -0.070 N 
ATOM      3  C1  UNL d   1      -1.063  -0.114   1.074  0.00  0.00    -0.004 A 
ATOM      4  C2  UNL d   1      -0.328  -0.505   2.173  0.00  0.00    -0.047 A 
ATOM      5  C3  UNL d   1       1.015  -0.653   1.752  0.00  0.00    -0.047 A 
ATOM      6  C4  UNL d   1       1.061  -0.348   0.408  0.00  0.00    -0.004 A 
ENDROOT
TORSDOF 0
ENDMDL
