MODEL 1
REMARK minimizedAffinity -3.37114334
REMARK minimizedRMSD -1
REMARK  0 active torsions:
REMARK  status: ('A' for Active; 'I' for Inactive)
ROOT
ATOM      1  C   UNL d   1      -0.849  -0.655  -1.256  0.00  0.00     0.172 C 
ATOM      2  N   UNL d   1      -0.087  -0.343  -0.069  0.00  0.00    -0.070 N 
ATOM      3  C1  UNL d   1       0.361  -1.251   0.853  0.00  0.00    -0.004 A 
ATOM      4  C2  UNL d   1       1.043  -0.558   1.830  0.00  0.00    -0.047 A 
ATOM      5  C3  UNL d   1       1.003   0.813   1.483  0.00  0.00    -0.047 A 
ATOM      6  C4  UNL d   1       0.297   0.918   0.303  0.00  0.00    -0.004 A 
ENDROOT
TORSDOF 0
ENDMDL
