MODEL 1
REMARK minimizedAffinity -3.36843204
REMARK minimizedRMSD -1
REMARK  0 active torsions:
REMARK  status: ('A' for Active; 'I' for Inactive)
ROOT
ATOM      1  C   UNL d   1       1.158  -0.760   2.917  0.00  0.00     0.172 C 
ATOM      2  N   UNL d   1       0.512  -0.417   1.672  0.00  0.00    -0.070 N 
ATOM      3  C1  UNL d   1      -0.808  -0.084   1.523  0.00  0.00    -0.004 A 
ATOM      4  C2  UNL d   1      -1.030   0.173   0.187  0.00  0.00    -0.047 A 
ATOM      5  C3  UNL d   1       0.199  -0.012  -0.490  0.00  0.00    -0.047 A 
ATOM      6  C4  UNL d   1       1.136  -0.378   0.453  0.00  0.00    -0.004 A 
ENDROOT
TORSDOF 0
ENDMDL
