MODEL 1
REMARK minimizedAffinity -3.13537645
REMARK minimizedRMSD -1
REMARK  0 active torsions:
REMARK  status: ('A' for Active; 'I' for Inactive)
ROOT
ATOM      1  C   UNL d   1       1.225  -0.304   2.868  0.00  0.00     0.172 C 
ATOM      2  N   UNL d   1       0.557  -0.315   1.588  0.00  0.00    -0.070 N 
ATOM      3  C1  UNL d   1       1.163  -0.488   0.372  0.00  0.00    -0.004 A 
ATOM      4  C2  UNL d   1       0.186  -0.435  -0.598  0.00  0.00    -0.047 A 
ATOM      5  C3  UNL d   1      -1.050  -0.221   0.057  0.00  0.00    -0.047 A 
ATOM      6  C4  UNL d   1      -0.791  -0.151   1.409  0.00  0.00    -0.004 A 
ENDROOT
TORSDOF 0
ENDMDL
