MODEL 1
REMARK minimizedAffinity -3.1974895
REMARK minimizedRMSD -1
REMARK  0 active torsions:
REMARK  status: ('A' for Active; 'I' for Inactive)
ROOT
ATOM      1  C   UNL d   1       2.164  -1.520  -0.002  0.00  0.00     0.172 C 
ATOM      2  N   UNL d   1       0.889  -0.847  -0.069  0.00  0.00    -0.070 N 
ATOM      3  C1  UNL d   1       0.157  -0.414   1.005  0.00  0.00    -0.004 A 
ATOM      4  C2  UNL d   1      -0.992   0.175   0.523  0.00  0.00    -0.047 A 
ATOM      5  C3  UNL d   1      -0.950   0.092  -0.890  0.00  0.00    -0.047 A 
ATOM      6  C4  UNL d   1       0.225  -0.545  -1.229  0.00  0.00    -0.004 A 
ENDROOT
TORSDOF 0
ENDMDL
