MODEL 1
REMARK minimizedAffinity -3.16348004
REMARK minimizedRMSD -1
REMARK  0 active torsions:
REMARK  status: ('A' for Active; 'I' for Inactive)
ROOT
ATOM      1  C   UNL d   1       1.554  -1.324  -1.245  0.00  0.00     0.172 C 
ATOM      2  N   UNL d   1       0.678  -0.999  -0.144  0.00  0.00    -0.070 N 
ATOM      3  C1  UNL d   1       1.015  -1.036   1.183  0.00  0.00    -0.004 A 
ATOM      4  C2  UNL d   1      -0.092  -0.658   1.911  0.00  0.00    -0.047 A 
ATOM      5  C3  UNL d   1      -1.132  -0.386   0.990  0.00  0.00    -0.047 A 
ATOM      6  C4  UNL d   1      -0.628  -0.605  -0.275  0.00  0.00    -0.004 A 
ENDROOT
TORSDOF 0
ENDMDL
