MODEL 1
REMARK minimizedAffinity -4.00022411
REMARK minimizedRMSD -1
REMARK  0 active torsions:
REMARK  status: ('A' for Active; 'I' for Inactive)
ROOT
ATOM      1  C   UNL d   1      -0.470  -0.087   0.372  0.00  0.00     0.172 C 
ATOM      2  N   UNL d   1       0.598  -0.807   1.025  0.00  0.00    -0.070 N 
ATOM      3  C1  UNL d   1       0.683  -1.064   2.368  0.00  0.00    -0.004 A 
ATOM      4  C2  UNL d   1       1.844  -1.772   2.589  0.00  0.00    -0.047 A 
ATOM      5  C3  UNL d   1       2.479  -1.947   1.337  0.00  0.00    -0.047 A 
ATOM      6  C4  UNL d   1       1.686  -1.339   0.386  0.00  0.00    -0.004 A 
ENDROOT
TORSDOF 0
ENDMDL
