MODEL 1
REMARK minimizedAffinity -3.58041644
REMARK minimizedRMSD -1
REMARK  0 active torsions:
REMARK  status: ('A' for Active; 'I' for Inactive)
ROOT
ATOM      1  C   UNL d   1      -0.332   0.421  -1.125  0.00  0.00     0.172 C 
ATOM      2  N   UNL d   1      -0.089  -0.047   0.219  0.00  0.00    -0.070 N 
ATOM      3  C1  UNL d   1       1.103  -0.527   0.694  0.00  0.00    -0.004 A 
ATOM      4  C2  UNL d   1       0.923  -0.869   2.017  0.00  0.00    -0.047 A 
ATOM      5  C3  UNL d   1      -0.423  -0.586   2.348  0.00  0.00    -0.047 A 
ATOM      6  C4  UNL d   1      -1.027  -0.078   1.217  0.00  0.00    -0.004 A 
ENDROOT
TORSDOF 0
ENDMDL
