MODEL 1
REMARK minimizedAffinity 5.68041611
REMARK minimizedRMSD -1
REMARK  1 active torsions:
REMARK  status: ('A' for Active; 'I' for Inactive)
REMARK    1  A    between atoms: N_2  and  C1_3 
ROOT
ATOM      1  C1  UNL d   1      -5.605   4.642   2.255  0.00  0.00     0.143 A 
ATOM      2  C2  UNL d   1      -4.803   3.713   2.927  0.00  0.00    -0.057 A 
ATOM      3  C3  UNL d   1      -4.434   3.904   4.263  0.00  0.00     0.033 A 
ATOM      4  C4  UNL d   1      -4.837   5.047   4.946  0.00  0.00    -0.042 A 
ATOM      5  C5  UNL d   1      -5.614   5.997   4.290  0.00  0.00     0.033 A 
ATOM      6  C6  UNL d   1      -5.985   5.796   2.957  0.00  0.00    -0.057 A 
ENDROOT
BRANCH   1   7
ATOM      7  N   UNL d   1      -5.924   4.556   0.897  0.00  0.00    -0.732 N 
ATOM      8  C   UNL d   1      -5.962   5.745   0.073  0.00  0.00     0.284 C 
ATOM      9  H3  UNL d   1      -5.493   3.752   0.447  0.00  0.00     0.395 HD
ENDBRANCH   1   7
TORSDOF 1
ENDMDL
