MODEL 1
REMARK minimizedAffinity -2.21232843
REMARK minimizedRMSD -1
REMARK  1 active torsions:
REMARK  status: ('A' for Active; 'I' for Inactive)
REMARK    1  A    between atoms: N_2  and  C1_3 
ROOT
ATOM      1  C1  UNL d   1      -1.152  -2.469   0.003  0.00  0.00     0.143 A 
ATOM      2  C2  UNL d   1      -0.779  -3.795  -0.242  0.00  0.00    -0.057 A 
ATOM      3  C3  UNL d   1      -1.184  -4.460  -1.406  0.00  0.00     0.033 A 
ATOM      4  C4  UNL d   1      -1.996  -3.817  -2.334  0.00  0.00    -0.042 A 
ATOM      5  C5  UNL d   1      -2.400  -2.508  -2.100  0.00  0.00     0.033 A 
ATOM      6  C6  UNL d   1      -1.986  -1.847  -0.939  0.00  0.00    -0.057 A 
ENDROOT
BRANCH   1   7
ATOM      7  N   UNL d   1      -0.863  -1.786   1.186  0.00  0.00    -0.732 N 
ATOM      8  C   UNL d   1      -0.014  -0.614   1.173  0.00  0.00     0.284 C 
ATOM      9  H3  UNL d   1      -1.674  -1.705   1.796  0.00  0.00     0.395 HD
ENDBRANCH   1   7
TORSDOF 1
ENDMDL
