MODEL 1
REMARK minimizedAffinity 5.46505976
REMARK minimizedRMSD -1
REMARK  1 active torsions:
REMARK  status: ('A' for Active; 'I' for Inactive)
REMARK    1  A    between atoms: N_2  and  C1_3 
ROOT
ATOM      1  C1  UNL d   1      -4.487  -4.860  -4.687  0.00  0.00     0.143 A 
ATOM      2  C2  UNL d   1      -4.135  -5.891  -3.809  0.00  0.00    -0.057 A 
ATOM      3  C3  UNL d   1      -4.716  -5.995  -2.540  0.00  0.00     0.033 A 
ATOM      4  C4  UNL d   1      -5.643  -5.049  -2.113  0.00  0.00    -0.042 A 
ATOM      5  C5  UNL d   1      -5.989  -4.001  -2.959  0.00  0.00     0.033 A 
ATOM      6  C6  UNL d   1      -5.410  -3.907  -4.228  0.00  0.00    -0.057 A 
ENDROOT
BRANCH   1   7
ATOM      7  N   UNL d   1      -3.872  -4.647  -5.923  0.00  0.00    -0.732 N 
ATOM      8  C   UNL d   1      -2.467  -4.311  -5.999  0.00  0.00     0.284 C 
ATOM      9  H3  UNL d   1      -4.180  -5.311  -6.629  0.00  0.00     0.395 HD
ENDBRANCH   1   7
TORSDOF 1
ENDMDL
