MODEL 1
REMARK minimizedAffinity 6.77125454
REMARK minimizedRMSD -1
REMARK  1 active torsions:
REMARK  status: ('A' for Active; 'I' for Inactive)
REMARK    1  A    between atoms: N_2  and  C1_3 
ROOT
ATOM      1  C1  UNL d   1       5.902   0.419   1.008  0.00  0.00     0.143 A 
ATOM      2  C2  UNL d   1       5.789   0.269  -0.378  0.00  0.00    -0.057 A 
ATOM      3  C3  UNL d   1       5.807   1.377  -1.233  0.00  0.00     0.033 A 
ATOM      4  C4  UNL d   1       5.910   2.663  -0.712  0.00  0.00    -0.042 A 
ATOM      5  C5  UNL d   1       5.998   2.838   0.665  0.00  0.00     0.033 A 
ATOM      6  C6  UNL d   1       5.987   1.727   1.513  0.00  0.00    -0.057 A 
ENDROOT
BRANCH   1   7
ATOM      7  N   UNL d   1       5.792  -0.636   1.917  0.00  0.00    -0.732 N 
ATOM      8  C   UNL d   1       4.534  -0.911   2.578  0.00  0.00     0.284 C 
ATOM      9  H3  UNL d   1       6.290  -1.468   1.608  0.00  0.00     0.395 HD
ENDBRANCH   1   7
TORSDOF 1
ENDMDL
