MODEL 1
REMARK minimizedAffinity 1.257056
REMARK minimizedRMSD -1
REMARK  1 active torsions:
REMARK  status: ('A' for Active; 'I' for Inactive)
REMARK    1  A    between atoms: N_2  and  C1_3 
ROOT
ATOM      1  C1  UNL d   1      -3.886  -4.852  -4.504  0.00  0.00     0.143 A 
ATOM      2  C2  UNL d   1      -3.211  -5.609  -3.540  0.00  0.00    -0.057 A 
ATOM      3  C3  UNL d   1      -3.837  -5.992  -2.348  0.00  0.00     0.033 A 
ATOM      4  C4  UNL d   1      -5.145  -5.599  -2.085  0.00  0.00    -0.042 A 
ATOM      5  C5  UNL d   1      -5.827  -4.825  -3.017  0.00  0.00     0.033 A 
ATOM      6  C6  UNL d   1      -5.199  -4.451  -4.209  0.00  0.00    -0.057 A 
ENDROOT
BRANCH   1   7
ATOM      7  N   UNL d   1      -3.287  -4.357  -5.665  0.00  0.00    -0.732 N 
ATOM      8  C   UNL d   1      -1.899  -4.646  -5.959  0.00  0.00     0.284 C 
ATOM      9  H3  UNL d   1      -3.903  -4.409  -6.473  0.00  0.00     0.395 HD
ENDBRANCH   1   7
TORSDOF 1
ENDMDL
