MODEL 1
REMARK minimizedAffinity 2.3823452
REMARK minimizedRMSD -1
REMARK  1 active torsions:
REMARK  status: ('A' for Active; 'I' for Inactive)
REMARK    1  A    between atoms: N_2  and  C1_3 
ROOT
ATOM      1  C1  UNL d   1       3.560  -0.133   0.660  0.00  0.00     0.143 A 
ATOM      2  C2  UNL d   1       3.653   1.164   0.142  0.00  0.00    -0.057 A 
ATOM      3  C3  UNL d   1       4.863   1.867   0.158  0.00  0.00     0.033 A 
ATOM      4  C4  UNL d   1       6.000   1.295   0.721  0.00  0.00    -0.042 A 
ATOM      5  C5  UNL d   1       5.925   0.018   1.264  0.00  0.00     0.033 A 
ATOM      6  C6  UNL d   1       4.715  -0.682   1.239  0.00  0.00    -0.057 A 
ENDROOT
BRANCH   1   7
ATOM      7  N   UNL d   1       2.363  -0.846   0.762  0.00  0.00    -0.732 N 
ATOM      8  C   UNL d   1       1.140  -0.180   1.157  0.00  0.00     0.284 C 
ATOM      9  H3  UNL d   1       2.246  -1.518   0.007  0.00  0.00     0.395 HD
ENDBRANCH   1   7
TORSDOF 1
ENDMDL
