MODEL 1
REMARK minimizedAffinity 2.30059338
REMARK minimizedRMSD -1
REMARK  1 active torsions:
REMARK  status: ('A' for Active; 'I' for Inactive)
REMARK    1  A    between atoms: N_2  and  C1_3 
ROOT
ATOM      1  C1  UNL d   1       3.508   1.232   0.747  0.00  0.00     0.143 A 
ATOM      2  C2  UNL d   1       4.127   0.080   1.244  0.00  0.00    -0.057 A 
ATOM      3  C3  UNL d   1       5.285  -0.436   0.650  0.00  0.00     0.033 A 
ATOM      4  C4  UNL d   1       5.830   0.178  -0.473  0.00  0.00    -0.042 A 
ATOM      5  C5  UNL d   1       5.218   1.310  -0.999  0.00  0.00     0.033 A 
ATOM      6  C6  UNL d   1       4.065   1.824  -0.397  0.00  0.00    -0.057 A 
ENDROOT
BRANCH   1   7
ATOM      7  N   UNL d   1       2.299   1.737   1.233  0.00  0.00    -0.732 N 
ATOM      8  C   UNL d   1       1.215   0.845   1.582  0.00  0.00     0.284 C 
ATOM      9  H3  UNL d   1       2.434   2.504   1.888  0.00  0.00     0.395 HD
ENDBRANCH   1   7
TORSDOF 1
ENDMDL
