MODEL 1
REMARK minimizedAffinity -0.766986728
REMARK minimizedRMSD -1
REMARK  1 active torsions:
REMARK  status: ('A' for Active; 'I' for Inactive)
REMARK    1  A    between atoms: N_2  and  C1_3 
ROOT
ATOM      1  C1  UNL d   1      -4.284  -4.999  -4.480  0.00  0.00     0.143 A 
ATOM      2  C2  UNL d   1      -5.480  -4.383  -4.096  0.00  0.00    -0.057 A 
ATOM      3  C3  UNL d   1      -6.000  -4.547  -2.807  0.00  0.00     0.033 A 
ATOM      4  C4  UNL d   1      -5.346  -5.357  -1.884  0.00  0.00    -0.042 A 
ATOM      5  C5  UNL d   1      -4.169  -5.999  -2.252  0.00  0.00     0.033 A 
ATOM      6  C6  UNL d   1      -3.651  -5.826  -3.539  0.00  0.00    -0.057 A 
ENDROOT
BRANCH   1   7
ATOM      7  N   UNL d   1      -3.767  -4.955  -5.777  0.00  0.00    -0.732 N 
ATOM      8  C   UNL d   1      -2.342  -4.841  -6.000  0.00  0.00     0.284 C 
ATOM      9  H3  UNL d   1      -4.235  -5.605  -6.405  0.00  0.00     0.395 HD
ENDBRANCH   1   7
TORSDOF 1
ENDMDL
