MODEL 1
REMARK minimizedAffinity -2.41014266
REMARK minimizedRMSD -1
REMARK  1 active torsions:
REMARK  status: ('A' for Active; 'I' for Inactive)
REMARK    1  A    between atoms: N_2  and  C1_3 
ROOT
ATOM      1  C1  UNL d   1      -3.840  -4.976  -4.867  0.00  0.00     0.143 A 
ATOM      2  C2  UNL d   1      -5.236  -4.883  -4.875  0.00  0.00    -0.057 A 
ATOM      3  C3  UNL d   1      -5.995  -5.265  -3.762  0.00  0.00     0.033 A 
ATOM      4  C4  UNL d   1      -5.371  -5.776  -2.629  0.00  0.00    -0.042 A 
ATOM      5  C5  UNL d   1      -3.986  -5.900  -2.608  0.00  0.00     0.033 A 
ATOM      6  C6  UNL d   1      -3.233  -5.511  -3.720  0.00  0.00    -0.057 A 
ENDROOT
BRANCH   1   7
ATOM      7  N   UNL d   1      -3.037  -4.706  -5.978  0.00  0.00    -0.732 N 
ATOM      8  C   UNL d   1      -2.178  -3.541  -6.000  0.00  0.00     0.284 C 
ATOM      9  H3  UNL d   1      -2.608  -5.545  -6.361  0.00  0.00     0.395 HD
ENDBRANCH   1   7
TORSDOF 1
ENDMDL
