MODEL 1
REMARK minimizedAffinity -3.57387543
REMARK minimizedRMSD -1
REMARK  1 active torsions:
REMARK  status: ('A' for Active; 'I' for Inactive)
REMARK    1  A    between atoms: N_2  and  C1_3 
ROOT
ATOM      1  C1  UNL d   1       5.573   5.191   3.706  0.00  0.00     0.143 A 
ATOM      2  C2  UNL d   1       5.999   3.864   3.580  0.00  0.00    -0.057 A 
ATOM      3  C3  UNL d   1       5.631   3.085   2.476  0.00  0.00     0.033 A 
ATOM      4  C4  UNL d   1       4.804   3.612   1.490  0.00  0.00    -0.042 A 
ATOM      5  C5  UNL d   1       4.348   4.921   1.607  0.00  0.00     0.033 A 
ATOM      6  C6  UNL d   1       4.724   5.696   2.709  0.00  0.00    -0.057 A 
ENDROOT
BRANCH   1   7
ATOM      7  N   UNL d   1       5.823   5.985   4.828  0.00  0.00    -0.732 N 
ATOM      8  C   UNL d   1       4.902   5.996   5.944  0.00  0.00     0.284 C 
ATOM      9  H3  UNL d   1       6.804   5.977   5.099  0.00  0.00     0.395 HD
ENDBRANCH   1   7
TORSDOF 1
ENDMDL
