MODEL 1
REMARK minimizedAffinity 9.36622143
REMARK minimizedRMSD -1
REMARK  1 active torsions:
REMARK  status: ('A' for Active; 'I' for Inactive)
REMARK    1  A    between atoms: N_2  and  C1_3 
ROOT
ATOM      1  C1  UNL d   1      -1.120  -3.502  -0.304  0.00  0.00     0.143 A 
ATOM      2  C2  UNL d   1      -0.769  -4.055  -1.540  0.00  0.00    -0.057 A 
ATOM      3  C3  UNL d   1      -1.670  -4.070  -2.612  0.00  0.00     0.033 A 
ATOM      4  C4  UNL d   1      -2.953  -3.557  -2.456  0.00  0.00    -0.042 A 
ATOM      5  C5  UNL d   1      -3.333  -3.024  -1.229  0.00  0.00     0.033 A 
ATOM      6  C6  UNL d   1      -2.426  -3.006  -0.165  0.00  0.00    -0.057 A 
ENDROOT
BRANCH   1   7
ATOM      7  N   UNL d   1      -0.303  -3.545   0.828  0.00  0.00    -0.732 N 
ATOM      8  C   UNL d   1      -0.876  -3.458   2.154  0.00  0.00     0.284 C 
ATOM      9  H3  UNL d   1       0.443  -4.231   0.742  0.00  0.00     0.395 HD
ENDBRANCH   1   7
TORSDOF 1
ENDMDL
