MODEL 1
REMARK minimizedAffinity 12.5303135
REMARK minimizedRMSD -1
REMARK  1 active torsions:
REMARK  status: ('A' for Active; 'I' for Inactive)
REMARK    1  A    between atoms: N_2  and  C1_3 
ROOT
ATOM      1  C1  UNL d   1      -0.723   2.148   2.253  0.00  0.00     0.143 A 
ATOM      2  C2  UNL d   1      -0.173   0.996   2.826  0.00  0.00    -0.057 A 
ATOM      3  C3  UNL d   1       1.109   0.554   2.477  0.00  0.00     0.033 A 
ATOM      4  C4  UNL d   1       1.854   1.241   1.525  0.00  0.00    -0.042 A 
ATOM      5  C5  UNL d   1       1.317   2.374   0.924  0.00  0.00     0.033 A 
ATOM      6  C6  UNL d   1       0.039   2.815   1.281  0.00  0.00    -0.057 A 
ENDROOT
BRANCH   1   7
ATOM      7  N   UNL d   1      -2.030   2.584   2.485  0.00  0.00    -0.732 N 
ATOM      8  C   UNL d   1      -3.105   1.630   2.661  0.00  0.00     0.284 C 
ATOM      9  H3  UNL d   1      -2.068   3.375   3.122  0.00  0.00     0.395 HD
ENDBRANCH   1   7
TORSDOF 1
ENDMDL
