MODEL 1
REMARK minimizedAffinity 5.19750357
REMARK minimizedRMSD -1
REMARK  0 active torsions:
REMARK  status: ('A' for Active; 'I' for Inactive)
ROOT
ATOM      1  C   UNL d   1      -2.612   3.253  -0.562  0.00  0.00     0.172 C 
ATOM      2  N   UNL d   1      -3.662   3.252   0.430  0.00  0.00    -0.070 N 
ATOM      3  C1  UNL d   1      -4.960   3.633   0.218  0.00  0.00    -0.004 A 
ATOM      4  C2  UNL d   1      -5.642   3.488   1.406  0.00  0.00    -0.047 A 
ATOM      5  C3  UNL d   1      -4.722   3.004   2.366  0.00  0.00    -0.047 A 
ATOM      6  C4  UNL d   1      -3.504   2.867   1.735  0.00  0.00    -0.004 A 
ENDROOT
TORSDOF 0
ENDMDL
