MODEL 1
REMARK minimizedAffinity 0.0347703248
REMARK minimizedRMSD -1
REMARK  0 active torsions:
REMARK  status: ('A' for Active; 'I' for Inactive)
ROOT
ATOM      1  C   UNL d   1       5.011   2.395  -6.000  0.00  0.00     0.172 C 
ATOM      2  N   UNL d   1       4.923   0.954  -5.993  0.00  0.00    -0.070 N 
ATOM      3  C1  UNL d   1       3.764   0.225  -5.995  0.00  0.00    -0.004 A 
ATOM      4  C2  UNL d   1       4.105  -1.110  -5.988  0.00  0.00    -0.047 A 
ATOM      5  C3  UNL d   1       5.518  -1.187  -5.981  0.00  0.00    -0.047 A 
ATOM      6  C4  UNL d   1       5.999   0.106  -5.984  0.00  0.00    -0.004 A 
ENDROOT
TORSDOF 0
ENDMDL
