MODEL 1
REMARK minimizedAffinity 0.987223804
REMARK minimizedRMSD -1
REMARK  0 active torsions:
REMARK  status: ('A' for Active; 'I' for Inactive)
ROOT
ATOM      1  C   UNL d   1       5.595  -2.506  -5.993  0.00  0.00     0.172 C 
ATOM      2  N   UNL d   1       5.287  -1.206  -5.443  0.00  0.00    -0.070 N 
ATOM      3  C1  UNL d   1       5.627  -0.003  -6.000  0.00  0.00    -0.004 A 
ATOM      4  C2  UNL d   1       5.153   0.994  -5.175  0.00  0.00    -0.047 A 
ATOM      5  C3  UNL d   1       4.506   0.367  -4.083  0.00  0.00    -0.047 A 
ATOM      6  C4  UNL d   1       4.603  -0.995  -4.275  0.00  0.00    -0.004 A 
ENDROOT
TORSDOF 0
ENDMDL
