MODEL 1
REMARK minimizedAffinity 4.46531105
REMARK minimizedRMSD -1
REMARK  0 active torsions:
REMARK  status: ('A' for Active; 'I' for Inactive)
ROOT
ATOM      1  C   UNL d   1       1.312  -2.603   5.287  0.00  0.00     0.172 C 
ATOM      2  N   UNL d   1       1.640  -2.002   4.016  0.00  0.00    -0.070 N 
ATOM      3  C1  UNL d   1       0.989  -0.943   3.442  0.00  0.00    -0.004 A 
ATOM      4  C2  UNL d   1       1.603  -0.672   2.238  0.00  0.00    -0.047 A 
ATOM      5  C3  UNL d   1       2.659  -1.601   2.083  0.00  0.00    -0.047 A 
ATOM      6  C4  UNL d   1       2.659  -2.413   3.198  0.00  0.00    -0.004 A 
ENDROOT
TORSDOF 0
ENDMDL
