MODEL 1
REMARK minimizedAffinity -0.801445842
REMARK minimizedRMSD -1
REMARK  0 active torsions:
REMARK  status: ('A' for Active; 'I' for Inactive)
ROOT
ATOM      1  C   UNL d   1       2.607  -1.484   4.020  0.00  0.00     0.172 C 
ATOM      2  N   UNL d   1       3.840  -1.943   4.615  0.00  0.00    -0.070 N 
ATOM      3  C1  UNL d   1       3.959  -2.970   5.513  0.00  0.00    -0.004 A 
ATOM      4  C2  UNL d   1       5.293  -3.094   5.837  0.00  0.00    -0.047 A 
ATOM      5  C3  UNL d   1       5.999  -2.107   5.109  0.00  0.00    -0.047 A 
ATOM      6  C4  UNL d   1       5.075  -1.409   4.361  0.00  0.00    -0.004 A 
ENDROOT
TORSDOF 0
ENDMDL
