MODEL 1
REMARK minimizedAffinity 5.94560528
REMARK minimizedRMSD -1
REMARK  0 active torsions:
REMARK  status: ('A' for Active; 'I' for Inactive)
ROOT
ATOM      1  C   UNL d   1       1.922  -1.990  -1.144  0.00  0.00     0.172 C 
ATOM      2  N   UNL d   1       0.708  -1.545  -0.501  0.00  0.00    -0.070 N 
ATOM      3  C1  UNL d   1       0.638  -0.832   0.666  0.00  0.00    -0.004 A 
ATOM      4  C2  UNL d   1      -0.693  -0.605   0.943  0.00  0.00    -0.047 A 
ATOM      5  C3  UNL d   1      -1.449  -1.204  -0.092  0.00  0.00    -0.047 A 
ATOM      6  C4  UNL d   1      -0.557  -1.779  -0.972  0.00  0.00    -0.004 A 
ENDROOT
TORSDOF 0
ENDMDL
