MODEL 1
REMARK minimizedAffinity 1.48235297
REMARK minimizedRMSD -1
REMARK  0 active torsions:
REMARK  status: ('A' for Active; 'I' for Inactive)
ROOT
ATOM      1  C   UNL d   1       1.898  -1.958   3.054  0.00  0.00     0.172 C 
ATOM      2  N   UNL d   1       2.221  -0.556   3.175  0.00  0.00    -0.070 N 
ATOM      3  C1  UNL d   1       1.922   0.243   4.245  0.00  0.00    -0.004 A 
ATOM      4  C2  UNL d   1       2.397   1.508   3.974  0.00  0.00    -0.047 A 
ATOM      5  C3  UNL d   1       3.002   1.468   2.696  0.00  0.00    -0.047 A 
ATOM      6  C4  UNL d   1       2.879   0.178   2.223  0.00  0.00    -0.004 A 
ENDROOT
TORSDOF 0
ENDMDL
