MODEL 1
REMARK minimizedAffinity -1.06148982
REMARK minimizedRMSD -1
REMARK  0 active torsions:
REMARK  status: ('A' for Active; 'I' for Inactive)
ROOT
ATOM      1  C1  BNZ d   1      -4.156  -1.014  -5.235  0.00  0.00     0.000 A 
ATOM      2  C2  BNZ d   1      -5.276  -1.131  -4.456  0.00  0.00     0.000 A 
ATOM      3  C3  BNZ d   1      -5.987  -2.298  -4.424  0.00  0.00     0.000 A 
ATOM      4  C4  BNZ d   1      -5.602  -3.331  -5.201  0.00  0.00     0.000 A 
ATOM      5  C5  BNZ d   1      -4.480  -3.225  -5.999  0.00  0.00     0.000 A 
ATOM      6  C6  BNZ d   1      -3.744  -2.062  -5.999  0.00  0.00     0.000 A 
ENDROOT
TORSDOF 0
ENDMDL
