MODEL 1
REMARK minimizedAffinity 12.0267248
REMARK minimizedRMSD -1
REMARK  0 active torsions:
REMARK  status: ('A' for Active; 'I' for Inactive)
ROOT
ATOM      1  C1  BNZ d   1       3.663   3.396  -6.000  0.00  0.00     0.000 A 
ATOM      2  C2  BNZ d   1       4.726   3.731  -5.204  0.00  0.00     0.000 A 
ATOM      3  C3  BNZ d   1       4.674   4.831  -4.394  0.00  0.00     0.000 A 
ATOM      4  C4  BNZ d   1       3.578   5.616  -4.411  0.00  0.00     0.000 A 
ATOM      5  C5  BNZ d   1       2.502   5.297  -5.215  0.00  0.00     0.000 A 
ATOM      6  C6  BNZ d   1       2.542   4.167  -6.000  0.00  0.00     0.000 A 
ENDROOT
TORSDOF 0
ENDMDL
