MODEL 1
REMARK minimizedAffinity 1.83122981
REMARK minimizedRMSD -1
REMARK  0 active torsions:
REMARK  status: ('A' for Active; 'I' for Inactive)
ROOT
ATOM      1  C1  BNZ d   1      -5.636  -2.634  -1.803  0.00  0.00     0.000 A 
ATOM      2  C2  BNZ d   1      -5.834  -3.753  -2.567  0.00  0.00     0.000 A 
ATOM      3  C3  BNZ d   1      -5.996  -3.656  -3.921  0.00  0.00     0.000 A 
ATOM      4  C4  BNZ d   1      -6.000  -2.439  -4.503  0.00  0.00     0.000 A 
ATOM      5  C5  BNZ d   1      -5.811  -1.301  -3.745  0.00  0.00     0.000 A 
ATOM      6  C6  BNZ d   1      -5.609  -1.405  -2.388  0.00  0.00     0.000 A 
ENDROOT
TORSDOF 0
ENDMDL
