MODEL 1
REMARK minimizedAffinity 2.53523827
REMARK minimizedRMSD -1
REMARK  0 active torsions:
REMARK  status: ('A' for Active; 'I' for Inactive)
ROOT
ATOM      1  C1  BNZ d   1      -3.660  -2.031  -1.443  0.00  0.00     0.000 A 
ATOM      2  C2  BNZ d   1      -3.361  -0.759  -1.851  0.00  0.00     0.000 A 
ATOM      3  C3  BNZ d   1      -2.328  -0.067  -1.284  0.00  0.00     0.000 A 
ATOM      4  C4  BNZ d   1      -1.621  -0.631  -0.284  0.00  0.00     0.000 A 
ATOM      5  C5  BNZ d   1      -1.917  -1.910   0.145  0.00  0.00     0.000 A 
ATOM      6  C6  BNZ d   1      -2.932  -2.618  -0.454  0.00  0.00     0.000 A 
ENDROOT
TORSDOF 0
ENDMDL
