MODEL 1
REMARK minimizedAffinity 7.36791039
REMARK minimizedRMSD -1
REMARK  0 active torsions:
REMARK  status: ('A' for Active; 'I' for Inactive)
ROOT
ATOM      1  C1  BNZ d   1      -2.112  -0.631   2.666  0.00  0.00     0.000 A 
ATOM      2  C2  BNZ d   1      -2.746  -0.082   1.584  0.00  0.00     0.000 A 
ATOM      3  C3  BNZ d   1      -2.188   0.962   0.901  0.00  0.00     0.000 A 
ATOM      4  C4  BNZ d   1      -1.018   1.482   1.324  0.00  0.00     0.000 A 
ATOM      5  C5  BNZ d   1      -0.371   0.946   2.420  0.00  0.00     0.000 A 
ATOM      6  C6  BNZ d   1      -0.917  -0.130   3.081  0.00  0.00     0.000 A 
ENDROOT
TORSDOF 0
ENDMDL
