MODEL 1
REMARK minimizedAffinity 6.870965
REMARK minimizedRMSD -1
REMARK  0 active torsions:
REMARK  status: ('A' for Active; 'I' for Inactive)
ROOT
ATOM      1  C1  BNZ d   1      -4.539  -3.338  -0.134  0.00  0.00     0.000 A 
ATOM      2  C2  BNZ d   1      -4.542  -3.689   1.190  0.00  0.00     0.000 A 
ATOM      3  C3  BNZ d   1      -5.290  -2.991   2.097  0.00  0.00     0.000 A 
ATOM      4  C4  BNZ d   1      -6.000  -1.920   1.687  0.00  0.00     0.000 A 
ATOM      5  C5  BNZ d   1      -5.999  -1.548   0.357  0.00  0.00     0.000 A 
ATOM      6  C6  BNZ d   1      -5.276  -2.277  -0.560  0.00  0.00     0.000 A 
ENDROOT
TORSDOF 0
ENDMDL
