MODEL 1
REMARK minimizedAffinity -0.175389901
REMARK minimizedRMSD -1
REMARK  0 active torsions:
REMARK  status: ('A' for Active; 'I' for Inactive)
ROOT
ATOM      1  C1  BNZ d   1      -2.028   1.148   2.165  0.00  0.00     0.000 A 
ATOM      2  C2  BNZ d   1      -2.686   2.284   1.775  0.00  0.00     0.000 A 
ATOM      3  C3  BNZ d   1      -4.013   2.248   1.449  0.00  0.00     0.000 A 
ATOM      4  C4  BNZ d   1      -4.669   1.070   1.473  0.00  0.00     0.000 A 
ATOM      5  C5  BNZ d   1      -4.017  -0.086   1.855  0.00  0.00     0.000 A 
ATOM      6  C6  BNZ d   1      -2.692  -0.038   2.221  0.00  0.00     0.000 A 
ENDROOT
TORSDOF 0
ENDMDL
