MODEL 1
REMARK minimizedAffinity 8.47688007
REMARK minimizedRMSD -1
REMARK  0 active torsions:
REMARK  status: ('A' for Active; 'I' for Inactive)
ROOT
ATOM      1  C1  BNZ d   1      -1.870  -2.338  -5.668  0.00  0.00     0.000 A 
ATOM      2  C2  BNZ d   1      -2.995  -1.625  -5.985  0.00  0.00     0.000 A 
ATOM      3  C3  BNZ d   1      -2.977  -0.258  -6.000  0.00  0.00     0.000 A 
ATOM      4  C4  BNZ d   1      -1.846   0.394  -5.660  0.00  0.00     0.000 A 
ATOM      5  C5  BNZ d   1      -0.706  -0.311  -5.329  0.00  0.00     0.000 A 
ATOM      6  C6  BNZ d   1      -0.717  -1.687  -5.353  0.00  0.00     0.000 A 
ENDROOT
TORSDOF 0
ENDMDL
