MODEL 1
REMARK minimizedAffinity -3.25172544
REMARK minimizedRMSD -1
REMARK  0 active torsions:
REMARK  status: ('A' for Active; 'I' for Inactive)
ROOT
ATOM      1  C1  BNZ d   1      -3.363   1.189   2.099  0.00  0.00     0.000 A 
ATOM      2  C2  BNZ d   1      -2.196   1.343   1.400  0.00  0.00     0.000 A 
ATOM      3  C3  BNZ d   1      -1.923   0.564   0.311  0.00  0.00     0.000 A 
ATOM      4  C4  BNZ d   1      -2.799  -0.395  -0.053  0.00  0.00     0.000 A 
ATOM      5  C5  BNZ d   1      -3.976  -0.570   0.647  0.00  0.00     0.000 A 
ATOM      6  C6  BNZ d   1      -4.265   0.243   1.719  0.00  0.00     0.000 A 
ENDROOT
TORSDOF 0
ENDMDL
