MODEL 1
REMARK minimizedAffinity -1.1100837
REMARK minimizedRMSD -1
REMARK  0 active torsions:
REMARK  status: ('A' for Active; 'I' for Inactive)
ROOT
ATOM      1  C1  BNZ d   1      -2.444   0.500   3.032  0.00  0.00     0.000 A 
ATOM      2  C2  BNZ d   1      -1.153   0.289   2.626  0.00  0.00     0.000 A 
ATOM      3  C3  BNZ d   1      -0.786   0.494   1.326  0.00  0.00     0.000 A 
ATOM      4  C4  BNZ d   1      -1.716   0.870   0.425  0.00  0.00     0.000 A 
ATOM      5  C5  BNZ d   1      -3.024   1.078   0.816  0.00  0.00     0.000 A 
ATOM      6  C6  BNZ d   1      -3.382   0.908   2.134  0.00  0.00     0.000 A 
ENDROOT
TORSDOF 0
ENDMDL
