MODEL 1
REMARK minimizedAffinity 3.08926201
REMARK minimizedRMSD -1
REMARK  0 active torsions:
REMARK  status: ('A' for Active; 'I' for Inactive)
ROOT
ATOM      1  C1  BNZ d   1      -2.745  -0.472   3.257  0.00  0.00     0.000 A 
ATOM      2  C2  BNZ d   1      -1.597  -0.453   2.510  0.00  0.00     0.000 A 
ATOM      3  C3  BNZ d   1      -1.438   0.449   1.495  0.00  0.00     0.000 A 
ATOM      4  C4  BNZ d   1      -2.441   1.302   1.203  0.00  0.00     0.000 A 
ATOM      5  C5  BNZ d   1      -3.608   1.288   1.940  0.00  0.00     0.000 A 
ATOM      6  C6  BNZ d   1      -3.749   0.405   2.986  0.00  0.00     0.000 A 
ENDROOT
TORSDOF 0
ENDMDL
