MODEL 1
REMARK minimizedAffinity 0.224127412
REMARK minimizedRMSD -1
REMARK  0 active torsions:
REMARK  status: ('A' for Active; 'I' for Inactive)
ROOT
ATOM      1  C1  BNZ d   1       4.808   1.353   0.682  0.00  0.00     0.000 A 
ATOM      2  C2  BNZ d   1       5.942   0.834   1.246  0.00  0.00     0.000 A 
ATOM      3  C3  BNZ d   1       5.865  -0.100   2.241  0.00  0.00     0.000 A 
ATOM      4  C4  BNZ d   1       4.656  -0.483   2.699  0.00  0.00     0.000 A 
ATOM      5  C5  BNZ d   1       3.503   0.039   2.148  0.00  0.00     0.000 A 
ATOM      6  C6  BNZ d   1       3.584   0.949   1.119  0.00  0.00     0.000 A 
ENDROOT
TORSDOF 0
ENDMDL
