MODEL 1
REMARK minimizedAffinity 3.56675315
REMARK minimizedRMSD -1
REMARK  0 active torsions:
REMARK  status: ('A' for Active; 'I' for Inactive)
ROOT
ATOM      1  C1  BNZ d   1       1.098   0.186  -3.370  0.00  0.00     0.000 A 
ATOM      2  C2  BNZ d   1      -0.246   0.128  -3.626  0.00  0.00     0.000 A 
ATOM      3  C3  BNZ d   1      -1.101   1.048  -3.087  0.00  0.00     0.000 A 
ATOM      4  C4  BNZ d   1      -0.618   1.998  -2.260  0.00  0.00     0.000 A 
ATOM      5  C5  BNZ d   1       0.733   2.063  -1.984  0.00  0.00     0.000 A 
ATOM      6  C6  BNZ d   1       1.596   1.160  -2.560  0.00  0.00     0.000 A 
ENDROOT
TORSDOF 0
ENDMDL
