MODEL 1
REMARK minimizedAffinity 5.4553566
REMARK minimizedRMSD -1
REMARK  0 active torsions:
REMARK  status: ('A' for Active; 'I' for Inactive)
ROOT
ATOM      1  C1  BNZ d   1      -3.937   0.141   1.653  0.00  0.00     0.000 A 
ATOM      2  C2  BNZ d   1      -2.932   0.018   0.731  0.00  0.00     0.000 A 
ATOM      3  C3  BNZ d   1      -1.748   0.683   0.892  0.00  0.00     0.000 A 
ATOM      4  C4  BNZ d   1      -1.587   1.501   1.952  0.00  0.00     0.000 A 
ATOM      5  C5  BNZ d   1      -2.594   1.644   2.885  0.00  0.00     0.000 A 
ATOM      6  C6  BNZ d   1      -3.769   0.942   2.740  0.00  0.00     0.000 A 
ENDROOT
TORSDOF 0
ENDMDL
