MODEL 1
REMARK minimizedAffinity -0.064722538
REMARK minimizedRMSD -1
REMARK  0 active torsions:
REMARK  status: ('A' for Active; 'I' for Inactive)
ROOT
ATOM      1  C1  BNZ d   1       1.544  -0.976  -5.558  0.00  0.00     0.000 A 
ATOM      2  C2  BNZ d   1       1.954   0.308  -5.315  0.00  0.00     0.000 A 
ATOM      3  C3  BNZ d   1       2.929   0.568  -4.394  0.00  0.00     0.000 A 
ATOM      4  C4  BNZ d   1       3.464  -0.449  -3.689  0.00  0.00     0.000 A 
ATOM      5  C5  BNZ d   1       3.055  -1.748  -3.916  0.00  0.00     0.000 A 
ATOM      6  C6  BNZ d   1       2.101  -2.011  -4.872  0.00  0.00     0.000 A 
ENDROOT
TORSDOF 0
ENDMDL
