MODEL 1
REMARK minimizedAffinity -5.52379656
REMARK minimizedRMSD -1
REMARK  1 active torsions:
REMARK  status: ('A' for Active; 'I' for Inactive)
REMARK    1  A    between atoms: C1_2  and  C2_3 
ROOT
ATOM      1  C2  UNL d   1       1.320   0.392   1.290  0.00  0.00    -0.076 A 
ATOM      2  C3  UNL d   1       0.871   0.336   2.620  0.00  0.00     0.004 A 
ATOM      3  C4  UNL d   1      -0.477   0.140   2.915  0.00  0.00    -0.003 A 
ATOM      4  C5  UNL d   1      -1.398  -0.004   1.883  0.00  0.00     0.000 A 
ATOM      5  C6  UNL d   1      -0.968   0.031   0.558  0.00  0.00     0.000 A 
ATOM      6  C7  UNL d   1       0.390   0.211   0.243  0.00  0.00    -0.073 A 
ATOM      7  C8  UNL d   1       0.798   0.247  -1.204  0.00  0.00     0.078 C 
ENDROOT
BRANCH   1   8
ATOM      8  C1  UNL d   1       2.790   0.634   1.031  0.00  0.00     0.053 C 
ATOM      9  C   UNL d   1       3.631   0.519   2.293  0.00  0.00     0.018 C 
ENDBRANCH   1   8
TORSDOF 1
ENDMDL
