MODEL 1
REMARK minimizedAffinity -6.0112133
REMARK minimizedRMSD -1
REMARK  1 active torsions:
REMARK  status: ('A' for Active; 'I' for Inactive)
REMARK    1  A    between atoms: C1_2  and  C2_3 
ROOT
ATOM      1  C2  UNL d   1      -0.577   0.204   0.388  0.00  0.00    -0.076 A 
ATOM      2  C3  UNL d   1       0.724  -0.024   0.870  0.00  0.00     0.004 A 
ATOM      3  C4  UNL d   1       0.952  -0.297   2.217  0.00  0.00    -0.003 A 
ATOM      4  C5  UNL d   1      -0.117  -0.346   3.105  0.00  0.00     0.000 A 
ATOM      5  C6  UNL d   1      -1.416  -0.140   2.641  0.00  0.00     0.000 A 
ATOM      6  C7  UNL d   1      -1.665   0.120   1.283  0.00  0.00    -0.073 A 
ATOM      7  C8  UNL d   1      -3.085   0.342   0.839  0.00  0.00     0.078 C 
ENDROOT
BRANCH   1   8
ATOM      8  C1  UNL d   1      -0.760   0.522  -1.079  0.00  0.00     0.053 C 
ATOM      9  C   UNL d   1       0.269  -0.171  -1.959  0.00  0.00     0.018 C 
ENDBRANCH   1   8
TORSDOF 1
ENDMDL
