MODEL 1
REMARK minimizedAffinity -5.3502593
REMARK minimizedRMSD -1
REMARK  1 active torsions:
REMARK  status: ('A' for Active; 'I' for Inactive)
REMARK    1  A    between atoms: C1_2  and  C2_3 
ROOT
ATOM      1  C2  UNL d   1       0.993   0.311   1.705  0.00  0.00    -0.076 A 
ATOM      2  C3  UNL d   1       1.070   1.221   0.637  0.00  0.00     0.004 A 
ATOM      3  C4  UNL d   1       0.113   1.221  -0.376  0.00  0.00    -0.003 A 
ATOM      4  C5  UNL d   1      -0.938   0.311  -0.337  0.00  0.00     0.000 A 
ATOM      5  C6  UNL d   1      -1.040  -0.588   0.724  0.00  0.00     0.000 A 
ATOM      6  C7  UNL d   1      -0.092  -0.590   1.762  0.00  0.00    -0.073 A 
ATOM      7  C8  UNL d   1      -0.248  -1.585   2.880  0.00  0.00     0.078 C 
ENDROOT
BRANCH   1   8
ATOM      8  C1  UNL d   1       2.075   0.340   2.761  0.00  0.00     0.053 C 
ATOM      9  C   UNL d   1       3.428   0.743   2.197  0.00  0.00     0.018 C 
ENDBRANCH   1   8
TORSDOF 1
ENDMDL
