MODEL 1
REMARK minimizedAffinity -6.49601746
REMARK minimizedRMSD -1
REMARK  1 active torsions:
REMARK  status: ('A' for Active; 'I' for Inactive)
REMARK    1  A    between atoms: C1_2  and  C2_3 
ROOT
ATOM      1  C2  UNL d   1      -0.480  -0.252   1.390  0.00  0.00    -0.076 A 
ATOM      2  C3  UNL d   1      -1.381  -0.055   2.451  0.00  0.00     0.004 A 
ATOM      3  C4  UNL d   1      -2.692   0.354   2.212  0.00  0.00    -0.003 A 
ATOM      4  C5  UNL d   1      -3.123   0.572   0.909  0.00  0.00     0.000 A 
ATOM      5  C6  UNL d   1      -2.248   0.364  -0.157  0.00  0.00     0.000 A 
ATOM      6  C7  UNL d   1      -0.928  -0.064   0.065  0.00  0.00    -0.073 A 
ATOM      7  C8  UNL d   1      -0.026  -0.266  -1.121  0.00  0.00     0.078 C 
ENDROOT
BRANCH   1   8
ATOM      8  C1  UNL d   1       0.938  -0.669   1.711  0.00  0.00     0.053 C 
ATOM      9  C   UNL d   1       1.604   0.257   2.717  0.00  0.00     0.018 C 
ENDBRANCH   1   8
TORSDOF 1
ENDMDL
