MODEL 1
REMARK minimizedAffinity -0.744821906
REMARK minimizedRMSD -1
REMARK  1 active torsions:
REMARK  status: ('A' for Active; 'I' for Inactive)
REMARK    1  A    between atoms: C1_2  and  C2_3 
ROOT
ATOM      1  C2  UNL d   1      -0.154   0.338   1.988  0.00  0.00    -0.076 A 
ATOM      2  C3  UNL d   1      -0.148  -0.477   0.843  0.00  0.00     0.004 A 
ATOM      3  C4  UNL d   1       0.967  -0.532   0.007  0.00  0.00    -0.003 A 
ATOM      4  C5  UNL d   1       2.093   0.226   0.304  0.00  0.00     0.000 A 
ATOM      5  C6  UNL d   1       2.111   1.027   1.446  0.00  0.00     0.000 A 
ATOM      6  C7  UNL d   1       1.002   1.082   2.307  0.00  0.00    -0.073 A 
ATOM      7  C8  UNL d   1       1.073   1.968   3.521  0.00  0.00     0.078 C 
ENDROOT
BRANCH   1   8
ATOM      8  C1  UNL d   1      -1.402   0.379   2.841  0.00  0.00     0.053 C 
ATOM      9  C   UNL d   1      -2.668   0.549   2.015  0.00  0.00     0.018 C 
ENDBRANCH   1   8
TORSDOF 1
ENDMDL
