MODEL 1
REMARK minimizedAffinity -5.053895
REMARK minimizedRMSD -1
REMARK  1 active torsions:
REMARK  status: ('A' for Active; 'I' for Inactive)
REMARK    1  A    between atoms: C1_2  and  C2_3 
ROOT
ATOM      1  C2  UNL d   1      -0.358   0.719   0.413  0.00  0.00    -0.076 A 
ATOM      2  C3  UNL d   1      -0.442   0.932   1.800  0.00  0.00     0.004 A 
ATOM      3  C4  UNL d   1       0.669   0.751   2.622  0.00  0.00    -0.003 A 
ATOM      4  C5  UNL d   1       1.882   0.354   2.070  0.00  0.00     0.000 A 
ATOM      5  C6  UNL d   1       1.988   0.155   0.694  0.00  0.00     0.000 A 
ATOM      6  C7  UNL d   1       0.882   0.349  -0.151  0.00  0.00    -0.073 A 
ATOM      7  C8  UNL d   1       1.051   0.115  -1.627  0.00  0.00     0.078 C 
ENDROOT
BRANCH   1   8
ATOM      8  C1  UNL d   1      -1.603   0.904  -0.425  0.00  0.00     0.053 C 
ATOM      9  C   UNL d   1      -2.865   0.998   0.419  0.00  0.00     0.018 C 
ENDBRANCH   1   8
TORSDOF 1
ENDMDL
