MODEL 1
REMARK minimizedAffinity -5.77508354
REMARK minimizedRMSD -1
REMARK  1 active torsions:
REMARK  status: ('A' for Active; 'I' for Inactive)
REMARK    1  A    between atoms: C1_2  and  C2_3 
ROOT
ATOM      1  C2  UNL d   1       0.272   0.349   0.366  0.00  0.00    -0.076 A 
ATOM      2  C3  UNL d   1      -0.857  -0.306   0.890  0.00  0.00     0.004 A 
ATOM      3  C4  UNL d   1      -0.994  -0.513   2.261  0.00  0.00    -0.003 A 
ATOM      4  C5  UNL d   1      -0.006  -0.068   3.132  0.00  0.00     0.000 A 
ATOM      5  C6  UNL d   1       1.112   0.600   2.632  0.00  0.00     0.000 A 
ATOM      6  C7  UNL d   1       1.258   0.831   1.253  0.00  0.00    -0.073 A 
ATOM      7  C8  UNL d   1       2.486   1.551   0.768  0.00  0.00     0.078 C 
ENDROOT
BRANCH   1   8
ATOM      8  C1  UNL d   1       0.379   0.521  -1.132  0.00  0.00     0.053 C 
ATOM      9  C   UNL d   1       0.545  -0.804  -1.860  0.00  0.00     0.018 C 
ENDBRANCH   1   8
TORSDOF 1
ENDMDL
