MODEL 1
REMARK minimizedAffinity -4.46878958
REMARK minimizedRMSD -1
REMARK  1 active torsions:
REMARK  status: ('A' for Active; 'I' for Inactive)
REMARK    1  A    between atoms: C1_2  and  C2_3 
ROOT
ATOM      1  C2  UNL d   1      -1.100  -0.155   1.130  0.00  0.00    -0.076 A 
ATOM      2  C3  UNL d   1      -1.183  -0.293  -0.266  0.00  0.00     0.004 A 
ATOM      3  C4  UNL d   1      -0.096   0.009  -1.084  0.00  0.00    -0.003 A 
ATOM      4  C5  UNL d   1       1.094   0.455  -0.518  0.00  0.00     0.000 A 
ATOM      5  C6  UNL d   1       1.200   0.582   0.867  0.00  0.00     0.000 A 
ATOM      6  C7  UNL d   1       0.118   0.265   1.706  0.00  0.00    -0.073 A 
ATOM      7  C8  UNL d   1       0.286   0.426   3.192  0.00  0.00     0.078 C 
ENDROOT
BRANCH   1   8
ATOM      8  C1  UNL d   1      -2.321  -0.472   1.964  0.00  0.00     0.053 C 
ATOM      9  C   UNL d   1      -3.418   0.570   1.809  0.00  0.00     0.018 C 
ENDBRANCH   1   8
TORSDOF 1
ENDMDL
