MODEL 1
REMARK minimizedAffinity -4.90672112
REMARK minimizedRMSD -1
REMARK  1 active torsions:
REMARK  status: ('A' for Active; 'I' for Inactive)
REMARK    1  A    between atoms: C1_2  and  C2_3 
ROOT
ATOM      1  C2  UNL d   1      -0.133  -0.387   0.717  0.00  0.00    -0.076 A 
ATOM      2  C3  UNL d   1      -1.434  -0.889   0.894  0.00  0.00     0.004 A 
ATOM      3  C4  UNL d   1      -2.027  -0.917   2.155  0.00  0.00    -0.003 A 
ATOM      4  C5  UNL d   1      -1.328  -0.444   3.260  0.00  0.00     0.000 A 
ATOM      5  C6  UNL d   1      -0.043   0.073   3.100  0.00  0.00     0.000 A 
ATOM      6  C7  UNL d   1       0.563   0.125   1.833  0.00  0.00    -0.073 A 
ATOM      7  C8  UNL d   1       1.953   0.688   1.719  0.00  0.00     0.078 C 
ENDROOT
BRANCH   1   8
ATOM      8  C1  UNL d   1       0.468  -0.406  -0.671  0.00  0.00     0.053 C 
ATOM      9  C   UNL d   1       0.140   0.849  -1.465  0.00  0.00     0.018 C 
ENDBRANCH   1   8
TORSDOF 1
ENDMDL
