MODEL 1
REMARK minimizedAffinity 3.4294641
REMARK minimizedRMSD -1
REMARK  1 active torsions:
REMARK  status: ('A' for Active; 'I' for Inactive)
REMARK    1  A    between atoms: C1_2  and  C2_3 
ROOT
ATOM      1  C2  UNL d   1       2.386   1.743   1.609  0.00  0.00    -0.076 A 
ATOM      2  C3  UNL d   1       2.104   2.132   2.930  0.00  0.00     0.004 A 
ATOM      3  C4  UNL d   1       0.968   1.666   3.588  0.00  0.00    -0.003 A 
ATOM      4  C5  UNL d   1       0.095   0.802   2.936  0.00  0.00     0.000 A 
ATOM      5  C6  UNL d   1       0.368   0.392   1.632  0.00  0.00     0.000 A 
ATOM      6  C7  UNL d   1       1.518   0.840   0.959  0.00  0.00    -0.073 A 
ATOM      7  C8  UNL d   1       1.760   0.370  -0.449  0.00  0.00     0.078 C 
ENDROOT
BRANCH   1   8
ATOM      8  C1  UNL d   1       3.619   2.303   0.936  0.00  0.00     0.053 C 
ATOM      9  C   UNL d   1       4.849   2.240   1.829  0.00  0.00     0.018 C 
ENDBRANCH   1   8
TORSDOF 1
ENDMDL
