MODEL 1
REMARK minimizedAffinity 7.57402754
REMARK minimizedRMSD -1
REMARK  1 active torsions:
REMARK  status: ('A' for Active; 'I' for Inactive)
REMARK    1  A    between atoms: C1_2  and  C2_3 
ROOT
ATOM      1  C2  UNL d   1      -0.399   0.668   0.163  0.00  0.00    -0.076 A 
ATOM      2  C3  UNL d   1      -0.720   1.125   1.453  0.00  0.00     0.004 A 
ATOM      3  C4  UNL d   1       0.276   1.523   2.342  0.00  0.00    -0.003 A 
ATOM      4  C5  UNL d   1       1.611   1.472   1.956  0.00  0.00     0.000 A 
ATOM      5  C6  UNL d   1       1.947   1.038   0.674  0.00  0.00     0.000 A 
ATOM      6  C7  UNL d   1       0.954   0.648  -0.240  0.00  0.00    -0.073 A 
ATOM      7  C8  UNL d   1       1.374   0.183  -1.608  0.00  0.00     0.078 C 
ENDROOT
BRANCH   1   8
ATOM      8  C1  UNL d   1      -1.520   0.223  -0.748  0.00  0.00     0.053 C 
ATOM      9  C   UNL d   1      -2.894   0.527  -0.172  0.00  0.00     0.018 C 
ENDBRANCH   1   8
TORSDOF 1
ENDMDL
