MODEL 1
REMARK minimizedAffinity 2.82933617
REMARK minimizedRMSD -1
REMARK  1 active torsions:
REMARK  status: ('A' for Active; 'I' for Inactive)
REMARK    1  A    between atoms: C1_2  and  C2_3 
ROOT
ATOM      1  C2  UNL d   1       2.163   0.969   1.568  0.00  0.00    -0.076 A 
ATOM      2  C3  UNL d   1       1.645   1.272   2.839  0.00  0.00     0.004 A 
ATOM      3  C4  UNL d   1       0.271   1.362   3.051  0.00  0.00    -0.003 A 
ATOM      4  C5  UNL d   1      -0.609   1.150   1.995  0.00  0.00     0.000 A 
ATOM      5  C6  UNL d   1      -0.114   0.830   0.732  0.00  0.00     0.000 A 
ATOM      6  C7  UNL d   1       1.269   0.720   0.504  0.00  0.00    -0.073 A 
ATOM      7  C8  UNL d   1       1.748   0.379  -0.880  0.00  0.00     0.078 C 
ENDROOT
BRANCH   1   8
ATOM      8  C1  UNL d   1       3.663   0.912   1.391  0.00  0.00     0.053 C 
ATOM      9  C   UNL d   1       4.271   2.279   1.119  0.00  0.00     0.018 C 
ENDBRANCH   1   8
TORSDOF 1
ENDMDL
