MODEL 1
REMARK minimizedAffinity 6.52931833
REMARK minimizedRMSD -1
REMARK  1 active torsions:
REMARK  status: ('A' for Active; 'I' for Inactive)
REMARK    1  A    between atoms: C1_2  and  C2_3 
ROOT
ATOM      1  C2  UNL d   1       0.192  -4.599   2.938  0.00  0.00    -0.077 A 
ATOM      2  C3  UNL d   1      -0.716  -4.141   3.903  0.00  0.00     0.002 A 
ATOM      3  C4  UNL d   1      -1.259  -2.859   3.810  0.00  0.00     0.002 A 
ATOM      4  C5  UNL d   1      -0.903  -2.025   2.752  0.00  0.00    -0.004 A 
ATOM      5  C6  UNL d   1       0.001  -2.470   1.788  0.00  0.00     0.002 A 
ATOM      6  C7  UNL d   1       0.545  -3.751   1.880  0.00  0.00     0.002 A 
ENDROOT
BRANCH   1   7
ATOM      7  C1  UNL d   1       0.741  -6.000   3.010  0.00  0.00     0.055 C 
ATOM      8  C   UNL d   1       2.214  -5.998   3.390  0.00  0.00     0.019 C 
ENDBRANCH   1   7
TORSDOF 1
ENDMDL
