MODEL 1
REMARK minimizedAffinity 10.6766415
REMARK minimizedRMSD -1
REMARK  1 active torsions:
REMARK  status: ('A' for Active; 'I' for Inactive)
REMARK    1  A    between atoms: C1_2  and  C2_3 
ROOT
ATOM      1  C2  UNL d   1       0.636  -0.255   4.034  0.00  0.00    -0.077 A 
ATOM      2  C3  UNL d   1       1.447   0.206   5.081  0.00  0.00     0.002 A 
ATOM      3  C4  UNL d   1       2.759   0.613   4.831  0.00  0.00     0.002 A 
ATOM      4  C5  UNL d   1       3.270   0.568   3.536  0.00  0.00    -0.004 A 
ATOM      5  C6  UNL d   1       2.472   0.109   2.488  0.00  0.00     0.002 A 
ATOM      6  C7  UNL d   1       1.160  -0.299   2.736  0.00  0.00     0.002 A 
ENDROOT
BRANCH   1   7
ATOM      7  C1  UNL d   1      -0.795  -0.648   4.293  0.00  0.00     0.055 C 
ATOM      8  C   UNL d   1      -1.199  -0.352   5.731  0.00  0.00     0.019 C 
ENDBRANCH   1   7
TORSDOF 1
ENDMDL
