MODEL 1
REMARK minimizedAffinity 10.1082764
REMARK minimizedRMSD -1
REMARK  1 active torsions:
REMARK  status: ('A' for Active; 'I' for Inactive)
REMARK    1  A    between atoms: C1_2  and  C2_3 
ROOT
ATOM      1  C2  UNL d   1      -0.927  -1.999   2.955  0.00  0.00    -0.077 A 
ATOM      2  C3  UNL d   1      -0.520  -0.867   3.676  0.00  0.00     0.002 A 
ATOM      3  C4  UNL d   1       0.556  -0.096   3.232  0.00  0.00     0.002 A 
ATOM      4  C5  UNL d   1       1.231  -0.446   2.064  0.00  0.00    -0.004 A 
ATOM      5  C6  UNL d   1       0.836  -1.570   1.341  0.00  0.00     0.002 A 
ATOM      6  C7  UNL d   1      -0.239  -2.343   1.784  0.00  0.00     0.002 A 
ENDROOT
BRANCH   1   7
ATOM      7  C1  UNL d   1      -2.118  -2.803   3.404  0.00  0.00     0.055 C 
ATOM      8  C   UNL d   1      -2.946  -3.277   2.219  0.00  0.00     0.019 C 
ENDBRANCH   1   7
TORSDOF 1
ENDMDL
