MODEL 1
REMARK minimizedAffinity 10.7130089
REMARK minimizedRMSD -1
REMARK  1 active torsions:
REMARK  status: ('A' for Active; 'I' for Inactive)
REMARK    1  A    between atoms: C1_2  and  C2_3 
ROOT
ATOM      1  C2  UNL d   1      -0.034  -1.116   3.566  0.00  0.00    -0.077 A 
ATOM      2  C3  UNL d   1       0.892  -0.404   2.791  0.00  0.00     0.002 A 
ATOM      3  C4  UNL d   1       1.561  -1.030   1.738  0.00  0.00     0.002 A 
ATOM      4  C5  UNL d   1       1.308  -2.369   1.448  0.00  0.00    -0.004 A 
ATOM      5  C6  UNL d   1       0.390  -3.086   2.214  0.00  0.00     0.002 A 
ATOM      6  C7  UNL d   1      -0.279  -2.462   3.268  0.00  0.00     0.002 A 
ENDROOT
BRANCH   1   7
ATOM      7  C1  UNL d   1      -0.793  -0.429   4.671  0.00  0.00     0.055 C 
ATOM      8  C   UNL d   1      -0.047  -0.518   5.994  0.00  0.00     0.019 C 
ENDBRANCH   1   7
TORSDOF 1
ENDMDL
