MODEL 1
REMARK minimizedAffinity 6.88136387
REMARK minimizedRMSD -1
REMARK  1 active torsions:
REMARK  status: ('A' for Active; 'I' for Inactive)
REMARK    1  A    between atoms: C1_2  and  C2_3 
ROOT
ATOM      1  C2  UNL d   1       0.274  -1.075   4.099  0.00  0.00    -0.077 A 
ATOM      2  C3  UNL d   1      -0.360  -2.255   3.684  0.00  0.00     0.002 A 
ATOM      3  C4  UNL d   1      -0.209  -2.715   2.374  0.00  0.00     0.002 A 
ATOM      4  C5  UNL d   1       0.578  -2.004   1.471  0.00  0.00    -0.004 A 
ATOM      5  C6  UNL d   1       1.211  -0.828   1.873  0.00  0.00     0.002 A 
ATOM      6  C7  UNL d   1       1.060  -0.366   3.181  0.00  0.00     0.002 A 
ENDROOT
BRANCH   1   7
ATOM      7  C1  UNL d   1       0.152  -0.604   5.524  0.00  0.00     0.055 C 
ATOM      8  C   UNL d   1      -1.293  -0.645   5.999  0.00  0.00     0.019 C 
ENDBRANCH   1   7
TORSDOF 1
ENDMDL
