MODEL 1
REMARK minimizedAffinity 12.4990978
REMARK minimizedRMSD -1
REMARK  1 active torsions:
REMARK  status: ('A' for Active; 'I' for Inactive)
REMARK    1  A    between atoms: C1_2  and  C2_3 
ROOT
ATOM      1  C2  UNL d   1       1.442  -1.669   1.583  0.00  0.00    -0.077 A 
ATOM      2  C3  UNL d   1       1.843  -0.772   2.583  0.00  0.00     0.002 A 
ATOM      3  C4  UNL d   1       3.176  -0.369   2.679  0.00  0.00     0.002 A 
ATOM      4  C5  UNL d   1       4.119  -0.855   1.775  0.00  0.00    -0.004 A 
ATOM      5  C6  UNL d   1       3.731  -1.749   0.778  0.00  0.00     0.002 A 
ATOM      6  C7  UNL d   1       2.398  -2.153   0.682  0.00  0.00     0.002 A 
ENDROOT
BRANCH   1   7
ATOM      7  C1  UNL d   1      -0.005  -2.066   1.448  0.00  0.00     0.055 C 
ATOM      8  C   UNL d   1      -0.931  -0.912   1.805  0.00  0.00     0.019 C 
ENDBRANCH   1   7
TORSDOF 1
ENDMDL
