MODEL 1
REMARK minimizedAffinity 17.6703529
REMARK minimizedRMSD -1
REMARK  1 active torsions:
REMARK  status: ('A' for Active; 'I' for Inactive)
REMARK    1  A    between atoms: C1_2  and  C2_3 
ROOT
ATOM      1  C2  UNL d   1      -1.784   3.652  -3.562  0.00  0.00    -0.077 A 
ATOM      2  C3  UNL d   1      -1.392   4.872  -2.994  0.00  0.00     0.002 A 
ATOM      3  C4  UNL d   1      -1.210   5.999  -3.797  0.00  0.00     0.002 A 
ATOM      4  C5  UNL d   1      -1.422   5.919  -5.172  0.00  0.00    -0.004 A 
ATOM      5  C6  UNL d   1      -1.811   4.710  -5.747  0.00  0.00     0.002 A 
ATOM      6  C7  UNL d   1      -1.992   3.582  -4.946  0.00  0.00     0.002 A 
ENDROOT
BRANCH   1   7
ATOM      7  C1  UNL d   1      -2.028   2.447  -2.691  0.00  0.00     0.055 C 
ATOM      8  C   UNL d   1      -0.768   2.043  -1.940  0.00  0.00     0.019 C 
ENDBRANCH   1   7
TORSDOF 1
ENDMDL
