MODEL 1
REMARK minimizedAffinity 15.8365078
REMARK minimizedRMSD -1
REMARK  1 active torsions:
REMARK  status: ('A' for Active; 'I' for Inactive)
REMARK    1  A    between atoms: C1_2  and  C2_3 
ROOT
ATOM      1  C2  UNL d   1      -2.643   3.684  -3.553  0.00  0.00    -0.077 A 
ATOM      2  C3  UNL d   1      -3.356   2.578  -3.068  0.00  0.00     0.002 A 
ATOM      3  C4  UNL d   1      -4.105   2.681  -1.894  0.00  0.00     0.002 A 
ATOM      4  C5  UNL d   1      -4.153   3.887  -1.199  0.00  0.00    -0.004 A 
ATOM      5  C6  UNL d   1      -3.446   4.992  -1.672  0.00  0.00     0.002 A 
ATOM      6  C7  UNL d   1      -2.696   4.891  -2.845  0.00  0.00     0.002 A 
ENDROOT
BRANCH   1   7
ATOM      7  C1  UNL d   1      -1.874   3.589  -4.845  0.00  0.00     0.055 C 
ATOM      8  C   UNL d   1      -2.643   4.225  -5.994  0.00  0.00     0.019 C 
ENDBRANCH   1   7
TORSDOF 1
ENDMDL
