MODEL 1
REMARK minimizedAffinity 11.6055584
REMARK minimizedRMSD -1
REMARK  1 active torsions:
REMARK  status: ('A' for Active; 'I' for Inactive)
REMARK    1  A    between atoms: C1_2  and  C2_3 
ROOT
ATOM      1  C2  UNL d   1      -2.340   3.389  -3.827  0.00  0.00    -0.077 A 
ATOM      2  C3  UNL d   1      -2.398   3.370  -5.228  0.00  0.00     0.002 A 
ATOM      3  C4  UNL d   1      -2.400   4.565  -5.950  0.00  0.00     0.002 A 
ATOM      4  C5  UNL d   1      -2.341   5.786  -5.282  0.00  0.00    -0.004 A 
ATOM      5  C6  UNL d   1      -2.285   5.815  -3.889  0.00  0.00     0.002 A 
ATOM      6  C7  UNL d   1      -2.284   4.622  -3.165  0.00  0.00     0.002 A 
ENDROOT
BRANCH   1   7
ATOM      7  C1  UNL d   1      -2.288   2.101  -3.048  0.00  0.00     0.055 C 
ATOM      8  C   UNL d   1      -1.001   1.992  -2.243  0.00  0.00     0.019 C 
ENDBRANCH   1   7
TORSDOF 1
ENDMDL
