MODEL 1
REMARK minimizedAffinity -0.646408439
REMARK minimizedRMSD -1
REMARK  1 active torsions:
REMARK  status: ('A' for Active; 'I' for Inactive)
REMARK    1  A    between atoms: C1_2  and  C2_3 
ROOT
ATOM      1  C2  UNL d   1       2.827  -3.724  -5.590  0.00  0.00    -0.077 A 
ATOM      2  C3  UNL d   1       2.995  -5.055  -5.998  0.00  0.00     0.002 A 
ATOM      3  C4  UNL d   1       1.996  -6.000  -5.755  0.00  0.00     0.002 A 
ATOM      4  C5  UNL d   1       0.822  -5.624  -5.107  0.00  0.00    -0.004 A 
ATOM      5  C6  UNL d   1       0.646  -4.303  -4.694  0.00  0.00     0.002 A 
ATOM      6  C7  UNL d   1       1.644  -3.358  -4.935  0.00  0.00     0.002 A 
ENDROOT
BRANCH   1   7
ATOM      7  C1  UNL d   1       3.881  -2.693  -5.895  0.00  0.00     0.055 C 
ATOM      8  C   UNL d   1       5.261  -3.326  -6.000  0.00  0.00     0.019 C 
ENDBRANCH   1   7
TORSDOF 1
ENDMDL
