MODEL 1
REMARK minimizedAffinity 3.24940801
REMARK minimizedRMSD -1
REMARK  1 active torsions:
REMARK  status: ('A' for Active; 'I' for Inactive)
REMARK    1  A    between atoms: C1_2  and  C2_3 
ROOT
ATOM      1  C2  UNL d   1      -4.147  -4.133   1.456  0.00  0.00    -0.077 A 
ATOM      2  C3  UNL d   1      -4.984  -5.232   1.217  0.00  0.00     0.002 A 
ATOM      3  C4  UNL d   1      -4.832  -5.997   0.059  0.00  0.00     0.002 A 
ATOM      4  C5  UNL d   1      -3.842  -5.674  -0.867  0.00  0.00    -0.004 A 
ATOM      5  C6  UNL d   1      -3.006  -4.582  -0.639  0.00  0.00     0.002 A 
ATOM      6  C7  UNL d   1      -3.157  -3.815   0.517  0.00  0.00     0.002 A 
ENDROOT
BRANCH   1   7
ATOM      7  C1  UNL d   1      -4.277  -3.337   2.728  0.00  0.00     0.055 C 
ATOM      8  C   UNL d   1      -3.257  -3.782   3.766  0.00  0.00     0.019 C 
ENDBRANCH   1   7
TORSDOF 1
ENDMDL
