MODEL 1
REMARK minimizedAffinity -5.41728973
REMARK minimizedRMSD -1
REMARK  0 active torsions:
REMARK  status: ('A' for Active; 'I' for Inactive)
ROOT
ATOM      1  N1  IND d   1      -0.022  -1.418   0.657  0.00  0.00    -0.196 N 
ATOM      2  C2  IND d   1      -0.786  -0.403   1.160  0.00  0.00     0.054 A 
ATOM      3  C3  IND d   1      -0.599   0.727   0.441  0.00  0.00    -0.031 A 
ATOM      4  C4  IND d   1       0.834   1.108  -1.663  0.00  0.00     0.051 A 
ATOM      5  C5  IND d   1       1.740   0.487  -2.476  0.00  0.00    -0.031 A 
ATOM      6  C6  IND d   1       2.111  -0.829  -2.284  0.00  0.00     0.015 A 
ATOM      7  C7  IND d   1       1.578  -1.579  -1.274  0.00  0.00    -0.016 A 
ATOM      8  C8  IND d   1       0.663  -0.949  -0.442  0.00  0.00    -0.047 A 
ATOM      9  C9  IND d   1       0.315   0.398  -0.606  0.00  0.00    -0.096 A 
ATOM     10  HN1 IND d   1       0.024  -2.216   0.974  0.00  0.00     0.298 HD
ENDROOT
TORSDOF 0
ENDMDL
