MODEL 1
REMARK minimizedAffinity -2.48577738
REMARK minimizedRMSD -1
REMARK  0 active torsions:
REMARK  status: ('A' for Active; 'I' for Inactive)
ROOT
ATOM      1  N1  IND d   1      -1.249  -0.527   0.931  0.00  0.00    -0.196 N 
ATOM      2  C2  IND d   1      -1.490   0.818   0.945  0.00  0.00     0.054 A 
ATOM      3  C3  IND d   1      -0.749   1.439  -0.000  0.00  0.00    -0.031 A 
ATOM      4  C4  IND d   1       0.849   0.430  -1.748  0.00  0.00     0.051 A 
ATOM      5  C5  IND d   1       1.422  -0.750  -2.130  0.00  0.00    -0.031 A 
ATOM      6  C6  IND d   1       1.125  -1.942  -1.500  0.00  0.00     0.015 A 
ATOM      7  C7  IND d   1       0.232  -1.999  -0.467  0.00  0.00    -0.016 A 
ATOM      8  C8  IND d   1      -0.346  -0.800  -0.072  0.00  0.00    -0.047 A 
ATOM      9  C9  IND d   1      -0.017   0.418  -0.680  0.00  0.00    -0.096 A 
ATOM     10  HN1 IND d   1      -1.602  -1.106   1.460  0.00  0.00     0.298 HD
ENDROOT
TORSDOF 0
ENDMDL
