MODEL 1
REMARK minimizedAffinity -2.53569484
REMARK minimizedRMSD -1
REMARK  0 active torsions:
REMARK  status: ('A' for Active; 'I' for Inactive)
ROOT
ATOM      1  N1  IND d   1       1.922   2.127  -1.091  0.00  0.00    -0.196 N 
ATOM      2  C2  IND d   1       1.262   2.395   0.076  0.00  0.00     0.054 A 
ATOM      3  C3  IND d   1       0.436   1.373   0.394  0.00  0.00    -0.031 A 
ATOM      4  C4  IND d   1       0.085  -0.880  -0.803  0.00  0.00     0.051 A 
ATOM      5  C5  IND d   1       0.440  -1.567  -1.930  0.00  0.00    -0.031 A 
ATOM      6  C6  IND d   1       1.326  -1.049  -2.852  0.00  0.00     0.015 A 
ATOM      7  C7  IND d   1       1.903   0.176  -2.675  0.00  0.00    -0.016 A 
ATOM      8  C8  IND d   1       1.540   0.881  -1.535  0.00  0.00    -0.047 A 
ATOM      9  C9  IND d   1       0.608   0.378  -0.618  0.00  0.00    -0.096 A 
ATOM     10  HN1 IND d   1       2.482   2.650  -1.482  0.00  0.00     0.298 HD
ENDROOT
TORSDOF 0
ENDMDL
