MODEL 1
REMARK minimizedAffinity -4.8535533
REMARK minimizedRMSD -1
REMARK  0 active torsions:
REMARK  status: ('A' for Active; 'I' for Inactive)
ROOT
ATOM      1  N1  IND d   1       0.078  -1.834   0.390  0.00  0.00    -0.196 N 
ATOM      2  C2  IND d   1      -0.588  -1.076   1.313  0.00  0.00     0.054 A 
ATOM      3  C3  IND d   1      -0.735   0.190   0.864  0.00  0.00    -0.031 A 
ATOM      4  C4  IND d   1      -0.050   1.214  -1.397  0.00  0.00     0.051 A 
ATOM      5  C5  IND d   1       0.619   0.924  -2.552  0.00  0.00    -0.031 A 
ATOM      6  C6  IND d   1       1.151  -0.327  -2.792  0.00  0.00     0.015 A 
ATOM      7  C7  IND d   1       1.022  -1.341  -1.886  0.00  0.00    -0.016 A 
ATOM      8  C8  IND d   1       0.349  -1.048  -0.709  0.00  0.00    -0.047 A 
ATOM      9  C9  IND d   1      -0.156   0.231  -0.441  0.00  0.00    -0.096 A 
ATOM     10  HN1 IND d   1       0.291  -2.662   0.480  0.00  0.00     0.298 HD
ENDROOT
TORSDOF 0
ENDMDL
