MODEL 1
REMARK minimizedAffinity -0.555460393
REMARK minimizedRMSD -1
REMARK  0 active torsions:
REMARK  status: ('A' for Active; 'I' for Inactive)
ROOT
ATOM      1  N1  IND d   1      -0.940   0.061   1.825  0.00  0.00    -0.196 N 
ATOM      2  C2  IND d   1      -1.428   1.266   1.401  0.00  0.00     0.054 A 
ATOM      3  C3  IND d   1      -1.363   1.352   0.053  0.00  0.00    -0.031 A 
ATOM      4  C4  IND d   1      -0.587  -0.404  -1.662  0.00  0.00     0.051 A 
ATOM      5  C5  IND d   1      -0.020  -1.645  -1.753  0.00  0.00    -0.031 A 
ATOM      6  C6  IND d   1       0.272  -2.396  -0.633  0.00  0.00     0.015 A 
ATOM      7  C7  IND d   1      -0.003  -1.938   0.624  0.00  0.00    -0.016 A 
ATOM      8  C8  IND d   1      -0.572  -0.676   0.720  0.00  0.00    -0.047 A 
ATOM      9  C9  IND d   1      -0.832   0.109  -0.410  0.00  0.00    -0.096 A 
ATOM     10  HN1 IND d   1      -0.875  -0.194   2.643  0.00  0.00     0.298 HD
ENDROOT
TORSDOF 0
ENDMDL
