MODEL 1
REMARK minimizedAffinity -1.41641593
REMARK minimizedRMSD -1
REMARK  0 active torsions:
REMARK  status: ('A' for Active; 'I' for Inactive)
ROOT
ATOM      1  N1  IND d   1      -3.665   2.162  -5.991  0.00  0.00    -0.196 N 
ATOM      2  C2  IND d   1      -4.817   1.428  -5.936  0.00  0.00     0.054 A 
ATOM      3  C3  IND d   1      -5.891   2.245  -5.863  0.00  0.00    -0.031 A 
ATOM      4  C4  IND d   1      -5.999   4.816  -5.923  0.00  0.00     0.051 A 
ATOM      5  C5  IND d   1      -5.204   5.928  -5.931  0.00  0.00    -0.031 A 
ATOM      6  C6  IND d   1      -3.827   5.839  -5.963  0.00  0.00     0.015 A 
ATOM      7  C7  IND d   1      -3.192   4.630  -5.999  0.00  0.00    -0.016 A 
ATOM      8  C8  IND d   1      -3.996   3.499  -5.984  0.00  0.00    -0.047 A 
ATOM      9  C9  IND d   1      -5.392   3.583  -5.909  0.00  0.00    -0.096 A 
ATOM     10  HN1 IND d   1      -2.867   1.842  -6.024  0.00  0.00     0.298 HD
ENDROOT
TORSDOF 0
ENDMDL
