MODEL 1
REMARK minimizedAffinity -5.1553421
REMARK minimizedRMSD -1
REMARK  0 active torsions:
REMARK  status: ('A' for Active; 'I' for Inactive)
ROOT
ATOM      1  N1  IND d   1       1.333  -2.630  -0.218  0.00  0.00    -0.196 N 
ATOM      2  C2  IND d   1       2.161  -2.961  -1.254  0.00  0.00     0.054 A 
ATOM      3  C3  IND d   1       2.456  -1.865  -1.989  0.00  0.00    -0.031 A 
ATOM      4  C4  IND d   1       1.773   0.588  -1.613  0.00  0.00     0.051 A 
ATOM      5  C5  IND d   1       0.992   1.379  -0.817  0.00  0.00    -0.031 A 
ATOM      6  C6  IND d   1       0.272   0.864   0.242  0.00  0.00     0.015 A 
ATOM      7  C7  IND d   1       0.316  -0.465   0.553  0.00  0.00    -0.016 A 
ATOM      8  C8  IND d   1       1.103  -1.273  -0.257  0.00  0.00    -0.047 A 
ATOM      9  C9  IND d   1       1.801  -0.763  -1.359  0.00  0.00    -0.096 A 
ATOM     10  HN1 IND d   1       1.010  -3.178   0.361  0.00  0.00     0.298 HD
ENDROOT
TORSDOF 0
ENDMDL
