MODEL 1
REMARK minimizedAffinity -0.185724944
REMARK minimizedRMSD -1
REMARK  0 active torsions:
REMARK  status: ('A' for Active; 'I' for Inactive)
ROOT
ATOM      1  N1  IND d   1       1.910  -1.119  -0.887  0.00  0.00    -0.196 N 
ATOM      2  C2  IND d   1       2.559  -0.148  -1.597  0.00  0.00     0.054 A 
ATOM      3  C3  IND d   1       1.918   1.035  -1.472  0.00  0.00    -0.031 A 
ATOM      4  C4  IND d   1      -0.157   1.630  -0.068  0.00  0.00     0.051 A 
ATOM      5  C5  IND d   1      -1.120   1.068   0.722  0.00  0.00    -0.031 A 
ATOM      6  C6  IND d   1      -1.121  -0.278   1.024  0.00  0.00     0.015 A 
ATOM      7  C7  IND d   1      -0.148  -1.115   0.555  0.00  0.00    -0.016 A 
ATOM      8  C8  IND d   1       0.828  -0.549  -0.253  0.00  0.00    -0.047 A 
ATOM      9  C9  IND d   1       0.810   0.809  -0.598  0.00  0.00    -0.096 A 
ATOM     10  HN1 IND d   1       2.139  -1.947  -0.843  0.00  0.00     0.298 HD
ENDROOT
TORSDOF 0
ENDMDL
