MODEL 1
REMARK minimizedAffinity -1.10404217
REMARK minimizedRMSD -1
REMARK  0 active torsions:
REMARK  status: ('A' for Active; 'I' for Inactive)
ROOT
ATOM      1  N1  IND d   1      -0.129  -1.517   0.408  0.00  0.00    -0.196 N 
ATOM      2  C2  IND d   1      -0.724  -0.380   0.880  0.00  0.00     0.054 A 
ATOM      3  C3  IND d   1      -0.139   0.714   0.344  0.00  0.00    -0.031 A 
ATOM      4  C4  IND d   1       1.745   0.872  -1.404  0.00  0.00     0.051 A 
ATOM      5  C5  IND d   1       2.630   0.103  -2.106  0.00  0.00    -0.031 A 
ATOM      6  C6  IND d   1       2.639  -1.274  -2.006  0.00  0.00     0.015 A 
ATOM      7  C7  IND d   1       1.751  -1.936  -1.206  0.00  0.00    -0.016 A 
ATOM      8  C8  IND d   1       0.856  -1.158  -0.486  0.00  0.00    -0.047 A 
ATOM      9  C9  IND d   1       0.870   0.242  -0.550  0.00  0.00    -0.096 A 
ATOM     10  HN1 IND d   1      -0.336  -2.321   0.631  0.00  0.00     0.298 HD
ENDROOT
TORSDOF 0
ENDMDL
