MODEL 1
REMARK minimizedAffinity -0.897840261
REMARK minimizedRMSD -1
REMARK  0 active torsions:
REMARK  status: ('A' for Active; 'I' for Inactive)
ROOT
ATOM      1  N1  IND d   1      -2.787  -0.033   2.430  0.00  0.00    -0.196 N 
ATOM      2  C2  IND d   1      -3.949   0.436   1.884  0.00  0.00     0.054 A 
ATOM      3  C3  IND d   1      -3.722   0.928   0.645  0.00  0.00    -0.031 A 
ATOM      4  C4  IND d   1      -1.541   0.972  -0.722  0.00  0.00     0.051 A 
ATOM      5  C5  IND d   1      -0.206   0.690  -0.631  0.00  0.00    -0.031 A 
ATOM      6  C6  IND d   1       0.346   0.140   0.507  0.00  0.00     0.015 A 
ATOM      7  C7  IND d   1      -0.420  -0.162   1.597  0.00  0.00    -0.016 A 
ATOM      8  C8  IND d   1      -1.774   0.129   1.511  0.00  0.00    -0.047 A 
ATOM      9  C9  IND d   1      -2.333   0.727   0.375  0.00  0.00    -0.096 A 
ATOM     10  HN1 IND d   1      -2.703  -0.373   3.216  0.00  0.00     0.298 HD
ENDROOT
TORSDOF 0
ENDMDL
