MODEL 1
REMARK minimizedAffinity -3.75421596
REMARK minimizedRMSD -1
REMARK  0 active torsions:
REMARK  status: ('A' for Active; 'I' for Inactive)
ROOT
ATOM      1  N1  IND d   1       0.813   0.361  -0.419  0.00  0.00    -0.196 N 
ATOM      2  C2  IND d   1       0.732   1.239  -1.464  0.00  0.00     0.054 A 
ATOM      3  C3  IND d   1      -0.491   1.813  -1.503  0.00  0.00    -0.031 A 
ATOM      4  C4  IND d   1      -2.480   1.535   0.109  0.00  0.00     0.051 A 
ATOM      5  C5  IND d   1      -2.894   0.815   1.194  0.00  0.00    -0.031 A 
ATOM      6  C6  IND d   1      -2.077  -0.110   1.811  0.00  0.00     0.015 A 
ATOM      7  C7  IND d   1      -0.805  -0.342   1.370  0.00  0.00    -0.016 A 
ATOM      8  C8  IND d   1      -0.383   0.383   0.265  0.00  0.00    -0.047 A 
ATOM      9  C9  IND d   1      -1.222   1.292  -0.392  0.00  0.00    -0.096 A 
ATOM     10  HN1 IND d   1       1.496  -0.123  -0.222  0.00  0.00     0.298 HD
ENDROOT
TORSDOF 0
ENDMDL
