MODEL 1
REMARK minimizedAffinity -4.66524124
REMARK minimizedRMSD -1
REMARK  0 active torsions:
REMARK  status: ('A' for Active; 'I' for Inactive)
ROOT
ATOM      1  N1  IND d   1       2.332   1.162  -1.906  0.00  0.00    -0.196 N 
ATOM      2  C2  IND d   1       2.125   0.237  -2.891  0.00  0.00     0.054 A 
ATOM      3  C3  IND d   1       1.168  -0.642  -2.518  0.00  0.00    -0.031 A 
ATOM      4  C4  IND d   1      -0.263  -0.690  -0.378  0.00  0.00     0.051 A 
ATOM      5  C5  IND d   1      -0.413  -0.072   0.831  0.00  0.00    -0.031 A 
ATOM      6  C6  IND d   1       0.357   1.013   1.196  0.00  0.00     0.015 A 
ATOM      7  C7  IND d   1       1.303   1.529   0.357  0.00  0.00    -0.016 A 
ATOM      8  C8  IND d   1       1.464   0.900  -0.869  0.00  0.00    -0.047 A 
ATOM      9  C9  IND d   1       0.714  -0.228  -1.228  0.00  0.00    -0.096 A 
ATOM     10  HN1 IND d   1       2.907   1.801  -1.931  0.00  0.00     0.298 HD
ENDROOT
TORSDOF 0
ENDMDL
