MODEL 1
REMARK minimizedAffinity -2.19556856
REMARK minimizedRMSD -1
REMARK  0 active torsions:
REMARK  status: ('A' for Active; 'I' for Inactive)
ROOT
ATOM      1  N1  IND d   1      -0.805  -0.749   0.455  0.00  0.00    -0.196 N 
ATOM      2  C2  IND d   1      -1.709   0.065   1.079  0.00  0.00     0.054 A 
ATOM      3  C3  IND d   1      -1.370   1.362   0.909  0.00  0.00    -0.031 A 
ATOM      4  C4  IND d   1       0.569   2.383  -0.443  0.00  0.00     0.051 A 
ATOM      5  C5  IND d   1       1.681   2.038  -1.159  0.00  0.00    -0.031 A 
ATOM      6  C6  IND d   1       2.027   0.721  -1.380  0.00  0.00     0.015 A 
ATOM      7  C7  IND d   1       1.264  -0.306  -0.901  0.00  0.00    -0.016 A 
ATOM      8  C8  IND d   1       0.137   0.040  -0.168  0.00  0.00    -0.047 A 
ATOM      9  C9  IND d   1      -0.195   1.375   0.096  0.00  0.00    -0.096 A 
ATOM     10  HN1 IND d   1      -0.822  -1.608   0.452  0.00  0.00     0.298 HD
ENDROOT
TORSDOF 0
ENDMDL
