MODEL 1
REMARK minimizedAffinity 3.62036443
REMARK minimizedRMSD -1
REMARK  1 active torsions:
REMARK  status: ('A' for Active; 'I' for Inactive)
REMARK    1  A    between atoms: C3_4  and  O_7 
ROOT
ATOM      1  C   UNL d   1       4.546  -4.231   1.243  0.00  0.00    -0.033 A 
ATOM      2  C1  UNL d   1       5.378  -3.118   1.102  0.00  0.00     0.039 A 
ATOM      3  C2  UNL d   1       5.704  -2.342   2.216  0.00  0.00    -0.080 A 
ATOM      4  C3  UNL d   1       5.193  -2.690   3.464  0.00  0.00     0.150 A 
ATOM      5  C4  UNL d   1       4.366  -3.799   3.612  0.00  0.00    -0.007 A 
ATOM      6  C5  UNL d   1       4.041  -4.572   2.498  0.00  0.00     0.039 A 
ENDROOT
BRANCH   4   7
ATOM      7  O   UNL d   1       5.479  -1.960   4.579  0.00  0.00    -0.526 OA
ATOM      8  H5  UNL d   1       6.037  -1.208   4.320  0.00  0.00     0.418 HD
ENDBRANCH   4   7
TORSDOF 1
ENDMDL
