MODEL 1
REMARK minimizedAffinity -0.678174675
REMARK minimizedRMSD -1
REMARK  1 active torsions:
REMARK  status: ('A' for Active; 'I' for Inactive)
REMARK    1  A    between atoms: C3_4  and  O_7 
ROOT
ATOM      1  C   UNL d   1      -5.261   0.740  -5.250  0.00  0.00    -0.033 A 
ATOM      2  C1  UNL d   1      -5.271  -0.482  -4.575  0.00  0.00     0.039 A 
ATOM      3  C2  UNL d   1      -4.149  -1.312  -4.613  0.00  0.00    -0.080 A 
ATOM      4  C3  UNL d   1      -3.024  -0.908  -5.326  0.00  0.00     0.150 A 
ATOM      5  C4  UNL d   1      -3.005   0.310  -5.997  0.00  0.00    -0.007 A 
ATOM      6  C5  UNL d   1      -4.127   1.137  -5.960  0.00  0.00     0.039 A 
ENDROOT
BRANCH   4   7
ATOM      7  O   UNL d   1      -1.907  -1.686  -5.396  0.00  0.00    -0.526 OA
ATOM      8  H5  UNL d   1      -2.075  -2.511  -4.909  0.00  0.00     0.418 HD
ENDBRANCH   4   7
TORSDOF 1
ENDMDL
