MODEL 1
REMARK minimizedAffinity -4.55414104
REMARK minimizedRMSD -1
REMARK  1 active torsions:
REMARK  status: ('A' for Active; 'I' for Inactive)
REMARK    1  A    between atoms: C3_4  and  O_7 
ROOT
ATOM      1  C   UNL d   1      -2.343   1.648  -3.640  0.00  0.00    -0.033 A 
ATOM      2  C1  UNL d   1      -2.506   1.075  -2.378  0.00  0.00     0.039 A 
ATOM      3  C2  UNL d   1      -2.928  -0.251  -2.259  0.00  0.00    -0.080 A 
ATOM      4  C3  UNL d   1      -3.182  -0.992  -3.410  0.00  0.00     0.150 A 
ATOM      5  C4  UNL d   1      -3.018  -0.429  -4.671  0.00  0.00    -0.007 A 
ATOM      6  C5  UNL d   1      -2.598   0.895  -4.787  0.00  0.00     0.039 A 
ENDROOT
BRANCH   4   7
ATOM      7  O   UNL d   1      -3.601  -2.288  -3.345  0.00  0.00    -0.526 OA
ATOM      8  H5  UNL d   1      -3.698  -2.533  -2.410  0.00  0.00     0.418 HD
ENDBRANCH   4   7
TORSDOF 1
ENDMDL
