MODEL 1
REMARK minimizedAffinity 2.53830314
REMARK minimizedRMSD -1
REMARK  1 active torsions:
REMARK  status: ('A' for Active; 'I' for Inactive)
REMARK    1  A    between atoms: C3_4  and  O_7 
ROOT
ATOM      1  C   UNL d   1       5.064   4.483  -5.959  0.00  0.00    -0.033 A 
ATOM      2  C1  UNL d   1       4.552   5.782  -5.966  0.00  0.00     0.039 A 
ATOM      3  C2  UNL d   1       3.172   5.991  -5.973  0.00  0.00    -0.080 A 
ATOM      4  C3  UNL d   1       2.315   4.894  -5.973  0.00  0.00     0.150 A 
ATOM      5  C4  UNL d   1       2.817   3.597  -5.962  0.00  0.00    -0.007 A 
ATOM      6  C5  UNL d   1       4.196   3.391  -5.956  0.00  0.00     0.039 A 
ENDROOT
BRANCH   4   7
ATOM      7  O   UNL d   1       0.960   5.048  -5.985  0.00  0.00    -0.526 OA
ATOM      8  H5  UNL d   1       0.759   5.998  -6.021  0.00  0.00     0.418 HD
ENDBRANCH   4   7
TORSDOF 1
ENDMDL
