MODEL 1
REMARK minimizedAffinity -3.10991836
REMARK minimizedRMSD -1
REMARK  1 active torsions:
REMARK  status: ('A' for Active; 'I' for Inactive)
REMARK    1  A    between atoms: C3_4  and  O_7 
ROOT
ATOM      1  C   UNL d   1      -4.451   0.412  -5.997  0.00  0.00    -0.033 A 
ATOM      2  C1  UNL d   1      -3.150  -0.096  -5.991  0.00  0.00     0.039 A 
ATOM      3  C2  UNL d   1      -2.673  -0.785  -4.874  0.00  0.00    -0.080 A 
ATOM      4  C3  UNL d   1      -3.506  -0.960  -3.772  0.00  0.00     0.150 A 
ATOM      5  C4  UNL d   1      -4.804  -0.460  -3.773  0.00  0.00    -0.007 A 
ATOM      6  C5  UNL d   1      -5.279   0.228  -4.889  0.00  0.00     0.039 A 
ENDROOT
BRANCH   4   7
ATOM      7  O   UNL d   1      -3.084  -1.622  -2.658  0.00  0.00    -0.526 OA
ATOM      8  H5  UNL d   1      -2.157  -1.885  -2.789  0.00  0.00     0.418 HD
ENDBRANCH   4   7
TORSDOF 1
ENDMDL
