MODEL 1
REMARK minimizedAffinity -1.82723033
REMARK minimizedRMSD -1
REMARK  1 active torsions:
REMARK  status: ('A' for Active; 'I' for Inactive)
REMARK    1  A    between atoms: C3_4  and  O_7 
ROOT
ATOM      1  C   UNL d   1      -1.869   4.136  -5.987  0.00  0.00    -0.033 A 
ATOM      2  C1  UNL d   1      -2.622   2.989  -5.728  0.00  0.00     0.039 A 
ATOM      3  C2  UNL d   1      -3.992   3.094  -5.479  0.00  0.00    -0.080 A 
ATOM      4  C3  UNL d   1      -4.595   4.348  -5.492  0.00  0.00     0.150 A 
ATOM      5  C4  UNL d   1      -3.851   5.494  -5.752  0.00  0.00    -0.007 A 
ATOM      6  C5  UNL d   1      -2.483   5.388  -6.000  0.00  0.00     0.039 A 
ENDROOT
BRANCH   4   7
ATOM      7  O   UNL d   1      -5.928   4.501  -5.250  0.00  0.00    -0.526 OA
ATOM      8  H5  UNL d   1      -6.308   3.627  -5.057  0.00  0.00     0.418 HD
ENDBRANCH   4   7
TORSDOF 1
ENDMDL
