MODEL 1
REMARK minimizedAffinity -0.328492552
REMARK minimizedRMSD -1
REMARK  1 active torsions:
REMARK  status: ('A' for Active; 'I' for Inactive)
REMARK    1  A    between atoms: C3_4  and  O_7 
ROOT
ATOM      1  C   UNL d   1      -4.919   0.686  -5.907  0.00  0.00    -0.033 A 
ATOM      2  C1  UNL d   1      -5.694   0.348  -4.796  0.00  0.00     0.039 A 
ATOM      3  C2  UNL d   1      -5.086  -0.160  -3.647  0.00  0.00    -0.080 A 
ATOM      4  C3  UNL d   1      -3.704  -0.324  -3.621  0.00  0.00     0.150 A 
ATOM      5  C4  UNL d   1      -2.925   0.014  -4.723  0.00  0.00    -0.007 A 
ATOM      6  C5  UNL d   1      -3.534   0.520  -5.870  0.00  0.00     0.039 A 
ENDROOT
BRANCH   4   7
ATOM      7  O   UNL d   1      -3.065  -0.820  -2.523  0.00  0.00    -0.526 OA
ATOM      8  H5  UNL d   1      -3.733  -1.036  -1.851  0.00  0.00     0.418 HD
ENDBRANCH   4   7
TORSDOF 1
ENDMDL
