MODEL 1
REMARK minimizedAffinity -3.38346481
REMARK minimizedRMSD -1
REMARK  1 active torsions:
REMARK  status: ('A' for Active; 'I' for Inactive)
REMARK    1  A    between atoms: C3_4  and  O_7 
ROOT
ATOM      1  C   UNL d   1       4.687  -4.897   4.045  0.00  0.00    -0.033 A 
ATOM      2  C1  UNL d   1       5.174  -4.958   5.353  0.00  0.00     0.039 A 
ATOM      3  C2  UNL d   1       5.592  -3.794   6.000  0.00  0.00    -0.080 A 
ATOM      4  C3  UNL d   1       5.518  -2.576   5.329  0.00  0.00     0.150 A 
ATOM      5  C4  UNL d   1       5.031  -2.507   4.028  0.00  0.00    -0.007 A 
ATOM      6  C5  UNL d   1       4.615  -3.671   3.384  0.00  0.00     0.039 A 
ENDROOT
BRANCH   4   7
ATOM      7  O   UNL d   1       5.919  -1.413   5.918  0.00  0.00    -0.526 OA
ATOM      8  H5  UNL d   1       6.259  -1.619   6.805  0.00  0.00     0.418 HD
ENDBRANCH   4   7
TORSDOF 1
ENDMDL
