MODEL 1
REMARK minimizedAffinity -0.295619577
REMARK minimizedRMSD -1
REMARK  0 active torsions:
REMARK  status: ('A' for Active; 'I' for Inactive)
ROOT
ATOM      1  C2' OXE d   1       2.839  -1.462  -1.731  0.00  0.00     0.078 C 
ATOM      2  C1' OXE d   1       2.038  -2.725  -4.107  0.00  0.00     0.078 C 
ATOM      3  C1  OXE d   1       0.977  -2.422  -3.079  0.00  0.00    -0.078 A 
ATOM      4  C2  OXE d   1       1.384  -1.846  -1.900  0.00  0.00    -0.078 A 
ATOM      5  C3  OXE d   1       0.439  -1.495  -0.941  0.00  0.00     0.003 A 
ATOM      6  C4  OXE d   1      -0.903  -1.862  -1.101  0.00  0.00    -0.002 A 
ATOM      7  C5  OXE d   1      -1.333  -2.485  -2.277  0.00  0.00    -0.002 A 
ATOM      8  C6  OXE d   1      -0.415  -2.733  -3.292  0.00  0.00     0.003 A 
ENDROOT
TORSDOF 0
ENDMDL
