MODEL 1
REMARK minimizedAffinity 4.95804596
REMARK minimizedRMSD -1
REMARK  0 active torsions:
REMARK  status: ('A' for Active; 'I' for Inactive)
ROOT
ATOM      1  C2' OXE d   1      -1.797  -2.043   0.383  0.00  0.00     0.078 C 
ATOM      2  C1' OXE d   1      -2.826  -2.822  -2.110  0.00  0.00     0.078 C 
ATOM      3  C1  OXE d   1      -1.384  -2.381  -2.050  0.00  0.00    -0.078 A 
ATOM      4  C2  OXE d   1      -0.902  -1.957  -0.835  0.00  0.00    -0.078 A 
ATOM      5  C3  OXE d   1       0.435  -1.592  -0.713  0.00  0.00     0.003 A 
ATOM      6  C4  OXE d   1       1.253  -1.507  -1.846  0.00  0.00    -0.002 A 
ATOM      7  C5  OXE d   1       0.771  -1.896  -3.101  0.00  0.00    -0.002 A 
ATOM      8  C6  OXE d   1      -0.530  -2.375  -3.212  0.00  0.00     0.003 A 
ENDROOT
TORSDOF 0
ENDMDL
