MODEL 1
REMARK minimizedAffinity 4.77991009
REMARK minimizedRMSD -1
REMARK  0 active torsions:
REMARK  status: ('A' for Active; 'I' for Inactive)
ROOT
ATOM      1  C2' OXE d   1       4.893   5.407  -1.748  0.00  0.00     0.078 C 
ATOM      2  C1' OXE d   1       2.564   5.959  -3.215  0.00  0.00     0.078 C 
ATOM      3  C1  OXE d   1       3.740   5.372  -3.956  0.00  0.00    -0.078 A 
ATOM      4  C2  OXE d   1       4.891   5.149  -3.240  0.00  0.00    -0.078 A 
ATOM      5  C3  OXE d   1       5.986   4.558  -3.863  0.00  0.00     0.003 A 
ATOM      6  C4  OXE d   1       5.979   4.331  -5.244  0.00  0.00    -0.002 A 
ATOM      7  C5  OXE d   1       4.831   4.589  -6.000  0.00  0.00    -0.002 A 
ATOM      8  C6  OXE d   1       3.690   5.069  -5.365  0.00  0.00     0.003 A 
ENDROOT
TORSDOF 0
ENDMDL
