MODEL 1
REMARK minimizedAffinity -1.18476212
REMARK minimizedRMSD -1
REMARK  0 active torsions:
REMARK  status: ('A' for Active; 'I' for Inactive)
ROOT
ATOM      1  C2' OXE d   1       4.957   4.612  -5.450  0.00  0.00     0.078 C 
ATOM      2  C1' OXE d   1       4.961   2.269  -3.905  0.00  0.00     0.078 C 
ATOM      3  C1  OXE d   1       5.313   3.564  -3.218  0.00  0.00    -0.078 A 
ATOM      4  C2  OXE d   1       5.355   4.699  -3.992  0.00  0.00    -0.078 A 
ATOM      5  C3  OXE d   1       5.621   5.929  -3.398  0.00  0.00     0.003 A 
ATOM      6  C4  OXE d   1       5.997   6.000  -2.051  0.00  0.00    -0.002 A 
ATOM      7  C5  OXE d   1       6.000   4.850  -1.254  0.00  0.00    -0.002 A 
ATOM      8  C6  OXE d   1       5.620   3.634  -1.811  0.00  0.00     0.003 A 
ENDROOT
TORSDOF 0
ENDMDL
