MODEL 1
REMARK minimizedAffinity 0.012399788
REMARK minimizedRMSD -1
REMARK  0 active torsions:
REMARK  status: ('A' for Active; 'I' for Inactive)
ROOT
ATOM      1  C2' OXE d   1       5.293   3.019  -5.908  0.00  0.00     0.078 C 
ATOM      2  C1' OXE d   1       4.089   5.554  -5.990  0.00  0.00     0.078 C 
ATOM      3  C1  OXE d   1       4.765   5.137  -4.708  0.00  0.00    -0.078 A 
ATOM      4  C2  OXE d   1       5.311   3.877  -4.661  0.00  0.00    -0.078 A 
ATOM      5  C3  OXE d   1       5.994   3.463  -3.521  0.00  0.00     0.003 A 
ATOM      6  C4  OXE d   1       5.998   4.258  -2.369  0.00  0.00    -0.002 A 
ATOM      7  C5  OXE d   1       5.413   5.529  -2.382  0.00  0.00    -0.002 A 
ATOM      8  C6  OXE d   1       4.831   6.000  -3.554  0.00  0.00     0.003 A 
ENDROOT
TORSDOF 0
ENDMDL
