MODEL 1
REMARK minimizedAffinity -1.14901507
REMARK minimizedRMSD -1
REMARK  0 active torsions:
REMARK  status: ('A' for Active; 'I' for Inactive)
ROOT
ATOM      1  C2' OXE d   1       4.385   4.889  -5.877  0.00  0.00     0.078 C 
ATOM      2  C1' OXE d   1       5.737   2.627  -4.910  0.00  0.00     0.078 C 
ATOM      3  C1  OXE d   1       5.542   3.787  -3.966  0.00  0.00    -0.078 A 
ATOM      4  C2  OXE d   1       4.921   4.908  -4.462  0.00  0.00    -0.078 A 
ATOM      5  C3  OXE d   1       4.668   5.986  -3.619  0.00  0.00     0.003 A 
ATOM      6  C4  OXE d   1       5.175   6.000  -2.314  0.00  0.00    -0.002 A 
ATOM      7  C5  OXE d   1       5.846   4.884  -1.801  0.00  0.00    -0.002 A 
ATOM      8  C6  OXE d   1       6.000   3.756  -2.599  0.00  0.00     0.003 A 
ENDROOT
TORSDOF 0
ENDMDL
