MODEL 1
REMARK minimizedAffinity -1.00442076
REMARK minimizedRMSD -1
REMARK  0 active torsions:
REMARK  status: ('A' for Active; 'I' for Inactive)
ROOT
ATOM      1  C2' OXE d   1      -2.627  -3.290   0.071  0.00  0.00     0.078 C 
ATOM      2  C1' OXE d   1      -3.367  -3.600  -2.619  0.00  0.00     0.078 C 
ATOM      3  C1  OXE d   1      -2.094  -2.847  -2.321  0.00  0.00    -0.078 A 
ATOM      4  C2  OXE d   1      -1.764  -2.660  -1.001  0.00  0.00    -0.078 A 
ATOM      5  C3  OXE d   1      -0.573  -2.019  -0.672  0.00  0.00     0.003 A 
ATOM      6  C4  OXE d   1       0.214  -1.430  -1.669  0.00  0.00    -0.002 A 
ATOM      7  C5  OXE d   1      -0.125  -1.575  -3.018  0.00  0.00    -0.002 A 
ATOM      8  C6  OXE d   1      -1.251  -2.315  -3.363  0.00  0.00     0.003 A 
ENDROOT
TORSDOF 0
ENDMDL
