MODEL 1
REMARK minimizedAffinity 0.646998584
REMARK minimizedRMSD -1
REMARK  0 active torsions:
REMARK  status: ('A' for Active; 'I' for Inactive)
ROOT
ATOM      1  C2' OXE d   1       3.828   2.579  -3.789  0.00  0.00     0.078 C 
ATOM      2  C1' OXE d   1       4.272   4.823  -5.415  0.00  0.00     0.078 C 
ATOM      3  C1  OXE d   1       4.818   4.854  -4.010  0.00  0.00    -0.078 A 
ATOM      4  C2  OXE d   1       4.556   3.771  -3.206  0.00  0.00    -0.078 A 
ATOM      5  C3  OXE d   1       5.082   3.725  -1.918  0.00  0.00     0.003 A 
ATOM      6  C4  OXE d   1       5.745   4.836  -1.383  0.00  0.00    -0.002 A 
ATOM      7  C5  OXE d   1       5.989   5.965  -2.172  0.00  0.00    -0.002 A 
ATOM      8  C6  OXE d   1       5.570   5.973  -3.498  0.00  0.00     0.003 A 
ENDROOT
TORSDOF 0
ENDMDL
