MODEL 1
REMARK minimizedAffinity -3.26489186
REMARK minimizedRMSD -1
REMARK  0 active torsions:
REMARK  status: ('A' for Active; 'I' for Inactive)
ROOT
ATOM      1  C2' OXE d   1      -1.573  -2.326   0.474  0.00  0.00     0.078 C 
ATOM      2  C1' OXE d   1      -3.048  -3.380  -1.670  0.00  0.00     0.078 C 
ATOM      3  C1  OXE d   1      -1.646  -2.899  -1.950  0.00  0.00    -0.078 A 
ATOM      4  C2  OXE d   1      -0.948  -2.342  -0.905  0.00  0.00    -0.078 A 
ATOM      5  C3  OXE d   1       0.368  -1.932  -1.096  0.00  0.00     0.003 A 
ATOM      6  C4  OXE d   1       0.934  -1.941  -2.377  0.00  0.00    -0.002 A 
ATOM      7  C5  OXE d   1       0.227  -2.467  -3.462  0.00  0.00    -0.002 A 
ATOM      8  C6  OXE d   1      -1.046  -2.988  -3.258  0.00  0.00     0.003 A 
ENDROOT
TORSDOF 0
ENDMDL
