MODEL 1
REMARK minimizedAffinity -0.371628791
REMARK minimizedRMSD -1
REMARK  0 active torsions:
REMARK  status: ('A' for Active; 'I' for Inactive)
ROOT
ATOM      1  C2' OXE d   1       4.127   4.887  -5.451  0.00  0.00     0.078 C 
ATOM      2  C1' OXE d   1       5.525   2.610  -4.592  0.00  0.00     0.078 C 
ATOM      3  C1  OXE d   1       5.428   3.777  -3.640  0.00  0.00    -0.078 A 
ATOM      4  C2  OXE d   1       4.782   4.904  -4.087  0.00  0.00    -0.078 A 
ATOM      5  C3  OXE d   1       4.616   5.989  -3.230  0.00  0.00     0.003 A 
ATOM      6  C4  OXE d   1       5.233   6.000  -1.974  0.00  0.00    -0.002 A 
ATOM      7  C5  OXE d   1       5.930   4.877  -1.515  0.00  0.00    -0.002 A 
ATOM      8  C6  OXE d   1       6.000   3.744  -2.317  0.00  0.00     0.003 A 
ENDROOT
TORSDOF 0
ENDMDL
