MODEL 1
REMARK minimizedAffinity -1.06654012
REMARK minimizedRMSD -1
REMARK  0 active torsions:
REMARK  status: ('A' for Active; 'I' for Inactive)
ROOT
ATOM      1  C2' OXE d   1       3.861   5.944  -5.730  0.00  0.00     0.078 C 
ATOM      2  C1' OXE d   1       6.000   4.127  -5.678  0.00  0.00     0.078 C 
ATOM      3  C1  OXE d   1       5.467   4.624  -4.357  0.00  0.00    -0.078 A 
ATOM      4  C2  OXE d   1       4.451   5.549  -4.394  0.00  0.00    -0.078 A 
ATOM      5  C3  OXE d   1       3.886   5.999  -3.204  0.00  0.00     0.003 A 
ATOM      6  C4  OXE d   1       4.445   5.637  -1.972  0.00  0.00    -0.002 A 
ATOM      7  C5  OXE d   1       5.506   4.727  -1.914  0.00  0.00    -0.002 A 
ATOM      8  C6  OXE d   1       6.000   4.180  -3.093  0.00  0.00     0.003 A 
ENDROOT
TORSDOF 0
ENDMDL
