MODEL 1
REMARK minimizedAffinity 5.83528376
REMARK minimizedRMSD -1
REMARK  0 active torsions:
REMARK  status: ('A' for Active; 'I' for Inactive)
ROOT
ATOM      1  C2' OXE d   1       4.946   4.440  -5.925  0.00  0.00     0.078 C 
ATOM      2  C1' OXE d   1       2.985   5.999  -4.660  0.00  0.00     0.078 C 
ATOM      3  C1  OXE d   1       4.039   5.356  -3.794  0.00  0.00    -0.078 A 
ATOM      4  C2  OXE d   1       4.967   4.557  -4.416  0.00  0.00    -0.078 A 
ATOM      5  C3  OXE d   1       5.993   3.983  -3.671  0.00  0.00     0.003 A 
ATOM      6  C4  OXE d   1       5.999   4.088  -2.275  0.00  0.00    -0.002 A 
ATOM      7  C5  OXE d   1       5.040   4.865  -1.617  0.00  0.00    -0.002 A 
ATOM      8  C6  OXE d   1       4.080   5.539  -2.364  0.00  0.00     0.003 A 
ENDROOT
TORSDOF 0
ENDMDL
