MODEL 1
REMARK minimizedAffinity 2.66942906
REMARK minimizedRMSD -1
REMARK  0 active torsions:
REMARK  status: ('A' for Active; 'I' for Inactive)
ROOT
ATOM      1  C2' OXE d   1      -0.716  -3.263  -4.680  0.00  0.00     0.078 C 
ATOM      2  C1' OXE d   1       0.403  -1.628  -2.692  0.00  0.00     0.078 C 
ATOM      3  C1  OXE d   1      -0.863  -2.375  -2.357  0.00  0.00    -0.078 A 
ATOM      4  C2  OXE d   1      -1.430  -3.136  -3.352  0.00  0.00    -0.078 A 
ATOM      5  C3  OXE d   1      -2.568  -3.889  -3.080  0.00  0.00     0.003 A 
ATOM      6  C4  OXE d   1      -3.228  -3.759  -1.851  0.00  0.00    -0.002 A 
ATOM      7  C5  OXE d   1      -2.690  -2.958  -0.838  0.00  0.00    -0.002 A 
ATOM      8  C6  OXE d   1      -1.488  -2.295  -1.060  0.00  0.00     0.003 A 
ENDROOT
TORSDOF 0
ENDMDL
