MODEL 1
REMARK minimizedAffinity -0.0842472762
REMARK minimizedRMSD -1
REMARK  0 active torsions:
REMARK  status: ('A' for Active; 'I' for Inactive)
ROOT
ATOM      1  C2' OXE d   1       4.834   5.608  -1.685  0.00  0.00     0.078 C 
ATOM      2  C1' OXE d   1       2.368   5.616  -3.027  0.00  0.00     0.078 C 
ATOM      3  C1  OXE d   1       3.614   5.392  -3.846  0.00  0.00    -0.078 A 
ATOM      4  C2  OXE d   1       4.820   5.436  -3.189  0.00  0.00    -0.078 A 
ATOM      5  C3  OXE d   1       5.996   5.181  -3.888  0.00  0.00     0.003 A 
ATOM      6  C4  OXE d   1       5.975   5.034  -5.280  0.00  0.00    -0.002 A 
ATOM      7  C5  OXE d   1       4.761   5.025  -5.975  0.00  0.00    -0.002 A 
ATOM      8  C6  OXE d   1       3.571   5.160  -5.269  0.00  0.00     0.003 A 
ENDROOT
TORSDOF 0
ENDMDL
