MODEL 1
REMARK minimizedAffinity 1.88564765
REMARK minimizedRMSD -1
REMARK  0 active torsions:
REMARK  status: ('A' for Active; 'I' for Inactive)
ROOT
ATOM      1  C2' OXE d   1       4.948  -4.972   5.999  0.00  0.00     0.078 C 
ATOM      2  C1' OXE d   1       5.642  -2.252   6.000  0.00  0.00     0.078 C 
ATOM      3  C1  OXE d   1       4.695  -2.736   4.931  0.00  0.00    -0.078 A 
ATOM      4  C2  OXE d   1       4.398  -4.078   4.910  0.00  0.00    -0.078 A 
ATOM      5  C3  OXE d   1       3.487  -4.567   3.978  0.00  0.00     0.003 A 
ATOM      6  C4  OXE d   1       2.990  -3.735   2.968  0.00  0.00    -0.002 A 
ATOM      7  C5  OXE d   1       3.311  -2.374   2.947  0.00  0.00    -0.002 A 
ATOM      8  C6  OXE d   1       4.127  -1.851   3.944  0.00  0.00     0.003 A 
ENDROOT
TORSDOF 0
ENDMDL
