MODEL 1
REMARK minimizedAffinity 5.08861351
REMARK minimizedRMSD -1
REMARK  0 active torsions:
REMARK  status: ('A' for Active; 'I' for Inactive)
ROOT
ATOM      1  C2' OXE d   1       0.598  -2.676   1.461  0.00  0.00     0.078 C 
ATOM      2  C1' OXE d   1      -0.152  -1.937  -1.141  0.00  0.00     0.078 C 
ATOM      3  C1  OXE d   1      -1.209  -2.537  -0.248  0.00  0.00    -0.078 A 
ATOM      4  C2  OXE d   1      -0.822  -2.939   1.008  0.00  0.00    -0.078 A 
ATOM      5  C3  OXE d   1      -1.770  -3.448   1.891  0.00  0.00     0.003 A 
ATOM      6  C4  OXE d   1      -3.079  -3.697   1.461  0.00  0.00    -0.002 A 
ATOM      7  C5  OXE d   1      -3.484  -3.332   0.173  0.00  0.00    -0.002 A 
ATOM      8  C6  OXE d   1      -2.575  -2.713  -0.678  0.00  0.00     0.003 A 
ENDROOT
TORSDOF 0
ENDMDL
