MODEL 1
REMARK minimizedAffinity 2.82216358
REMARK minimizedRMSD -1
REMARK  0 active torsions:
REMARK  status: ('A' for Active; 'I' for Inactive)
ROOT
ATOM      1  C2' OXE d   1       0.582  -3.506   0.911  0.00  0.00     0.078 C 
ATOM      2  C1' OXE d   1      -1.729  -2.617   2.233  0.00  0.00     0.078 C 
ATOM      3  C1  OXE d   1      -1.816  -2.851   0.745  0.00  0.00    -0.078 A 
ATOM      4  C2  OXE d   1      -0.667  -3.241   0.099  0.00  0.00    -0.078 A 
ATOM      5  C3  OXE d   1      -0.705  -3.523  -1.264  0.00  0.00     0.003 A 
ATOM      6  C4  OXE d   1      -1.862  -3.265  -2.009  0.00  0.00    -0.002 A 
ATOM      7  C5  OXE d   1      -3.032  -2.830  -1.377  0.00  0.00    -0.002 A 
ATOM      8  C6  OXE d   1      -3.037  -2.659   0.003  0.00  0.00     0.003 A 
ENDROOT
TORSDOF 0
ENDMDL
