MODEL 1
REMARK minimizedAffinity -0.339619398
REMARK minimizedRMSD -1
REMARK  0 active torsions:
REMARK  status: ('A' for Active; 'I' for Inactive)
ROOT
ATOM      1  C2' OXE d   1       3.782   3.928  -0.758  0.00  0.00     0.078 C 
ATOM      2  C1' OXE d   1       5.997   5.638  -0.530  0.00  0.00     0.078 C 
ATOM      3  C1  OXE d   1       5.446   5.380  -1.911  0.00  0.00    -0.078 A 
ATOM      4  C2  OXE d   1       4.392   4.505  -2.017  0.00  0.00    -0.078 A 
ATOM      5  C3  OXE d   1       3.811   4.274  -3.261  0.00  0.00     0.003 A 
ATOM      6  C4  OXE d   1       4.387   4.804  -4.422  0.00  0.00    -0.002 A 
ATOM      7  C5  OXE d   1       5.486   5.666  -4.339  0.00  0.00    -0.002 A 
ATOM      8  C6  OXE d   1       6.000   5.997  -3.090  0.00  0.00     0.003 A 
ENDROOT
TORSDOF 0
ENDMDL
