MODEL 1
REMARK minimizedAffinity 1.04963005
REMARK minimizedRMSD -1
REMARK  0 active torsions:
REMARK  status: ('A' for Active; 'I' for Inactive)
ROOT
ATOM      1  C2' OXE d   1      -1.359   1.577   1.804  0.00  0.00     0.078 C 
ATOM      2  C1' OXE d   1      -2.119  -0.085   3.935  0.00  0.00     0.078 C 
ATOM      3  C1  OXE d   1      -1.766  -0.740   2.623  0.00  0.00    -0.078 A 
ATOM      4  C2  OXE d   1      -1.440   0.084   1.572  0.00  0.00    -0.078 A 
ATOM      5  C3  OXE d   1      -1.052  -0.471   0.356  0.00  0.00     0.003 A 
ATOM      6  C4  OXE d   1      -1.139  -1.852   0.147  0.00  0.00    -0.002 A 
ATOM      7  C5  OXE d   1      -1.507  -2.707   1.192  0.00  0.00    -0.002 A 
ATOM      8  C6  OXE d   1      -1.781  -2.171   2.445  0.00  0.00     0.003 A 
ENDROOT
TORSDOF 0
ENDMDL
