MODEL 1
REMARK minimizedAffinity -1.78002894
REMARK minimizedRMSD -1
REMARK  0 active torsions:
REMARK  status: ('A' for Active; 'I' for Inactive)
ROOT
ATOM      1  C2' OXE d   1      -2.054  -1.876   2.814  0.00  0.00     0.078 C 
ATOM      2  C1' OXE d   1      -2.997  -2.249   5.432  0.00  0.00     0.078 C 
ATOM      3  C1  OXE d   1      -2.456  -0.890   5.066  0.00  0.00    -0.078 A 
ATOM      4  C2  OXE d   1      -1.953  -0.729   3.797  0.00  0.00    -0.078 A 
ATOM      5  C3  OXE d   1      -1.492   0.520   3.391  0.00  0.00     0.003 A 
ATOM      6  C4  OXE d   1      -1.393   1.572   4.310  0.00  0.00    -0.002 A 
ATOM      7  C5  OXE d   1      -1.862   1.418   5.619  0.00  0.00    -0.002 A 
ATOM      8  C6  OXE d   1      -2.434   0.209   6.000  0.00  0.00     0.003 A 
ENDROOT
TORSDOF 0
ENDMDL
