MODEL 1
REMARK minimizedAffinity 2.33422208
REMARK minimizedRMSD -1
REMARK  1 active torsions:
REMARK  status: ('A' for Active; 'I' for Inactive)
REMARK    1  A    between atoms: N_2  and  C1_3 
ROOT
ATOM      1  C1  UNL d   1       3.471  -0.681  -0.183  0.00  0.00     0.143 A 
ATOM      2  C2  UNL d   1       3.076   0.418  -0.953  0.00  0.00    -0.057 A 
ATOM      3  C3  UNL d   1       2.327   0.252  -2.124  0.00  0.00     0.033 A 
ATOM      4  C4  UNL d   1       1.984  -1.022  -2.563  0.00  0.00    -0.042 A 
ATOM      5  C5  UNL d   1       2.387  -2.131  -1.827  0.00  0.00     0.033 A 
ATOM      6  C6  UNL d   1       3.129  -1.958  -0.654  0.00  0.00    -0.057 A 
ENDROOT
BRANCH   1   7
ATOM      7  N   UNL d   1       4.301  -0.588   0.937  0.00  0.00    -0.732 N 
ATOM      8  C   UNL d   1       3.788  -0.088   2.195  0.00  0.00     0.284 C 
ATOM      9  H3  UNL d   1       4.920  -1.390   1.030  0.00  0.00     0.395 HD
ENDBRANCH   1   7
TORSDOF 1
ENDMDL
