MODEL 1
REMARK minimizedAffinity 4.02933455
REMARK minimizedRMSD -1
REMARK  1 active torsions:
REMARK  status: ('A' for Active; 'I' for Inactive)
REMARK    1  A    between atoms: N_2  and  C1_3 
ROOT
ATOM      1  C1  UNL d   1       0.325   1.774  -0.626  0.00  0.00     0.143 A 
ATOM      2  C2  UNL d   1      -1.044   1.995  -0.438  0.00  0.00    -0.057 A 
ATOM      3  C3  UNL d   1      -1.543   2.460   0.784  0.00  0.00     0.033 A 
ATOM      4  C4  UNL d   1      -0.683   2.685   1.854  0.00  0.00    -0.042 A 
ATOM      5  C5  UNL d   1       0.678   2.448   1.698  0.00  0.00     0.033 A 
ATOM      6  C6  UNL d   1       1.172   1.990   0.472  0.00  0.00    -0.057 A 
ENDROOT
BRANCH   1   7
ATOM      7  N   UNL d   1       0.871   1.218  -1.786  0.00  0.00    -0.732 N 
ATOM      8  C   UNL d   1       2.120   0.490  -1.737  0.00  0.00     0.284 C 
ATOM      9  H3  UNL d   1       0.165   0.793  -2.382  0.00  0.00     0.395 HD
ENDBRANCH   1   7
TORSDOF 1
ENDMDL
