MODEL 1
REMARK minimizedAffinity 15.6970577
REMARK minimizedRMSD -1
REMARK  1 active torsions:
REMARK  status: ('A' for Active; 'I' for Inactive)
REMARK    1  A    between atoms: N_2  and  C1_3 
ROOT
ATOM      1  C1  UNL d   1      -5.849  -0.859   2.980  0.00  0.00     0.143 A 
ATOM      2  C2  UNL d   1      -5.701   0.499   3.278  0.00  0.00    -0.057 A 
ATOM      3  C3  UNL d   1      -5.656   0.952   4.602  0.00  0.00     0.033 A 
ATOM      4  C4  UNL d   1      -5.789   0.053   5.655  0.00  0.00    -0.042 A 
ATOM      5  C5  UNL d   1      -5.963  -1.299   5.383  0.00  0.00     0.033 A 
ATOM      6  C6  UNL d   1      -6.000  -1.746   4.058  0.00  0.00    -0.057 A 
ENDROOT
BRANCH   1   7
ATOM      7  N   UNL d   1      -5.999  -1.360   1.684  0.00  0.00    -0.732 N 
ATOM      8  C   UNL d   1      -5.998  -2.786   1.440  0.00  0.00     0.284 C 
ATOM      9  H3  UNL d   1      -6.695  -0.847   1.148  0.00  0.00     0.395 HD
ENDBRANCH   1   7
TORSDOF 1
ENDMDL
