MODEL 1
REMARK minimizedAffinity 7.06437731
REMARK minimizedRMSD -1
REMARK  1 active torsions:
REMARK  status: ('A' for Active; 'I' for Inactive)
REMARK    1  A    between atoms: N_2  and  C1_3 
ROOT
ATOM      1  C1  UNL d   1       1.602   2.489  -0.310  0.00  0.00     0.143 A 
ATOM      2  C2  UNL d   1       1.619   3.887  -0.331  0.00  0.00    -0.057 A 
ATOM      3  C3  UNL d   1       2.207   4.622   0.705  0.00  0.00     0.033 A 
ATOM      4  C4  UNL d   1       2.766   3.969   1.799  0.00  0.00    -0.042 A 
ATOM      5  C5  UNL d   1       2.739   2.580   1.853  0.00  0.00     0.033 A 
ATOM      6  C6  UNL d   1       2.155   1.852   0.812  0.00  0.00    -0.057 A 
ENDROOT
BRANCH   1   7
ATOM      7  N   UNL d   1       0.945   1.704  -1.261  0.00  0.00    -0.732 N 
ATOM      8  C   UNL d   1       1.680   1.097  -2.350  0.00  0.00     0.284 C 
ATOM      9  H3  UNL d   1       0.242   1.098  -0.846  0.00  0.00     0.395 HD
ENDBRANCH   1   7
TORSDOF 1
ENDMDL
