MODEL 1
REMARK minimizedAffinity 8.73995972
REMARK minimizedRMSD -1
REMARK  1 active torsions:
REMARK  status: ('A' for Active; 'I' for Inactive)
REMARK    1  A    between atoms: N_2  and  C1_3 
ROOT
ATOM      1  C1  UNL d   1       2.115   0.427  -2.121  0.00  0.00     0.143 A 
ATOM      2  C2  UNL d   1       3.157   0.391  -1.189  0.00  0.00    -0.057 A 
ATOM      3  C3  UNL d   1       3.533  -0.805  -0.566  0.00  0.00     0.033 A 
ATOM      4  C4  UNL d   1       2.852  -1.985  -0.844  0.00  0.00    -0.042 A 
ATOM      5  C5  UNL d   1       1.796  -1.968  -1.749  0.00  0.00     0.033 A 
ATOM      6  C6  UNL d   1       1.430  -0.772  -2.373  0.00  0.00    -0.057 A 
ENDROOT
BRANCH   1   7
ATOM      7  N   UNL d   1       1.630   1.602  -2.700  0.00  0.00    -0.732 N 
ATOM      8  C   UNL d   1       0.638   2.406  -2.018  0.00  0.00     0.284 C 
ATOM      9  H3  UNL d   1       2.363   2.143  -3.153  0.00  0.00     0.395 HD
ENDBRANCH   1   7
TORSDOF 1
ENDMDL
