MODEL 1
REMARK minimizedAffinity 0.540470839
REMARK minimizedRMSD -1
REMARK  1 active torsions:
REMARK  status: ('A' for Active; 'I' for Inactive)
REMARK    1  A    between atoms: N_2  and  C1_3 
ROOT
ATOM      1  C1  UNL d   1       2.043  -0.863  -1.300  0.00  0.00     0.143 A 
ATOM      2  C2  UNL d   1       2.840  -1.608  -0.425  0.00  0.00    -0.057 A 
ATOM      3  C3  UNL d   1       2.319  -2.699   0.282  0.00  0.00     0.033 A 
ATOM      4  C4  UNL d   1       0.979  -3.047   0.147  0.00  0.00    -0.042 A 
ATOM      5  C5  UNL d   1       0.162  -2.305  -0.698  0.00  0.00     0.033 A 
ATOM      6  C6  UNL d   1       0.690  -1.221  -1.406  0.00  0.00    -0.057 A 
ENDROOT
BRANCH   1   7
ATOM      7  N   UNL d   1       2.477   0.292  -1.956  0.00  0.00    -0.732 N 
ATOM      8  C   UNL d   1       1.542   1.345  -2.291  0.00  0.00     0.284 C 
ATOM      9  H3  UNL d   1       3.371   0.626  -1.603  0.00  0.00     0.395 HD
ENDBRANCH   1   7
TORSDOF 1
ENDMDL
