MODEL 1
REMARK minimizedAffinity 1.83786464
REMARK minimizedRMSD -1
REMARK  1 active torsions:
REMARK  status: ('A' for Active; 'I' for Inactive)
REMARK    1  A    between atoms: N_2  and  C1_3 
ROOT
ATOM      1  C1  UNL d   1       1.973  -0.543  -1.681  0.00  0.00     0.143 A 
ATOM      2  C2  UNL d   1       3.026  -1.287  -1.140  0.00  0.00    -0.057 A 
ATOM      3  C3  UNL d   1       2.786  -2.393  -0.316  0.00  0.00     0.033 A 
ATOM      4  C4  UNL d   1       1.483  -2.758   0.006  0.00  0.00    -0.042 A 
ATOM      5  C5  UNL d   1       0.420  -2.017  -0.500  0.00  0.00     0.033 A 
ATOM      6  C6  UNL d   1       0.667  -0.918  -1.328  0.00  0.00    -0.057 A 
ENDROOT
BRANCH   1   7
ATOM      7  N   UNL d   1       2.148   0.626  -2.427  0.00  0.00    -0.732 N 
ATOM      8  C   UNL d   1       1.530   1.866  -2.010  0.00  0.00     0.284 C 
ATOM      9  H3  UNL d   1       3.102   0.730  -2.766  0.00  0.00     0.395 HD
ENDBRANCH   1   7
TORSDOF 1
ENDMDL
