MODEL 1
REMARK minimizedAffinity 0.229661226
REMARK minimizedRMSD -1
REMARK  1 active torsions:
REMARK  status: ('A' for Active; 'I' for Inactive)
REMARK    1  A    between atoms: N_2  and  C1_3 
ROOT
ATOM      1  C1  UNL d   1       2.252  -0.522  -1.833  0.00  0.00     0.143 A 
ATOM      2  C2  UNL d   1       1.009  -1.162  -1.889  0.00  0.00    -0.057 A 
ATOM      3  C3  UNL d   1       0.721  -2.261  -1.070  0.00  0.00     0.033 A 
ATOM      4  C4  UNL d   1       1.684  -2.759  -0.199  0.00  0.00    -0.042 A 
ATOM      5  C5  UNL d   1       2.935  -2.154  -0.146  0.00  0.00     0.033 A 
ATOM      6  C6  UNL d   1       3.215  -1.053  -0.961  0.00  0.00    -0.057 A 
ENDROOT
BRANCH   1   7
ATOM      7  N   UNL d   1       2.633   0.512  -2.691  0.00  0.00    -0.732 N 
ATOM      8  C   UNL d   1       1.884   1.750  -2.732  0.00  0.00     0.284 C 
ATOM      9  H3  UNL d   1       3.642   0.636  -2.726  0.00  0.00     0.395 HD
ENDBRANCH   1   7
TORSDOF 1
ENDMDL
