MODEL 1
REMARK minimizedAffinity 3.89300871
REMARK minimizedRMSD -1
REMARK  1 active torsions:
REMARK  status: ('A' for Active; 'I' for Inactive)
REMARK    1  A    between atoms: N_2  and  C1_3 
ROOT
ATOM      1  C1  UNL d   1       2.200   2.611   1.063  0.00  0.00     0.143 A 
ATOM      2  C2  UNL d   1       1.523   2.983   2.230  0.00  0.00    -0.057 A 
ATOM      3  C3  UNL d   1       0.176   2.655   2.424  0.00  0.00     0.033 A 
ATOM      4  C4  UNL d   1      -0.528   1.972   1.437  0.00  0.00    -0.042 A 
ATOM      5  C5  UNL d   1       0.117   1.614   0.259  0.00  0.00     0.033 A 
ATOM      6  C6  UNL d   1       1.465   1.939   0.075  0.00  0.00    -0.057 A 
ENDROOT
BRANCH   1   7
ATOM      7  N   UNL d   1       3.512   2.993   0.770  0.00  0.00    -0.732 N 
ATOM      8  C   UNL d   1       3.791   4.295   0.203  0.00  0.00     0.284 C 
ATOM      9  H3  UNL d   1       4.171   2.702   1.488  0.00  0.00     0.395 HD
ENDBRANCH   1   7
TORSDOF 1
ENDMDL
