MODEL 1
REMARK minimizedAffinity 9.3328228
REMARK minimizedRMSD -1
REMARK  1 active torsions:
REMARK  status: ('A' for Active; 'I' for Inactive)
REMARK    1  A    between atoms: N_2  and  C1_3 
ROOT
ATOM      1  C1  UNL d   1       0.425   1.960  -0.229  0.00  0.00     0.143 A 
ATOM      2  C2  UNL d   1      -0.614   2.310   0.640  0.00  0.00    -0.057 A 
ATOM      3  C3  UNL d   1      -0.353   2.756   1.941  0.00  0.00     0.033 A 
ATOM      4  C4  UNL d   1       0.955   2.833   2.408  0.00  0.00    -0.042 A 
ATOM      5  C5  UNL d   1       2.003   2.466   1.569  0.00  0.00     0.033 A 
ATOM      6  C6  UNL d   1       1.736   2.028   0.269  0.00  0.00    -0.057 A 
ENDROOT
BRANCH   1   7
ATOM      7  N   UNL d   1       0.226   1.416  -1.500  0.00  0.00    -0.732 N 
ATOM      8  C   UNL d   1       1.098   0.377  -2.003  0.00  0.00     0.284 C 
ATOM      9  H3  UNL d   1      -0.759   1.270  -1.710  0.00  0.00     0.395 HD
ENDBRANCH   1   7
TORSDOF 1
ENDMDL
