MODEL 1
REMARK minimizedAffinity 0.714844525
REMARK minimizedRMSD -1
REMARK  1 active torsions:
REMARK  status: ('A' for Active; 'I' for Inactive)
REMARK    1  A    between atoms: N_2  and  C1_3 
ROOT
ATOM      1  C1  UNL d   1       0.363   2.616   1.232  0.00  0.00     0.143 A 
ATOM      2  C2  UNL d   1      -0.322   3.799   0.936  0.00  0.00    -0.057 A 
ATOM      3  C3  UNL d   1      -0.731   4.093  -0.371  0.00  0.00     0.033 A 
ATOM      4  C4  UNL d   1      -0.436   3.219  -1.412  0.00  0.00    -0.042 A 
ATOM      5  C5  UNL d   1       0.265   2.049  -1.144  0.00  0.00     0.033 A 
ATOM      6  C6  UNL d   1       0.666   1.758   0.164  0.00  0.00    -0.057 A 
ENDROOT
BRANCH   1   7
ATOM      7  N   UNL d   1       0.883   2.314   2.493  0.00  0.00    -0.732 N 
ATOM      8  C   UNL d   1       2.094   1.532   2.623  0.00  0.00     0.284 C 
ATOM      9  H3  UNL d   1       0.825   3.100   3.136  0.00  0.00     0.395 HD
ENDBRANCH   1   7
TORSDOF 1
ENDMDL
