MODEL 1
REMARK minimizedAffinity 10.1638651
REMARK minimizedRMSD -1
REMARK  1 active torsions:
REMARK  status: ('A' for Active; 'I' for Inactive)
REMARK    1  A    between atoms: N_2  and  C1_3 
ROOT
ATOM      1  C1  UNL d   1       3.710   5.269  -2.713  0.00  0.00     0.143 A 
ATOM      2  C2  UNL d   1       4.878   5.953  -3.068  0.00  0.00    -0.057 A 
ATOM      3  C3  UNL d   1       6.000   5.956  -2.230  0.00  0.00     0.033 A 
ATOM      4  C4  UNL d   1       5.963   5.297  -1.005  0.00  0.00    -0.042 A 
ATOM      5  C5  UNL d   1       4.804   4.632  -0.621  0.00  0.00     0.033 A 
ATOM      6  C6  UNL d   1       3.689   4.627  -1.465  0.00  0.00    -0.057 A 
ENDROOT
BRANCH   1   7
ATOM      7  N   UNL d   1       2.528   5.310  -3.458  0.00  0.00    -0.732 N 
ATOM      8  C   UNL d   1       2.505   5.918  -4.771  0.00  0.00     0.284 C 
ATOM      9  H3  UNL d   1       1.997   4.445  -3.391  0.00  0.00     0.395 HD
ENDBRANCH   1   7
TORSDOF 1
ENDMDL
