MODEL 1
REMARK minimizedAffinity 3.37150335
REMARK minimizedRMSD -1
REMARK  0 active torsions:
REMARK  status: ('A' for Active; 'I' for Inactive)
ROOT
ATOM      1  C1  DEN d   1       2.241   5.811   3.535  0.00  0.00     0.130 A 
ATOM      2  C2  DEN d   1       1.396   5.484   4.680  0.00  0.00    -0.031 A 
ATOM      3  C3  DEN d   1       2.274   5.265   5.848  0.00  0.00     0.027 A 
ATOM      4  C4  DEN d   1       4.845   5.405   5.993  0.00  0.00     0.027 A 
ATOM      5  C5  DEN d   1       5.999   5.638   5.278  0.00  0.00    -0.003 A 
ATOM      6  C6  DEN d   1       5.983   5.910   3.936  0.00  0.00     0.001 A 
ATOM      7  C7  DEN d   1       4.787   6.000   3.275  0.00  0.00     0.017 A 
ATOM      8  C8  DEN d   1       3.620   5.758   3.988  0.00  0.00    -0.094 A 
ATOM      9  C9  DEN d   1       3.655   5.497   5.347  0.00  0.00    -0.072 A 
ENDROOT
TORSDOF 0
ENDMDL
