MODEL 1
REMARK minimizedAffinity 5.21436882
REMARK minimizedRMSD -1
REMARK  0 active torsions:
REMARK  status: ('A' for Active; 'I' for Inactive)
ROOT
ATOM      1  C1  DEN d   1      -2.232  -0.443   0.289  0.00  0.00     0.130 A 
ATOM      2  C2  DEN d   1      -3.202   0.523   0.799  0.00  0.00    -0.031 A 
ATOM      3  C3  DEN d   1      -2.641   1.130   2.022  0.00  0.00     0.027 A 
ATOM      4  C4  DEN d   1      -0.376   0.675   3.169  0.00  0.00     0.027 A 
ATOM      5  C5  DEN d   1       0.781  -0.070   3.112  0.00  0.00    -0.003 A 
ATOM      6  C6  DEN d   1       0.999  -1.007   2.138  0.00  0.00     0.001 A 
ATOM      7  C7  DEN d   1       0.064  -1.193   1.154  0.00  0.00     0.017 A 
ATOM      8  C8  DEN d   1      -1.109  -0.452   1.209  0.00  0.00    -0.094 A 
ATOM      9  C9  DEN d   1      -1.305   0.500   2.195  0.00  0.00    -0.072 A 
ENDROOT
TORSDOF 0
ENDMDL
