MODEL 1
REMARK minimizedAffinity 19.1369724
REMARK minimizedRMSD -1
REMARK  0 active torsions:
REMARK  status: ('A' for Active; 'I' for Inactive)
ROOT
ATOM      1  C1  DEN d   1      -5.259   1.616  -4.849  0.00  0.00     0.130 A 
ATOM      2  C2  DEN d   1      -4.223   1.134  -3.939  0.00  0.00    -0.031 A 
ATOM      3  C3  DEN d   1      -3.325   2.265  -3.631  0.00  0.00     0.027 A 
ATOM      4  C4  DEN d   1      -3.439   4.703  -4.466  0.00  0.00     0.027 A 
ATOM      5  C5  DEN d   1      -4.134   5.584  -5.264  0.00  0.00    -0.003 A 
ATOM      6  C6  DEN d   1      -5.224   5.200  -6.000  0.00  0.00     0.001 A 
ATOM      7  C7  DEN d   1      -5.678   3.910  -5.918  0.00  0.00     0.017 A 
ATOM      8  C8  DEN d   1      -4.978   3.014  -5.121  0.00  0.00    -0.094 A 
ATOM      9  C9  DEN d   1      -3.886   3.425  -4.375  0.00  0.00    -0.072 A 
ENDROOT
TORSDOF 0
ENDMDL
