MODEL 1
REMARK minimizedAffinity 8.98421574
REMARK minimizedRMSD -1
REMARK  0 active torsions:
REMARK  status: ('A' for Active; 'I' for Inactive)
ROOT
ATOM      1  C1  DEN d   1       2.646   4.123   5.649  0.00  0.00     0.130 A 
ATOM      2  C2  DEN d   1       1.815   3.956   4.459  0.00  0.00    -0.031 A 
ATOM      3  C3  DEN d   1       2.549   4.519   3.308  0.00  0.00     0.027 A 
ATOM      4  C4  DEN d   1       4.880   5.622   3.252  0.00  0.00     0.027 A 
ATOM      5  C5  DEN d   1       5.962   6.000   4.016  0.00  0.00    -0.003 A 
ATOM      6  C6  DEN d   1       6.000   5.811   5.372  0.00  0.00     0.001 A 
ATOM      7  C7  DEN d   1       4.954   5.187   6.000  0.00  0.00     0.017 A 
ATOM      8  C8  DEN d   1       3.856   4.810   5.237  0.00  0.00    -0.094 A 
ATOM      9  C9  DEN d   1       3.842   4.999   3.866  0.00  0.00    -0.072 A 
ENDROOT
TORSDOF 0
ENDMDL
