MODEL 1
REMARK minimizedAffinity 12.4715271
REMARK minimizedRMSD -1
REMARK  0 active torsions:
REMARK  status: ('A' for Active; 'I' for Inactive)
ROOT
ATOM      1  C1  DEN d   1      -1.517  -0.355  -2.776  0.00  0.00     0.130 A 
ATOM      2  C2  DEN d   1      -2.420  -0.059  -1.666  0.00  0.00    -0.031 A 
ATOM      3  C3  DEN d   1      -2.738   1.382  -1.708  0.00  0.00     0.027 A 
ATOM      4  C4  DEN d   1      -1.929   3.175  -3.377  0.00  0.00     0.027 A 
ATOM      5  C5  DEN d   1      -1.142   3.404  -4.484  0.00  0.00    -0.003 A 
ATOM      6  C6  DEN d   1      -0.404   2.412  -5.074  0.00  0.00     0.001 A 
ATOM      7  C7  DEN d   1      -0.473   1.134  -4.586  0.00  0.00     0.017 A 
ATOM      8  C8  DEN d   1      -1.259   0.896  -3.466  0.00  0.00    -0.094 A 
ATOM      9  C9  DEN d   1      -2.007   1.910  -2.892  0.00  0.00    -0.072 A 
ENDROOT
TORSDOF 0
ENDMDL
