MODEL 1
REMARK minimizedAffinity -3.76840258
REMARK minimizedRMSD -1
REMARK  0 active torsions:
REMARK  status: ('A' for Active; 'I' for Inactive)
ROOT
ATOM      1  C   UNL d   1       2.248  -1.556   0.191  0.00  0.00     0.020 A 
ATOM      2  C1  UNL d   1       3.028  -0.444   0.507  0.00  0.00     0.020 A 
ATOM      3  C2  UNL d   1       2.489   0.840   0.404  0.00  0.00     0.034 A 
ATOM      4  C3  UNL d   1       1.165   1.015  -0.015  0.00  0.00     0.017 A 
ATOM      5  C4  UNL d   1       0.382  -0.101  -0.331  0.00  0.00     0.017 A 
ATOM      6  C5  UNL d   1       0.928  -1.384  -0.227  0.00  0.00     0.034 A 
ATOM      7 Cl   UNL d   1      -1.259   0.036  -0.855  0.00  0.00    -0.070 Cl
ATOM      8 Cl1  UNL d   1       0.563   2.632  -0.119  0.00  0.00    -0.070 Cl
ENDROOT
TORSDOF 0
ENDMDL
