MODEL 1
REMARK minimizedAffinity 0.953956306
REMARK minimizedRMSD -1
REMARK  0 active torsions:
REMARK  status: ('A' for Active; 'I' for Inactive)
ROOT
ATOM      1  C   UNL d   1      -0.230   1.710   0.134  0.00  0.00     0.020 A 
ATOM      2  C1  UNL d   1      -1.196   0.705   0.141  0.00  0.00     0.020 A 
ATOM      3  C2  UNL d   1      -0.831  -0.613   0.426  0.00  0.00     0.034 A 
ATOM      4  C3  UNL d   1       0.503  -0.929   0.705  0.00  0.00     0.017 A 
ATOM      5  C4  UNL d   1       1.473   0.081   0.697  0.00  0.00     0.017 A 
ATOM      6  C5  UNL d   1       1.102   1.398   0.411  0.00  0.00     0.034 A 
ATOM      7 Cl   UNL d   1       3.139  -0.232   1.032  0.00  0.00    -0.070 Cl
ATOM      8 Cl1  UNL d   1       0.883  -2.579   1.049  0.00  0.00    -0.070 Cl
ENDROOT
TORSDOF 0
ENDMDL
