MODEL 1
REMARK minimizedAffinity -3.85421991
REMARK minimizedRMSD -1
REMARK  0 active torsions:
REMARK  status: ('A' for Active; 'I' for Inactive)
ROOT
ATOM      1  C   UNL d   1       2.378  -1.617   0.464  0.00  0.00     0.020 A 
ATOM      2  C1  UNL d   1       3.122  -0.460   0.693  0.00  0.00     0.020 A 
ATOM      3  C2  UNL d   1       2.501   0.790   0.651  0.00  0.00     0.034 A 
ATOM      4  C3  UNL d   1       1.131   0.886   0.380  0.00  0.00     0.017 A 
ATOM      5  C4  UNL d   1       0.385  -0.276   0.150  0.00  0.00     0.017 A 
ATOM      6  C5  UNL d   1       1.012  -1.525   0.193  0.00  0.00     0.034 A 
ATOM      7 Cl   UNL d   1      -1.309  -0.237  -0.190  0.00  0.00    -0.070 Cl
ATOM      8 Cl1  UNL d   1       0.428   2.464   0.345  0.00  0.00    -0.070 Cl
ENDROOT
TORSDOF 0
ENDMDL
