MODEL 1
REMARK minimizedAffinity -4.30609083
REMARK minimizedRMSD -1
REMARK  0 active torsions:
REMARK  status: ('A' for Active; 'I' for Inactive)
ROOT
ATOM      1  C   UNL d   1      -0.580  -1.430   0.806  0.00  0.00     0.020 A 
ATOM      2  C1  UNL d   1      -1.256  -0.442   0.092  0.00  0.00     0.020 A 
ATOM      3  C2  UNL d   1      -0.590   0.726  -0.284  0.00  0.00     0.034 A 
ATOM      4  C3  UNL d   1       0.756   0.909   0.052  0.00  0.00     0.017 A 
ATOM      5  C4  UNL d   1       1.434  -0.084   0.769  0.00  0.00     0.017 A 
ATOM      6  C5  UNL d   1       0.762  -1.252   1.143  0.00  0.00     0.034 A 
ATOM      7 Cl   UNL d   1       3.095   0.069   1.220  0.00  0.00    -0.070 Cl
ATOM      8 Cl1  UNL d   1       1.517   2.378  -0.446  0.00  0.00    -0.070 Cl
ENDROOT
TORSDOF 0
ENDMDL
