MODEL 1
REMARK minimizedAffinity -5.09328318
REMARK minimizedRMSD -1
REMARK  0 active torsions:
REMARK  status: ('A' for Active; 'I' for Inactive)
ROOT
ATOM      1  C   UNL d   1       2.138  -2.010   1.908  0.00  0.00     0.020 A 
ATOM      2  C1  UNL d   1       3.002  -0.930   1.736  0.00  0.00     0.020 A 
ATOM      3  C2  UNL d   1       2.559   0.223   1.085  0.00  0.00     0.034 A 
ATOM      4  C3  UNL d   1       1.247   0.298   0.602  0.00  0.00     0.017 A 
ATOM      5  C4  UNL d   1       0.380  -0.787   0.775  0.00  0.00     0.017 A 
ATOM      6  C5  UNL d   1       0.829  -1.939   1.428  0.00  0.00     0.034 A 
ATOM      7 Cl   UNL d   1      -1.253  -0.768   0.208  0.00  0.00    -0.070 Cl
ATOM      8 Cl1  UNL d   1       0.766   1.754  -0.193  0.00  0.00    -0.070 Cl
ENDROOT
TORSDOF 0
ENDMDL
