MODEL 1
REMARK minimizedAffinity -2.03110838
REMARK minimizedRMSD -1
REMARK  0 active torsions:
REMARK  status: ('A' for Active; 'I' for Inactive)
ROOT
ATOM      1  C   UNL d   1      -3.306   1.389  -2.628  0.00  0.00     0.020 A 
ATOM      2  C1  UNL d   1      -3.824   0.635  -3.679  0.00  0.00     0.020 A 
ATOM      3  C2  UNL d   1      -3.764  -0.760  -3.634  0.00  0.00     0.034 A 
ATOM      4  C3  UNL d   1      -3.185  -1.404  -2.535  0.00  0.00     0.017 A 
ATOM      5  C4  UNL d   1      -2.666  -0.646  -1.479  0.00  0.00     0.017 A 
ATOM      6  C5  UNL d   1      -2.728   0.750  -1.530  0.00  0.00     0.034 A 
ATOM      7 Cl   UNL d   1      -1.936  -1.369  -0.090  0.00  0.00    -0.070 Cl
ATOM      8 Cl1  UNL d   1      -3.145  -3.132  -2.545  0.00  0.00    -0.070 Cl
ENDROOT
TORSDOF 0
ENDMDL
