MODEL 1
REMARK minimizedAffinity -3.72906518
REMARK minimizedRMSD -1
REMARK  0 active torsions:
REMARK  status: ('A' for Active; 'I' for Inactive)
ROOT
ATOM      1  C   UNL d   1       2.386  -1.531   1.332  0.00  0.00     0.020 A 
ATOM      2  C1  UNL d   1       3.450  -0.876   0.713  0.00  0.00     0.020 A 
ATOM      3  C2  UNL d   1       3.214   0.257  -0.068  0.00  0.00     0.034 A 
ATOM      4  C3  UNL d   1       1.910   0.739  -0.233  0.00  0.00     0.017 A 
ATOM      5  C4  UNL d   1       0.843   0.081   0.389  0.00  0.00     0.017 A 
ATOM      6  C5  UNL d   1       1.085  -1.053   1.170  0.00  0.00     0.034 A 
ATOM      7 Cl   UNL d   1      -0.793   0.616   0.232  0.00  0.00    -0.070 Cl
ATOM      8 Cl1  UNL d   1       1.691   2.145  -1.212  0.00  0.00    -0.070 Cl
ENDROOT
TORSDOF 0
ENDMDL
