MODEL 1
REMARK minimizedAffinity -4.62179136
REMARK minimizedRMSD -1
REMARK  0 active torsions:
REMARK  status: ('A' for Active; 'I' for Inactive)
ROOT
ATOM      1  C   UNL d   1       3.222   0.606   0.773  0.00  0.00     0.020 A 
ATOM      2  C1  UNL d   1       3.748  -0.493   1.450  0.00  0.00     0.020 A 
ATOM      3  C2  UNL d   1       2.931  -1.584   1.752  0.00  0.00     0.034 A 
ATOM      4  C3  UNL d   1       1.582  -1.579   1.376  0.00  0.00     0.017 A 
ATOM      5  C4  UNL d   1       1.055  -0.475   0.696  0.00  0.00     0.017 A 
ATOM      6  C5  UNL d   1       1.878   0.615   0.396  0.00  0.00     0.034 A 
ATOM      7 Cl   UNL d   1      -0.599  -0.396   0.199  0.00  0.00    -0.070 Cl
ATOM      8 Cl1  UNL d   1       0.630  -2.963   1.781  0.00  0.00    -0.070 Cl
ENDROOT
TORSDOF 0
ENDMDL
