MODEL 1
REMARK minimizedAffinity -4.55228806
REMARK minimizedRMSD -1
REMARK  0 active torsions:
REMARK  status: ('A' for Active; 'I' for Inactive)
ROOT
ATOM      1  C   UNL d   1       1.692   1.369  -0.148  0.00  0.00     0.020 A 
ATOM      2  C1  UNL d   1       2.676   0.502   0.326  0.00  0.00     0.020 A 
ATOM      3  C2  UNL d   1       2.316  -0.737   0.861  0.00  0.00     0.034 A 
ATOM      4  C3  UNL d   1       0.968  -1.111   0.924  0.00  0.00     0.017 A 
ATOM      5  C4  UNL d   1      -0.018  -0.240   0.448  0.00  0.00     0.017 A 
ATOM      6  C5  UNL d   1       0.348   0.999  -0.087  0.00  0.00     0.034 A 
ATOM      7 Cl   UNL d   1      -1.701  -0.633   0.491  0.00  0.00    -0.070 Cl
ATOM      8 Cl1  UNL d   1       0.595  -2.658   1.598  0.00  0.00    -0.070 Cl
ENDROOT
TORSDOF 0
ENDMDL
