MODEL 1
REMARK minimizedAffinity -1.13678336
REMARK minimizedRMSD -1
REMARK  0 active torsions:
REMARK  status: ('A' for Active; 'I' for Inactive)
ROOT
ATOM      1  C   UNL d   1       2.934   0.233   1.415  0.00  0.00     0.020 A 
ATOM      2  C1  UNL d   1       3.114  -1.011   0.811  0.00  0.00     0.020 A 
ATOM      3  C2  UNL d   1       2.039  -1.643   0.181  0.00  0.00     0.034 A 
ATOM      4  C3  UNL d   1       0.780  -1.031   0.155  0.00  0.00     0.017 A 
ATOM      5  C4  UNL d   1       0.601   0.217   0.762  0.00  0.00     0.017 A 
ATOM      6  C5  UNL d   1       1.680   0.845   1.391  0.00  0.00     0.034 A 
ATOM      7 Cl   UNL d   1      -0.922   1.033   0.771  0.00  0.00    -0.070 Cl
ATOM      8 Cl1  UNL d   1      -0.504  -1.870  -0.641  0.00  0.00    -0.070 Cl
ENDROOT
TORSDOF 0
ENDMDL
