MODEL 1
REMARK minimizedAffinity -4.72910643
REMARK minimizedRMSD -1
REMARK  0 active torsions:
REMARK  status: ('A' for Active; 'I' for Inactive)
ROOT
ATOM      1  C   UNL d   1       2.799  -0.552   0.782  0.00  0.00     0.020 A 
ATOM      2  C1  UNL d   1       1.945  -1.646   0.648  0.00  0.00     0.020 A 
ATOM      3  C2  UNL d   1       0.575  -1.444   0.461  0.00  0.00     0.034 A 
ATOM      4  C3  UNL d   1       0.056  -0.146   0.409  0.00  0.00     0.017 A 
ATOM      5  C4  UNL d   1       0.914   0.952   0.543  0.00  0.00     0.017 A 
ATOM      6  C5  UNL d   1       2.284   0.744   0.730  0.00  0.00     0.034 A 
ATOM      7 Cl   UNL d   1       0.347   2.584   0.489  0.00  0.00    -0.070 Cl
ATOM      8 Cl1  UNL d   1      -1.647   0.030   0.175  0.00  0.00    -0.070 Cl
ENDROOT
TORSDOF 0
ENDMDL
