MODEL 1
REMARK minimizedAffinity -3.69319129
REMARK minimizedRMSD -1
REMARK  0 active torsions:
REMARK  status: ('A' for Active; 'I' for Inactive)
ROOT
ATOM      1  C   UNL d   1      -2.443   0.848  -2.468  0.00  0.00     0.020 A 
ATOM      2  C1  UNL d   1      -1.116   1.177  -2.745  0.00  0.00     0.020 A 
ATOM      3  C2  UNL d   1      -0.102   0.783  -1.870  0.00  0.00     0.034 A 
ATOM      4  C3  UNL d   1      -0.412   0.057  -0.714  0.00  0.00     0.017 A 
ATOM      5  C4  UNL d   1      -1.743  -0.274  -0.438  0.00  0.00     0.017 A 
ATOM      6  C5  UNL d   1      -2.755   0.124  -1.317  0.00  0.00     0.034 A 
ATOM      7 Cl   UNL d   1      -2.204  -1.168   0.968  0.00  0.00    -0.070 Cl
ATOM      8 Cl1  UNL d   1       0.893  -0.399   0.323  0.00  0.00    -0.070 Cl
ENDROOT
TORSDOF 0
ENDMDL
