MODEL 1
REMARK minimizedAffinity -3.02021408
REMARK minimizedRMSD -1
REMARK  0 active torsions:
REMARK  status: ('A' for Active; 'I' for Inactive)
ROOT
ATOM      1  C   UNL d   1       0.396   2.695   1.456  0.00  0.00    -0.002 A 
ATOM      2  C1  UNL d   1       1.297   2.819   0.408  0.00  0.00     0.010 A 
ATOM      3  C2  UNL d   1       1.481   1.774  -0.499  0.00  0.00     0.041 A 
ATOM      4  C3  UNL d   1       0.736   0.589  -0.334  0.00  0.00    -0.075 A 
ATOM      5  S   UNL d   1       0.795  -0.822  -1.322  0.00  0.00     0.015 SA
ATOM      6  C4  UNL d   1      -0.375  -1.624  -0.377  0.00  0.00     0.022 A 
ATOM      7  C5  UNL d   1      -0.811  -0.848   0.671  0.00  0.00     0.026 A 
ATOM      8  C6  UNL d   1      -0.178   0.440   0.713  0.00  0.00    -0.082 A 
ATOM      9  C7  UNL d   1      -0.342   1.518   1.616  0.00  0.00     0.045 A 
ENDROOT
TORSDOF 0
ENDMDL
