MODEL 1
REMARK minimizedAffinity -1.74437058
REMARK minimizedRMSD -1
REMARK  0 active torsions:
REMARK  status: ('A' for Active; 'I' for Inactive)
ROOT
ATOM      1  C   UNL d   1       1.126   2.681   1.293  0.00  0.00    -0.002 A 
ATOM      2  C1  UNL d   1       1.493   2.481  -0.030  0.00  0.00     0.010 A 
ATOM      3  C2  UNL d   1       1.025   1.371  -0.737  0.00  0.00     0.041 A 
ATOM      4  C3  UNL d   1       0.174   0.457  -0.085  0.00  0.00    -0.075 A 
ATOM      5  S   UNL d   1      -0.522  -0.972  -0.752  0.00  0.00     0.015 SA
ATOM      6  C4  UNL d   1      -1.322  -1.351   0.704  0.00  0.00     0.022 A 
ATOM      7  C5  UNL d   1      -1.076  -0.421   1.685  0.00  0.00     0.026 A 
ATOM      8  C6  UNL d   1      -0.210   0.637   1.247  0.00  0.00    -0.082 A 
ATOM      9  C7  UNL d   1       0.281   1.772   1.936  0.00  0.00     0.045 A 
ENDROOT
TORSDOF 0
ENDMDL
