MODEL 1
REMARK minimizedAffinity 1.41201556
REMARK minimizedRMSD -1
REMARK  0 active torsions:
REMARK  status: ('A' for Active; 'I' for Inactive)
ROOT
ATOM      1  C   UNL d   1      -0.017   1.879   2.245  0.00  0.00    -0.002 A 
ATOM      2  C1  UNL d   1       1.054   2.230   1.435  0.00  0.00     0.010 A 
ATOM      3  C2  UNL d   1       1.358   1.483   0.296  0.00  0.00     0.041 A 
ATOM      4  C3  UNL d   1       0.559   0.367  -0.021  0.00  0.00    -0.075 A 
ATOM      5  S   UNL d   1       0.743  -0.695  -1.367  0.00  0.00     0.015 SA
ATOM      6  C4  UNL d   1      -0.596  -1.640  -0.900  0.00  0.00     0.022 A 
ATOM      7  C5  UNL d   1      -1.181  -1.171   0.253  0.00  0.00     0.026 A 
ATOM      8  C6  UNL d   1      -0.525  -0.007   0.778  0.00  0.00    -0.082 A 
ATOM      9  C7  UNL d   1      -0.807   0.771   1.927  0.00  0.00     0.045 A 
ENDROOT
TORSDOF 0
ENDMDL
