MODEL 1
REMARK minimizedAffinity -3.96184897
REMARK minimizedRMSD -1
REMARK  0 active torsions:
REMARK  status: ('A' for Active; 'I' for Inactive)
ROOT
ATOM      1  C   UNL d   1       0.956   2.663   1.543  0.00  0.00    -0.002 A 
ATOM      2  C1  UNL d   1       1.053   2.820   0.167  0.00  0.00     0.010 A 
ATOM      3  C2  UNL d   1       0.614   1.813  -0.695  0.00  0.00     0.041 A 
ATOM      4  C3  UNL d   1       0.068   0.636  -0.146  0.00  0.00    -0.075 A 
ATOM      5  S   UNL d   1      -0.537  -0.729  -1.008  0.00  0.00     0.015 SA
ATOM      6  C4  UNL d   1      -0.939  -1.552   0.429  0.00  0.00     0.022 A 
ATOM      7  C5  UNL d   1      -0.626  -0.818   1.548  0.00  0.00     0.026 A 
ATOM      8  C6  UNL d   1      -0.042   0.456   1.235  0.00  0.00    -0.082 A 
ATOM      9  C7  UNL d   1       0.414   1.494   2.083  0.00  0.00     0.045 A 
ENDROOT
TORSDOF 0
ENDMDL
