MODEL 1
REMARK minimizedAffinity -2.26784492
REMARK minimizedRMSD -1
REMARK  0 active torsions:
REMARK  status: ('A' for Active; 'I' for Inactive)
ROOT
ATOM      1  C   UNL d   1      -0.972   1.544   1.815  0.00  0.00    -0.002 A 
ATOM      2  C1  UNL d   1       0.397   1.666   1.625  0.00  0.00     0.010 A 
ATOM      3  C2  UNL d   1       1.055   0.884   0.673  0.00  0.00     0.041 A 
ATOM      4  C3  UNL d   1       0.306  -0.031  -0.093  0.00  0.00    -0.075 A 
ATOM      5  S   UNL d   1       0.899  -1.092  -1.316  0.00  0.00     0.015 SA
ATOM      6  C4  UNL d   1      -0.652  -1.732  -1.616  0.00  0.00     0.022 A 
ATOM      7  C5  UNL d   1      -1.610  -1.162  -0.811  0.00  0.00     0.026 A 
ATOM      8  C6  UNL d   1      -1.074  -0.172   0.080  0.00  0.00    -0.082 A 
ATOM      9  C7  UNL d   1      -1.711   0.635   1.053  0.00  0.00     0.045 A 
ENDROOT
TORSDOF 0
ENDMDL
