MODEL 1
REMARK minimizedAffinity -4.46375465
REMARK minimizedRMSD -1
REMARK  0 active torsions:
REMARK  status: ('A' for Active; 'I' for Inactive)
ROOT
ATOM      1  C   UNL d   1       1.201   2.578   1.642  0.00  0.00    -0.002 A 
ATOM      2  C1  UNL d   1       1.901   2.486   0.447  0.00  0.00     0.010 A 
ATOM      3  C2  UNL d   1       1.556   1.527  -0.507  0.00  0.00     0.041 A 
ATOM      4  C3  UNL d   1       0.483   0.654  -0.238  0.00  0.00    -0.075 A 
ATOM      5  S   UNL d   1      -0.119  -0.598  -1.258  0.00  0.00     0.015 SA
ATOM      6  C4  UNL d   1      -1.320  -1.040  -0.133  0.00  0.00     0.022 A 
ATOM      7  C5  UNL d   1      -1.278  -0.262   0.999  0.00  0.00     0.026 A 
ATOM      8  C6  UNL d   1      -0.238   0.728   0.957  0.00  0.00    -0.082 A 
ATOM      9  C7  UNL d   1       0.137   1.711   1.905  0.00  0.00     0.045 A 
ENDROOT
TORSDOF 0
ENDMDL
