MODEL 1
REMARK minimizedAffinity -1.81927681
REMARK minimizedRMSD -1
REMARK  0 active torsions:
REMARK  status: ('A' for Active; 'I' for Inactive)
ROOT
ATOM      1  C   UNL d   1      -2.278  -1.791  -2.439  0.00  0.00    -0.002 A 
ATOM      2  C1  UNL d   1      -1.297  -1.363  -3.322  0.00  0.00     0.010 A 
ATOM      3  C2  UNL d   1      -0.181  -0.662  -2.860  0.00  0.00     0.041 A 
ATOM      4  C3  UNL d   1      -0.066  -0.398  -1.481  0.00  0.00    -0.075 A 
ATOM      5  S   UNL d   1       1.212   0.443  -0.686  0.00  0.00     0.015 SA
ATOM      6  C4  UNL d   1       0.487   0.253   0.844  0.00  0.00     0.022 A 
ATOM      7  C5  UNL d   1      -0.702  -0.433   0.769  0.00  0.00     0.026 A 
ATOM      8  C6  UNL d   1      -1.041  -0.819  -0.572  0.00  0.00    -0.082 A 
ATOM      9  C7  UNL d   1      -2.160  -1.527  -1.072  0.00  0.00     0.045 A 
ENDROOT
TORSDOF 0
ENDMDL
