MODEL 1
REMARK minimizedAffinity 11.1451235
REMARK minimizedRMSD -1
REMARK  3 active torsions:
REMARK  status: ('A' for Active; 'I' for Inactive)
REMARK    1  A    between atoms: C3'_2  and  C2'_3 
REMARK    2  A    between atoms: C2'_3  and  C1'_4 
REMARK    3  A    between atoms: C1'_4  and  C1_5 
ROOT
ATOM      1  C1  N4B d   1      -4.568   0.810  -4.711  0.00  0.00    -0.075 A 
ATOM      2  C2  N4B d   1      -3.848   1.222  -5.854  0.00  0.00     0.002 A 
ATOM      3  C3  N4B d   1      -2.527   0.874  -5.996  0.00  0.00     0.002 A 
ATOM      4  C4  N4B d   1      -1.902   0.133  -5.004  0.00  0.00    -0.004 A 
ATOM      5  C5  N4B d   1      -2.612  -0.283  -3.915  0.00  0.00     0.002 A 
ATOM      6  C6  N4B d   1      -3.941   0.056  -3.761  0.00  0.00     0.002 A 
ENDROOT
BRANCH   1   7
ATOM      7  C1' N4B d   1      -5.989   1.239  -4.471  0.00  0.00     0.057 C 
BRANCH   7   8
ATOM      8  C2' N4B d   1      -5.999   2.431  -3.519  0.00  0.00     0.009 C 
BRANCH   8   9
ATOM      9  C3' N4B d   1      -5.164   3.586  -4.046  0.00  0.00     0.004 C 
ATOM     10  C4' N4B d   1      -5.988   4.795  -4.374  0.00  0.00     0.003 C 
ENDBRANCH   8   9
ENDBRANCH   7   8
ENDBRANCH   1   7
TORSDOF 3
ENDMDL
