MODEL 1
REMARK minimizedAffinity 7.87142897
REMARK minimizedRMSD -1
REMARK  3 active torsions:
REMARK  status: ('A' for Active; 'I' for Inactive)
REMARK    1  A    between atoms: C3'_2  and  C2'_3 
REMARK    2  A    between atoms: C2'_3  and  C1'_4 
REMARK    3  A    between atoms: C1'_4  and  C1_5 
ROOT
ATOM      1  C1  N4B d   1       4.939   1.238  -0.910  0.00  0.00    -0.075 A 
ATOM      2  C2  N4B d   1       4.959   1.010   0.484  0.00  0.00     0.002 A 
ATOM      3  C3  N4B d   1       4.127   0.068   1.038  0.00  0.00     0.002 A 
ATOM      4  C4  N4B d   1       3.257  -0.642   0.224  0.00  0.00    -0.004 A 
ATOM      5  C5  N4B d   1       3.262  -0.434  -1.124  0.00  0.00     0.002 A 
ATOM      6  C6  N4B d   1       4.095   0.506  -1.695  0.00  0.00     0.002 A 
ENDROOT
BRANCH   1   7
ATOM      7  C1' N4B d   1       5.769   2.317  -1.550  0.00  0.00     0.057 C 
BRANCH   7   8
ATOM      8  C2' N4B d   1       5.032   3.648  -1.437  0.00  0.00     0.009 C 
BRANCH   8   9
ATOM      9  C3' N4B d   1       5.871   4.807  -1.948  0.00  0.00     0.004 C 
ATOM     10  C4' N4B d   1       6.000   5.917  -0.948  0.00  0.00     0.003 C 
ENDBRANCH   8   9
ENDBRANCH   7   8
ENDBRANCH   1   7
TORSDOF 3
ENDMDL
