MODEL 1
REMARK minimizedAffinity 12.0794678
REMARK minimizedRMSD -1
REMARK  3 active torsions:
REMARK  status: ('A' for Active; 'I' for Inactive)
REMARK    1  A    between atoms: C3'_2  and  C2'_3 
REMARK    2  A    between atoms: C2'_3  and  C1'_4 
REMARK    3  A    between atoms: C1'_4  and  C1_5 
ROOT
ATOM      1  C1  N4B d   1       2.403  -1.557  -0.390  0.00  0.00    -0.075 A 
ATOM      2  C2  N4B d   1       1.823  -0.659   0.532  0.00  0.00     0.002 A 
ATOM      3  C3  N4B d   1       2.293   0.628   0.625  0.00  0.00     0.002 A 
ATOM      4  C4  N4B d   1       3.349   1.033  -0.178  0.00  0.00    -0.004 A 
ATOM      5  C5  N4B d   1       3.886   0.167  -1.085  0.00  0.00     0.002 A 
ATOM      6  C6  N4B d   1       3.422  -1.129  -1.191  0.00  0.00     0.002 A 
ENDROOT
BRANCH   1   7
ATOM      7  C1' N4B d   1       1.982  -2.999  -0.467  0.00  0.00     0.057 C 
BRANCH   7   8
ATOM      8  C2' N4B d   1       1.425  -3.285  -1.859  0.00  0.00     0.009 C 
BRANCH   8   9
ATOM      9  C3' N4B d   1       0.482  -4.476  -1.861  0.00  0.00     0.004 C 
ATOM     10  C4' N4B d   1      -0.962  -4.073  -1.824  0.00  0.00     0.003 C 
ENDBRANCH   8   9
ENDBRANCH   7   8
ENDBRANCH   1   7
TORSDOF 3
ENDMDL
