MODEL 1
REMARK minimizedAffinity 5.53150225
REMARK minimizedRMSD -1
REMARK  0 active torsions:
REMARK  status: ('A' for Active; 'I' for Inactive)
ROOT
ATOM      1  C   UNL d   1       1.779   3.008   2.904  0.00  0.00     0.077 C 
ATOM      2  C1  UNL d   1       0.304   2.944   2.636  0.00  0.00    -0.074 A 
ATOM      3  C2  UNL d   1      -0.622   3.152   3.663  0.00  0.00    -0.005 A 
ATOM      4  C3  UNL d   1      -1.991   3.098   3.397  0.00  0.00     0.006 A 
ATOM      5  C4  UNL d   1      -2.445   2.837   2.104  0.00  0.00    -0.005 A 
ATOM      6  C5  UNL d   1      -1.534   2.628   1.064  0.00  0.00    -0.074 A 
ATOM      7  C6  UNL d   1      -2.006   2.357  -0.333  0.00  0.00     0.077 C 
ATOM      8  C7  UNL d   1      -0.161   2.690   1.338  0.00  0.00    -0.001 A 
ENDROOT
TORSDOF 0
ENDMDL
