MODEL 1
REMARK minimizedAffinity 0.722417951
REMARK minimizedRMSD -1
REMARK  0 active torsions:
REMARK  status: ('A' for Active; 'I' for Inactive)
ROOT
ATOM      1  C   UNL d   1      -1.433   1.512   0.555  0.00  0.00     0.077 C 
ATOM      2  C1  UNL d   1       0.015   1.676   0.910  0.00  0.00    -0.074 A 
ATOM      3  C2  UNL d   1       0.959   0.711   0.545  0.00  0.00    -0.005 A 
ATOM      4  C3  UNL d   1       2.304   0.882   0.874  0.00  0.00     0.006 A 
ATOM      5  C4  UNL d   1       2.718   2.019   1.570  0.00  0.00    -0.005 A 
ATOM      6  C5  UNL d   1       1.789   2.995   1.943  0.00  0.00    -0.074 A 
ATOM      7  C6  UNL d   1       2.218   4.227   2.682  0.00  0.00     0.077 C 
ATOM      8  C7  UNL d   1       0.440   2.819   1.602  0.00  0.00    -0.001 A 
ENDROOT
TORSDOF 0
ENDMDL
