MODEL 1
REMARK minimizedAffinity 1.34438729
REMARK minimizedRMSD -1
REMARK  0 active torsions:
REMARK  status: ('A' for Active; 'I' for Inactive)
ROOT
ATOM      1  C   UNL d   1       2.344   3.470   2.236  0.00  0.00     0.077 C 
ATOM      2  C1  UNL d   1       1.505   2.481   1.484  0.00  0.00    -0.074 A 
ATOM      3  C2  UNL d   1       2.088   1.377   0.852  0.00  0.00    -0.005 A 
ATOM      4  C3  UNL d   1       1.293   0.460   0.164  0.00  0.00     0.006 A 
ATOM      5  C4  UNL d   1      -0.090   0.637   0.101  0.00  0.00    -0.005 A 
ATOM      6  C5  UNL d   1      -0.690   1.734   0.728  0.00  0.00    -0.074 A 
ATOM      7  C6  UNL d   1      -2.176   1.933   0.678  0.00  0.00     0.077 C 
ATOM      8  C7  UNL d   1       0.114   2.647   1.423  0.00  0.00    -0.001 A 
ENDROOT
TORSDOF 0
ENDMDL
