MODEL 1
REMARK minimizedAffinity 2.87325978
REMARK minimizedRMSD -1
REMARK  0 active torsions:
REMARK  status: ('A' for Active; 'I' for Inactive)
ROOT
ATOM      1  C   UNL d   1       2.223  -0.013   0.188  0.00  0.00     0.077 C 
ATOM      2  C1  UNL d   1       0.756   0.115   0.474  0.00  0.00    -0.074 A 
ATOM      3  C2  UNL d   1      -0.038  -1.018   0.680  0.00  0.00    -0.005 A 
ATOM      4  C3  UNL d   1      -1.398  -0.883   0.954  0.00  0.00     0.006 A 
ATOM      5  C4  UNL d   1      -1.978   0.385   1.026  0.00  0.00    -0.005 A 
ATOM      6  C5  UNL d   1      -1.200   1.529   0.824  0.00  0.00    -0.074 A 
ATOM      7  C6  UNL d   1      -1.805   2.899   0.907  0.00  0.00     0.077 C 
ATOM      8  C7  UNL d   1       0.168   1.385   0.556  0.00  0.00    -0.001 A 
ENDROOT
TORSDOF 0
ENDMDL
