MODEL 1
REMARK minimizedAffinity 5.32049274
REMARK minimizedRMSD -1
REMARK  0 active torsions:
REMARK  status: ('A' for Active; 'I' for Inactive)
ROOT
ATOM      1  C   UNL d   1      -3.288   0.763   0.039  0.00  0.00     0.077 C 
ATOM      2  C1  UNL d   1      -1.966   1.359   0.421  0.00  0.00    -0.074 A 
ATOM      3  C2  UNL d   1      -1.899   2.502   1.225  0.00  0.00    -0.005 A 
ATOM      4  C3  UNL d   1      -0.662   3.040   1.580  0.00  0.00     0.006 A 
ATOM      5  C4  UNL d   1       0.518   2.442   1.136  0.00  0.00    -0.005 A 
ATOM      6  C5  UNL d   1       0.470   1.299   0.332  0.00  0.00    -0.074 A 
ATOM      7  C6  UNL d   1       1.729   0.638  -0.146  0.00  0.00     0.077 C 
ATOM      8  C7  UNL d   1      -0.776   0.760  -0.015  0.00  0.00    -0.001 A 
ENDROOT
TORSDOF 0
ENDMDL
