MODEL 1
REMARK minimizedAffinity 3.67499661
REMARK minimizedRMSD -1
REMARK  0 active torsions:
REMARK  status: ('A' for Active; 'I' for Inactive)
ROOT
ATOM      1  C   UNL d   1      -1.563  -0.664  -0.706  0.00  0.00     0.077 C 
ATOM      2  C1  UNL d   1      -1.688  -2.156  -0.801  0.00  0.00    -0.074 A 
ATOM      3  C2  UNL d   1      -0.609  -2.943  -1.217  0.00  0.00    -0.005 A 
ATOM      4  C3  UNL d   1      -0.738  -4.330  -1.290  0.00  0.00     0.006 A 
ATOM      5  C4  UNL d   1      -1.944  -4.943  -0.950  0.00  0.00    -0.005 A 
ATOM      6  C5  UNL d   1      -3.033  -4.173  -0.531  0.00  0.00    -0.074 A 
ATOM      7  C6  UNL d   1      -4.334  -4.816  -0.152  0.00  0.00     0.077 C 
ATOM      8  C7  UNL d   1      -2.894  -2.780  -0.452  0.00  0.00    -0.001 A 
ENDROOT
TORSDOF 0
ENDMDL
