MODEL 1
REMARK minimizedAffinity 7.26663637
REMARK minimizedRMSD -1
REMARK  0 active torsions:
REMARK  status: ('A' for Active; 'I' for Inactive)
ROOT
ATOM      1  C   UNL d   1      -0.969  -1.455   0.399  0.00  0.00     0.077 C 
ATOM      2  C1  UNL d   1      -1.344  -2.660  -0.411  0.00  0.00    -0.074 A 
ATOM      3  C2  UNL d   1      -0.721  -2.926  -1.635  0.00  0.00    -0.005 A 
ATOM      4  C3  UNL d   1      -1.073  -4.056  -2.373  0.00  0.00     0.006 A 
ATOM      5  C4  UNL d   1      -2.050  -4.930  -1.895  0.00  0.00    -0.005 A 
ATOM      6  C5  UNL d   1      -2.683  -4.682  -0.673  0.00  0.00    -0.074 A 
ATOM      7  C6  UNL d   1      -3.728  -5.616  -0.141  0.00  0.00     0.077 C 
ATOM      8  C7  UNL d   1      -2.319  -3.548   0.065  0.00  0.00    -0.001 A 
ENDROOT
TORSDOF 0
ENDMDL
