MODEL 1
REMARK minimizedAffinity 6.33178186
REMARK minimizedRMSD -1
REMARK  0 active torsions:
REMARK  status: ('A' for Active; 'I' for Inactive)
ROOT
ATOM      1  C   UNL d   1      -2.258   3.363   3.746  0.00  0.00     0.077 C 
ATOM      2  C1  UNL d   1      -0.836   3.321   3.268  0.00  0.00    -0.074 A 
ATOM      3  C2  UNL d   1      -0.529   2.938   1.958  0.00  0.00    -0.005 A 
ATOM      4  C3  UNL d   1       0.796   2.913   1.526  0.00  0.00     0.006 A 
ATOM      5  C4  UNL d   1       1.827   3.269   2.397  0.00  0.00    -0.005 A 
ATOM      6  C5  UNL d   1       1.539   3.655   3.710  0.00  0.00    -0.074 A 
ATOM      7  C6  UNL d   1       2.634   4.050   4.656  0.00  0.00     0.077 C 
ATOM      8  C7  UNL d   1       0.204   3.685   4.135  0.00  0.00    -0.001 A 
ENDROOT
TORSDOF 0
ENDMDL
