MODEL 1
REMARK minimizedAffinity 4.32504177
REMARK minimizedRMSD -1
REMARK  0 active torsions:
REMARK  status: ('A' for Active; 'I' for Inactive)
ROOT
ATOM      1  C   UNL d   1      -2.032   3.768   3.607  0.00  0.00     0.077 C 
ATOM      2  C1  UNL d   1      -1.178   3.268   2.480  0.00  0.00    -0.074 A 
ATOM      3  C2  UNL d   1       0.203   3.487   2.472  0.00  0.00    -0.005 A 
ATOM      4  C3  UNL d   1       0.985   3.007   1.422  0.00  0.00     0.006 A 
ATOM      5  C4  UNL d   1       0.395   2.305   0.370  0.00  0.00    -0.005 A 
ATOM      6  C5  UNL d   1      -0.985   2.076   0.361  0.00  0.00    -0.074 A 
ATOM      7  C6  UNL d   1      -1.633   1.314  -0.756  0.00  0.00     0.077 C 
ATOM      8  C7  UNL d   1      -1.763   2.555   1.424  0.00  0.00    -0.001 A 
ENDROOT
TORSDOF 0
ENDMDL
