MODEL 1
REMARK minimizedAffinity 7.38600397
REMARK minimizedRMSD -1
REMARK  0 active torsions:
REMARK  status: ('A' for Active; 'I' for Inactive)
ROOT
ATOM      1  C   UNL d   1      -1.177  -0.801   0.395  0.00  0.00     0.077 C 
ATOM      2  C1  UNL d   1      -1.302  -2.092  -0.358  0.00  0.00    -0.074 A 
ATOM      3  C2  UNL d   1      -0.499  -2.354  -1.473  0.00  0.00    -0.005 A 
ATOM      4  C3  UNL d   1      -0.620  -3.563  -2.158  0.00  0.00     0.006 A 
ATOM      5  C4  UNL d   1      -1.543  -4.521  -1.735  0.00  0.00    -0.005 A 
ATOM      6  C5  UNL d   1      -2.353  -4.276  -0.622  0.00  0.00    -0.074 A 
ATOM      7  C6  UNL d   1      -3.344  -5.299  -0.149  0.00  0.00     0.077 C 
ATOM      8  C7  UNL d   1      -2.221  -3.062   0.065  0.00  0.00    -0.001 A 
ENDROOT
TORSDOF 0
ENDMDL
