MODEL 1
REMARK minimizedAffinity 6.7632165
REMARK minimizedRMSD -1
REMARK  0 active torsions:
REMARK  status: ('A' for Active; 'I' for Inactive)
ROOT
ATOM      1  C   UNL d   1       3.719   0.672  -0.981  0.00  0.00     0.077 C 
ATOM      2  C1  UNL d   1       2.941   1.630  -0.129  0.00  0.00    -0.074 A 
ATOM      3  C2  UNL d   1       1.575   1.442   0.101  0.00  0.00    -0.005 A 
ATOM      4  C3  UNL d   1       0.867   2.336   0.904  0.00  0.00     0.006 A 
ATOM      5  C4  UNL d   1       1.517   3.426   1.484  0.00  0.00    -0.005 A 
ATOM      6  C5  UNL d   1       2.884   3.630   1.266  0.00  0.00    -0.074 A 
ATOM      7  C6  UNL d   1       3.600   4.790   1.890  0.00  0.00     0.077 C 
ATOM      8  C7  UNL d   1       3.589   2.723   0.464  0.00  0.00    -0.001 A 
ENDROOT
TORSDOF 0
ENDMDL
