MODEL 1
REMARK minimizedAffinity 1.18252742
REMARK minimizedRMSD -1
REMARK  0 active torsions:
REMARK  status: ('A' for Active; 'I' for Inactive)
ROOT
ATOM      1  C   UNL d   1       1.145   0.395   0.724  0.00  0.00     0.077 C 
ATOM      2  C1  UNL d   1      -0.304   0.782   0.753  0.00  0.00    -0.074 A 
ATOM      3  C2  UNL d   1      -0.722   2.037   0.299  0.00  0.00    -0.005 A 
ATOM      4  C3  UNL d   1      -2.074   2.379   0.324  0.00  0.00     0.006 A 
ATOM      5  C4  UNL d   1      -3.020   1.472   0.802  0.00  0.00    -0.005 A 
ATOM      6  C5  UNL d   1      -2.621   0.212   1.259  0.00  0.00    -0.074 A 
ATOM      7  C6  UNL d   1      -3.626  -0.779   1.767  0.00  0.00     0.077 C 
ATOM      8  C7  UNL d   1      -1.261  -0.127   1.225  0.00  0.00    -0.001 A 
ENDROOT
TORSDOF 0
ENDMDL
