MODEL 1
REMARK minimizedAffinity 10.5698156
REMARK minimizedRMSD -1
REMARK  0 active torsions:
REMARK  status: ('A' for Active; 'I' for Inactive)
ROOT
ATOM      1  C   UNL d   1       1.869   1.701   1.664  0.00  0.00     0.077 C 
ATOM      2  C1  UNL d   1       1.849   0.709   0.539  0.00  0.00    -0.074 A 
ATOM      3  C2  UNL d   1       1.493  -0.625   0.763  0.00  0.00    -0.005 A 
ATOM      4  C3  UNL d   1       1.470  -1.534  -0.295  0.00  0.00     0.006 A 
ATOM      5  C4  UNL d   1       1.802  -1.119  -1.585  0.00  0.00    -0.005 A 
ATOM      6  C5  UNL d   1       2.160   0.211  -1.828  0.00  0.00    -0.074 A 
ATOM      7  C6  UNL d   1       2.511   0.676  -3.210  0.00  0.00     0.077 C 
ATOM      8  C7  UNL d   1       2.174   1.120  -0.761  0.00  0.00    -0.001 A 
ENDROOT
TORSDOF 0
ENDMDL
