MODEL 1
REMARK minimizedAffinity 3.29918098
REMARK minimizedRMSD -1
REMARK  0 active torsions:
REMARK  status: ('A' for Active; 'I' for Inactive)
ROOT
ATOM      1  C   UNL d   1       1.942  -0.035   0.434  0.00  0.00     0.077 C 
ATOM      2  C1  UNL d   1       0.737   0.740   0.876  0.00  0.00    -0.074 A 
ATOM      3  C2  UNL d   1       0.869   2.005   1.459  0.00  0.00    -0.005 A 
ATOM      4  C3  UNL d   1      -0.261   2.718   1.857  0.00  0.00     0.006 A 
ATOM      5  C4  UNL d   1      -1.534   2.175   1.677  0.00  0.00    -0.005 A 
ATOM      6  C5  UNL d   1      -1.686   0.912   1.096  0.00  0.00    -0.074 A 
ATOM      7  C6  UNL d   1      -3.048   0.318   0.886  0.00  0.00     0.077 C 
ATOM      8  C7  UNL d   1      -0.546   0.205   0.692  0.00  0.00    -0.001 A 
ENDROOT
TORSDOF 0
ENDMDL
