MODEL 1
REMARK minimizedAffinity 13.8670874
REMARK minimizedRMSD -1
REMARK  2 active torsions:
REMARK  status: ('A' for Active; 'I' for Inactive)
REMARK    1  A    between atoms: C2'_3  and  C1'_4 
REMARK    2  A    between atoms: C1'_4  and  C1_5 
ROOT
ATOM      1  C1  I4B d   1      -1.435  -2.271  -0.491  0.00  0.00    -0.075 A 
ATOM      2  C2  I4B d   1      -1.346  -2.473   0.863  0.00  0.00     0.003 A 
ATOM      3  C3  I4B d   1      -2.514  -2.460   1.664  0.00  0.00     0.002 A 
ATOM      4  C4  I4B d   1      -3.735  -2.193   1.080  0.00  0.00    -0.004 A 
ATOM      5  C5  I4B d   1      -3.826  -2.011  -0.297  0.00  0.00     0.002 A 
ATOM      6  C6  I4B d   1      -2.671  -2.063  -1.090  0.00  0.00     0.003 A 
ENDROOT
BRANCH   1   7
ATOM      7  C1' I4B d   1      -0.178  -2.259  -1.302  0.00  0.00     0.060 C 
BRANCH   7   8
ATOM      8  C2' I4B d   1      -0.542  -2.597  -2.733  0.00  0.00    -0.013 C 
ATOM      9  C4' I4B d   1       0.459  -2.023  -3.701  0.00  0.00     0.013 C 
ATOM     10  C3' I4B d   1      -0.616  -4.090  -2.852  0.00  0.00     0.013 C 
ENDBRANCH   7   8
ENDBRANCH   1   7
TORSDOF 2
ENDMDL
