MODEL 1
REMARK minimizedAffinity 7.87723494
REMARK minimizedRMSD -1
REMARK  2 active torsions:
REMARK  status: ('A' for Active; 'I' for Inactive)
REMARK    1  A    between atoms: C2'_3  and  C1'_4 
REMARK    2  A    between atoms: C1'_4  and  C1_5 
ROOT
ATOM      1  C1  I4B d   1       0.573  -1.501   5.071  0.00  0.00    -0.075 A 
ATOM      2  C2  I4B d   1       0.269  -2.201   3.930  0.00  0.00     0.003 A 
ATOM      3  C3  I4B d   1       1.291  -2.551   3.014  0.00  0.00     0.002 A 
ATOM      4  C4  I4B d   1       2.586  -2.139   3.252  0.00  0.00    -0.004 A 
ATOM      5  C5  I4B d   1       2.897  -1.449   4.420  0.00  0.00     0.002 A 
ATOM      6  C6  I4B d   1       1.886  -1.139   5.342  0.00  0.00     0.003 A 
ENDROOT
BRANCH   1   7
ATOM      7  C1' I4B d   1      -0.536  -1.120   5.999  0.00  0.00     0.060 C 
BRANCH   7   8
ATOM      8  C2' I4B d   1      -1.849  -1.401   5.299  0.00  0.00    -0.013 C 
ATOM      9  C4' I4B d   1      -2.619  -2.490   5.999  0.00  0.00     0.013 C 
ATOM     10  C3' I4B d   1      -2.634  -0.124   5.257  0.00  0.00     0.013 C 
ENDBRANCH   7   8
ENDBRANCH   1   7
TORSDOF 2
ENDMDL
