MODEL 1
REMARK minimizedAffinity 5.52407026
REMARK minimizedRMSD -1
REMARK  2 active torsions:
REMARK  status: ('A' for Active; 'I' for Inactive)
REMARK    1  A    between atoms: C2'_3  and  C1'_4 
REMARK    2  A    between atoms: C1'_4  and  C1_5 
ROOT
ATOM      1  C1  I4B d   1      -0.046  -2.048  -1.360  0.00  0.00    -0.075 A 
ATOM      2  C2  I4B d   1      -0.753  -2.832  -2.238  0.00  0.00     0.003 A 
ATOM      3  C3  I4B d   1      -0.204  -3.162  -3.501  0.00  0.00     0.002 A 
ATOM      4  C4  I4B d   1       1.025  -2.648  -3.862  0.00  0.00    -0.004 A 
ATOM      5  C5  I4B d   1       1.750  -1.873  -2.962  0.00  0.00     0.002 A 
ATOM      6  C6  I4B d   1       1.217  -1.581  -1.698  0.00  0.00     0.003 A 
ENDROOT
BRANCH   1   7
ATOM      7  C1' I4B d   1      -0.670  -1.692  -0.048  0.00  0.00     0.060 C 
BRANCH   7   8
ATOM      8  C2' I4B d   1      -1.451  -2.896   0.439  0.00  0.00    -0.013 C 
ATOM      9  C4' I4B d   1      -1.187  -3.163   1.897  0.00  0.00     0.013 C 
ATOM     10  C3' I4B d   1      -2.907  -2.634   0.192  0.00  0.00     0.013 C 
ENDBRANCH   7   8
ENDBRANCH   1   7
TORSDOF 2
ENDMDL
