MODEL 1
REMARK minimizedAffinity 6.60454607
REMARK minimizedRMSD -1
REMARK  2 active torsions:
REMARK  status: ('A' for Active; 'I' for Inactive)
REMARK    1  A    between atoms: C2'_3  and  C1'_4 
REMARK    2  A    between atoms: C1'_4  and  C1_5 
ROOT
ATOM      1  C1  I4B d   1      -0.437  -2.634  -1.777  0.00  0.00    -0.075 A 
ATOM      2  C2  I4B d   1      -0.603  -3.995  -1.720  0.00  0.00     0.003 A 
ATOM      3  C3  I4B d   1      -0.491  -4.776  -2.896  0.00  0.00     0.002 A 
ATOM      4  C4  I4B d   1      -0.262  -4.154  -4.106  0.00  0.00    -0.004 A 
ATOM      5  C5  I4B d   1      -0.071  -2.777  -4.158  0.00  0.00     0.002 A 
ATOM      6  C6  I4B d   1      -0.146  -2.012  -2.985  0.00  0.00     0.003 A 
ENDROOT
BRANCH   1   7
ATOM      7  C1' I4B d   1      -0.595  -1.835  -0.522  0.00  0.00     0.060 C 
BRANCH   7   8
ATOM      8  C2' I4B d   1      -1.023  -2.781   0.582  0.00  0.00    -0.013 C 
ATOM      9  C4' I4B d   1       0.142  -3.157   1.459  0.00  0.00     0.013 C 
ATOM     10  C3' I4B d   1      -2.103  -2.108   1.375  0.00  0.00     0.013 C 
ENDBRANCH   7   8
ENDBRANCH   1   7
TORSDOF 2
ENDMDL
