MODEL 1
REMARK minimizedAffinity 3.98770475
REMARK minimizedRMSD -1
REMARK  2 active torsions:
REMARK  status: ('A' for Active; 'I' for Inactive)
REMARK    1  A    between atoms: C2'_3  and  C1'_4 
REMARK    2  A    between atoms: C1'_4  and  C1_5 
ROOT
ATOM      1  C1  I4B d   1       3.480   4.807  -2.342  0.00  0.00    -0.075 A 
ATOM      2  C2  I4B d   1       3.523   4.059  -3.492  0.00  0.00     0.003 A 
ATOM      3  C3  I4B d   1       4.764   3.767  -4.107  0.00  0.00     0.002 A 
ATOM      4  C4  I4B d   1       5.927   4.281  -3.569  0.00  0.00    -0.004 A 
ATOM      5  C5  I4B d   1       5.884   5.019  -2.390  0.00  0.00     0.002 A 
ATOM      6  C6  I4B d   1       4.654   5.274  -1.765  0.00  0.00     0.003 A 
ENDROOT
BRANCH   1   7
ATOM      7  C1' I4B d   1       2.149   5.124  -1.737  0.00  0.00     0.060 C 
BRANCH   7   8
ATOM      8  C2' I4B d   1       2.237   4.858  -0.248  0.00  0.00    -0.013 C 
ATOM      9  C4' I4B d   1       1.117   5.536   0.494  0.00  0.00     0.013 C 
ATOM     10  C3' I4B d   1       2.204   3.373  -0.041  0.00  0.00     0.013 C 
ENDBRANCH   7   8
ENDBRANCH   1   7
TORSDOF 2
ENDMDL
