MODEL 1
REMARK minimizedAffinity 2.97069097
REMARK minimizedRMSD -1
REMARK  2 active torsions:
REMARK  status: ('A' for Active; 'I' for Inactive)
REMARK    1  A    between atoms: C2'_3  and  C1'_4 
REMARK    2  A    between atoms: C1'_4  and  C1_5 
ROOT
ATOM      1  C1  I4B d   1      -0.304  -2.216  -1.232  0.00  0.00    -0.075 A 
ATOM      2  C2  I4B d   1      -0.676  -3.468  -1.651  0.00  0.00     0.003 A 
ATOM      3  C3  I4B d   1      -0.384  -3.895  -2.969  0.00  0.00     0.002 A 
ATOM      4  C4  I4B d   1       0.234  -3.024  -3.844  0.00  0.00    -0.004 A 
ATOM      5  C5  I4B d   1       0.632  -1.763  -3.410  0.00  0.00     0.002 A 
ATOM      6  C6  I4B d   1       0.373  -1.360  -2.092  0.00  0.00     0.003 A 
ENDROOT
BRANCH   1   7
ATOM      7  C1' I4B d   1      -0.658  -1.786   0.157  0.00  0.00     0.060 C 
BRANCH   7   8
ATOM      8  C2' I4B d   1      -1.326  -2.955   0.851  0.00  0.00    -0.013 C 
ATOM      9  C4' I4B d   1      -0.461  -3.499   1.957  0.00  0.00     0.013 C 
ATOM     10  C3' I4B d   1      -2.648  -2.485   1.380  0.00  0.00     0.013 C 
ENDBRANCH   7   8
ENDBRANCH   1   7
TORSDOF 2
ENDMDL
