MODEL 1
REMARK minimizedAffinity 7.56484842
REMARK minimizedRMSD -1
REMARK  2 active torsions:
REMARK  status: ('A' for Active; 'I' for Inactive)
REMARK    1  A    between atoms: C2'_3  and  C1'_4 
REMARK    2  A    between atoms: C1'_4  and  C1_5 
ROOT
ATOM      1  C1  I4B d   1       5.274   5.645  -3.652  0.00  0.00    -0.075 A 
ATOM      2  C2  I4B d   1       5.952   4.946  -4.619  0.00  0.00     0.003 A 
ATOM      3  C3  I4B d   1       5.297   4.567  -5.816  0.00  0.00     0.002 A 
ATOM      4  C4  I4B d   1       3.959   4.863  -5.981  0.00  0.00    -0.004 A 
ATOM      5  C5  I4B d   1       3.280   5.592  -5.009  0.00  0.00     0.002 A 
ATOM      6  C6  I4B d   1       3.944   5.997  -3.843  0.00  0.00     0.003 A 
ENDROOT
BRANCH   1   7
ATOM      7  C1' I4B d   1       5.987   6.000  -2.386  0.00  0.00     0.060 C 
BRANCH   7   8
ATOM      8  C2' I4B d   1       5.614   4.973  -1.336  0.00  0.00    -0.013 C 
ATOM      9  C4' I4B d   1       5.992   5.443   0.044  0.00  0.00     0.013 C 
ATOM     10  C3' I4B d   1       4.139   4.723  -1.438  0.00  0.00     0.013 C 
ENDBRANCH   7   8
ENDBRANCH   1   7
TORSDOF 2
ENDMDL
