MODEL 1
REMARK minimizedAffinity 7.76815462
REMARK minimizedRMSD -1
REMARK  2 active torsions:
REMARK  status: ('A' for Active; 'I' for Inactive)
REMARK    1  A    between atoms: C2'_3  and  C1'_4 
REMARK    2  A    between atoms: C1'_4  and  C1_5 
ROOT
ATOM      1  C1  I4B d   1      -0.961  -2.392  -1.446  0.00  0.00    -0.075 A 
ATOM      2  C2  I4B d   1       0.035  -1.523  -1.817  0.00  0.00     0.003 A 
ATOM      3  C3  I4B d   1       0.847  -1.808  -2.942  0.00  0.00     0.002 A 
ATOM      4  C4  I4B d   1       0.662  -2.988  -3.632  0.00  0.00    -0.004 A 
ATOM      5  C5  I4B d   1      -0.363  -3.856  -3.269  0.00  0.00     0.002 A 
ATOM      6  C6  I4B d   1      -1.188  -3.551  -2.177  0.00  0.00     0.003 A 
ENDROOT
BRANCH   1   7
ATOM      7  C1' I4B d   1      -1.778  -2.076  -0.233  0.00  0.00     0.060 C 
BRANCH   7   8
ATOM      8  C2' I4B d   1      -2.013  -3.370   0.520  0.00  0.00    -0.013 C 
ATOM      9  C4' I4B d   1      -1.216  -3.410   1.797  0.00  0.00     0.013 C 
ATOM     10  C3' I4B d   1      -3.483  -3.484   0.795  0.00  0.00     0.013 C 
ENDBRANCH   7   8
ENDBRANCH   1   7
TORSDOF 2
ENDMDL
