MODEL 1
REMARK minimizedAffinity 3.27992892
REMARK minimizedRMSD -1
REMARK  2 active torsions:
REMARK  status: ('A' for Active; 'I' for Inactive)
REMARK    1  A    between atoms: C2'_3  and  C1'_4 
REMARK    2  A    between atoms: C1'_4  and  C1_5 
ROOT
ATOM      1  C1  I4B d   1       0.026  -1.834  -1.713  0.00  0.00    -0.075 A 
ATOM      2  C2  I4B d   1      -0.744  -2.960  -1.864  0.00  0.00     0.003 A 
ATOM      3  C3  I4B d   1      -1.573  -3.404  -0.805  0.00  0.00     0.002 A 
ATOM      4  C4  I4B d   1      -1.562  -2.726   0.397  0.00  0.00    -0.004 A 
ATOM      5  C5  I4B d   1      -0.798  -1.571   0.541  0.00  0.00     0.002 A 
ATOM      6  C6  I4B d   1      -0.008  -1.115  -0.525  0.00  0.00     0.003 A 
ENDROOT
BRANCH   1   7
ATOM      7  C1' I4B d   1       0.914  -1.411  -2.839  0.00  0.00     0.060 C 
BRANCH   7   8
ATOM      8  C2' I4B d   1       2.158  -2.276  -2.802  0.00  0.00    -0.013 C 
ATOM      9  C4' I4B d   1       2.641  -2.596  -4.193  0.00  0.00     0.013 C 
ATOM     10  C3' I4B d   1       3.207  -1.544  -2.020  0.00  0.00     0.013 C 
ENDBRANCH   7   8
ENDBRANCH   1   7
TORSDOF 2
ENDMDL
