MODEL 1
REMARK minimizedAffinity 4.02367401
REMARK minimizedRMSD -1
REMARK  2 active torsions:
REMARK  status: ('A' for Active; 'I' for Inactive)
REMARK    1  A    between atoms: C2'_3  and  C1'_4 
REMARK    2  A    between atoms: C1'_4  and  C1_5 
ROOT
ATOM      1  C1  I4B d   1       5.232   4.420  -4.034  0.00  0.00    -0.075 A 
ATOM      2  C2  I4B d   1       5.537   3.349  -3.233  0.00  0.00     0.003 A 
ATOM      3  C3  I4B d   1       5.950   2.123  -3.808  0.00  0.00     0.002 A 
ATOM      4  C4  I4B d   1       5.994   1.998  -5.182  0.00  0.00    -0.004 A 
ATOM      5  C5  I4B d   1       5.707   3.092  -5.992  0.00  0.00     0.002 A 
ATOM      6  C6  I4B d   1       5.335   4.315  -5.415  0.00  0.00     0.003 A 
ENDROOT
BRANCH   1   7
ATOM      7  C1' I4B d   1       4.768   5.690  -3.394  0.00  0.00     0.060 C 
BRANCH   7   8
ATOM      8  C2' I4B d   1       3.339   5.938  -3.831  0.00  0.00    -0.013 C 
ATOM      9  C4' I4B d   1       3.119   5.495  -5.253  0.00  0.00     0.013 C 
ATOM     10  C3' I4B d   1       2.432   5.204  -2.889  0.00  0.00     0.013 C 
ENDBRANCH   7   8
ENDBRANCH   1   7
TORSDOF 2
ENDMDL
