MODEL 1
REMARK minimizedAffinity -0.980880976
REMARK minimizedRMSD -1
REMARK  2 active torsions:
REMARK  status: ('A' for Active; 'I' for Inactive)
REMARK    1  A    between atoms: C2'_3  and  C1'_4 
REMARK    2  A    between atoms: C1'_4  and  C1_5 
ROOT
ATOM      1  C1  I4B d   1       4.273   4.491  -3.851  0.00  0.00    -0.075 A 
ATOM      2  C2  I4B d   1       3.299   4.931  -2.990  0.00  0.00     0.003 A 
ATOM      3  C3  I4B d   1       3.648   5.701  -1.853  0.00  0.00     0.002 A 
ATOM      4  C4  I4B d   1       4.977   5.963  -1.591  0.00  0.00    -0.004 A 
ATOM      5  C5  I4B d   1       5.961   5.535  -2.478  0.00  0.00     0.002 A 
ATOM      6  C6  I4B d   1       5.606   4.805  -3.622  0.00  0.00     0.003 A 
ENDROOT
BRANCH   1   7
ATOM      7  C1' I4B d   1       3.873   3.652  -5.023  0.00  0.00     0.060 C 
BRANCH   7   8
ATOM      8  C2' I4B d   1       5.036   3.620  -5.993  0.00  0.00    -0.013 C 
ATOM      9  C4' I4B d   1       5.777   4.931  -6.000  0.00  0.00     0.013 C 
ATOM     10  C3' I4B d   1       5.939   2.490  -5.595  0.00  0.00     0.013 C 
ENDBRANCH   7   8
ENDBRANCH   1   7
TORSDOF 2
ENDMDL
