MODEL 1
REMARK minimizedAffinity 8.87126064
REMARK minimizedRMSD -1
REMARK  3 active torsions:
REMARK  status: ('A' for Active; 'I' for Inactive)
REMARK    1  A    between atoms: C3'_2  and  C2'_3 
REMARK    2  A    between atoms: C2'_3  and  C1'_4 
REMARK    3  A    between atoms: C1'_4  and  C1_5 
ROOT
ATOM      1  C1  N4B d   1       3.592  -2.649   5.845  0.00  0.00    -0.075 A 
ATOM      2  C2  N4B d   1       4.860  -2.030   5.907  0.00  0.00     0.002 A 
ATOM      3  C3  N4B d   1       5.997  -2.798   5.965  0.00  0.00     0.002 A 
ATOM      4  C4  N4B d   1       5.890  -4.180   5.981  0.00  0.00    -0.004 A 
ATOM      5  C5  N4B d   1       4.663  -4.771   5.895  0.00  0.00     0.002 A 
ATOM      6  C6  N4B d   1       3.513  -4.011   5.832  0.00  0.00     0.002 A 
ENDROOT
BRANCH   1   7
ATOM      7  C1' N4B d   1       2.317  -1.851   5.867  0.00  0.00     0.057 C 
BRANCH   7   8
ATOM      8  C2' N4B d   1       1.904  -1.527   4.434  0.00  0.00     0.009 C 
BRANCH   8   9
ATOM      9  C3' N4B d   1       3.070  -1.643   3.467  0.00  0.00     0.004 C 
ATOM     10  C4' N4B d   1       3.171  -3.000   2.838  0.00  0.00     0.003 C 
ENDBRANCH   8   9
ENDBRANCH   7   8
ENDBRANCH   1   7
TORSDOF 3
ENDMDL
