MODEL 1
REMARK minimizedAffinity -0.522774696
REMARK minimizedRMSD -1
REMARK  3 active torsions:
REMARK  status: ('A' for Active; 'I' for Inactive)
REMARK    1  A    between atoms: C3'_2  and  C2'_3 
REMARK    2  A    between atoms: C2'_3  and  C1'_4 
REMARK    3  A    between atoms: C1'_4  and  C1_5 
ROOT
ATOM      1  C1  N4B d   1       4.080  -1.792   4.953  0.00  0.00    -0.075 A 
ATOM      2  C2  N4B d   1       5.093  -1.845   5.936  0.00  0.00     0.002 A 
ATOM      3  C3  N4B d   1       5.993  -2.882   5.939  0.00  0.00     0.002 A 
ATOM      4  C4  N4B d   1       5.888  -3.884   4.986  0.00  0.00    -0.004 A 
ATOM      5  C5  N4B d   1       4.922  -3.813   4.025  0.00  0.00     0.002 A 
ATOM      6  C6  N4B d   1       4.014  -2.773   4.007  0.00  0.00     0.002 A 
ENDROOT
BRANCH   1   7
ATOM      7  C1' N4B d   1       3.022  -0.723   4.961  0.00  0.00     0.057 C 
BRANCH   7   8
ATOM      8  C2' N4B d   1       1.953  -1.084   5.988  0.00  0.00     0.009 C 
BRANCH   8   9
ATOM      9  C3' N4B d   1       0.814  -0.079   6.000  0.00  0.00     0.004 C 
ATOM     10  C4' N4B d   1      -0.502  -0.687   5.617  0.00  0.00     0.003 C 
ENDBRANCH   8   9
ENDBRANCH   7   8
ENDBRANCH   1   7
TORSDOF 3
ENDMDL
