MODEL 1
REMARK minimizedAffinity 12.806879
REMARK minimizedRMSD -1
REMARK  3 active torsions:
REMARK  status: ('A' for Active; 'I' for Inactive)
REMARK    1  A    between atoms: C3'_2  and  C2'_3 
REMARK    2  A    between atoms: C2'_3  and  C1'_4 
REMARK    3  A    between atoms: C1'_4  and  C1_5 
ROOT
ATOM      1  C1  N4B d   1       4.557   5.500  -4.256  0.00  0.00    -0.075 A 
ATOM      2  C2  N4B d   1       3.325   5.998  -4.734  0.00  0.00     0.002 A 
ATOM      3  C3  N4B d   1       2.196   5.896  -3.959  0.00  0.00     0.002 A 
ATOM      4  C4  N4B d   1       2.270   5.287  -2.716  0.00  0.00    -0.004 A 
ATOM      5  C5  N4B d   1       3.469   4.831  -2.250  0.00  0.00     0.002 A 
ATOM      6  C6  N4B d   1       4.613   4.931  -3.017  0.00  0.00     0.002 A 
ENDROOT
BRANCH   1   7
ATOM      7  C1' N4B d   1       5.801   5.511  -5.102  0.00  0.00     0.057 C 
BRANCH   7   8
ATOM      8  C2' N4B d   1       5.979   4.141  -5.749  0.00  0.00     0.009 C 
BRANCH   8   9
ATOM      9  C3' N4B d   1       4.781   3.239  -5.507  0.00  0.00     0.004 C 
ATOM     10  C4' N4B d   1       5.165   1.898  -4.955  0.00  0.00     0.003 C 
ENDBRANCH   8   9
ENDBRANCH   7   8
ENDBRANCH   1   7
TORSDOF 3
ENDMDL
