MODEL 1
REMARK minimizedAffinity 4.12166023
REMARK minimizedRMSD -1
REMARK  3 active torsions:
REMARK  status: ('A' for Active; 'I' for Inactive)
REMARK    1  A    between atoms: C3'_2  and  C2'_3 
REMARK    2  A    between atoms: C2'_3  and  C1'_4 
REMARK    3  A    between atoms: C1'_4  and  C1_5 
ROOT
ATOM      1  C1  N4B d   1       4.862   5.736  -3.792  0.00  0.00    -0.075 A 
ATOM      2  C2  N4B d   1       3.721   5.176  -3.177  0.00  0.00     0.002 A 
ATOM      3  C3  N4B d   1       3.741   4.879  -1.836  0.00  0.00     0.002 A 
ATOM      4  C4  N4B d   1       4.891   5.114  -1.098  0.00  0.00    -0.004 A 
ATOM      5  C5  N4B d   1       5.981   5.678  -1.695  0.00  0.00     0.002 A 
ATOM      6  C6  N4B d   1       5.974   5.986  -3.040  0.00  0.00     0.002 A 
ENDROOT
BRANCH   1   7
ATOM      7  C1' N4B d   1       4.918   5.998  -5.273  0.00  0.00     0.057 C 
BRANCH   7   8
ATOM      8  C2' N4B d   1       5.916   5.038  -5.914  0.00  0.00     0.009 C 
BRANCH   8   9
ATOM      9  C3' N4B d   1       5.995   3.718  -5.167  0.00  0.00     0.004 C 
ATOM     10  C4' N4B d   1       4.768   2.873  -5.348  0.00  0.00     0.003 C 
ENDBRANCH   8   9
ENDBRANCH   7   8
ENDBRANCH   1   7
TORSDOF 3
ENDMDL
