MODEL 1
REMARK minimizedAffinity 7.75773191
REMARK minimizedRMSD -1
REMARK  3 active torsions:
REMARK  status: ('A' for Active; 'I' for Inactive)
REMARK    1  A    between atoms: C3'_2  and  C2'_3 
REMARK    2  A    between atoms: C2'_3  and  C1'_4 
REMARK    3  A    between atoms: C1'_4  and  C1_5 
ROOT
ATOM      1  C1  N4B d   1       4.096  -2.255   4.238  0.00  0.00    -0.075 A 
ATOM      2  C2  N4B d   1       4.781  -1.714   5.348  0.00  0.00     0.002 A 
ATOM      3  C3  N4B d   1       5.731  -2.462   5.999  0.00  0.00     0.002 A 
ATOM      4  C4  N4B d   1       5.999  -3.754   5.571  0.00  0.00    -0.004 A 
ATOM      5  C5  N4B d   1       5.352  -4.259   4.482  0.00  0.00     0.002 A 
ATOM      6  C6  N4B d   1       4.397  -3.518   3.816  0.00  0.00     0.002 A 
ENDROOT
BRANCH   1   7
ATOM      7  C1' N4B d   1       2.988  -1.507   3.547  0.00  0.00     0.057 C 
BRANCH   7   8
ATOM      8  C2' N4B d   1       2.874  -1.999   2.107  0.00  0.00     0.009 C 
BRANCH   8   9
ATOM      9  C3' N4B d   1       3.613  -1.092   1.138  0.00  0.00     0.004 C 
ATOM     10  C4' N4B d   1       4.269  -1.848   0.021  0.00  0.00     0.003 C 
ENDBRANCH   8   9
ENDBRANCH   7   8
ENDBRANCH   1   7
TORSDOF 3
ENDMDL
