MODEL 1
REMARK minimizedAffinity 1.37298071
REMARK minimizedRMSD -1
REMARK  3 active torsions:
REMARK  status: ('A' for Active; 'I' for Inactive)
REMARK    1  A    between atoms: C3'_2  and  C2'_3 
REMARK    2  A    between atoms: C2'_3  and  C1'_4 
REMARK    3  A    between atoms: C1'_4  and  C1_5 
ROOT
ATOM      1  C1  N4B d   1       4.217   5.560  -3.864  0.00  0.00    -0.075 A 
ATOM      2  C2  N4B d   1       3.444   4.989  -2.828  0.00  0.00     0.002 A 
ATOM      3  C3  N4B d   1       3.969   4.872  -1.564  0.00  0.00     0.002 A 
ATOM      4  C4  N4B d   1       5.265   5.299  -1.318  0.00  0.00    -0.004 A 
ATOM      5  C5  N4B d   1       5.996   5.872  -2.318  0.00  0.00     0.002 A 
ATOM      6  C6  N4B d   1       5.480   6.000  -3.592  0.00  0.00     0.002 A 
ENDROOT
BRANCH   1   7
ATOM      7  C1' N4B d   1       3.717   5.630  -5.281  0.00  0.00     0.057 C 
BRANCH   7   8
ATOM      8  C2' N4B d   1       4.018   4.310  -5.984  0.00  0.00     0.009 C 
BRANCH   8   9
ATOM      9  C3' N4B d   1       4.432   3.226  -5.004  0.00  0.00     0.004 C 
ATOM     10  C4' N4B d   1       5.920   3.054  -4.924  0.00  0.00     0.003 C 
ENDBRANCH   8   9
ENDBRANCH   7   8
ENDBRANCH   1   7
TORSDOF 3
ENDMDL
