MODEL 1
REMARK minimizedAffinity 5.59541321
REMARK minimizedRMSD -1
REMARK  3 active torsions:
REMARK  status: ('A' for Active; 'I' for Inactive)
REMARK    1  A    between atoms: C3'_2  and  C2'_3 
REMARK    2  A    between atoms: C2'_3  and  C1'_4 
REMARK    3  A    between atoms: C1'_4  and  C1_5 
ROOT
ATOM      1  C1  N4B d   1       5.233   5.879  -3.379  0.00  0.00    -0.075 A 
ATOM      2  C2  N4B d   1       3.834   5.685  -3.360  0.00  0.00     0.002 A 
ATOM      3  C3  N4B d   1       3.183   5.500  -2.165  0.00  0.00     0.002 A 
ATOM      4  C4  N4B d   1       3.910   5.485  -0.983  0.00  0.00    -0.004 A 
ATOM      5  C5  N4B d   1       5.257   5.697  -1.009  0.00  0.00     0.002 A 
ATOM      6  C6  N4B d   1       5.924   5.889  -2.202  0.00  0.00     0.002 A 
ENDROOT
BRANCH   1   7
ATOM      7  C1' N4B d   1       6.000   6.000  -4.668  0.00  0.00     0.057 C 
BRANCH   7   8
ATOM      8  C2' N4B d   1       5.876   4.695  -5.449  0.00  0.00     0.009 C 
BRANCH   8   9
ATOM      9  C3' N4B d   1       5.986   3.479  -4.545  0.00  0.00     0.004 C 
ATOM     10  C4' N4B d   1       4.805   2.562  -4.659  0.00  0.00     0.003 C 
ENDBRANCH   8   9
ENDBRANCH   7   8
ENDBRANCH   1   7
TORSDOF 3
ENDMDL
