MODEL 1
REMARK minimizedAffinity 9.06740952
REMARK minimizedRMSD -1
REMARK  3 active torsions:
REMARK  status: ('A' for Active; 'I' for Inactive)
REMARK    1  A    between atoms: C3'_2  and  C2'_3 
REMARK    2  A    between atoms: C2'_3  and  C1'_4 
REMARK    3  A    between atoms: C1'_4  and  C1_5 
ROOT
ATOM      1  C1  N4B d   1       3.566  -1.998   4.848  0.00  0.00    -0.075 A 
ATOM      2  C2  N4B d   1       4.459  -1.957   5.942  0.00  0.00     0.002 A 
ATOM      3  C3  N4B d   1       5.515  -2.833   6.000  0.00  0.00     0.002 A 
ATOM      4  C4  N4B d   1       5.688  -3.767   4.989  0.00  0.00    -0.004 A 
ATOM      5  C5  N4B d   1       4.836  -3.783   3.923  0.00  0.00     0.002 A 
ATOM      6  C6  N4B d   1       3.773  -2.906   3.850  0.00  0.00     0.002 A 
ENDROOT
BRANCH   1   7
ATOM      7  C1' N4B d   1       2.348  -1.119   4.784  0.00  0.00     0.057 C 
BRANCH   7   8
ATOM      8  C2' N4B d   1       1.468  -1.392   6.000  0.00  0.00     0.009 C 
BRANCH   8   9
ATOM      9  C3' N4B d   1       0.143  -0.653   5.920  0.00  0.00     0.004 C 
ATOM     10  C4' N4B d   1      -0.914  -1.433   5.197  0.00  0.00     0.003 C 
ENDBRANCH   8   9
ENDBRANCH   7   8
ENDBRANCH   1   7
TORSDOF 3
ENDMDL
