MODEL 1
REMARK minimizedAffinity 17.1541195
REMARK minimizedRMSD -1
REMARK  0 active torsions:
REMARK  status: ('A' for Active; 'I' for Inactive)
ROOT
ATOM      1  C   UNL d   1       2.321  -2.384   2.574  0.00  0.00     0.124 A 
ATOM      2  C1  UNL d   1       3.203  -3.080   3.388  0.00  0.00     0.062 A 
ATOM      3  C2  UNL d   1       4.118  -3.968   2.830  0.00  0.00     0.162 A 
ATOM      4  C3  UNL d   1       4.157  -4.164   1.449  0.00  0.00    -0.034 A 
ATOM      5  C4  UNL d   1       3.266  -3.460   0.637  0.00  0.00     0.162 A 
ATOM      6  C5  UNL d   1       2.353  -2.574   1.200  0.00  0.00     0.062 A 
ATOM      7  F   UNL d   1       1.501  -1.902   0.412  0.00  0.00    -0.097 F 
ATOM      8  F1  UNL d   1       3.276  -3.624  -0.694  0.00  0.00    -0.096 F 
ATOM      9  I   UNL d   1       5.524  -5.490   0.611  0.00  0.00    -0.060 I 
ATOM     10  F2  UNL d   1       4.959  -4.628   3.641  0.00  0.00    -0.096 F 
ATOM     11  F3  UNL d   1       3.174  -2.899   4.716  0.00  0.00    -0.097 F 
ATOM     12  F4  UNL d   1       1.441  -1.531   3.114  0.00  0.00    -0.092 F 
ENDROOT
TORSDOF 0
ENDMDL
