MODEL 1
REMARK minimizedAffinity 7.63633108
REMARK minimizedRMSD -1
REMARK  0 active torsions:
REMARK  status: ('A' for Active; 'I' for Inactive)
ROOT
ATOM      1  C   UNL d   1      -3.997  -0.225  -4.707  0.00  0.00     0.124 A 
ATOM      2  C1  UNL d   1      -4.880   0.209  -3.727  0.00  0.00     0.062 A 
ATOM      3  C2  UNL d   1      -4.607  -0.030  -2.384  0.00  0.00     0.162 A 
ATOM      4  C3  UNL d   1      -3.444  -0.706  -2.011  0.00  0.00    -0.034 A 
ATOM      5  C4  UNL d   1      -2.562  -1.139  -3.002  0.00  0.00     0.162 A 
ATOM      6  C5  UNL d   1      -2.839  -0.898  -4.343  0.00  0.00     0.062 A 
ATOM      7  F   UNL d   1      -1.985  -1.317  -5.289  0.00  0.00    -0.097 F 
ATOM      8  F1  UNL d   1      -1.435  -1.791  -2.679  0.00  0.00    -0.096 F 
ATOM      9  I   UNL d   1      -3.032  -1.065  -0.003  0.00  0.00    -0.060 I 
ATOM     10  F2  UNL d   1      -5.478   0.399  -1.458  0.00  0.00    -0.096 F 
ATOM     11  F3  UNL d   1      -6.000   0.858  -4.076  0.00  0.00    -0.097 F 
ATOM     12  F4  UNL d   1      -4.263   0.006  -5.999  0.00  0.00    -0.092 F 
ENDROOT
TORSDOF 0
ENDMDL
