MODEL 1
REMARK minimizedAffinity 10.2981663
REMARK minimizedRMSD -1
REMARK  0 active torsions:
REMARK  status: ('A' for Active; 'I' for Inactive)
ROOT
ATOM      1  C   UNL d   1       1.017  -3.522   2.117  0.00  0.00     0.124 A 
ATOM      2  C1  UNL d   1       2.064  -3.145   1.287  0.00  0.00     0.062 A 
ATOM      3  C2  UNL d   1       2.328  -1.797   1.062  0.00  0.00     0.162 A 
ATOM      4  C3  UNL d   1       1.545  -0.815   1.669  0.00  0.00    -0.034 A 
ATOM      5  C4  UNL d   1       0.493  -1.202   2.501  0.00  0.00     0.162 A 
ATOM      6  C5  UNL d   1       0.233  -2.551   2.723  0.00  0.00     0.062 A 
ATOM      7  F   UNL d   1      -0.779  -2.913   3.525  0.00  0.00    -0.097 F 
ATOM      8  F1  UNL d   1      -0.280  -0.284   3.101  0.00  0.00    -0.096 F 
ATOM      9  I   UNL d   1       1.936   1.202   1.335  0.00  0.00    -0.060 I 
ATOM     10  F2  UNL d   1       3.346  -1.461   0.256  0.00  0.00    -0.096 F 
ATOM     11  F3  UNL d   1       2.823  -4.081   0.699  0.00  0.00    -0.097 F 
ATOM     12  F4  UNL d   1       0.764  -4.819   2.330  0.00  0.00    -0.092 F 
ENDROOT
TORSDOF 0
ENDMDL
