MODEL 1
REMARK minimizedAffinity 10.0893831
REMARK minimizedRMSD -1
REMARK  0 active torsions:
REMARK  status: ('A' for Active; 'I' for Inactive)
ROOT
ATOM      1  C   UNL d   1       3.321  -4.002   0.830  0.00  0.00     0.124 A 
ATOM      2  C1  UNL d   1       2.793  -3.112   1.754  0.00  0.00     0.062 A 
ATOM      3  C2  UNL d   1       3.255  -3.110   3.067  0.00  0.00     0.162 A 
ATOM      4  C3  UNL d   1       4.253  -4.001   3.463  0.00  0.00    -0.034 A 
ATOM      5  C4  UNL d   1       4.778  -4.894   2.528  0.00  0.00     0.162 A 
ATOM      6  C5  UNL d   1       4.313  -4.892   1.217  0.00  0.00     0.062 A 
ATOM      7  F   UNL d   1       4.824  -5.753   0.325  0.00  0.00    -0.097 F 
ATOM      8  F1  UNL d   1       5.738  -5.764   2.875  0.00  0.00    -0.096 F 
ATOM      9  I   UNL d   1       4.947  -4.000   5.425  0.00  0.00    -0.060 I 
ATOM     10  F2  UNL d   1       2.727  -2.238   3.939  0.00  0.00    -0.096 F 
ATOM     11  F3  UNL d   1       1.834  -2.252   1.383  0.00  0.00    -0.097 F 
ATOM     12  F4  UNL d   1       2.873  -4.003  -0.432  0.00  0.00    -0.092 F 
ENDROOT
TORSDOF 0
ENDMDL
