MODEL 1
REMARK minimizedAffinity 4.85794449
REMARK minimizedRMSD -1
REMARK  0 active torsions:
REMARK  status: ('A' for Active; 'I' for Inactive)
ROOT
ATOM      1  C   UNL d   1      -4.687  -1.136  -4.113  0.00  0.00     0.124 A 
ATOM      2  C1  UNL d   1      -4.899  -0.022  -4.913  0.00  0.00     0.062 A 
ATOM      3  C2  UNL d   1      -4.302   1.194  -4.594  0.00  0.00     0.162 A 
ATOM      4  C3  UNL d   1      -3.485   1.302  -3.468  0.00  0.00    -0.034 A 
ATOM      5  C4  UNL d   1      -3.277   0.177  -2.667  0.00  0.00     0.162 A 
ATOM      6  C5  UNL d   1      -3.877  -1.035  -2.991  0.00  0.00     0.062 A 
ATOM      7  F   UNL d   1      -3.671  -2.110  -2.217  0.00  0.00    -0.097 F 
ATOM      8  F1  UNL d   1      -2.498   0.246  -1.578  0.00  0.00    -0.096 F 
ATOM      9  I   UNL d   1      -2.590   3.118  -2.986  0.00  0.00    -0.060 I 
ATOM     10  F2  UNL d   1      -4.524   2.254  -5.385  0.00  0.00    -0.096 F 
ATOM     11  F3  UNL d   1      -5.683  -0.116  -5.997  0.00  0.00    -0.097 F 
ATOM     12  F4  UNL d   1      -5.264  -2.304  -4.423  0.00  0.00    -0.092 F 
ENDROOT
TORSDOF 0
ENDMDL
