MODEL 1
REMARK minimizedAffinity 7.32420254
REMARK minimizedRMSD -1
REMARK  0 active torsions:
REMARK  status: ('A' for Active; 'I' for Inactive)
ROOT
ATOM      1  C   UNL d   1       3.195  -3.255   1.133  0.00  0.00     0.124 A 
ATOM      2  C1  UNL d   1       4.246  -4.149   1.289  0.00  0.00     0.062 A 
ATOM      3  C2  UNL d   1       4.991  -4.156   2.465  0.00  0.00     0.162 A 
ATOM      4  C3  UNL d   1       4.687  -3.266   3.495  0.00  0.00    -0.034 A 
ATOM      5  C4  UNL d   1       3.630  -2.369   3.331  0.00  0.00     0.162 A 
ATOM      6  C5  UNL d   1       2.889  -2.366   2.154  0.00  0.00     0.062 A 
ATOM      7  F   UNL d   1       1.874  -1.502   2.005  0.00  0.00    -0.097 F 
ATOM      8  F1  UNL d   1       3.312  -1.500   4.301  0.00  0.00    -0.096 F 
ATOM      9  I   UNL d   1       5.799  -3.273   5.255  0.00  0.00    -0.060 I 
ATOM     10  F2  UNL d   1       6.000  -5.031   2.588  0.00  0.00    -0.096 F 
ATOM     11  F3  UNL d   1       4.545  -5.008   0.304  0.00  0.00    -0.097 F 
ATOM     12  F4  UNL d   1       2.481  -3.250   0.001  0.00  0.00    -0.092 F 
ENDROOT
TORSDOF 0
ENDMDL
