MODEL 1
REMARK minimizedAffinity 13.538229
REMARK minimizedRMSD -1
REMARK  0 active torsions:
REMARK  status: ('A' for Active; 'I' for Inactive)
ROOT
ATOM      1  C   UNL d   1      -2.408  -0.864  -4.480  0.00  0.00     0.124 A 
ATOM      2  C1  UNL d   1      -2.062   0.332  -5.092  0.00  0.00     0.062 A 
ATOM      3  C2  UNL d   1      -3.043   1.268  -5.407  0.00  0.00     0.162 A 
ATOM      4  C3  UNL d   1      -4.381   1.011  -5.108  0.00  0.00    -0.034 A 
ATOM      5  C4  UNL d   1      -4.722  -0.194  -4.493  0.00  0.00     0.162 A 
ATOM      6  C5  UNL d   1      -3.738  -1.126  -4.181  0.00  0.00     0.062 A 
ATOM      7  F   UNL d   1      -4.075  -2.281  -3.589  0.00  0.00    -0.097 F 
ATOM      8  F1  UNL d   1      -5.999  -0.473  -4.192  0.00  0.00    -0.096 F 
ATOM      9  I   UNL d   1      -5.852   2.408  -5.577  0.00  0.00    -0.060 I 
ATOM     10  F2  UNL d   1      -2.679   2.415  -5.999  0.00  0.00    -0.096 F 
ATOM     11  F3  UNL d   1      -0.778   0.588  -5.383  0.00  0.00    -0.097 F 
ATOM     12  F4  UNL d   1      -1.462  -1.763  -4.179  0.00  0.00    -0.092 F 
ENDROOT
TORSDOF 0
ENDMDL
