MODEL 1
REMARK minimizedAffinity 4.64906311
REMARK minimizedRMSD -1
REMARK  0 active torsions:
REMARK  status: ('A' for Active; 'I' for Inactive)
ROOT
ATOM      1  C   UNL d   1       2.383  -2.794   0.746  0.00  0.00     0.124 A 
ATOM      2  C1  UNL d   1       3.702  -3.175   0.949  0.00  0.00     0.062 A 
ATOM      3  C2  UNL d   1       4.731  -2.253   0.779  0.00  0.00     0.162 A 
ATOM      4  C3  UNL d   1       4.445  -0.940   0.406  0.00  0.00    -0.034 A 
ATOM      5  C4  UNL d   1       3.116  -0.564   0.203  0.00  0.00     0.162 A 
ATOM      6  C5  UNL d   1       2.091  -1.489   0.374  0.00  0.00     0.062 A 
ATOM      7  F   UNL d   1       0.817  -1.119   0.177  0.00  0.00    -0.097 F 
ATOM      8  F1  UNL d   1       2.806   0.690  -0.156  0.00  0.00    -0.096 F 
ATOM      9  I   UNL d   1       5.981   0.441   0.152  0.00  0.00    -0.060 I 
ATOM     10  F2  UNL d   1       5.996  -2.650   0.982  0.00  0.00    -0.096 F 
ATOM     11  F3  UNL d   1       3.987  -4.435   1.308  0.00  0.00    -0.097 F 
ATOM     12  F4  UNL d   1       1.395  -3.683   0.909  0.00  0.00    -0.092 F 
ENDROOT
TORSDOF 0
ENDMDL
