MODEL 1
REMARK minimizedAffinity 8.88168526
REMARK minimizedRMSD -1
REMARK  0 active torsions:
REMARK  status: ('A' for Active; 'I' for Inactive)
ROOT
ATOM      1  C   UNL d   1       2.392  -2.195   0.364  0.00  0.00     0.124 A 
ATOM      2  C1  UNL d   1       2.104  -0.876   0.041  0.00  0.00     0.062 A 
ATOM      3  C2  UNL d   1       3.127   0.064  -0.038  0.00  0.00     0.162 A 
ATOM      4  C3  UNL d   1       4.448  -0.311   0.205  0.00  0.00    -0.034 A 
ATOM      5  C4  UNL d   1       4.730  -1.639   0.530  0.00  0.00     0.162 A 
ATOM      6  C5  UNL d   1       3.705  -2.575   0.608  0.00  0.00     0.062 A 
ATOM      7  F   UNL d   1       3.985  -3.849   0.920  0.00  0.00    -0.097 F 
ATOM      8  F1  UNL d   1       5.990  -2.033   0.769  0.00  0.00    -0.096 F 
ATOM      9  I   UNL d   1       5.980   1.093   0.087  0.00  0.00    -0.060 I 
ATOM     10  F2  UNL d   1       2.819   1.332  -0.352  0.00  0.00    -0.096 F 
ATOM     11  F3  UNL d   1       0.837  -0.507  -0.194  0.00  0.00    -0.097 F 
ATOM     12  F4  UNL d   1       1.406  -3.098   0.441  0.00  0.00    -0.092 F 
ENDROOT
TORSDOF 0
ENDMDL
