MODEL 1
REMARK minimizedAffinity 6.47793531
REMARK minimizedRMSD -1
REMARK  0 active torsions:
REMARK  status: ('A' for Active; 'I' for Inactive)
ROOT
ATOM      1  C   UNL d   1       5.223  -2.499  -0.381  0.00  0.00     0.023 A 
ATOM      2  C1  UNL d   1       5.760  -3.783  -0.482  0.00  0.00     0.003 A 
ATOM      3  C2  UNL d   1       5.234  -4.690  -1.404  0.00  0.00     0.048 A 
ATOM      4  C3  UNL d   1       4.171  -4.308  -2.222  0.00  0.00     0.023 A 
ATOM      5  C4  UNL d   1       3.631  -3.024  -2.125  0.00  0.00     0.048 A 
ATOM      6  C5  UNL d   1       4.160  -2.121  -1.201  0.00  0.00     0.003 A 
ATOM      7  I   UNL d   1       3.387  -5.657  -3.594  0.00  0.00    -0.146 I 
ENDROOT
TORSDOF 0
ENDMDL
