MODEL 1
REMARK minimizedAffinity 0.84945792
REMARK minimizedRMSD -1
REMARK  0 active torsions:
REMARK  status: ('A' for Active; 'I' for Inactive)
ROOT
ATOM      1  C   UNL d   1      -3.550   1.103  -2.137  0.00  0.00     0.023 A 
ATOM      2  C1  UNL d   1      -4.473   1.896  -1.454  0.00  0.00     0.003 A 
ATOM      3  C2  UNL d   1      -5.117   1.399  -0.319  0.00  0.00     0.048 A 
ATOM      4  C3  UNL d   1      -4.834   0.109   0.128  0.00  0.00     0.023 A 
ATOM      5  C4  UNL d   1      -3.911  -0.687  -0.551  0.00  0.00     0.048 A 
ATOM      6  C5  UNL d   1      -3.270  -0.187  -1.686  0.00  0.00     0.003 A 
ATOM      7  I   UNL d   1      -5.792  -0.632   1.817  0.00  0.00    -0.146 I 
ENDROOT
TORSDOF 0
ENDMDL
