MODEL 1
REMARK minimizedAffinity -0.407183439
REMARK minimizedRMSD -1
REMARK  0 active torsions:
REMARK  status: ('A' for Active; 'I' for Inactive)
ROOT
ATOM      1  C   UNL d   1       5.357  -5.090  -3.030  0.00  0.00     0.023 A 
ATOM      2  C1  UNL d   1       4.147  -4.664  -3.579  0.00  0.00     0.003 A 
ATOM      3  C2  UNL d   1       3.441  -3.614  -2.987  0.00  0.00     0.048 A 
ATOM      4  C3  UNL d   1       3.951  -2.995  -1.847  0.00  0.00     0.023 A 
ATOM      5  C4  UNL d   1       5.162  -3.417  -1.294  0.00  0.00     0.048 A 
ATOM      6  C5  UNL d   1       5.863  -4.467  -1.889  0.00  0.00     0.003 A 
ATOM      7  I   UNL d   1       2.903  -1.433  -0.964  0.00  0.00    -0.146 I 
ENDROOT
TORSDOF 0
ENDMDL
