MODEL 1
REMARK minimizedAffinity 3.16407943
REMARK minimizedRMSD -1
REMARK  0 active torsions:
REMARK  status: ('A' for Active; 'I' for Inactive)
ROOT
ATOM      1  C   UNL d   1       0.384   3.639  -1.189  0.00  0.00     0.023 A 
ATOM      2  C1  UNL d   1      -0.214   3.001  -0.103  0.00  0.00     0.003 A 
ATOM      3  C2  UNL d   1      -1.159   3.677   0.672  0.00  0.00     0.048 A 
ATOM      4  C3  UNL d   1      -1.501   4.991   0.354  0.00  0.00     0.023 A 
ATOM      5  C4  UNL d   1      -0.906   5.634  -0.732  0.00  0.00     0.048 A 
ATOM      6  C5  UNL d   1       0.039   4.954  -1.504  0.00  0.00     0.003 A 
ATOM      7  I   UNL d   1      -2.907   6.000   1.506  0.00  0.00    -0.146 I 
ENDROOT
TORSDOF 0
ENDMDL
