MODEL 1
REMARK minimizedAffinity 0.592670619
REMARK minimizedRMSD -1
REMARK  0 active torsions:
REMARK  status: ('A' for Active; 'I' for Inactive)
ROOT
ATOM      1  C   UNL d   1       0.057   4.757  -0.641  0.00  0.00     0.023 A 
ATOM      2  C1  UNL d   1      -1.068   5.218  -1.325  0.00  0.00     0.003 A 
ATOM      3  C2  UNL d   1      -2.031   4.314  -1.778  0.00  0.00     0.048 A 
ATOM      4  C3  UNL d   1      -1.863   2.950  -1.542  0.00  0.00     0.023 A 
ATOM      5  C4  UNL d   1      -0.740   2.484  -0.857  0.00  0.00     0.048 A 
ATOM      6  C5  UNL d   1       0.221   3.391  -0.407  0.00  0.00     0.003 A 
ATOM      7  I   UNL d   1      -3.295   1.602  -2.215  0.00  0.00    -0.146 I 
ENDROOT
TORSDOF 0
ENDMDL
