MODEL 1
REMARK minimizedAffinity 0.216721356
REMARK minimizedRMSD -1
REMARK  0 active torsions:
REMARK  status: ('A' for Active; 'I' for Inactive)
ROOT
ATOM      1  C   UNL d   1       5.457  -3.206  -1.357  0.00  0.00     0.023 A 
ATOM      2  C1  UNL d   1       4.534  -3.066  -2.393  0.00  0.00     0.003 A 
ATOM      3  C2  UNL d   1       3.266  -3.641  -2.283  0.00  0.00     0.048 A 
ATOM      4  C3  UNL d   1       2.928  -4.354  -1.133  0.00  0.00     0.023 A 
ATOM      5  C4  UNL d   1       3.848  -4.496  -0.093  0.00  0.00     0.048 A 
ATOM      6  C5  UNL d   1       5.115  -3.920  -0.208  0.00  0.00     0.003 A 
ATOM      7  I   UNL d   1       1.042  -5.211  -0.967  0.00  0.00    -0.146 I 
ENDROOT
TORSDOF 0
ENDMDL
