MODEL 1
REMARK minimizedAffinity 3.6614871
REMARK minimizedRMSD -1
REMARK  0 active torsions:
REMARK  status: ('A' for Active; 'I' for Inactive)
ROOT
ATOM      1  C   UNL d   1      -6.000   1.996  -2.198  0.00  0.00     0.023 A 
ATOM      2  C1  UNL d   1      -5.249   3.150  -2.425  0.00  0.00     0.003 A 
ATOM      3  C2  UNL d   1      -3.862   3.123  -2.270  0.00  0.00     0.048 A 
ATOM      4  C3  UNL d   1      -3.231   1.940  -1.889  0.00  0.00     0.023 A 
ATOM      5  C4  UNL d   1      -3.978   0.783  -1.661  0.00  0.00     0.048 A 
ATOM      6  C5  UNL d   1      -5.365   0.814  -1.817  0.00  0.00     0.003 A 
ATOM      7  I   UNL d   1      -1.166   1.898  -1.658  0.00  0.00    -0.146 I 
ENDROOT
TORSDOF 0
ENDMDL
