MODEL 1
REMARK minimizedAffinity 0.273665249
REMARK minimizedRMSD -1
REMARK  0 active torsions:
REMARK  status: ('A' for Active; 'I' for Inactive)
ROOT
ATOM      1  C   UNL d   1       5.402  -2.988  -1.931  0.00  0.00     0.023 A 
ATOM      2  C1  UNL d   1       5.027  -4.108  -2.673  0.00  0.00     0.003 A 
ATOM      3  C2  UNL d   1       3.826  -4.763  -2.392  0.00  0.00     0.048 A 
ATOM      4  C3  UNL d   1       3.004  -4.292  -1.369  0.00  0.00     0.023 A 
ATOM      5  C4  UNL d   1       3.375  -3.171  -0.624  0.00  0.00     0.048 A 
ATOM      6  C5  UNL d   1       4.577  -2.520  -0.908  0.00  0.00     0.003 A 
ATOM      7  I   UNL d   1       1.216  -5.265  -0.949  0.00  0.00    -0.146 I 
ENDROOT
TORSDOF 0
ENDMDL
