MODEL 1
REMARK minimizedAffinity 4.90874004
REMARK minimizedRMSD -1
REMARK  0 active torsions:
REMARK  status: ('A' for Active; 'I' for Inactive)
ROOT
ATOM      1  C   UNL d   1       4.555  -2.245  -0.806  0.00  0.00     0.023 A 
ATOM      2  C1  UNL d   1       4.818  -3.580  -0.496  0.00  0.00     0.003 A 
ATOM      3  C2  UNL d   1       4.614  -4.574  -1.456  0.00  0.00     0.048 A 
ATOM      4  C3  UNL d   1       4.149  -4.226  -2.723  0.00  0.00     0.023 A 
ATOM      5  C4  UNL d   1       3.886  -2.892  -3.039  0.00  0.00     0.048 A 
ATOM      6  C5  UNL d   1       4.090  -1.902  -2.076  0.00  0.00     0.003 A 
ATOM      7  I   UNL d   1       3.845  -5.704  -4.153  0.00  0.00    -0.146 I 
ENDROOT
TORSDOF 0
ENDMDL
