MODEL 1
REMARK minimizedAffinity 5.20845461
REMARK minimizedRMSD -1
REMARK  0 active torsions:
REMARK  status: ('A' for Active; 'I' for Inactive)
ROOT
ATOM      1  C   UNL d   1       5.411  -2.712  -2.600  0.00  0.00     0.023 A 
ATOM      2  C1  UNL d   1       5.942  -2.996  -1.341  0.00  0.00     0.003 A 
ATOM      3  C2  UNL d   1       5.122  -3.513  -0.337  0.00  0.00     0.048 A 
ATOM      4  C3  UNL d   1       3.772  -3.744  -0.597  0.00  0.00     0.023 A 
ATOM      5  C4  UNL d   1       3.236  -3.462  -1.855  0.00  0.00     0.048 A 
ATOM      6  C5  UNL d   1       4.060  -2.944  -2.856  0.00  0.00     0.003 A 
ATOM      7  I   UNL d   1       2.549  -4.514   0.897  0.00  0.00    -0.146 I 
ENDROOT
TORSDOF 0
ENDMDL
