MODEL 1
REMARK minimizedAffinity 1.00074089
REMARK minimizedRMSD -1
REMARK  0 active torsions:
REMARK  status: ('A' for Active; 'I' for Inactive)
ROOT
ATOM      1  C   UNL d   1       4.333  -5.856  -3.396  0.00  0.00     0.023 A 
ATOM      2  C1  UNL d   1       4.863  -6.000  -2.114  0.00  0.00     0.003 A 
ATOM      3  C2  UNL d   1       4.771  -4.951  -1.197  0.00  0.00     0.048 A 
ATOM      4  C3  UNL d   1       4.146  -3.761  -1.568  0.00  0.00     0.023 A 
ATOM      5  C4  UNL d   1       3.613  -3.613  -2.850  0.00  0.00     0.048 A 
ATOM      6  C5  UNL d   1       3.708  -4.664  -3.764  0.00  0.00     0.003 A 
ATOM      7  I   UNL d   1       4.007  -2.199  -0.205  0.00  0.00    -0.146 I 
ENDROOT
TORSDOF 0
ENDMDL
