MODEL 1
REMARK minimizedAffinity -1.76526749
REMARK minimizedRMSD -1
REMARK  0 active torsions:
REMARK  status: ('A' for Active; 'I' for Inactive)
ROOT
ATOM      1  C   UNL d   1       0.191  -0.681  -0.794  0.00  0.00     0.077 C 
ATOM      2  C1  UNL d   1       0.399   0.436   0.186  0.00  0.00    -0.074 A 
ATOM      3  C2  UNL d   1       0.518   0.178   1.555  0.00  0.00    -0.005 A 
ATOM      4  C3  UNL d   1       0.720   1.226   2.453  0.00  0.00     0.006 A 
ATOM      5  C4  UNL d   1       0.805   2.540   1.992  0.00  0.00    -0.005 A 
ATOM      6  C5  UNL d   1       0.689   2.817   0.626  0.00  0.00    -0.074 A 
ATOM      7  C6  UNL d   1       0.788   4.223   0.113  0.00  0.00     0.077 C 
ATOM      8  C7  UNL d   1       0.493   1.758  -0.271  0.00  0.00    -0.001 A 
ENDROOT
TORSDOF 0
ENDMDL
