MODEL 1
REMARK minimizedAffinity 3.32036781
REMARK minimizedRMSD -1
REMARK  0 active torsions:
REMARK  status: ('A' for Active; 'I' for Inactive)
ROOT
ATOM      1  C   UNL d   1       0.959  -1.305   1.896  0.00  0.00     0.077 C 
ATOM      2  C1  UNL d   1       0.273  -0.399   0.917  0.00  0.00    -0.074 A 
ATOM      3  C2  UNL d   1       0.225   0.983   1.128  0.00  0.00    -0.005 A 
ATOM      4  C3  UNL d   1      -0.407   1.814   0.204  0.00  0.00     0.006 A 
ATOM      5  C4  UNL d   1      -0.998   1.273  -0.939  0.00  0.00    -0.005 A 
ATOM      6  C5  UNL d   1      -0.959  -0.106  -1.167  0.00  0.00    -0.074 A 
ATOM      7  C6  UNL d   1      -1.580  -0.703  -2.395  0.00  0.00     0.077 C 
ATOM      8  C7  UNL d   1      -0.315  -0.934  -0.237  0.00  0.00    -0.001 A 
ENDROOT
TORSDOF 0
ENDMDL
