MODEL 1
REMARK minimizedAffinity -3.52108407
REMARK minimizedRMSD -1
REMARK  0 active torsions:
REMARK  status: ('A' for Active; 'I' for Inactive)
ROOT
ATOM      1  C   UNL d   1      -5.958  -4.138   5.864  0.00  0.00     0.077 C 
ATOM      2  C1  UNL d   1      -5.878  -2.787   5.218  0.00  0.00    -0.074 A 
ATOM      3  C2  UNL d   1      -5.694  -1.633   5.986  0.00  0.00    -0.005 A 
ATOM      4  C3  UNL d   1      -5.613  -0.384   5.371  0.00  0.00     0.006 A 
ATOM      5  C4  UNL d   1      -5.715  -0.276   3.983  0.00  0.00    -0.005 A 
ATOM      6  C5  UNL d   1      -5.898  -1.420   3.199  0.00  0.00    -0.074 A 
ATOM      7  C6  UNL d   1      -6.000  -1.323   1.705  0.00  0.00     0.077 C 
ATOM      8  C7  UNL d   1      -5.972  -2.672   3.824  0.00  0.00    -0.001 A 
ENDROOT
TORSDOF 0
ENDMDL
