MODEL 1
REMARK minimizedAffinity 5.70035028
REMARK minimizedRMSD -1
REMARK  0 active torsions:
REMARK  status: ('A' for Active; 'I' for Inactive)
ROOT
ATOM      1  C   UNL d   1      -1.303   0.611  -0.502  0.00  0.00     0.077 C 
ATOM      2  C1  UNL d   1      -0.252   0.371   0.540  0.00  0.00    -0.074 A 
ATOM      3  C2  UNL d   1       0.369  -0.877   0.660  0.00  0.00    -0.005 A 
ATOM      4  C3  UNL d   1       1.352  -1.083   1.628  0.00  0.00     0.006 A 
ATOM      5  C4  UNL d   1       1.724  -0.046   2.485  0.00  0.00    -0.005 A 
ATOM      6  C5  UNL d   1       1.114   1.209   2.379  0.00  0.00    -0.074 A 
ATOM      7  C6  UNL d   1       1.509   2.337   3.285  0.00  0.00     0.077 C 
ATOM      8  C7  UNL d   1       0.133   1.410   1.399  0.00  0.00    -0.001 A 
ENDROOT
TORSDOF 0
ENDMDL
