MODEL 1
REMARK minimizedAffinity -2.97538018
REMARK minimizedRMSD -1
REMARK  0 active torsions:
REMARK  status: ('A' for Active; 'I' for Inactive)
ROOT
ATOM      1  C   UNL d   1       0.696  -0.520   2.573  0.00  0.00     0.077 C 
ATOM      2  C1  UNL d   1       0.720   0.221   1.269  0.00  0.00    -0.074 A 
ATOM      3  C2  UNL d   1       1.055  -0.430   0.078  0.00  0.00    -0.005 A 
ATOM      4  C3  UNL d   1       1.063   0.270  -1.128  0.00  0.00     0.006 A 
ATOM      5  C4  UNL d   1       0.737   1.626  -1.156  0.00  0.00    -0.005 A 
ATOM      6  C5  UNL d   1       0.399   2.294   0.025  0.00  0.00    -0.074 A 
ATOM      7  C6  UNL d   1       0.036   3.750   0.012  0.00  0.00     0.077 C 
ATOM      8  C7  UNL d   1       0.386   1.582   1.233  0.00  0.00    -0.001 A 
ENDROOT
TORSDOF 0
ENDMDL
