MODEL 1
REMARK minimizedAffinity 1.5912528
REMARK minimizedRMSD -1
REMARK  0 active torsions:
REMARK  status: ('A' for Active; 'I' for Inactive)
ROOT
ATOM      1  C   UNL d   1       2.176   2.315   3.409  0.00  0.00     0.077 C 
ATOM      2  C1  UNL d   1       1.486   1.405   2.436  0.00  0.00    -0.074 A 
ATOM      3  C2  UNL d   1       1.826   0.051   2.353  0.00  0.00    -0.005 A 
ATOM      4  C3  UNL d   1       1.169  -0.785   1.451  0.00  0.00     0.006 A 
ATOM      5  C4  UNL d   1       0.166  -0.277   0.624  0.00  0.00    -0.005 A 
ATOM      6  C5  UNL d   1      -0.188   1.074   0.694  0.00  0.00    -0.074 A 
ATOM      7  C6  UNL d   1      -1.270   1.635  -0.181  0.00  0.00     0.077 C 
ATOM      8  C7  UNL d   1       0.472   1.907   1.608  0.00  0.00    -0.001 A 
ENDROOT
TORSDOF 0
ENDMDL
