MODEL 1
REMARK minimizedAffinity -0.194468617
REMARK minimizedRMSD -1
REMARK  0 active torsions:
REMARK  status: ('A' for Active; 'I' for Inactive)
ROOT
ATOM      1  C   UNL d   1       4.451  -1.450   2.970  0.00  0.00     0.077 C 
ATOM      2  C1  UNL d   1       2.990  -1.136   2.850  0.00  0.00    -0.074 A 
ATOM      3  C2  UNL d   1       2.096  -1.471   3.873  0.00  0.00    -0.005 A 
ATOM      4  C3  UNL d   1       0.741  -1.164   3.751  0.00  0.00     0.006 A 
ATOM      5  C4  UNL d   1       0.266  -0.520   2.608  0.00  0.00    -0.005 A 
ATOM      6  C5  UNL d   1       1.145  -0.177   1.576  0.00  0.00    -0.074 A 
ATOM      7  C6  UNL d   1       0.652   0.524   0.345  0.00  0.00     0.077 C 
ATOM      8  C7  UNL d   1       2.506  -0.482   1.708  0.00  0.00    -0.001 A 
ENDROOT
TORSDOF 0
ENDMDL
