MODEL 1
REMARK minimizedAffinity -3.9826231
REMARK minimizedRMSD -1
REMARK  0 active torsions:
REMARK  status: ('A' for Active; 'I' for Inactive)
ROOT
ATOM      1  C   UNL d   1      -0.251   3.419   1.968  0.00  0.00     0.077 C 
ATOM      2  C1  UNL d   1       0.315   2.152   1.399  0.00  0.00    -0.074 A 
ATOM      3  C2  UNL d   1       0.259   1.893   0.026  0.00  0.00    -0.005 A 
ATOM      4  C3  UNL d   1       0.798   0.714  -0.490  0.00  0.00     0.006 A 
ATOM      5  C4  UNL d   1       1.397  -0.216   0.360  0.00  0.00    -0.005 A 
ATOM      6  C5  UNL d   1       1.463   0.026   1.736  0.00  0.00    -0.074 A 
ATOM      7  C6  UNL d   1       2.112  -0.958   2.663  0.00  0.00     0.077 C 
ATOM      8  C7  UNL d   1       0.925   1.216   2.246  0.00  0.00    -0.001 A 
ENDROOT
TORSDOF 0
ENDMDL
