MODEL 1
REMARK minimizedAffinity 6.69310808
REMARK minimizedRMSD -1
REMARK  0 active torsions:
REMARK  status: ('A' for Active; 'I' for Inactive)
ROOT
ATOM      1  C   UNL d   1       5.999   0.759   2.240  0.00  0.00    -0.002 A 
ATOM      2  C1  UNL d   1       5.994   2.119   1.963  0.00  0.00     0.010 A 
ATOM      3  C2  UNL d   1       4.943   2.694   1.246  0.00  0.00     0.041 A 
ATOM      4  C3  UNL d   1       3.886   1.872   0.809  0.00  0.00    -0.075 A 
ATOM      5  S   UNL d   1       2.493   2.356  -0.084  0.00  0.00     0.015 SA
ATOM      6  C4  UNL d   1       1.871   0.770  -0.118  0.00  0.00     0.022 A 
ATOM      7  C5  UNL d   1       2.694  -0.121   0.530  0.00  0.00     0.026 A 
ATOM      8  C6  UNL d   1       3.868   0.500   1.076  0.00  0.00    -0.082 A 
ATOM      9  C7  UNL d   1       4.949  -0.053   1.804  0.00  0.00     0.045 A 
ENDROOT
TORSDOF 0
ENDMDL
