MODEL 1
REMARK minimizedAffinity -0.279880166
REMARK minimizedRMSD -1
REMARK  0 active torsions:
REMARK  status: ('A' for Active; 'I' for Inactive)
ROOT
ATOM      1  C   UNL d   1       5.993   3.218  -5.605  0.00  0.00    -0.002 A 
ATOM      2  C1  UNL d   1       6.000   4.579  -5.876  0.00  0.00     0.010 A 
ATOM      3  C2  UNL d   1       4.801   5.284  -5.999  0.00  0.00     0.041 A 
ATOM      4  C3  UNL d   1       3.584   4.593  -5.841  0.00  0.00    -0.075 A 
ATOM      5  S   UNL d   1       1.994   5.250  -5.947  0.00  0.00     0.015 SA
ATOM      6  C4  UNL d   1       1.268   3.740  -5.633  0.00  0.00     0.022 A 
ATOM      7  C5  UNL d   1       2.202   2.748  -5.450  0.00  0.00     0.026 A 
ATOM      8  C6  UNL d   1       3.552   3.223  -5.566  0.00  0.00    -0.082 A 
ATOM      9  C7  UNL d   1       4.784   2.535  -5.449  0.00  0.00     0.045 A 
ENDROOT
TORSDOF 0
ENDMDL
