MODEL 1
REMARK minimizedAffinity 1.76672328
REMARK minimizedRMSD -1
REMARK  0 active torsions:
REMARK  status: ('A' for Active; 'I' for Inactive)
ROOT
ATOM      1  C   UNL d   1       5.250   2.808  -5.997  0.00  0.00    -0.002 A 
ATOM      2  C1  UNL d   1       5.474   4.177  -6.000  0.00  0.00     0.010 A 
ATOM      3  C2  UNL d   1       4.402   5.072  -6.000  0.00  0.00     0.041 A 
ATOM      4  C3  UNL d   1       3.089   4.563  -5.995  0.00  0.00    -0.075 A 
ATOM      5  S   UNL d   1       1.623   5.470  -5.994  0.00  0.00     0.015 SA
ATOM      6  C4  UNL d   1       0.664   4.061  -5.988  0.00  0.00     0.022 A 
ATOM      7  C5  UNL d   1       1.428   2.917  -5.988  0.00  0.00     0.026 A 
ATOM      8  C6  UNL d   1       2.838   3.188  -5.991  0.00  0.00    -0.082 A 
ATOM      9  C7  UNL d   1       3.945   2.306  -5.992  0.00  0.00     0.045 A 
ENDROOT
TORSDOF 0
ENDMDL
