MODEL 1
REMARK minimizedAffinity -0.440763474
REMARK minimizedRMSD -1
REMARK  0 active torsions:
REMARK  status: ('A' for Active; 'I' for Inactive)
ROOT
ATOM      1  C   UNL d   1       2.064   5.999  -5.761  0.00  0.00    -0.002 A 
ATOM      2  C1  UNL d   1       1.206   4.990  -5.347  0.00  0.00     0.010 A 
ATOM      3  C2  UNL d   1       1.677   3.688  -5.163  0.00  0.00     0.041 A 
ATOM      4  C3  UNL d   1       3.038   3.416  -5.404  0.00  0.00    -0.075 A 
ATOM      5  S   UNL d   1       3.839   1.897  -5.244  0.00  0.00     0.015 SA
ATOM      6  C4  UNL d   1       5.338   2.552  -5.721  0.00  0.00     0.022 A 
ATOM      7  C5  UNL d   1       5.248   3.895  -5.999  0.00  0.00     0.026 A 
ATOM      8  C6  UNL d   1       3.922   4.415  -5.821  0.00  0.00    -0.082 A 
ATOM      9  C7  UNL d   1       3.414   5.725  -5.999  0.00  0.00     0.045 A 
ENDROOT
TORSDOF 0
ENDMDL
