MODEL 1
REMARK minimizedAffinity -3.45054078
REMARK minimizedRMSD -1
REMARK  0 active torsions:
REMARK  status: ('A' for Active; 'I' for Inactive)
ROOT
ATOM      1  C   UNL d   1       4.866   2.959  -5.476  0.00  0.00    -0.002 A 
ATOM      2  C1  UNL d   1       5.248   4.247  -5.823  0.00  0.00     0.010 A 
ATOM      3  C2  UNL d   1       4.292   5.248  -6.000  0.00  0.00     0.041 A 
ATOM      4  C3  UNL d   1       2.931   4.931  -5.818  0.00  0.00    -0.075 A 
ATOM      5  S   UNL d   1       1.585   5.996  -5.980  0.00  0.00     0.015 SA
ATOM      6  C4  UNL d   1       0.470   4.767  -5.591  0.00  0.00     0.022 A 
ATOM      7  C5  UNL d   1       1.093   3.567  -5.341  0.00  0.00     0.026 A 
ATOM      8  C6  UNL d   1       2.521   3.642  -5.467  0.00  0.00    -0.082 A 
ATOM      9  C7  UNL d   1       3.515   2.648  -5.297  0.00  0.00     0.045 A 
ENDROOT
TORSDOF 0
ENDMDL
