MODEL 1
REMARK minimizedAffinity -1.63672948
REMARK minimizedRMSD -1
REMARK  0 active torsions:
REMARK  status: ('A' for Active; 'I' for Inactive)
ROOT
ATOM      1  C   UNL d   1       1.675   6.000  -5.881  0.00  0.00    -0.002 A 
ATOM      2  C1  UNL d   1       0.863   4.893  -5.676  0.00  0.00     0.010 A 
ATOM      3  C2  UNL d   1       1.416   3.614  -5.586  0.00  0.00     0.041 A 
ATOM      4  C3  UNL d   1       2.811   3.464  -5.704  0.00  0.00    -0.075 A 
ATOM      5  S   UNL d   1       3.710   1.995  -5.625  0.00  0.00     0.015 SA
ATOM      6  C4  UNL d   1       5.192   2.801  -5.861  0.00  0.00     0.022 A 
ATOM      7  C5  UNL d   1       5.025   4.159  -5.999  0.00  0.00     0.026 A 
ATOM      8  C6  UNL d   1       3.650   4.564  -5.911  0.00  0.00    -0.082 A 
ATOM      9  C7  UNL d   1       3.059   5.847  -5.999  0.00  0.00     0.045 A 
ENDROOT
TORSDOF 0
ENDMDL
