MODEL 1
REMARK minimizedAffinity -0.0197107382
REMARK minimizedRMSD -1
REMARK  0 active torsions:
REMARK  status: ('A' for Active; 'I' for Inactive)
ROOT
ATOM      1  C   UNL d   1       1.562   5.995  -5.800  0.00  0.00    -0.002 A 
ATOM      2  C1  UNL d   1       0.840   4.877  -5.407  0.00  0.00     0.010 A 
ATOM      3  C2  UNL d   1       1.480   3.653  -5.208  0.00  0.00     0.041 A 
ATOM      4  C3  UNL d   1       2.872   3.570  -5.409  0.00  0.00    -0.075 A 
ATOM      5  S   UNL d   1       3.868   2.175  -5.223  0.00  0.00     0.015 SA
ATOM      6  C4  UNL d   1       5.276   3.031  -5.659  0.00  0.00     0.022 A 
ATOM      7  C5  UNL d   1       5.011   4.350  -5.943  0.00  0.00     0.026 A 
ATOM      8  C6  UNL d   1       3.621   4.682  -5.803  0.00  0.00    -0.082 A 
ATOM      9  C7  UNL d   1       2.943   5.910  -5.999  0.00  0.00     0.045 A 
ENDROOT
TORSDOF 0
ENDMDL
