MODEL 1
REMARK minimizedAffinity 10.0579948
REMARK minimizedRMSD -1
REMARK  0 active torsions:
REMARK  status: ('A' for Active; 'I' for Inactive)
ROOT
ATOM      1  C   UNL d   1       6.000   1.139   1.280  0.00  0.00    -0.002 A 
ATOM      2  C1  UNL d   1       5.687  -0.031   1.957  0.00  0.00     0.010 A 
ATOM      3  C2  UNL d   1       4.356  -0.414   2.135  0.00  0.00     0.041 A 
ATOM      4  C3  UNL d   1       3.335   0.405   1.615  0.00  0.00    -0.075 A 
ATOM      5  S   UNL d   1       1.635   0.136   1.712  0.00  0.00     0.015 SA
ATOM      6  C4  UNL d   1       1.284   1.568   0.856  0.00  0.00     0.022 A 
ATOM      7  C5  UNL d   1       2.425   2.247   0.498  0.00  0.00     0.026 A 
ATOM      8  C6  UNL d   1       3.626   1.588   0.929  0.00  0.00    -0.082 A 
ATOM      9  C7  UNL d   1       4.985   1.950   0.765  0.00  0.00     0.045 A 
ENDROOT
TORSDOF 0
ENDMDL
