MODEL 1
REMARK minimizedAffinity -0.554953635
REMARK minimizedRMSD -1
REMARK  0 active torsions:
REMARK  status: ('A' for Active; 'I' for Inactive)
ROOT
ATOM      1  C   UNL d   1       1.512   3.766  -5.688  0.00  0.00    -0.002 A 
ATOM      2  C1  UNL d   1       2.117   2.518  -5.726  0.00  0.00     0.010 A 
ATOM      3  C2  UNL d   1       3.505   2.403  -5.822  0.00  0.00     0.041 A 
ATOM      4  C3  UNL d   1       4.283   3.576  -5.878  0.00  0.00    -0.075 A 
ATOM      5  S   UNL d   1       6.000   3.680  -5.996  0.00  0.00     0.015 SA
ATOM      6  C4  UNL d   1       5.971   5.384  -5.999  0.00  0.00     0.022 A 
ATOM      7  C5  UNL d   1       4.692   5.878  -5.913  0.00  0.00     0.026 A 
ATOM      8  C6  UNL d   1       3.697   4.845  -5.841  0.00  0.00    -0.082 A 
ATOM      9  C7  UNL d   1       2.287   4.927  -5.744  0.00  0.00     0.045 A 
ENDROOT
TORSDOF 0
ENDMDL
