MODEL 1
REMARK minimizedAffinity -1.44676602
REMARK minimizedRMSD -1
REMARK  0 active torsions:
REMARK  status: ('A' for Active; 'I' for Inactive)
ROOT
ATOM      1  C   UNL d   1       1.641   6.000  -5.719  0.00  0.00    -0.002 A 
ATOM      2  C1  UNL d   1       0.877   4.855  -5.538  0.00  0.00     0.010 A 
ATOM      3  C2  UNL d   1       1.479   3.596  -5.515  0.00  0.00     0.041 A 
ATOM      4  C3  UNL d   1       2.876   3.505  -5.677  0.00  0.00    -0.075 A 
ATOM      5  S   UNL d   1       3.831   2.070  -5.682  0.00  0.00     0.015 SA
ATOM      6  C4  UNL d   1       5.275   2.942  -5.923  0.00  0.00     0.022 A 
ATOM      7  C5  UNL d   1       5.053   4.297  -6.000  0.00  0.00     0.026 A 
ATOM      8  C6  UNL d   1       3.666   4.644  -5.859  0.00  0.00    -0.082 A 
ATOM      9  C7  UNL d   1       3.026   5.906  -5.878  0.00  0.00     0.045 A 
ENDROOT
TORSDOF 0
ENDMDL
