MODEL 1
REMARK minimizedAffinity -1.63470531
REMARK minimizedRMSD -1
REMARK  0 active torsions:
REMARK  status: ('A' for Active; 'I' for Inactive)
ROOT
ATOM      1  C   UNL d   1       1.165   4.026  -5.978  0.00  0.00    -0.002 A 
ATOM      2  C1  UNL d   1       1.359   5.400  -5.981  0.00  0.00     0.010 A 
ATOM      3  C2  UNL d   1       2.649   5.935  -5.987  0.00  0.00     0.041 A 
ATOM      4  C3  UNL d   1       3.751   5.058  -5.991  0.00  0.00    -0.075 A 
ATOM      5  S   UNL d   1       5.421   5.486  -6.000  0.00  0.00     0.015 SA
ATOM      6  C4  UNL d   1       5.916   3.855  -6.000  0.00  0.00     0.022 A 
ATOM      7  C5  UNL d   1       4.846   2.992  -5.994  0.00  0.00     0.026 A 
ATOM      8  C6  UNL d   1       3.581   3.670  -5.989  0.00  0.00    -0.082 A 
ATOM      9  C7  UNL d   1       2.261   3.159  -5.982  0.00  0.00     0.045 A 
ENDROOT
TORSDOF 0
ENDMDL
