MODEL 1
REMARK minimizedAffinity 5.75624323
REMARK minimizedRMSD -1
REMARK  0 active torsions:
REMARK  status: ('A' for Active; 'I' for Inactive)
ROOT
ATOM      1  C   UNL d   1       1.489   0.749   2.065  0.00  0.00    -0.002 A 
ATOM      2  C1  UNL d   1       2.062   1.568   1.101  0.00  0.00     0.010 A 
ATOM      3  C2  UNL d   1       3.450   1.646   0.970  0.00  0.00     0.041 A 
ATOM      4  C3  UNL d   1       4.260   0.879   1.830  0.00  0.00    -0.075 A 
ATOM      5  S   UNL d   1       5.983   0.815   1.852  0.00  0.00     0.015 SA
ATOM      6  C4  UNL d   1       5.999  -0.302   3.140  0.00  0.00     0.022 A 
ATOM      7  C5  UNL d   1       4.730  -0.628   3.556  0.00  0.00     0.026 A 
ATOM      8  C6  UNL d   1       3.707   0.047   2.807  0.00  0.00    -0.082 A 
ATOM      9  C7  UNL d   1       2.297  -0.010   2.916  0.00  0.00     0.045 A 
ENDROOT
TORSDOF 0
ENDMDL
