MODEL 1
REMARK minimizedAffinity 2.02020097
REMARK minimizedRMSD -1
REMARK  0 active torsions:
REMARK  status: ('A' for Active; 'I' for Inactive)
ROOT
ATOM      1  C   UNL d   1       5.482   4.366  -5.709  0.00  0.00    -0.002 A 
ATOM      2  C1  UNL d   1       5.164   3.097  -5.248  0.00  0.00     0.010 A 
ATOM      3  C2  UNL d   1       3.832   2.726  -5.050  0.00  0.00     0.041 A 
ATOM      4  C3  UNL d   1       2.816   3.662  -5.327  0.00  0.00    -0.075 A 
ATOM      5  S   UNL d   1       1.116   3.430  -5.159  0.00  0.00     0.015 SA
ATOM      6  C4  UNL d   1       0.772   5.011  -5.696  0.00  0.00     0.022 A 
ATOM      7  C5  UNL d   1       1.915   5.713  -5.999  0.00  0.00     0.026 A 
ATOM      8  C6  UNL d   1       3.112   4.947  -5.792  0.00  0.00    -0.082 A 
ATOM      9  C7  UNL d   1       4.471   5.292  -5.982  0.00  0.00     0.045 A 
ENDROOT
TORSDOF 0
ENDMDL
