MODEL 1
REMARK minimizedAffinity 4.80686522
REMARK minimizedRMSD -1
REMARK  0 active torsions:
REMARK  status: ('A' for Active; 'I' for Inactive)
ROOT
ATOM      1  C   UNL d   1       1.506   3.139   2.873  0.00  0.00     0.020 A 
ATOM      2  C1  UNL d   1       1.554   4.454   2.410  0.00  0.00     0.020 A 
ATOM      3  C2  UNL d   1       0.988   4.780   1.176  0.00  0.00     0.034 A 
ATOM      4  C3  UNL d   1       0.371   3.792   0.401  0.00  0.00     0.017 A 
ATOM      5  C4  UNL d   1       0.322   2.473   0.867  0.00  0.00     0.017 A 
ATOM      6  C5  UNL d   1       0.891   2.151   2.103  0.00  0.00     0.034 A 
ATOM      7 Cl   UNL d   1      -0.422   1.199  -0.033  0.00  0.00    -0.070 Cl
ATOM      8 Cl1  UNL d   1      -0.309   4.268  -1.115  0.00  0.00    -0.070 Cl
ENDROOT
TORSDOF 0
ENDMDL
