MODEL 1
REMARK minimizedAffinity -3.00096822
REMARK minimizedRMSD -1
REMARK  0 active torsions:
REMARK  status: ('A' for Active; 'I' for Inactive)
ROOT
ATOM      1  C   UNL d   1       0.382  -1.142   0.658  0.00  0.00     0.020 A 
ATOM      2  C1  UNL d   1       0.496  -1.079  -0.730  0.00  0.00     0.020 A 
ATOM      3  C2  UNL d   1       0.050   0.052  -1.417  0.00  0.00     0.034 A 
ATOM      4  C3  UNL d   1      -0.513   1.125  -0.716  0.00  0.00     0.017 A 
ATOM      5  C4  UNL d   1      -0.627   1.061   0.677  0.00  0.00     0.017 A 
ATOM      6  C5  UNL d   1      -0.179  -0.074   1.360  0.00  0.00     0.034 A 
ATOM      7 Cl   UNL d   1      -1.310   2.345   1.611  0.00  0.00    -0.070 Cl
ATOM      8 Cl1  UNL d   1      -1.044   2.492  -1.630  0.00  0.00    -0.070 Cl
ENDROOT
TORSDOF 0
ENDMDL
