MODEL 1
REMARK minimizedAffinity -1.82860458
REMARK minimizedRMSD -1
REMARK  0 active torsions:
REMARK  status: ('A' for Active; 'I' for Inactive)
ROOT
ATOM      1  C   UNL d   1      -0.728  -0.533   0.471  0.00  0.00     0.020 A 
ATOM      2  C1  UNL d   1       0.648  -0.586   0.688  0.00  0.00     0.020 A 
ATOM      3  C2  UNL d   1       1.293   0.468   1.340  0.00  0.00     0.034 A 
ATOM      4  C3  UNL d   1       0.561   1.578   1.776  0.00  0.00     0.017 A 
ATOM      5  C4  UNL d   1      -0.820   1.630   1.558  0.00  0.00     0.017 A 
ATOM      6  C5  UNL d   1      -1.461   0.572   0.905  0.00  0.00     0.034 A 
ATOM      7 Cl   UNL d   1      -1.790   2.967   2.069  0.00  0.00    -0.070 Cl
ATOM      8 Cl1  UNL d   1       1.424   2.844   2.575  0.00  0.00    -0.070 Cl
ENDROOT
TORSDOF 0
ENDMDL
