MODEL 1
REMARK minimizedAffinity -3.17226505
REMARK minimizedRMSD -1
REMARK  0 active torsions:
REMARK  status: ('A' for Active; 'I' for Inactive)
ROOT
ATOM      1  C   UNL d   1       0.270   0.688  -1.561  0.00  0.00     0.020 A 
ATOM      2  C1  UNL d   1       1.134  -0.225  -0.956  0.00  0.00     0.020 A 
ATOM      3  C2  UNL d   1       1.096  -0.411   0.427  0.00  0.00     0.034 A 
ATOM      4  C3  UNL d   1       0.193   0.316   1.211  0.00  0.00     0.017 A 
ATOM      5  C4  UNL d   1      -0.674   1.232   0.603  0.00  0.00     0.017 A 
ATOM      6  C5  UNL d   1      -0.631   1.415  -0.782  0.00  0.00     0.034 A 
ATOM      7 Cl   UNL d   1      -1.815   2.166   1.504  0.00  0.00    -0.070 Cl
ATOM      8 Cl1  UNL d   1       0.200   0.035   2.916  0.00  0.00    -0.070 Cl
ENDROOT
TORSDOF 0
ENDMDL
