MODEL 1
REMARK minimizedAffinity -1.96333671
REMARK minimizedRMSD -1
REMARK  0 active torsions:
REMARK  status: ('A' for Active; 'I' for Inactive)
ROOT
ATOM      1  C   UNL d   1       0.464  -1.431   0.622  0.00  0.00     0.020 A 
ATOM      2  C1  UNL d   1       0.364  -1.454  -0.769  0.00  0.00     0.020 A 
ATOM      3  C2  UNL d   1       0.124  -0.271  -1.471  0.00  0.00     0.034 A 
ATOM      4  C3  UNL d   1      -0.017   0.940  -0.783  0.00  0.00     0.017 A 
ATOM      5  C4  UNL d   1       0.085   0.961   0.613  0.00  0.00     0.017 A 
ATOM      6  C5  UNL d   1       0.325  -0.226   1.311  0.00  0.00     0.034 A 
ATOM      7 Cl   UNL d   1      -0.077   2.417   1.532  0.00  0.00    -0.070 Cl
ATOM      8 Cl1  UNL d   1      -0.312   2.364  -1.715  0.00  0.00    -0.070 Cl
ENDROOT
TORSDOF 0
ENDMDL
