MODEL 1
REMARK minimizedAffinity -0.255028665
REMARK minimizedRMSD -1
REMARK  0 active torsions:
REMARK  status: ('A' for Active; 'I' for Inactive)
ROOT
ATOM      1  C   UNL d   1      -0.229   2.396   2.061  0.00  0.00     0.020 A 
ATOM      2  C1  UNL d   1      -0.494   1.184   2.697  0.00  0.00     0.020 A 
ATOM      3  C2  UNL d   1      -0.657   0.021   1.943  0.00  0.00     0.034 A 
ATOM      4  C3  UNL d   1      -0.556   0.066   0.548  0.00  0.00     0.017 A 
ATOM      5  C4  UNL d   1      -0.290   1.283  -0.090  0.00  0.00     0.017 A 
ATOM      6  C5  UNL d   1      -0.128   2.445   0.670  0.00  0.00     0.034 A 
ATOM      7 Cl   UNL d   1      -0.151   1.418  -1.808  0.00  0.00    -0.070 Cl
ATOM      8 Cl1  UNL d   1      -0.769  -1.412  -0.322  0.00  0.00    -0.070 Cl
ENDROOT
TORSDOF 0
ENDMDL
