MODEL 1
REMARK minimizedAffinity -3.62089539
REMARK minimizedRMSD -1
REMARK  0 active torsions:
REMARK  status: ('A' for Active; 'I' for Inactive)
ROOT
ATOM      1  C   UNL d   1      -0.876   2.231   1.813  0.00  0.00     0.020 A 
ATOM      2  C1  UNL d   1      -1.780   1.923   0.797  0.00  0.00     0.020 A 
ATOM      3  C2  UNL d   1      -1.569   0.802  -0.009  0.00  0.00     0.034 A 
ATOM      4  C3  UNL d   1      -0.451  -0.015   0.200  0.00  0.00     0.017 A 
ATOM      5  C4  UNL d   1       0.455   0.295   1.220  0.00  0.00     0.017 A 
ATOM      6  C5  UNL d   1       0.239   1.418   2.024  0.00  0.00     0.034 A 
ATOM      7 Cl   UNL d   1       1.856  -0.665   1.538  0.00  0.00    -0.070 Cl
ATOM      8 Cl1  UNL d   1      -0.253  -1.385  -0.835  0.00  0.00    -0.070 Cl
ENDROOT
TORSDOF 0
ENDMDL
