MODEL 1
REMARK minimizedAffinity -1.29368246
REMARK minimizedRMSD -1
REMARK  1 active torsions:
REMARK  status: ('A' for Active; 'I' for Inactive)
REMARK    1  A    between atoms: C1_2  and  C2_3 
ROOT
ATOM      1  C2  UNL d   1       1.274  -3.007  -0.083  0.00  0.00    -0.073 A 
ATOM      2  C3  UNL d   1       1.793  -1.739   0.203  0.00  0.00    -0.002 A 
ATOM      3  C4  UNL d   1       3.153  -1.578   0.468  0.00  0.00     0.004 A 
ATOM      4  C5  UNL d   1       4.008  -2.680   0.444  0.00  0.00    -0.004 A 
ATOM      5  C6  UNL d   1       3.511  -3.953   0.149  0.00  0.00    -0.075 A 
ATOM      6  C7  UNL d   1       4.417  -5.148   0.121  0.00  0.00     0.076 C 
ATOM      7  C8  UNL d   1       2.143  -4.107  -0.114  0.00  0.00     0.001 A 
ENDROOT
BRANCH   1   8
ATOM      8  C1  UNL d   1      -0.194  -3.185  -0.377  0.00  0.00     0.053 C 
ATOM      9  C   UNL d   1      -1.010  -1.974   0.045  0.00  0.00     0.018 C 
ENDBRANCH   1   8
TORSDOF 1
ENDMDL
