MODEL 1
REMARK minimizedAffinity -2.06539106
REMARK minimizedRMSD -1
REMARK  1 active torsions:
REMARK  status: ('A' for Active; 'I' for Inactive)
REMARK    1  A    between atoms: C1_2  and  C2_3 
ROOT
ATOM      1  C2  UNL d   1       2.901  -2.989  -0.372  0.00  0.00    -0.073 A 
ATOM      2  C3  UNL d   1       1.752  -3.787  -0.410  0.00  0.00    -0.002 A 
ATOM      3  C4  UNL d   1       0.529  -3.285   0.037  0.00  0.00     0.004 A 
ATOM      4  C5  UNL d   1       0.441  -1.979   0.519  0.00  0.00    -0.004 A 
ATOM      5  C6  UNL d   1       1.576  -1.162   0.554  0.00  0.00    -0.075 A 
ATOM      6  C7  UNL d   1       1.498   0.245   1.071  0.00  0.00     0.076 C 
ATOM      7  C8  UNL d   1       2.800  -1.675   0.106  0.00  0.00     0.001 A 
ENDROOT
BRANCH   1   8
ATOM      8  C1  UNL d   1       4.222  -3.525  -0.860  0.00  0.00     0.053 C 
ATOM      9  C   UNL d   1       4.459  -4.956  -0.404  0.00  0.00     0.018 C 
ENDBRANCH   1   8
TORSDOF 1
ENDMDL
