MODEL 1
REMARK minimizedAffinity -1.9079777
REMARK minimizedRMSD -1
REMARK  1 active torsions:
REMARK  status: ('A' for Active; 'I' for Inactive)
REMARK    1  A    between atoms: C1_2  and  C2_3 
ROOT
ATOM      1  C2  UNL d   1       2.844  -3.516   0.026  0.00  0.00    -0.073 A 
ATOM      2  C3  UNL d   1       3.660  -2.386   0.152  0.00  0.00    -0.002 A 
ATOM      3  C4  UNL d   1       3.096  -1.136   0.412  0.00  0.00     0.004 A 
ATOM      4  C5  UNL d   1       1.715  -1.004   0.555  0.00  0.00    -0.004 A 
ATOM      5  C6  UNL d   1       0.885  -2.124   0.445  0.00  0.00    -0.075 A 
ATOM      6  C7  UNL d   1      -0.603  -1.999   0.595  0.00  0.00     0.076 C 
ATOM      7  C8  UNL d   1       1.458  -3.376   0.181  0.00  0.00     0.001 A 
ENDROOT
BRANCH   1   8
ATOM      8  C1  UNL d   1       3.448  -4.869  -0.248  0.00  0.00     0.053 C 
ATOM      9  C   UNL d   1       4.957  -4.869  -0.058  0.00  0.00     0.018 C 
ENDBRANCH   1   8
TORSDOF 1
ENDMDL
