MODEL 1
REMARK minimizedAffinity -3.95025539
REMARK minimizedRMSD -1
REMARK  1 active torsions:
REMARK  status: ('A' for Active; 'I' for Inactive)
REMARK    1  A    between atoms: C1_2  and  C2_3 
ROOT
ATOM      1  C2  UNL d   1       1.395  -2.933   0.064  0.00  0.00    -0.073 A 
ATOM      2  C3  UNL d   1       1.901  -1.630  -0.001  0.00  0.00    -0.002 A 
ATOM      3  C4  UNL d   1       1.113  -0.547   0.391  0.00  0.00     0.004 A 
ATOM      4  C5  UNL d   1      -0.184  -0.756   0.858  0.00  0.00    -0.004 A 
ATOM      5  C6  UNL d   1      -0.704  -2.052   0.942  0.00  0.00    -0.075 A 
ATOM      6  C7  UNL d   1      -2.098  -2.293   1.441  0.00  0.00     0.076 C 
ATOM      7  C8  UNL d   1       0.093  -3.134   0.544  0.00  0.00     0.001 A 
ENDROOT
BRANCH   1   8
ATOM      8  C1  UNL d   1       2.244  -4.106  -0.352  0.00  0.00     0.053 C 
ATOM      9  C   UNL d   1       3.726  -3.765  -0.355  0.00  0.00     0.018 C 
ENDBRANCH   1   8
TORSDOF 1
ENDMDL
