MODEL 1
REMARK minimizedAffinity 5.05528688
REMARK minimizedRMSD -1
REMARK  1 active torsions:
REMARK  status: ('A' for Active; 'I' for Inactive)
REMARK    1  A    between atoms: C1_2  and  C2_3 
ROOT
ATOM      1  C2  UNL d   1       2.217  -1.574   0.442  0.00  0.00    -0.073 A 
ATOM      2  C3  UNL d   1       1.290  -2.333  -0.281  0.00  0.00    -0.002 A 
ATOM      3  C4  UNL d   1       0.015  -2.569   0.235  0.00  0.00     0.004 A 
ATOM      4  C5  UNL d   1      -0.348  -2.042   1.475  0.00  0.00    -0.004 A 
ATOM      5  C6  UNL d   1       0.560  -1.271   2.207  0.00  0.00    -0.075 A 
ATOM      6  C7  UNL d   1       0.185  -0.700   3.543  0.00  0.00     0.076 C 
ATOM      7  C8  UNL d   1       1.839  -1.042   1.683  0.00  0.00     0.001 A 
ENDROOT
BRANCH   1   8
ATOM      8  C1  UNL d   1       3.592  -1.312  -0.115  0.00  0.00     0.053 C 
ATOM      9  C   UNL d   1       4.672  -1.442   0.948  0.00  0.00     0.018 C 
ENDBRANCH   1   8
TORSDOF 1
ENDMDL
