MODEL 1
REMARK minimizedAffinity 4.91200161
REMARK minimizedRMSD -1
REMARK  1 active torsions:
REMARK  status: ('A' for Active; 'I' for Inactive)
REMARK    1  A    between atoms: C1_2  and  C2_3 
ROOT
ATOM      1  C2  UNL d   1       0.976  -0.836   1.603  0.00  0.00    -0.073 A 
ATOM      2  C3  UNL d   1      -0.279  -0.384   2.027  0.00  0.00    -0.002 A 
ATOM      3  C4  UNL d   1      -1.440  -1.041   1.617  0.00  0.00     0.004 A 
ATOM      4  C5  UNL d   1      -1.358  -2.158   0.786  0.00  0.00    -0.004 A 
ATOM      5  C6  UNL d   1      -0.113  -2.632   0.361  0.00  0.00    -0.075 A 
ATOM      6  C7  UNL d   1      -0.008  -3.831  -0.534  0.00  0.00     0.076 C 
ATOM      7  C8  UNL d   1       1.048  -1.966   0.775  0.00  0.00     0.001 A 
ENDROOT
BRANCH   1   8
ATOM      8  C1  UNL d   1       2.233  -0.134   2.048  0.00  0.00     0.053 C 
ATOM      9  C   UNL d   1       3.337  -0.228   1.008  0.00  0.00     0.018 C 
ENDBRANCH   1   8
TORSDOF 1
ENDMDL
