MODEL 1
REMARK minimizedAffinity 0.301503628
REMARK minimizedRMSD -1
REMARK  1 active torsions:
REMARK  status: ('A' for Active; 'I' for Inactive)
REMARK    1  A    between atoms: C1_2  and  C2_3 
ROOT
ATOM      1  C2  UNL d   1       3.988  -4.628   0.033  0.00  0.00    -0.073 A 
ATOM      2  C3  UNL d   1       4.737  -3.450   0.139  0.00  0.00    -0.002 A 
ATOM      3  C4  UNL d   1       4.099  -2.210   0.182  0.00  0.00     0.004 A 
ATOM      4  C5  UNL d   1       2.707  -2.134   0.127  0.00  0.00    -0.004 A 
ATOM      5  C6  UNL d   1       1.940  -3.300   0.033  0.00  0.00    -0.075 A 
ATOM      6  C7  UNL d   1       0.443  -3.236  -0.030  0.00  0.00     0.076 C 
ATOM      7  C8  UNL d   1       2.589  -4.542  -0.012  0.00  0.00     0.001 A 
ENDROOT
BRANCH   1   8
ATOM      8  C1  UNL d   1       4.672  -5.970  -0.007  0.00  0.00     0.053 C 
ATOM      9  C   UNL d   1       5.958  -5.978   0.805  0.00  0.00     0.018 C 
ENDBRANCH   1   8
TORSDOF 1
ENDMDL
