MODEL 1
REMARK minimizedAffinity 5.00618839
REMARK minimizedRMSD -1
REMARK  1 active torsions:
REMARK  status: ('A' for Active; 'I' for Inactive)
REMARK    1  A    between atoms: C1_2  and  C2_3 
ROOT
ATOM      1  C2  UNL d   1       3.102  -3.981  -0.178  0.00  0.00    -0.073 A 
ATOM      2  C3  UNL d   1       3.891  -2.844   0.028  0.00  0.00    -0.002 A 
ATOM      3  C4  UNL d   1       3.295  -1.614   0.309  0.00  0.00     0.004 A 
ATOM      4  C5  UNL d   1       1.907  -1.509   0.393  0.00  0.00    -0.004 A 
ATOM      5  C6  UNL d   1       1.102  -2.637   0.202  0.00  0.00    -0.075 A 
ATOM      6  C7  UNL d   1      -0.393  -2.540   0.287  0.00  0.00     0.076 C 
ATOM      7  C8  UNL d   1       1.708  -3.868  -0.082  0.00  0.00     0.001 A 
ENDROOT
BRANCH   1   8
ATOM      8  C1  UNL d   1       3.741  -5.313  -0.474  0.00  0.00     0.053 C 
ATOM      9  C   UNL d   1       4.978  -5.554   0.377  0.00  0.00     0.018 C 
ENDBRANCH   1   8
TORSDOF 1
ENDMDL
