MODEL 1
REMARK minimizedAffinity 0.224341676
REMARK minimizedRMSD -1
REMARK  1 active torsions:
REMARK  status: ('A' for Active; 'I' for Inactive)
REMARK    1  A    between atoms: C1_2  and  C2_3 
ROOT
ATOM      1  C2  UNL d   1       1.837  -2.706   0.065  0.00  0.00    -0.073 A 
ATOM      2  C3  UNL d   1       2.397  -1.451   0.330  0.00  0.00    -0.002 A 
ATOM      3  C4  UNL d   1       1.588  -0.391   0.742  0.00  0.00     0.004 A 
ATOM      4  C5  UNL d   1       0.215  -0.576   0.901  0.00  0.00    -0.004 A 
ATOM      5  C6  UNL d   1      -0.362  -1.826   0.653  0.00  0.00    -0.075 A 
ATOM      6  C7  UNL d   1      -1.838  -2.041   0.816  0.00  0.00     0.076 C 
ATOM      7  C8  UNL d   1       0.456  -2.885   0.236  0.00  0.00     0.001 A 
ENDROOT
BRANCH   1   8
ATOM      8  C1  UNL d   1       2.706  -3.856  -0.374  0.00  0.00     0.053 C 
ATOM      9  C   UNL d   1       4.178  -3.597  -0.092  0.00  0.00     0.018 C 
ENDBRANCH   1   8
TORSDOF 1
ENDMDL
