MODEL 1
REMARK minimizedAffinity 12.8117027
REMARK minimizedRMSD -1
REMARK  1 active torsions:
REMARK  status: ('A' for Active; 'I' for Inactive)
REMARK    1  A    between atoms: C1_2  and  C2_3 
ROOT
ATOM      1  C2  UNL d   1       4.580  -0.544  -0.948  0.00  0.00    -0.073 A 
ATOM      2  C3  UNL d   1       5.692  -0.729  -1.778  0.00  0.00    -0.002 A 
ATOM      3  C4  UNL d   1       5.643  -0.340  -3.118  0.00  0.00     0.004 A 
ATOM      4  C5  UNL d   1       4.488   0.241  -3.639  0.00  0.00    -0.004 A 
ATOM      5  C6  UNL d   1       3.370   0.445  -2.822  0.00  0.00    -0.075 A 
ATOM      6  C7  UNL d   1       2.119   1.067  -3.368  0.00  0.00     0.076 C 
ATOM      7  C8  UNL d   1       3.426   0.050  -1.479  0.00  0.00     0.001 A 
ENDROOT
BRANCH   1   8
ATOM      8  C1  UNL d   1       4.629  -0.956   0.500  0.00  0.00     0.053 C 
ATOM      9  C   UNL d   1       5.998  -0.713   1.116  0.00  0.00     0.018 C 
ENDBRANCH   1   8
TORSDOF 1
ENDMDL
