MODEL 1
REMARK minimizedAffinity -0.506267011
REMARK minimizedRMSD -1
REMARK  1 active torsions:
REMARK  status: ('A' for Active; 'I' for Inactive)
REMARK    1  A    between atoms: C1_2  and  C2_3 
ROOT
ATOM      1  C2  UNL d   1       2.476  -1.437   0.662  0.00  0.00    -0.073 A 
ATOM      2  C3  UNL d   1       2.567  -2.704   0.074  0.00  0.00    -0.002 A 
ATOM      3  C4  UNL d   1       1.413  -3.443  -0.189  0.00  0.00     0.004 A 
ATOM      4  C5  UNL d   1       0.158  -2.922   0.127  0.00  0.00    -0.004 A 
ATOM      5  C6  UNL d   1       0.046  -1.653   0.704  0.00  0.00    -0.075 A 
ATOM      6  C7  UNL d   1      -1.296  -1.079   1.052  0.00  0.00     0.076 C 
ATOM      7  C8  UNL d   1       1.210  -0.918   0.967  0.00  0.00     0.001 A 
ENDROOT
BRANCH   1   8
ATOM      8  C1  UNL d   1       3.719  -0.632   0.942  0.00  0.00     0.053 C 
ATOM      9  C   UNL d   1       3.705  -0.028   2.337  0.00  0.00     0.018 C 
ENDBRANCH   1   8
TORSDOF 1
ENDMDL
