MODEL 1
REMARK minimizedAffinity -0.60601759
REMARK minimizedRMSD -1
REMARK  1 active torsions:
REMARK  status: ('A' for Active; 'I' for Inactive)
REMARK    1  A    between atoms: C1_2  and  C2_3 
ROOT
ATOM      1  C2  UNL d   1       0.227  -2.429   0.705  0.00  0.00    -0.073 A 
ATOM      2  C3  UNL d   1      -0.652  -1.515   0.113  0.00  0.00    -0.002 A 
ATOM      3  C4  UNL d   1      -1.154  -0.441   0.850  0.00  0.00     0.004 A 
ATOM      4  C5  UNL d   1      -0.778  -0.267   2.182  0.00  0.00    -0.004 A 
ATOM      5  C6  UNL d   1       0.109  -1.163   2.788  0.00  0.00    -0.075 A 
ATOM      6  C7  UNL d   1       0.521  -0.991   4.220  0.00  0.00     0.076 C 
ATOM      7  C8  UNL d   1       0.607  -2.240   2.042  0.00  0.00     0.001 A 
ENDROOT
BRANCH   1   8
ATOM      8  C1  UNL d   1       0.777  -3.586  -0.088  0.00  0.00     0.053 C 
ATOM      9  C   UNL d   1       2.280  -3.734   0.086  0.00  0.00     0.018 C 
ENDBRANCH   1   8
TORSDOF 1
ENDMDL
