MODEL 1
REMARK minimizedAffinity -0.937577903
REMARK minimizedRMSD -1
REMARK  1 active torsions:
REMARK  status: ('A' for Active; 'I' for Inactive)
REMARK    1  A    between atoms: C1_2  and  C2_3 
ROOT
ATOM      1  C2  UNL d   1       3.629  -4.147   0.061  0.00  0.00    -0.073 A 
ATOM      2  C3  UNL d   1       4.241  -2.910   0.297  0.00  0.00    -0.002 A 
ATOM      3  C4  UNL d   1       3.470  -1.790   0.608  0.00  0.00     0.004 A 
ATOM      4  C5  UNL d   1       2.081  -1.895   0.694  0.00  0.00    -0.004 A 
ATOM      5  C6  UNL d   1       1.452  -3.125   0.473  0.00  0.00    -0.075 A 
ATOM      6  C7  UNL d   1      -0.040  -3.254   0.559  0.00  0.00     0.076 C 
ATOM      7  C8  UNL d   1       2.234  -4.245   0.158  0.00  0.00     0.001 A 
ENDROOT
BRANCH   1   8
ATOM      8  C1  UNL d   1       4.458  -5.361  -0.269  0.00  0.00     0.053 C 
ATOM      9  C   UNL d   1       5.077  -5.984   0.972  0.00  0.00     0.018 C 
ENDBRANCH   1   8
TORSDOF 1
ENDMDL
