MODEL 1
REMARK minimizedAffinity -6.39181852
REMARK minimizedRMSD -1
REMARK  3 active torsions:
REMARK  status: ('A' for Active; 'I' for Inactive)
REMARK    1  A    between atoms: C3'_2  and  C2'_3 
REMARK    2  A    between atoms: C2'_3  and  C1'_4 
REMARK    3  A    between atoms: C1'_4  and  C1_5 
ROOT
ATOM      1  C1  N4B d   1       0.785   0.362  -1.740  0.00  0.00    -0.075 A 
ATOM      2  C2  N4B d   1       1.658  -0.747  -1.695  0.00  0.00     0.002 A 
ATOM      3  C3  N4B d   1       2.788  -0.764  -2.477  0.00  0.00     0.002 A 
ATOM      4  C4  N4B d   1       3.054   0.304  -3.320  0.00  0.00    -0.004 A 
ATOM      5  C5  N4B d   1       2.219   1.383  -3.339  0.00  0.00     0.002 A 
ATOM      6  C6  N4B d   1       1.083   1.415  -2.556  0.00  0.00     0.002 A 
ENDROOT
BRANCH   1   7
ATOM      7  C1' N4B d   1      -0.506   0.388  -0.969  0.00  0.00     0.057 C 
BRANCH   7   8
ATOM      8  C2' N4B d   1      -0.710  -0.962  -0.288  0.00  0.00     0.009 C 
BRANCH   8   9
ATOM      9  C3' N4B d   1      -0.724  -0.839   1.226  0.00  0.00     0.004 C 
ATOM     10  C4' N4B d   1      -1.458   0.379   1.703  0.00  0.00     0.003 C 
ENDBRANCH   8   9
ENDBRANCH   7   8
ENDBRANCH   1   7
TORSDOF 3
ENDMDL
