MODEL 1
REMARK minimizedAffinity -5.18274546
REMARK minimizedRMSD -1
REMARK  3 active torsions:
REMARK  status: ('A' for Active; 'I' for Inactive)
REMARK    1  A    between atoms: C3'_2  and  C2'_3 
REMARK    2  A    between atoms: C2'_3  and  C1'_4 
REMARK    3  A    between atoms: C1'_4  and  C1_5 
ROOT
ATOM      1  C1  N4B d   1       0.345  -0.729   0.156  0.00  0.00    -0.075 A 
ATOM      2  C2  N4B d   1       0.536  -0.062   1.386  0.00  0.00     0.002 A 
ATOM      3  C3  N4B d   1      -0.520   0.567   1.998  0.00  0.00     0.002 A 
ATOM      4  C4  N4B d   1      -1.768   0.558   1.391  0.00  0.00    -0.004 A 
ATOM      5  C5  N4B d   1      -1.950  -0.110   0.216  0.00  0.00     0.002 A 
ATOM      6  C6  N4B d   1      -0.897  -0.750  -0.408  0.00  0.00     0.002 A 
ENDROOT
BRANCH   1   7
ATOM      7  C1' N4B d   1       1.489  -1.357  -0.592  0.00  0.00     0.057 C 
BRANCH   7   8
ATOM      8  C2' N4B d   1       1.486  -0.848  -2.030  0.00  0.00     0.009 C 
BRANCH   8   9
ATOM      9  C3' N4B d   1       1.614   0.665  -2.098  0.00  0.00     0.004 C 
ATOM     10  C4' N4B d   1       1.968   1.157  -3.469  0.00  0.00     0.003 C 
ENDBRANCH   8   9
ENDBRANCH   7   8
ENDBRANCH   1   7
TORSDOF 3
ENDMDL
