MODEL 1
REMARK minimizedAffinity -3.36922216
REMARK minimizedRMSD -1
REMARK  3 active torsions:
REMARK  status: ('A' for Active; 'I' for Inactive)
REMARK    1  A    between atoms: C3'_2  and  C2'_3 
REMARK    2  A    between atoms: C2'_3  and  C1'_4 
REMARK    3  A    between atoms: C1'_4  and  C1_5 
ROOT
ATOM      1  C1  N4B d   1      -0.328   0.149   1.589  0.00  0.00    -0.075 A 
ATOM      2  C2  N4B d   1      -1.505   0.259   0.817  0.00  0.00     0.002 A 
ATOM      3  C3  N4B d   1      -2.693   0.595   1.420  0.00  0.00     0.002 A 
ATOM      4  C4  N4B d   1      -2.731   0.804   2.791  0.00  0.00    -0.004 A 
ATOM      5  C5  N4B d   1      -1.584   0.720   3.525  0.00  0.00     0.002 A 
ATOM      6  C6  N4B d   1      -0.383   0.388   2.932  0.00  0.00     0.002 A 
ENDROOT
BRANCH   1   7
ATOM      7  C1' N4B d   1       0.976  -0.299   0.988  0.00  0.00     0.057 C 
BRANCH   7   8
ATOM      8  C2' N4B d   1       0.695  -1.090  -0.286  0.00  0.00     0.009 C 
BRANCH   8   9
ATOM      9  C3' N4B d   1       1.974  -1.470  -1.012  0.00  0.00     0.004 C 
ATOM     10  C4' N4B d   1       2.282  -0.557  -2.162  0.00  0.00     0.003 C 
ENDBRANCH   8   9
ENDBRANCH   7   8
ENDBRANCH   1   7
TORSDOF 3
ENDMDL
