MODEL 1
REMARK minimizedAffinity -5.5969758
REMARK minimizedRMSD -1
REMARK  3 active torsions:
REMARK  status: ('A' for Active; 'I' for Inactive)
REMARK    1  A    between atoms: C3'_2  and  C2'_3 
REMARK    2  A    between atoms: C2'_3  and  C1'_4 
REMARK    3  A    between atoms: C1'_4  and  C1_5 
ROOT
ATOM      1  C1  N4B d   1       0.258  -0.265  -0.490  0.00  0.00    -0.075 A 
ATOM      2  C2  N4B d   1       1.302  -1.149  -0.842  0.00  0.00     0.002 A 
ATOM      3  C3  N4B d   1       2.135  -0.845  -1.890  0.00  0.00     0.002 A 
ATOM      4  C4  N4B d   1       1.934   0.324  -2.609  0.00  0.00    -0.004 A 
ATOM      5  C5  N4B d   1       0.940   1.185  -2.247  0.00  0.00     0.002 A 
ATOM      6  C6  N4B d   1       0.097   0.894  -1.193  0.00  0.00     0.002 A 
ENDROOT
BRANCH   1   7
ATOM      7  C1' N4B d   1      -0.731  -0.596   0.594  0.00  0.00     0.057 C 
BRANCH   7   8
ATOM      8  C2' N4B d   1      -1.644   0.606   0.823  0.00  0.00     0.009 C 
BRANCH   8   9
ATOM      9  C3' N4B d   1      -2.157   0.666   2.251  0.00  0.00     0.004 C 
ATOM     10  C4' N4B d   1      -1.569   1.802   3.033  0.00  0.00     0.003 C 
ENDBRANCH   8   9
ENDBRANCH   7   8
ENDBRANCH   1   7
TORSDOF 3
ENDMDL
