MODEL 1
REMARK minimizedAffinity -5.67784739
REMARK minimizedRMSD -1
REMARK  3 active torsions:
REMARK  status: ('A' for Active; 'I' for Inactive)
REMARK    1  A    between atoms: C3'_2  and  C2'_3 
REMARK    2  A    between atoms: C2'_3  and  C1'_4 
REMARK    3  A    between atoms: C1'_4  and  C1_5 
ROOT
ATOM      1  C1  N4B d   1       0.807  -0.147  -0.486  0.00  0.00    -0.075 A 
ATOM      2  C2  N4B d   1       0.645   0.937  -1.377  0.00  0.00     0.002 A 
ATOM      3  C3  N4B d   1       1.626   1.224  -2.295  0.00  0.00     0.002 A 
ATOM      4  C4  N4B d   1       2.781   0.457  -2.327  0.00  0.00    -0.004 A 
ATOM      5  C5  N4B d   1       2.918  -0.604  -1.480  0.00  0.00     0.002 A 
ATOM      6  C6  N4B d   1       1.939  -0.907  -0.555  0.00  0.00     0.002 A 
ENDROOT
BRANCH   1   7
ATOM      7  C1' N4B d   1      -0.200  -0.446   0.591  0.00  0.00     0.057 C 
BRANCH   7   8
ATOM      8  C2' N4B d   1      -1.306   0.604   0.549  0.00  0.00     0.009 C 
BRANCH   8   9
ATOM      9  C3' N4B d   1      -1.955   0.801   1.908  0.00  0.00     0.004 C 
ATOM     10  C4' N4B d   1      -1.338   1.923   2.689  0.00  0.00     0.003 C 
ENDBRANCH   8   9
ENDBRANCH   7   8
ENDBRANCH   1   7
TORSDOF 3
ENDMDL
