MODEL 1
REMARK minimizedAffinity -5.04169941
REMARK minimizedRMSD -1
REMARK  3 active torsions:
REMARK  status: ('A' for Active; 'I' for Inactive)
REMARK    1  A    between atoms: C3'_2  and  C2'_3 
REMARK    2  A    between atoms: C2'_3  and  C1'_4 
REMARK    3  A    between atoms: C1'_4  and  C1_5 
ROOT
ATOM      1  C1  N4B d   1      -1.753   0.467   1.103  0.00  0.00    -0.075 A 
ATOM      2  C2  N4B d   1      -2.629  -0.214   1.976  0.00  0.00     0.002 A 
ATOM      3  C3  N4B d   1      -3.104   0.415   3.101  0.00  0.00     0.002 A 
ATOM      4  C4  N4B d   1      -2.704   1.713   3.381  0.00  0.00    -0.004 A 
ATOM      5  C5  N4B d   1      -1.878   2.373   2.519  0.00  0.00     0.002 A 
ATOM      6  C6  N4B d   1      -1.396   1.754   1.383  0.00  0.00     0.002 A 
ENDROOT
BRANCH   1   7
ATOM      7  C1' N4B d   1      -1.140  -0.209  -0.094  0.00  0.00     0.057 C 
BRANCH   7   8
ATOM      8  C2' N4B d   1       0.367   0.028  -0.085  0.00  0.00     0.009 C 
BRANCH   8   9
ATOM      9  C3' N4B d   1       1.147  -1.269  -0.211  0.00  0.00     0.004 C 
ATOM     10  C4' N4B d   1       1.911  -1.365  -1.498  0.00  0.00     0.003 C 
ENDBRANCH   8   9
ENDBRANCH   7   8
ENDBRANCH   1   7
TORSDOF 3
ENDMDL
