MODEL 1
REMARK minimizedAffinity -5.2934618
REMARK minimizedRMSD -1
REMARK  3 active torsions:
REMARK  status: ('A' for Active; 'I' for Inactive)
REMARK    1  A    between atoms: C3'_2  and  C2'_3 
REMARK    2  A    between atoms: C2'_3  and  C1'_4 
REMARK    3  A    between atoms: C1'_4  and  C1_5 
ROOT
ATOM      1  C1  N4B d   1       0.233  -0.215  -0.724  0.00  0.00    -0.075 A 
ATOM      2  C2  N4B d   1      -0.265   1.046  -1.119  0.00  0.00     0.002 A 
ATOM      3  C3  N4B d   1       0.312   1.713  -2.172  0.00  0.00     0.002 A 
ATOM      4  C4  N4B d   1       1.396   1.149  -2.830  0.00  0.00    -0.004 A 
ATOM      5  C5  N4B d   1       1.855  -0.080  -2.457  0.00  0.00     0.002 A 
ATOM      6  C6  N4B d   1       1.282  -0.763  -1.404  0.00  0.00     0.002 A 
ENDROOT
BRANCH   1   7
ATOM      7  C1' N4B d   1      -0.310  -0.942   0.476  0.00  0.00     0.057 C 
BRANCH   7   8
ATOM      8  C2' N4B d   1      -0.393   0.025   1.653  0.00  0.00     0.009 C 
BRANCH   8   9
ATOM      9  C3' N4B d   1      -1.829   0.385   1.993  0.00  0.00     0.004 C 
ATOM     10  C4' N4B d   1      -1.956   1.085   3.313  0.00  0.00     0.003 C 
ENDBRANCH   8   9
ENDBRANCH   7   8
ENDBRANCH   1   7
TORSDOF 3
ENDMDL
