MODEL 1
REMARK minimizedAffinity -5.81784582
REMARK minimizedRMSD -1
REMARK  3 active torsions:
REMARK  status: ('A' for Active; 'I' for Inactive)
REMARK    1  A    between atoms: C3'_2  and  C2'_3 
REMARK    2  A    between atoms: C2'_3  and  C1'_4 
REMARK    3  A    between atoms: C1'_4  and  C1_5 
ROOT
ATOM      1  C1  N4B d   1       1.468  -0.069  -0.799  0.00  0.00    -0.075 A 
ATOM      2  C2  N4B d   1       2.636  -0.826  -1.039  0.00  0.00     0.002 A 
ATOM      3  C3  N4B d   1       3.592  -0.357  -1.906  0.00  0.00     0.002 A 
ATOM      4  C4  N4B d   1       3.394   0.851  -2.558  0.00  0.00    -0.004 A 
ATOM      5  C5  N4B d   1       2.275   1.588  -2.301  0.00  0.00     0.002 A 
ATOM      6  C6  N4B d   1       1.308   1.131  -1.429  0.00  0.00     0.002 A 
ENDROOT
BRANCH   1   7
ATOM      7  C1' N4B d   1       0.356  -0.580   0.075  0.00  0.00     0.057 C 
BRANCH   7   8
ATOM      8  C2' N4B d   1      -0.590   0.570   0.406  0.00  0.00     0.009 C 
BRANCH   8   9
ATOM      9  C3' N4B d   1      -1.617   0.178   1.454  0.00  0.00     0.004 C 
ATOM     10  C4' N4B d   1      -1.617   1.097   2.639  0.00  0.00     0.003 C 
ENDBRANCH   8   9
ENDBRANCH   7   8
ENDBRANCH   1   7
TORSDOF 3
ENDMDL
