MODEL 1
REMARK minimizedAffinity -5.53546906
REMARK minimizedRMSD -1
REMARK  3 active torsions:
REMARK  status: ('A' for Active; 'I' for Inactive)
REMARK    1  A    between atoms: C3'_2  and  C2'_3 
REMARK    2  A    between atoms: C2'_3  and  C1'_4 
REMARK    3  A    between atoms: C1'_4  and  C1_5 
ROOT
ATOM      1  C1  N4B d   1       0.905  -0.195  -0.933  0.00  0.00    -0.075 A 
ATOM      2  C2  N4B d   1       0.435   0.912  -1.673  0.00  0.00     0.002 A 
ATOM      3  C3  N4B d   1       1.310   1.654  -2.428  0.00  0.00     0.002 A 
ATOM      4  C4  N4B d   1       2.656   1.321  -2.445  0.00  0.00    -0.004 A 
ATOM      5  C5  N4B d   1       3.097   0.234  -1.748  0.00  0.00     0.002 A 
ATOM      6  C6  N4B d   1       2.229  -0.523  -0.987  0.00  0.00     0.002 A 
ENDROOT
BRANCH   1   7
ATOM      7  C1' N4B d   1       0.002  -0.984  -0.025  0.00  0.00     0.057 C 
BRANCH   7   8
ATOM      8  C2' N4B d   1      -1.093  -0.068   0.513  0.00  0.00     0.009 C 
BRANCH   8   9
ATOM      9  C3' N4B d   1      -0.621   0.738   1.711  0.00  0.00     0.004 C 
ATOM     10  C4' N4B d   1      -1.544   0.624   2.887  0.00  0.00     0.003 C 
ENDBRANCH   8   9
ENDBRANCH   7   8
ENDBRANCH   1   7
TORSDOF 3
ENDMDL
