MODEL 1
REMARK minimizedAffinity -1.29601109
REMARK minimizedRMSD -1
REMARK  0 active torsions:
REMARK  status: ('A' for Active; 'I' for Inactive)
ROOT
ATOM      1  C   UNL d   1      -5.999   1.490  -3.752  0.00  0.00     0.172 C 
ATOM      2  N   UNL d   1      -5.655   2.723  -4.421  0.00  0.00    -0.070 N 
ATOM      3  C1  UNL d   1      -4.942   3.756  -3.874  0.00  0.00    -0.004 A 
ATOM      4  C2  UNL d   1      -4.827   4.742  -4.830  0.00  0.00    -0.047 A 
ATOM      5  C3  UNL d   1      -5.496   4.287  -5.991  0.00  0.00    -0.047 A 
ATOM      6  C4  UNL d   1      -5.999   3.034  -5.710  0.00  0.00    -0.004 A 
ENDROOT
TORSDOF 0
ENDMDL
