MODEL 1
REMARK minimizedAffinity 3.24565172
REMARK minimizedRMSD -1
REMARK  0 active torsions:
REMARK  status: ('A' for Active; 'I' for Inactive)
ROOT
ATOM      1  C   UNL d   1       1.474   5.507  -1.244  0.00  0.00     0.172 C 
ATOM      2  N   UNL d   1       1.246   4.326  -0.444  0.00  0.00    -0.070 N 
ATOM      3  C1  UNL d   1       2.182   3.690   0.326  0.00  0.00    -0.004 A 
ATOM      4  C2  UNL d   1       1.571   2.611   0.928  0.00  0.00    -0.047 A 
ATOM      5  C3  UNL d   1       0.221   2.598   0.505  0.00  0.00    -0.047 A 
ATOM      6  C4  UNL d   1       0.047   3.671  -0.345  0.00  0.00    -0.004 A 
ENDROOT
TORSDOF 0
ENDMDL
