MODEL 1
REMARK minimizedAffinity 3.69163585
REMARK minimizedRMSD -1
REMARK  0 active torsions:
REMARK  status: ('A' for Active; 'I' for Inactive)
ROOT
ATOM      1  C   UNL d   1       5.022  -1.952   1.477  0.00  0.00     0.172 C 
ATOM      2  N   UNL d   1       3.673  -1.466   1.644  0.00  0.00    -0.070 N 
ATOM      3  C1  UNL d   1       3.120  -1.035   2.820  0.00  0.00    -0.004 A 
ATOM      4  C2  UNL d   1       1.821  -0.654   2.561  0.00  0.00    -0.047 A 
ATOM      5  C3  UNL d   1       1.585  -0.864   1.182  0.00  0.00    -0.047 A 
ATOM      6  C4  UNL d   1       2.748  -1.367   0.638  0.00  0.00    -0.004 A 
ENDROOT
TORSDOF 0
ENDMDL
