MODEL 1
REMARK minimizedAffinity 9.99778557
REMARK minimizedRMSD -1
REMARK  0 active torsions:
REMARK  status: ('A' for Active; 'I' for Inactive)
ROOT
ATOM      1  C   UNL d   1      -4.384   0.933  -3.410  0.00  0.00     0.172 C 
ATOM      2  N   UNL d   1      -3.038   0.799  -3.917  0.00  0.00    -0.070 N 
ATOM      3  C1  UNL d   1      -2.696   0.351  -5.165  0.00  0.00    -0.004 A 
ATOM      4  C2  UNL d   1      -1.322   0.371  -5.258  0.00  0.00    -0.047 A 
ATOM      5  C3  UNL d   1      -0.820   0.847  -4.023  0.00  0.00    -0.047 A 
ATOM      6  C4  UNL d   1      -1.904   1.104  -3.211  0.00  0.00    -0.004 A 
ENDROOT
TORSDOF 0
ENDMDL
