MODEL 1
REMARK minimizedAffinity -2.53461647
REMARK minimizedRMSD -1
REMARK  0 active torsions:
REMARK  status: ('A' for Active; 'I' for Inactive)
ROOT
ATOM      1  C   UNL d   1      -2.049   3.133   1.241  0.00  0.00     0.172 C 
ATOM      2  N   UNL d   1      -3.128   4.088   1.334  0.00  0.00    -0.070 N 
ATOM      3  C1  UNL d   1      -3.004   5.447   1.216  0.00  0.00    -0.004 A 
ATOM      4  C2  UNL d   1      -4.258   6.000   1.364  0.00  0.00    -0.047 A 
ATOM      5  C3  UNL d   1      -5.167   4.937   1.579  0.00  0.00    -0.047 A 
ATOM      6  C4  UNL d   1      -4.441   3.764   1.555  0.00  0.00    -0.004 A 
ENDROOT
TORSDOF 0
ENDMDL
