MODEL 1
REMARK minimizedAffinity 2.30250096
REMARK minimizedRMSD -1
REMARK  0 active torsions:
REMARK  status: ('A' for Active; 'I' for Inactive)
ROOT
ATOM      1  C   UNL d   1       1.363   5.999  -2.076  0.00  0.00     0.172 C 
ATOM      2  N   UNL d   1       0.622   4.833  -1.658  0.00  0.00    -0.070 N 
ATOM      3  C1  UNL d   1       1.163   3.683  -1.148  0.00  0.00    -0.004 A 
ATOM      4  C2  UNL d   1       0.129   2.815  -0.873  0.00  0.00    -0.047 A 
ATOM      5  C3  UNL d   1      -1.076   3.465  -1.232  0.00  0.00    -0.047 A 
ATOM      6  C4  UNL d   1      -0.742   4.712  -1.714  0.00  0.00    -0.004 A 
ENDROOT
TORSDOF 0
ENDMDL
