MODEL 1
REMARK minimizedAffinity 1.42602754
REMARK minimizedRMSD -1
REMARK  0 active torsions:
REMARK  status: ('A' for Active; 'I' for Inactive)
ROOT
ATOM      1  C   UNL d   1      -6.000  -1.110   6.000  0.00  0.00     0.172 C 
ATOM      2  N   UNL d   1      -5.328  -0.737   4.777  0.00  0.00    -0.070 N 
ATOM      3  C1  UNL d   1      -5.832  -0.882   3.513  0.00  0.00    -0.004 A 
ATOM      4  C2  UNL d   1      -4.890  -0.410   2.625  0.00  0.00    -0.047 A 
ATOM      5  C3  UNL d   1      -3.780   0.034   3.383  0.00  0.00    -0.047 A 
ATOM      6  C4  UNL d   1      -4.078  -0.180   4.712  0.00  0.00    -0.004 A 
ENDROOT
TORSDOF 0
ENDMDL
