MODEL 1
REMARK minimizedAffinity 11.7348213
REMARK minimizedRMSD -1
REMARK  1 active torsions:
REMARK  status: ('A' for Active; 'I' for Inactive)
REMARK    1  A    between atoms: N_2  and  C1_3 
ROOT
ATOM      1  C1  UNL d   1       1.285  -1.534   4.294  0.00  0.00     0.143 A 
ATOM      2  C2  UNL d   1       1.017  -0.196   3.983  0.00  0.00    -0.057 A 
ATOM      3  C3  UNL d   1       1.260   0.315   2.702  0.00  0.00     0.033 A 
ATOM      4  C4  UNL d   1       1.804  -0.499   1.714  0.00  0.00    -0.042 A 
ATOM      5  C5  UNL d   1       2.102  -1.825   2.007  0.00  0.00     0.033 A 
ATOM      6  C6  UNL d   1       1.851  -2.331   3.286  0.00  0.00    -0.057 A 
ENDROOT
BRANCH   1   7
ATOM      7  N   UNL d   1       1.158  -2.075   5.575  0.00  0.00    -0.732 N 
ATOM      8  C   UNL d   1       2.002  -3.171   5.999  0.00  0.00     0.284 C 
ATOM      9  H3  UNL d   1       1.015  -1.361   6.286  0.00  0.00     0.395 HD
ENDBRANCH   1   7
TORSDOF 1
ENDMDL
