MODEL 1
REMARK minimizedAffinity 6.75059462
REMARK minimizedRMSD -1
REMARK  1 active torsions:
REMARK  status: ('A' for Active; 'I' for Inactive)
REMARK    1  A    between atoms: N_2  and  C1_3 
ROOT
ATOM      1  C1  UNL d   1       2.341  -3.117   3.225  0.00  0.00     0.143 A 
ATOM      2  C2  UNL d   1       1.820  -2.334   4.260  0.00  0.00    -0.057 A 
ATOM      3  C3  UNL d   1       1.378  -1.025   4.029  0.00  0.00     0.033 A 
ATOM      4  C4  UNL d   1       1.477  -0.465   2.760  0.00  0.00    -0.042 A 
ATOM      5  C5  UNL d   1       2.015  -1.217   1.721  0.00  0.00     0.033 A 
ATOM      6  C6  UNL d   1       2.448  -2.525   1.956  0.00  0.00    -0.057 A 
ENDROOT
BRANCH   1   7
ATOM      7  N   UNL d   1       2.887  -4.389   3.411  0.00  0.00    -0.732 N 
ATOM      8  C   UNL d   1       2.207  -5.564   2.911  0.00  0.00     0.284 C 
ATOM      9  H3  UNL d   1       3.896  -4.403   3.274  0.00  0.00     0.395 HD
ENDBRANCH   1   7
TORSDOF 1
ENDMDL
