MODEL 1
REMARK minimizedAffinity 12.3821955
REMARK minimizedRMSD -1
REMARK  1 active torsions:
REMARK  status: ('A' for Active; 'I' for Inactive)
REMARK    1  A    between atoms: N_2  and  C1_3 
ROOT
ATOM      1  C1  UNL d   1       1.193  -1.948   3.726  0.00  0.00     0.143 A 
ATOM      2  C2  UNL d   1       0.963  -0.812   2.943  0.00  0.00    -0.057 A 
ATOM      3  C3  UNL d   1       1.486  -0.704   1.649  0.00  0.00     0.033 A 
ATOM      4  C4  UNL d   1       2.275  -1.721   1.124  0.00  0.00    -0.042 A 
ATOM      5  C5  UNL d   1       2.538  -2.849   1.894  0.00  0.00     0.033 A 
ATOM      6  C6  UNL d   1       2.007  -2.954   3.183  0.00  0.00    -0.057 A 
ENDROOT
BRANCH   1   7
ATOM      7  N   UNL d   1       0.782  -2.072   5.056  0.00  0.00    -0.732 N 
ATOM      8  C   UNL d   1       1.428  -3.018   5.941  0.00  0.00     0.284 C 
ATOM      9  H3  UNL d   1       0.579  -1.173   5.486  0.00  0.00     0.395 HD
ENDBRANCH   1   7
TORSDOF 1
ENDMDL
