MODEL 1
REMARK minimizedAffinity 2.49112868
REMARK minimizedRMSD -1
REMARK  1 active torsions:
REMARK  status: ('A' for Active; 'I' for Inactive)
REMARK    1  A    between atoms: N_2  and  C1_3 
ROOT
ATOM      1  C1  UNL d   1      -3.734   2.640  -4.160  0.00  0.00     0.143 A 
ATOM      2  C2  UNL d   1      -3.584   2.931  -5.520  0.00  0.00    -0.057 A 
ATOM      3  C3  UNL d   1      -3.688   4.243  -5.998  0.00  0.00     0.033 A 
ATOM      4  C4  UNL d   1      -3.973   5.287  -5.125  0.00  0.00    -0.042 A 
ATOM      5  C5  UNL d   1      -4.151   5.018  -3.772  0.00  0.00     0.033 A 
ATOM      6  C6  UNL d   1      -4.040   3.707  -3.300  0.00  0.00    -0.057 A 
ENDROOT
BRANCH   1   7
ATOM      7  N   UNL d   1      -3.741   1.345  -3.637  0.00  0.00    -0.732 N 
ATOM      8  C   UNL d   1      -2.907   1.003  -2.505  0.00  0.00     0.284 C 
ATOM      9  H3  UNL d   1      -4.676   0.945  -3.601  0.00  0.00     0.395 HD
ENDBRANCH   1   7
TORSDOF 1
ENDMDL
