MODEL 1
REMARK minimizedAffinity 2.50136304
REMARK minimizedRMSD -1
REMARK  1 active torsions:
REMARK  status: ('A' for Active; 'I' for Inactive)
REMARK    1  A    between atoms: N_2  and  C1_3 
ROOT
ATOM      1  C1  UNL d   1       1.742  -2.199   4.270  0.00  0.00     0.143 A 
ATOM      2  C2  UNL d   1       1.355  -0.889   3.968  0.00  0.00    -0.057 A 
ATOM      3  C3  UNL d   1       1.349  -0.419   2.649  0.00  0.00     0.033 A 
ATOM      4  C4  UNL d   1       1.759  -1.246   1.608  0.00  0.00    -0.042 A 
ATOM      5  C5  UNL d   1       2.172  -2.544   1.888  0.00  0.00     0.033 A 
ATOM      6  C6  UNL d   1       2.170  -3.009   3.206  0.00  0.00    -0.057 A 
ENDROOT
BRANCH   1   7
ATOM      7  N   UNL d   1       1.864  -2.693   5.571  0.00  0.00    -0.732 N 
ATOM      8  C   UNL d   1       3.081  -3.347   6.000  0.00  0.00     0.284 C 
ATOM      9  H3  UNL d   1       1.462  -2.066   6.264  0.00  0.00     0.395 HD
ENDBRANCH   1   7
TORSDOF 1
ENDMDL
