MODEL 1
REMARK minimizedAffinity 12.3578386
REMARK minimizedRMSD -1
REMARK  1 active torsions:
REMARK  status: ('A' for Active; 'I' for Inactive)
REMARK    1  A    between atoms: N_2  and  C1_3 
ROOT
ATOM      1  C1  UNL d   1       0.636  -5.308  -1.150  0.00  0.00     0.143 A 
ATOM      2  C2  UNL d   1       0.699  -4.779   0.143  0.00  0.00    -0.057 A 
ATOM      3  C3  UNL d   1      -0.453  -4.631   0.925  0.00  0.00     0.033 A 
ATOM      4  C4  UNL d   1      -1.697  -4.985   0.413  0.00  0.00    -0.042 A 
ATOM      5  C5  UNL d   1      -1.787  -5.489  -0.880  0.00  0.00     0.033 A 
ATOM      6  C6  UNL d   1      -0.632  -5.640  -1.652  0.00  0.00    -0.057 A 
ENDROOT
BRANCH   1   7
ATOM      7  N   UNL d   1       1.733  -5.387  -2.012  0.00  0.00    -0.732 N 
ATOM      8  C   UNL d   1       2.677  -4.295  -2.107  0.00  0.00     0.284 C 
ATOM      9  H3  UNL d   1       2.163  -6.309  -2.009  0.00  0.00     0.395 HD
ENDBRANCH   1   7
TORSDOF 1
ENDMDL
