MODEL 1
REMARK minimizedAffinity 10.7308617
REMARK minimizedRMSD -1
REMARK  1 active torsions:
REMARK  status: ('A' for Active; 'I' for Inactive)
REMARK    1  A    between atoms: N_2  and  C1_3 
ROOT
ATOM      1  C1  UNL d   1      -0.544  -3.026   1.138  0.00  0.00     0.143 A 
ATOM      2  C2  UNL d   1       0.618  -3.803   1.079  0.00  0.00    -0.057 A 
ATOM      3  C3  UNL d   1       1.840  -3.319   1.562  0.00  0.00     0.033 A 
ATOM      4  C4  UNL d   1       1.928  -2.035   2.088  0.00  0.00    -0.042 A 
ATOM      5  C5  UNL d   1       0.791  -1.236   2.134  0.00  0.00     0.033 A 
ATOM      6  C6  UNL d   1      -0.428  -1.726   1.657  0.00  0.00    -0.057 A 
ENDROOT
BRANCH   1   7
ATOM      7  N   UNL d   1      -1.767  -3.412   0.585  0.00  0.00    -0.732 N 
ATOM      8  C   UNL d   1      -2.051  -4.807   0.325  0.00  0.00     0.284 C 
ATOM      9  H3  UNL d   1      -2.551  -2.895   0.976  0.00  0.00     0.395 HD
ENDBRANCH   1   7
TORSDOF 1
ENDMDL
