MODEL 1
REMARK minimizedAffinity -3.52301598
REMARK minimizedRMSD -1
REMARK  0 active torsions:
REMARK  status: ('A' for Active; 'I' for Inactive)
ROOT
ATOM      1  C   UNL d   1      -1.436  -0.362  -0.213  0.00  0.00     0.078 C 
ATOM      2  C1  UNL d   1      -0.405   0.312   0.643  0.00  0.00    -0.077 A 
ATOM      3  C2  UNL d   1      -0.777   1.241   1.622  0.00  0.00    -0.001 A 
ATOM      4  C3  UNL d   1       0.194   1.868   2.405  0.00  0.00     0.003 A 
ATOM      5  C4  UNL d   1       1.542   1.573   2.216  0.00  0.00    -0.005 A 
ATOM      6  C5  UNL d   1       1.922   0.651   1.243  0.00  0.00     0.003 A 
ATOM      7  C6  UNL d   1       0.953   0.023   0.459  0.00  0.00    -0.001 A 
ENDROOT
TORSDOF 0
ENDMDL
