MODEL 1
REMARK minimizedAffinity -2.70158982
REMARK minimizedRMSD -1
REMARK  0 active torsions:
REMARK  status: ('A' for Active; 'I' for Inactive)
ROOT
ATOM      1  C   UNL d   1       2.407   2.073   1.091  0.00  0.00     0.078 C 
ATOM      2  C1  UNL d   1       1.170   1.499   1.714  0.00  0.00    -0.077 A 
ATOM      3  C2  UNL d   1       0.604   2.076   2.857  0.00  0.00    -0.001 A 
ATOM      4  C3  UNL d   1      -0.543   1.525   3.432  0.00  0.00     0.003 A 
ATOM      5  C4  UNL d   1      -1.133   0.395   2.871  0.00  0.00    -0.005 A 
ATOM      6  C5  UNL d   1      -0.575  -0.188   1.735  0.00  0.00     0.003 A 
ATOM      7  C6  UNL d   1       0.571   0.361   1.158  0.00  0.00    -0.001 A 
ENDROOT
TORSDOF 0
ENDMDL
