MODEL 1
REMARK minimizedAffinity -5.70205975
REMARK minimizedRMSD -1
REMARK  0 active torsions:
REMARK  status: ('A' for Active; 'I' for Inactive)
ROOT
ATOM      1  C   UNL d   1      -0.748   1.050   4.103  0.00  0.00     0.078 C 
ATOM      2  C1  UNL d   1       0.002   0.663   2.863  0.00  0.00    -0.077 A 
ATOM      3  C2  UNL d   1       1.327   0.216   2.932  0.00  0.00    -0.001 A 
ATOM      4  C3  UNL d   1       2.015  -0.132   1.769  0.00  0.00     0.003 A 
ATOM      5  C4  UNL d   1       1.388  -0.034   0.528  0.00  0.00    -0.005 A 
ATOM      6  C5  UNL d   1       0.070   0.413   0.450  0.00  0.00     0.003 A 
ATOM      7  C6  UNL d   1      -0.620   0.760   1.612  0.00  0.00    -0.001 A 
ENDROOT
TORSDOF 0
ENDMDL
