MODEL 1
REMARK minimizedAffinity -4.04869986
REMARK minimizedRMSD -1
REMARK  0 active torsions:
REMARK  status: ('A' for Active; 'I' for Inactive)
ROOT
ATOM      1  C   UNL d   1       2.181   0.990   0.488  0.00  0.00     0.078 C 
ATOM      2  C1  UNL d   1       0.820   0.697   1.044  0.00  0.00    -0.077 A 
ATOM      3  C2  UNL d   1      -0.068  -0.150   0.370  0.00  0.00    -0.001 A 
ATOM      4  C3  UNL d   1      -1.335  -0.406   0.895  0.00  0.00     0.003 A 
ATOM      5  C4  UNL d   1      -1.727   0.181   2.097  0.00  0.00    -0.005 A 
ATOM      6  C5  UNL d   1      -0.851   1.026   2.774  0.00  0.00     0.003 A 
ATOM      7  C6  UNL d   1       0.417   1.284   2.250  0.00  0.00    -0.001 A 
ENDROOT
TORSDOF 0
ENDMDL
