MODEL 1
REMARK minimizedAffinity 0.104813889
REMARK minimizedRMSD -1
REMARK  0 active torsions:
REMARK  status: ('A' for Active; 'I' for Inactive)
ROOT
ATOM      1  C   UNL d   1      -1.965  -0.636   0.023  0.00  0.00     0.078 C 
ATOM      2  C1  UNL d   1      -1.206   0.239   0.975  0.00  0.00    -0.077 A 
ATOM      3  C2  UNL d   1      -0.148   1.041   0.530  0.00  0.00    -0.001 A 
ATOM      4  C3  UNL d   1       0.556   1.844   1.430  0.00  0.00     0.003 A 
ATOM      5  C4  UNL d   1       0.211   1.851   2.779  0.00  0.00    -0.005 A 
ATOM      6  C5  UNL d   1      -0.839   1.054   3.232  0.00  0.00     0.003 A 
ATOM      7  C6  UNL d   1      -1.544   0.251   2.334  0.00  0.00    -0.001 A 
ENDROOT
TORSDOF 0
ENDMDL
