MODEL 1
REMARK minimizedAffinity 0.575261176
REMARK minimizedRMSD -1
REMARK  0 active torsions:
REMARK  status: ('A' for Active; 'I' for Inactive)
ROOT
ATOM      1  C   UNL d   1       0.126  -0.991   4.084  0.00  0.00     0.078 C 
ATOM      2  C1  UNL d   1      -0.494  -0.658   2.760  0.00  0.00    -0.077 A 
ATOM      3  C2  UNL d   1      -1.872  -0.799   2.553  0.00  0.00    -0.001 A 
ATOM      4  C3  UNL d   1      -2.433  -0.495   1.312  0.00  0.00     0.003 A 
ATOM      5  C4  UNL d   1      -1.625  -0.049   0.268  0.00  0.00    -0.005 A 
ATOM      6  C5  UNL d   1      -0.253   0.092   0.464  0.00  0.00     0.003 A 
ATOM      7  C6  UNL d   1       0.311  -0.212   1.704  0.00  0.00    -0.001 A 
ENDROOT
TORSDOF 0
ENDMDL
