MODEL 1
REMARK minimizedAffinity -3.31131864
REMARK minimizedRMSD -1
REMARK  0 active torsions:
REMARK  status: ('A' for Active; 'I' for Inactive)
ROOT
ATOM      1  C   UNL d   1       2.314  -0.742  -1.425  0.00  0.00     0.023 A 
ATOM      2  C1  UNL d   1       1.869   0.578  -1.499  0.00  0.00     0.003 A 
ATOM      3  C2  UNL d   1       0.673   0.949  -0.881  0.00  0.00     0.048 A 
ATOM      4  C3  UNL d   1      -0.073  -0.005  -0.190  0.00  0.00     0.023 A 
ATOM      5  C4  UNL d   1       0.369  -1.327  -0.112  0.00  0.00     0.048 A 
ATOM      6  C5  UNL d   1       1.565  -1.693  -0.732  0.00  0.00     0.003 A 
ATOM      7  I   UNL d   1      -1.854   0.544   0.731  0.00  0.00    -0.146 I 
ENDROOT
TORSDOF 0
ENDMDL
