MODEL 1
REMARK minimizedAffinity 1.44767928
REMARK minimizedRMSD -1
REMARK  0 active torsions:
REMARK  status: ('A' for Active; 'I' for Inactive)
ROOT
ATOM      1  C   UNL d   1       2.110  -1.326  -1.568  0.00  0.00     0.023 A 
ATOM      2  C1  UNL d   1       0.864  -1.846  -1.219  0.00  0.00     0.003 A 
ATOM      3  C2  UNL d   1       0.181  -1.341  -0.111  0.00  0.00     0.048 A 
ATOM      4  C3  UNL d   1       0.749  -0.315   0.643  0.00  0.00     0.023 A 
ATOM      5  C4  UNL d   1       1.995   0.209   0.297  0.00  0.00     0.048 A 
ATOM      6  C5  UNL d   1       2.675  -0.300  -0.811  0.00  0.00     0.003 A 
ATOM      7  I   UNL d   1      -0.266   0.438   2.293  0.00  0.00    -0.146 I 
ENDROOT
TORSDOF 0
ENDMDL
