MODEL 1
REMARK minimizedAffinity -2.34123874
REMARK minimizedRMSD -1
REMARK  0 active torsions:
REMARK  status: ('A' for Active; 'I' for Inactive)
ROOT
ATOM      1  C   UNL d   1       2.797  -0.998  -1.769  0.00  0.00     0.023 A 
ATOM      2  C1  UNL d   1       2.548   0.364  -1.600  0.00  0.00     0.003 A 
ATOM      3  C2  UNL d   1       1.431   0.787  -0.875  0.00  0.00     0.048 A 
ATOM      4  C3  UNL d   1       0.569  -0.158  -0.321  0.00  0.00     0.023 A 
ATOM      5  C4  UNL d   1       0.814  -1.522  -0.487  0.00  0.00     0.048 A 
ATOM      6  C5  UNL d   1       1.931  -1.940  -1.213  0.00  0.00     0.003 A 
ATOM      7  I   UNL d   1      -1.094   0.468   0.758  0.00  0.00    -0.146 I 
ENDROOT
TORSDOF 0
ENDMDL
