MODEL 1
REMARK minimizedAffinity -3.19841266
REMARK minimizedRMSD -1
REMARK  0 active torsions:
REMARK  status: ('A' for Active; 'I' for Inactive)
ROOT
ATOM      1  C   UNL d   1       3.252  -0.806  -1.183  0.00  0.00     0.023 A 
ATOM      2  C1  UNL d   1       3.030   0.545  -0.912  0.00  0.00     0.003 A 
ATOM      3  C2  UNL d   1       1.766   0.978  -0.505  0.00  0.00     0.048 A 
ATOM      4  C3  UNL d   1       0.729   0.056  -0.370  0.00  0.00     0.023 A 
ATOM      5  C4  UNL d   1       0.947  -1.297  -0.639  0.00  0.00     0.048 A 
ATOM      6  C5  UNL d   1       2.211  -1.725  -1.046  0.00  0.00     0.003 A 
ATOM      7  I   UNL d   1      -1.152   0.698   0.236  0.00  0.00    -0.146 I 
ENDROOT
TORSDOF 0
ENDMDL
