MODEL 1
REMARK minimizedAffinity -3.57146573
REMARK minimizedRMSD -1
REMARK  0 active torsions:
REMARK  status: ('A' for Active; 'I' for Inactive)
ROOT
ATOM      1  C   UNL d   1       2.504  -1.051  -1.428  0.00  0.00     0.023 A 
ATOM      2  C1  UNL d   1       1.563  -1.904  -0.851  0.00  0.00     0.003 A 
ATOM      3  C2  UNL d   1       0.441  -1.377  -0.208  0.00  0.00     0.048 A 
ATOM      4  C3  UNL d   1       0.266   0.005  -0.146  0.00  0.00     0.023 A 
ATOM      5  C4  UNL d   1       1.204   0.863  -0.722  0.00  0.00     0.048 A 
ATOM      6  C5  UNL d   1       2.325   0.331  -1.363  0.00  0.00     0.003 A 
ATOM      7  I   UNL d   1      -1.403   0.792   0.810  0.00  0.00    -0.146 I 
ENDROOT
TORSDOF 0
ENDMDL
