MODEL 1
REMARK minimizedAffinity -3.40106893
REMARK minimizedRMSD -1
REMARK  0 active torsions:
REMARK  status: ('A' for Active; 'I' for Inactive)
ROOT
ATOM      1  C   UNL d   1       2.363  -0.917  -1.572  0.00  0.00     0.023 A 
ATOM      2  C1  UNL d   1       2.334   0.377  -1.053  0.00  0.00     0.003 A 
ATOM      3  C2  UNL d   1       1.293   0.769  -0.209  0.00  0.00     0.048 A 
ATOM      4  C3  UNL d   1       0.285  -0.139   0.113  0.00  0.00     0.023 A 
ATOM      5  C4  UNL d   1       0.311  -1.436  -0.403  0.00  0.00     0.048 A 
ATOM      6  C5  UNL d   1       1.353  -1.823  -1.247  0.00  0.00     0.003 A 
ATOM      7  I   UNL d   1      -1.266   0.442   1.369  0.00  0.00    -0.146 I 
ENDROOT
TORSDOF 0
ENDMDL
