MODEL 1
REMARK minimizedAffinity -2.98825836
REMARK minimizedRMSD -1
REMARK  0 active torsions:
REMARK  status: ('A' for Active; 'I' for Inactive)
ROOT
ATOM      1  C   UNL d   1       1.880  -0.987  -1.744  0.00  0.00     0.023 A 
ATOM      2  C1  UNL d   1       1.598  -1.778  -0.630  0.00  0.00     0.003 A 
ATOM      3  C2  UNL d   1       0.633  -1.368   0.293  0.00  0.00     0.048 A 
ATOM      4  C3  UNL d   1      -0.046  -0.166   0.095  0.00  0.00     0.023 A 
ATOM      5  C4  UNL d   1       0.233   0.628  -1.018  0.00  0.00     0.048 A 
ATOM      6  C5  UNL d   1       1.199   0.214  -1.938  0.00  0.00     0.003 A 
ATOM      7  I   UNL d   1      -1.482   0.446   1.467  0.00  0.00    -0.146 I 
ENDROOT
TORSDOF 0
ENDMDL
