MODEL 1
REMARK minimizedAffinity -2.10530543
REMARK minimizedRMSD -1
REMARK  0 active torsions:
REMARK  status: ('A' for Active; 'I' for Inactive)
ROOT
ATOM      1  C   UNL d   1      -3.140  -1.258   1.713  0.00  0.00     0.023 A 
ATOM      2  C1  UNL d   1      -2.507  -0.016   1.697  0.00  0.00     0.003 A 
ATOM      3  C2  UNL d   1      -1.326   0.159   0.972  0.00  0.00     0.048 A 
ATOM      4  C3  UNL d   1      -0.785  -0.913   0.263  0.00  0.00     0.023 A 
ATOM      5  C4  UNL d   1      -1.416  -2.158   0.275  0.00  0.00     0.048 A 
ATOM      6  C5  UNL d   1      -2.595  -2.328   1.002  0.00  0.00     0.003 A 
ATOM      7  I   UNL d   1       0.972  -0.655  -0.817  0.00  0.00    -0.146 I 
ENDROOT
TORSDOF 0
ENDMDL
