MODEL 1
REMARK minimizedAffinity -1.68760061
REMARK minimizedRMSD -1
REMARK  0 active torsions:
REMARK  status: ('A' for Active; 'I' for Inactive)
ROOT
ATOM      1  C   UNL d   1       1.249  -2.270   0.057  0.00  0.00     0.023 A 
ATOM      2  C1  UNL d   1       0.262  -1.541   0.721  0.00  0.00     0.003 A 
ATOM      3  C2  UNL d   1      -0.176  -0.321   0.201  0.00  0.00     0.048 A 
ATOM      4  C3  UNL d   1       0.377   0.164  -0.984  0.00  0.00     0.023 A 
ATOM      5  C4  UNL d   1       1.364  -0.562  -1.652  0.00  0.00     0.048 A 
ATOM      6  C5  UNL d   1       1.799  -1.781  -1.128  0.00  0.00     0.003 A 
ATOM      7  I   UNL d   1      -0.273   1.979  -1.759  0.00  0.00    -0.146 I 
ENDROOT
TORSDOF 0
ENDMDL
