MODEL 1
REMARK minimizedAffinity -3.86873984
REMARK minimizedRMSD -1
REMARK  0 active torsions:
REMARK  status: ('A' for Active; 'I' for Inactive)
ROOT
ATOM      1  C   UNL d   1       3.200   0.261  -2.349  0.00  0.00     0.023 A 
ATOM      2  C1  UNL d   1       2.078   1.037  -2.638  0.00  0.00     0.003 A 
ATOM      3  C2  UNL d   1       0.913   0.891  -1.881  0.00  0.00     0.048 A 
ATOM      4  C3  UNL d   1       0.878  -0.032  -0.837  0.00  0.00     0.023 A 
ATOM      5  C4  UNL d   1       1.999  -0.810  -0.544  0.00  0.00     0.048 A 
ATOM      6  C5  UNL d   1       3.161  -0.662  -1.304  0.00  0.00     0.003 A 
ATOM      7  I   UNL d   1      -0.854  -0.251   0.291  0.00  0.00    -0.146 I 
ENDROOT
TORSDOF 0
ENDMDL
