MODEL 1
REMARK minimizedAffinity -3.62206054
REMARK minimizedRMSD -1
REMARK  0 active torsions:
REMARK  status: ('A' for Active; 'I' for Inactive)
ROOT
ATOM      1  C   UNL d   1       2.843  -0.810  -1.377  0.00  0.00     0.023 A 
ATOM      2  C1  UNL d   1       1.785  -1.712  -1.496  0.00  0.00     0.003 A 
ATOM      3  C2  UNL d   1       0.576  -1.463  -0.844  0.00  0.00     0.048 A 
ATOM      4  C3  UNL d   1       0.431  -0.309  -0.075  0.00  0.00     0.023 A 
ATOM      5  C4  UNL d   1       1.486   0.597   0.047  0.00  0.00     0.048 A 
ATOM      6  C5  UNL d   1       2.693   0.343  -0.606  0.00  0.00     0.003 A 
ATOM      7  I   UNL d   1      -1.368   0.065   0.897  0.00  0.00    -0.146 I 
ENDROOT
TORSDOF 0
ENDMDL
