MODEL 1
REMARK minimizedAffinity -3.94135284
REMARK minimizedRMSD -1
REMARK  0 active torsions:
REMARK  status: ('A' for Active; 'I' for Inactive)
ROOT
ATOM      1  C   UNL d   1       2.444  -0.393  -1.782  0.00  0.00     0.023 A 
ATOM      2  C1  UNL d   1       1.880  -1.462  -1.086  0.00  0.00     0.003 A 
ATOM      3  C2  UNL d   1       0.721  -1.273  -0.330  0.00  0.00     0.048 A 
ATOM      4  C3  UNL d   1       0.130  -0.011  -0.276  0.00  0.00     0.023 A 
ATOM      5  C4  UNL d   1       0.690   1.062  -0.971  0.00  0.00     0.048 A 
ATOM      6  C5  UNL d   1       1.849   0.868  -1.725  0.00  0.00     0.003 A 
ATOM      7  I   UNL d   1      -1.595   0.274   0.848  0.00  0.00    -0.146 I 
ENDROOT
TORSDOF 0
ENDMDL
