MODEL 1
REMARK minimizedAffinity -3.10317564
REMARK minimizedRMSD -1
REMARK  0 active torsions:
REMARK  status: ('A' for Active; 'I' for Inactive)
ROOT
ATOM      1  C   UNL d   1       0.381  -2.238  -0.240  0.00  0.00     0.023 A 
ATOM      2  C1  UNL d   1       1.540  -1.832  -0.901  0.00  0.00     0.003 A 
ATOM      3  C2  UNL d   1       1.746  -0.480  -1.185  0.00  0.00     0.048 A 
ATOM      4  C3  UNL d   1       0.790   0.460  -0.805  0.00  0.00     0.023 A 
ATOM      5  C4  UNL d   1      -0.372   0.059  -0.143  0.00  0.00     0.048 A 
ATOM      6  C5  UNL d   1      -0.574  -1.294   0.138  0.00  0.00     0.003 A 
ATOM      7  I   UNL d   1       1.094   2.472  -1.227  0.00  0.00    -0.146 I 
ENDROOT
TORSDOF 0
ENDMDL
