MODEL 1
REMARK minimizedAffinity -4.50914669
REMARK minimizedRMSD -1
REMARK  0 active torsions:
REMARK  status: ('A' for Active; 'I' for Inactive)
ROOT
ATOM      1  C   UNL d   1       2.303  -1.211  -1.663  0.00  0.00     0.023 A 
ATOM      2  C1  UNL d   1       1.288  -2.048  -1.198  0.00  0.00     0.003 A 
ATOM      3  C2  UNL d   1       0.269  -1.532  -0.395  0.00  0.00     0.048 A 
ATOM      4  C3  UNL d   1       0.270  -0.178  -0.061  0.00  0.00     0.023 A 
ATOM      5  C4  UNL d   1       1.282   0.663  -0.524  0.00  0.00     0.048 A 
ATOM      6  C5  UNL d   1       2.300   0.143  -1.327  0.00  0.00     0.003 A 
ATOM      7  I   UNL d   1      -1.246   0.591   1.134  0.00  0.00    -0.146 I 
ENDROOT
TORSDOF 0
ENDMDL
