MODEL 1
REMARK minimizedAffinity -3.85241461
REMARK minimizedRMSD -1
REMARK  0 active torsions:
REMARK  status: ('A' for Active; 'I' for Inactive)
ROOT
ATOM      1  C   UNL d   1      -1.735   1.423   1.575  0.00  0.00     0.023 A 
ATOM      2  C1  UNL d   1      -1.306   1.738   0.285  0.00  0.00     0.003 A 
ATOM      3  C2  UNL d   1      -0.448   0.873  -0.397  0.00  0.00     0.048 A 
ATOM      4  C3  UNL d   1      -0.023  -0.305   0.217  0.00  0.00     0.023 A 
ATOM      5  C4  UNL d   1      -0.450  -0.624   1.507  0.00  0.00     0.048 A 
ATOM      6  C5  UNL d   1      -1.308   0.244   2.185  0.00  0.00     0.003 A 
ATOM      7  I   UNL d   1       1.255  -1.594  -0.796  0.00  0.00    -0.146 I 
ENDROOT
TORSDOF 0
ENDMDL
