MODEL 1
REMARK minimizedAffinity -3.1704762
REMARK minimizedRMSD -1
REMARK  0 active torsions:
REMARK  status: ('A' for Active; 'I' for Inactive)
ROOT
ATOM      1  C   UNL d   1       5.242  -1.868   4.521  0.00  0.00     0.023 A 
ATOM      2  C1  UNL d   1       5.070  -0.970   3.468  0.00  0.00     0.003 A 
ATOM      3  C2  UNL d   1       5.259   0.398   3.677  0.00  0.00     0.048 A 
ATOM      4  C3  UNL d   1       5.621   0.860   4.942  0.00  0.00     0.023 A 
ATOM      5  C4  UNL d   1       5.795  -0.035   5.999  0.00  0.00     0.048 A 
ATOM      6  C5  UNL d   1       5.604  -1.401   5.785  0.00  0.00     0.003 A 
ATOM      7  I   UNL d   1       5.904   2.895   5.256  0.00  0.00    -0.146 I 
ENDROOT
TORSDOF 0
ENDMDL
