MODEL 1
REMARK minimizedAffinity 8.92789078
REMARK minimizedRMSD -1
REMARK  0 active torsions:
REMARK  status: ('A' for Active; 'I' for Inactive)
ROOT
ATOM      1  C4' PXY d   1      -6.000  -6.000  -1.713  0.00  0.00     0.077 C 
ATOM      2  C1' PXY d   1      -1.564  -2.443  -0.668  0.00  0.00     0.077 C 
ATOM      3  C1  PXY d   1      -2.736  -3.366  -0.942  0.00  0.00    -0.082 A 
ATOM      4  C2  PXY d   1      -2.635  -4.653  -0.654  0.00  0.00     0.003 A 
ATOM      5  C3  PXY d   1      -3.674  -5.507  -0.924  0.00  0.00     0.003 A 
ATOM      6  C4  PXY d   1      -4.846  -5.030  -1.446  0.00  0.00    -0.082 A 
ATOM      7  C5  PXY d   1      -4.960  -3.715  -1.732  0.00  0.00     0.003 A 
ATOM      8  C6  PXY d   1      -3.880  -2.872  -1.488  0.00  0.00     0.003 A 
ENDROOT
TORSDOF 0
ENDMDL
