MODEL 1
REMARK minimizedAffinity 10.6285505
REMARK minimizedRMSD -1
REMARK  0 active torsions:
REMARK  status: ('A' for Active; 'I' for Inactive)
ROOT
ATOM      1  C4' PXY d   1       2.563   2.978   1.776  0.00  0.00     0.077 C 
ATOM      2  C1' PXY d   1      -1.791   5.999  -0.534  0.00  0.00     0.077 C 
ATOM      3  C1  PXY d   1      -0.657   5.196   0.074  0.00  0.00    -0.082 A 
ATOM      4  C2  PXY d   1       0.360   5.826   0.640  0.00  0.00     0.003 A 
ATOM      5  C3  PXY d   1       1.409   5.116   1.166  0.00  0.00     0.003 A 
ATOM      6  C4  PXY d   1       1.392   3.747   1.158  0.00  0.00    -0.082 A 
ATOM      7  C5  PXY d   1       0.354   3.097   0.591  0.00  0.00     0.003 A 
ATOM      8  C6  PXY d   1      -0.682   3.837   0.027  0.00  0.00     0.003 A 
ENDROOT
TORSDOF 0
ENDMDL
