MODEL 1
REMARK minimizedAffinity -2.35742307
REMARK minimizedRMSD -1
REMARK  0 active torsions:
REMARK  status: ('A' for Active; 'I' for Inactive)
ROOT
ATOM      1  C4' PXY d   1       3.003   5.543  -3.725  0.00  0.00     0.077 C 
ATOM      2  C1' PXY d   1       5.974   0.584  -3.772  0.00  0.00     0.077 C 
ATOM      3  C1  PXY d   1       5.188   1.880  -3.770  0.00  0.00    -0.082 A 
ATOM      4  C2  PXY d   1       5.727   2.971  -3.250  0.00  0.00     0.003 A 
ATOM      5  C3  PXY d   1       5.018   4.144  -3.211  0.00  0.00     0.003 A 
ATOM      6  C4  PXY d   1       3.764   4.214  -3.757  0.00  0.00    -0.082 A 
ATOM      7  C5  PXY d   1       3.211   3.108  -4.299  0.00  0.00     0.003 A 
ATOM      8  C6  PXY d   1       3.932   1.917  -4.292  0.00  0.00     0.003 A 
ENDROOT
TORSDOF 0
ENDMDL
