MODEL 1
REMARK minimizedAffinity 7.0729351
REMARK minimizedRMSD -1
REMARK  0 active torsions:
REMARK  status: ('A' for Active; 'I' for Inactive)
ROOT
ATOM      1  C4' PXY d   1      -0.672   1.499  -0.272  0.00  0.00     0.077 C 
ATOM      2  C1' PXY d   1       4.324   2.905   2.273  0.00  0.00     0.077 C 
ATOM      3  C1  PXY d   1       3.014   2.548   1.599  0.00  0.00    -0.082 A 
ATOM      4  C2  PXY d   1       2.196   1.682   2.176  0.00  0.00     0.003 A 
ATOM      5  C3  PXY d   1       1.022   1.323   1.565  0.00  0.00     0.003 A 
ATOM      6  C4  PXY d   1       0.657   1.897   0.376  0.00  0.00    -0.082 A 
ATOM      7  C5  PXY d   1       1.480   2.789  -0.213  0.00  0.00     0.003 A 
ATOM      8  C6  PXY d   1       2.687   3.108   0.403  0.00  0.00     0.003 A 
ENDROOT
TORSDOF 0
ENDMDL
