MODEL 1
REMARK minimizedAffinity -3.80337334
REMARK minimizedRMSD -1
REMARK  0 active torsions:
REMARK  status: ('A' for Active; 'I' for Inactive)
ROOT
ATOM      1  C4' PXY d   1       1.498  -2.973  -5.676  0.00  0.00     0.077 C 
ATOM      2  C1' PXY d   1       1.748   0.477  -1.045  0.00  0.00     0.077 C 
ATOM      3  C1  PXY d   1       1.690  -0.436  -2.254  0.00  0.00    -0.082 A 
ATOM      4  C2  PXY d   1       1.449   0.075  -3.450  0.00  0.00     0.003 A 
ATOM      5  C3  PXY d   1       1.361  -0.740  -4.548  0.00  0.00     0.003 A 
ATOM      6  C4  PXY d   1       1.575  -2.088  -4.430  0.00  0.00    -0.082 A 
ATOM      7  C5  PXY d   1       1.833  -2.616  -3.215  0.00  0.00     0.003 A 
ATOM      8  C6  PXY d   1       1.877  -1.776  -2.106  0.00  0.00     0.003 A 
ENDROOT
TORSDOF 0
ENDMDL
