MODEL 1
REMARK minimizedAffinity 1.71788955
REMARK minimizedRMSD -1
REMARK  0 active torsions:
REMARK  status: ('A' for Active; 'I' for Inactive)
ROOT
ATOM      1  C4' PXY d   1      -1.375   0.751   3.419  0.00  0.00     0.077 C 
ATOM      2  C1' PXY d   1       0.792   0.629  -1.939  0.00  0.00     0.077 C 
ATOM      3  C1  PXY d   1       0.232   0.670  -0.530  0.00  0.00    -0.082 A 
ATOM      4  C2  PXY d   1      -0.463  -0.359  -0.073  0.00  0.00     0.003 A 
ATOM      5  C3  PXY d   1      -1.003  -0.325   1.187  0.00  0.00     0.003 A 
ATOM      6  C4  PXY d   1      -0.784   0.750   2.006  0.00  0.00    -0.082 A 
ATOM      7  C5  PXY d   1      -0.066   1.798   1.551  0.00  0.00     0.003 A 
ATOM      8  C6  PXY d   1       0.438   1.762   0.254  0.00  0.00     0.003 A 
ENDROOT
TORSDOF 0
ENDMDL
