MODEL 1
REMARK minimizedAffinity -2.53139186
REMARK minimizedRMSD -1
REMARK  0 active torsions:
REMARK  status: ('A' for Active; 'I' for Inactive)
ROOT
ATOM      1  C4' PXY d   1      -2.434  -0.119   1.163  0.00  0.00     0.077 C 
ATOM      2  C1' PXY d   1       2.130  -1.338  -2.168  0.00  0.00     0.077 C 
ATOM      3  C1  PXY d   1       0.936  -1.005  -1.294  0.00  0.00    -0.082 A 
ATOM      4  C2  PXY d   1       0.412  -1.941  -0.520  0.00  0.00     0.003 A 
ATOM      5  C3  PXY d   1      -0.688  -1.666   0.252  0.00  0.00     0.003 A 
ATOM      6  C4  PXY d   1      -1.223  -0.407   0.272  0.00  0.00    -0.082 A 
ATOM      7  C5  PXY d   1      -0.687   0.557  -0.507  0.00  0.00     0.003 A 
ATOM      8  C6  PXY d   1       0.403   0.247  -1.315  0.00  0.00     0.003 A 
ENDROOT
TORSDOF 0
ENDMDL
