MODEL 1
REMARK minimizedAffinity -3.50853896
REMARK minimizedRMSD -1
REMARK  0 active torsions:
REMARK  status: ('A' for Active; 'I' for Inactive)
ROOT
ATOM      1  C4' PXY d   1       2.798   0.654  -4.465  0.00  0.00     0.077 C 
ATOM      2  C1' PXY d   1       0.268  -1.736   0.150  0.00  0.00     0.077 C 
ATOM      3  C1  PXY d   1       0.943  -1.109  -1.054  0.00  0.00    -0.082 A 
ATOM      4  C2  PXY d   1       0.226  -0.402  -1.911  0.00  0.00     0.003 A 
ATOM      5  C3  PXY d   1       0.814   0.145  -3.023  0.00  0.00     0.003 A 
ATOM      6  C4  PXY d   1       2.161   0.011  -3.230  0.00  0.00    -0.082 A 
ATOM      7  C5  PXY d   1       2.901  -0.701  -2.354  0.00  0.00     0.003 A 
ATOM      8  C6  PXY d   1       2.278  -1.282  -1.254  0.00  0.00     0.003 A 
ENDROOT
TORSDOF 0
ENDMDL
