MODEL 1
REMARK minimizedAffinity -2.04222012
REMARK minimizedRMSD -1
REMARK  0 active torsions:
REMARK  status: ('A' for Active; 'I' for Inactive)
ROOT
ATOM      1  C4' PXY d   1       0.344  -1.564   0.745  0.00  0.00     0.077 C 
ATOM      2  C1' PXY d   1       1.564   0.930  -4.325  0.00  0.00     0.077 C 
ATOM      3  C1  PXY d   1       1.247   0.264  -3.000  0.00  0.00    -0.082 A 
ATOM      4  C2  PXY d   1       0.393   0.837  -2.168  0.00  0.00     0.003 A 
ATOM      5  C3  PXY d   1       0.120   0.265  -0.952  0.00  0.00     0.003 A 
ATOM      6  C4  PXY d   1       0.687  -0.933  -0.607  0.00  0.00    -0.082 A 
ATOM      7  C5  PXY d   1       1.551  -1.529  -1.456  0.00  0.00     0.003 A 
ATOM      8  C6  PXY d   1       1.846  -0.911  -2.667  0.00  0.00     0.003 A 
ENDROOT
TORSDOF 0
ENDMDL
