MODEL 1
REMARK minimizedAffinity 1.92698824
REMARK minimizedRMSD -1
REMARK  0 active torsions:
REMARK  status: ('A' for Active; 'I' for Inactive)
ROOT
ATOM      1  C4' PXY d   1      -2.494  -0.205   2.154  0.00  0.00     0.077 C 
ATOM      2  C1' PXY d   1       1.392  -1.612  -1.888  0.00  0.00     0.077 C 
ATOM      3  C1  PXY d   1       0.368  -1.234  -0.836  0.00  0.00    -0.082 A 
ATOM      4  C2  PXY d   1       0.610  -1.498   0.438  0.00  0.00     0.003 A 
ATOM      5  C3  PXY d   1      -0.318  -1.192   1.399  0.00  0.00     0.003 A 
ATOM      6  C4  PXY d   1      -1.485  -0.560   1.059  0.00  0.00    -0.082 A 
ATOM      7  C5  PXY d   1      -1.735  -0.278  -0.238  0.00  0.00     0.003 A 
ATOM      8  C6  PXY d   1      -0.797  -0.634  -1.202  0.00  0.00     0.003 A 
ENDROOT
TORSDOF 0
ENDMDL
