MODEL 1
REMARK minimizedAffinity -1.75693488
REMARK minimizedRMSD -1
REMARK  0 active torsions:
REMARK  status: ('A' for Active; 'I' for Inactive)
ROOT
ATOM      1  C4' PXY d   1      -0.622   0.585  -0.856  0.00  0.00     0.077 C 
ATOM      2  C1' PXY d   1      -0.360   5.996   1.162  0.00  0.00     0.077 C 
ATOM      3  C1  PXY d   1      -0.422   4.573   0.643  0.00  0.00    -0.082 A 
ATOM      4  C2  PXY d   1      -0.540   4.355  -0.656  0.00  0.00     0.003 A 
ATOM      5  C3  PXY d   1      -0.630   3.075  -1.139  0.00  0.00     0.003 A 
ATOM      6  C4  PXY d   1      -0.545   2.005  -0.288  0.00  0.00    -0.082 A 
ATOM      7  C5  PXY d   1      -0.414   2.219   1.038  0.00  0.00     0.003 A 
ATOM      8  C6  PXY d   1      -0.366   3.527   1.512  0.00  0.00     0.003 A 
ENDROOT
TORSDOF 0
ENDMDL
