MODEL 1
REMARK minimizedAffinity -2.37394214
REMARK minimizedRMSD -1
REMARK  0 active torsions:
REMARK  status: ('A' for Active; 'I' for Inactive)
ROOT
ATOM      1  C4' PXY d   1      -0.017   2.540   1.133  0.00  0.00     0.077 C 
ATOM      2  C1' PXY d   1       0.768  -2.713  -1.148  0.00  0.00     0.077 C 
ATOM      3  C1  PXY d   1       0.565  -1.330  -0.561  0.00  0.00    -0.082 A 
ATOM      4  C2  PXY d   1       0.752  -1.135   0.734  0.00  0.00     0.003 A 
ATOM      5  C3  PXY d   1       0.542   0.102   1.286  0.00  0.00     0.003 A 
ATOM      6  C4  PXY d   1       0.186   1.163   0.496  0.00  0.00    -0.082 A 
ATOM      7  C5  PXY d   1       0.003   0.974  -0.828  0.00  0.00     0.003 A 
ATOM      8  C6  PXY d   1       0.182  -0.299  -1.363  0.00  0.00     0.003 A 
ENDROOT
TORSDOF 0
ENDMDL
