MODEL 1
REMARK minimizedAffinity -3.07352972
REMARK minimizedRMSD -1
REMARK  0 active torsions:
REMARK  status: ('A' for Active; 'I' for Inactive)
ROOT
ATOM      1  C4' PXY d   1       0.080   2.688  -0.039  0.00  0.00     0.077 C 
ATOM      2  C1' PXY d   1      -0.246  -3.083  -0.091  0.00  0.00     0.077 C 
ATOM      3  C1  PXY d   1      -0.169  -1.569  -0.087  0.00  0.00    -0.082 A 
ATOM      4  C2  PXY d   1       0.909  -0.970   0.390  0.00  0.00     0.003 A 
ATOM      5  C3  PXY d   1       0.982   0.399   0.431  0.00  0.00     0.003 A 
ATOM      6  C4  PXY d   1      -0.037   1.162  -0.072  0.00  0.00    -0.082 A 
ATOM      7  C5  PXY d   1      -1.137   0.558  -0.570  0.00  0.00     0.003 A 
ATOM      8  C6  PXY d   1      -1.209  -0.832  -0.564  0.00  0.00     0.003 A 
ENDROOT
TORSDOF 0
ENDMDL
