MODEL 1
REMARK minimizedAffinity 0.619277
REMARK minimizedRMSD -1
REMARK  0 active torsions:
REMARK  status: ('A' for Active; 'I' for Inactive)
ROOT
ATOM      1  C4' PXY d   1       1.455   0.753  -4.401  0.00  0.00     0.077 C 
ATOM      2  C1' PXY d   1       0.245  -1.908   0.586  0.00  0.00     0.077 C 
ATOM      3  C1  PXY d   1       0.573  -1.218  -0.723  0.00  0.00    -0.082 A 
ATOM      4  C2  PXY d   1       0.117   0.004  -0.951  0.00  0.00     0.003 A 
ATOM      5  C3  PXY d   1       0.378   0.630  -2.142  0.00  0.00     0.003 A 
ATOM      6  C4  PXY d   1       1.157   0.021  -3.089  0.00  0.00    -0.082 A 
ATOM      7  C5  PXY d   1       1.634  -1.220  -2.860  0.00  0.00     0.003 A 
ATOM      8  C6  PXY d   1       1.324  -1.855  -1.661  0.00  0.00     0.003 A 
ENDROOT
TORSDOF 0
ENDMDL
