MODEL 1
REMARK minimizedAffinity -3.36207461
REMARK minimizedRMSD -1
REMARK  0 active torsions:
REMARK  status: ('A' for Active; 'I' for Inactive)
ROOT
ATOM      1  C4' PXY d   1      -2.193   0.609   1.037  0.00  0.00     0.077 C 
ATOM      2  C1' PXY d   1       1.735  -0.178  -3.131  0.00  0.00     0.077 C 
ATOM      3  C1  PXY d   1       0.707   0.042  -2.038  0.00  0.00    -0.082 A 
ATOM      4  C2  PXY d   1       0.403  -0.951  -1.218  0.00  0.00     0.003 A 
ATOM      5  C3  PXY d   1      -0.548  -0.780  -0.245  0.00  0.00     0.003 A 
ATOM      6  C4  PXY d   1      -1.154   0.436  -0.075  0.00  0.00    -0.082 A 
ATOM      7  C5  PXY d   1      -0.841   1.457  -0.901  0.00  0.00     0.003 A 
ATOM      8  C6  PXY d   1       0.096   1.251  -1.909  0.00  0.00     0.003 A 
ENDROOT
TORSDOF 0
ENDMDL
