MODEL 1
REMARK minimizedAffinity -2.94389009
REMARK minimizedRMSD -1
REMARK  0 active torsions:
REMARK  status: ('A' for Active; 'I' for Inactive)
ROOT
ATOM      1  C4' PXY d   1       0.664  -2.218  -0.478  0.00  0.00     0.077 C 
ATOM      2  C1' PXY d   1      -1.277   3.214  -0.845  0.00  0.00     0.077 C 
ATOM      3  C1  PXY d   1      -0.776   1.788  -0.738  0.00  0.00    -0.082 A 
ATOM      4  C2  PXY d   1       0.404   1.469  -1.247  0.00  0.00     0.003 A 
ATOM      5  C3  PXY d   1       0.858   0.177  -1.188  0.00  0.00     0.003 A 
ATOM      6  C4  PXY d   1       0.122  -0.788  -0.554  0.00  0.00    -0.082 A 
ATOM      7  C5  PXY d   1      -1.077  -0.469  -0.023  0.00  0.00     0.003 A 
ATOM      8  C6  PXY d   1      -1.539   0.840  -0.130  0.00  0.00     0.003 A 
ENDROOT
TORSDOF 0
ENDMDL
