MODEL 1
REMARK minimizedAffinity -0.333190799
REMARK minimizedRMSD -1
REMARK  0 active torsions:
REMARK  status: ('A' for Active; 'I' for Inactive)
ROOT
ATOM      1  C4' PXY d   1       1.497   0.814  -4.495  0.00  0.00     0.077 C 
ATOM      2  C1' PXY d   1       0.635  -2.198   0.363  0.00  0.00     0.077 C 
ATOM      3  C1  PXY d   1       0.850  -1.401  -0.908  0.00  0.00    -0.082 A 
ATOM      4  C2  PXY d   1       1.544  -1.930  -1.902  0.00  0.00     0.003 A 
ATOM      5  C3  PXY d   1       1.776  -1.211  -3.047  0.00  0.00     0.003 A 
ATOM      6  C4  PXY d   1       1.246   0.042  -3.196  0.00  0.00    -0.082 A 
ATOM      7  C5  PXY d   1       0.527   0.585  -2.191  0.00  0.00     0.003 A 
ATOM      8  C6  PXY d   1       0.339  -0.145  -1.021  0.00  0.00     0.003 A 
ENDROOT
TORSDOF 0
ENDMDL
