MODEL 1
REMARK minimizedAffinity -3.70789361
REMARK minimizedRMSD -1
REMARK  0 active torsions:
REMARK  status: ('A' for Active; 'I' for Inactive)
ROOT
ATOM      1  C4' PXY d   1      -1.813   0.308   2.603  0.00  0.00     0.077 C 
ATOM      2  C1' PXY d   1       1.221  -1.620  -1.924  0.00  0.00     0.077 C 
ATOM      3  C1  PXY d   1       0.434  -1.105  -0.734  0.00  0.00    -0.082 A 
ATOM      4  C2  PXY d   1      -0.399  -1.915  -0.101  0.00  0.00     0.003 A 
ATOM      5  C3  PXY d   1      -1.142  -1.456   0.956  0.00  0.00     0.003 A 
ATOM      6  C4  PXY d   1      -0.991  -0.171   1.404  0.00  0.00    -0.082 A 
ATOM      7  C5  PXY d   1      -0.135   0.658   0.769  0.00  0.00     0.003 A 
ATOM      8  C6  PXY d   1       0.579   0.185  -0.328  0.00  0.00     0.003 A 
ENDROOT
TORSDOF 0
ENDMDL
