MODEL 1
REMARK minimizedAffinity -3.45091486
REMARK minimizedRMSD -1
REMARK  0 active torsions:
REMARK  status: ('A' for Active; 'I' for Inactive)
ROOT
ATOM      1  C4' PXY d   1       5.925  -2.143   5.997  0.00  0.00     0.077 C 
ATOM      2  C1' PXY d   1       5.352   3.023   3.466  0.00  0.00     0.077 C 
ATOM      3  C1  PXY d   1       5.494   1.663   4.121  0.00  0.00    -0.082 A 
ATOM      4  C2  PXY d   1       5.824   1.584   5.400  0.00  0.00     0.003 A 
ATOM      5  C3  PXY d   1       5.989   0.362   6.000  0.00  0.00     0.003 A 
ATOM      6  C4  PXY d   1       5.761  -0.791   5.297  0.00  0.00    -0.082 A 
ATOM      7  C5  PXY d   1       5.414  -0.719   3.994  0.00  0.00     0.003 A 
ATOM      8  C6  PXY d   1       5.292   0.531   3.393  0.00  0.00     0.003 A 
ENDROOT
TORSDOF 0
ENDMDL
