MODEL 1
REMARK minimizedAffinity -3.76155686
REMARK minimizedRMSD -1
REMARK  0 active torsions:
REMARK  status: ('A' for Active; 'I' for Inactive)
ROOT
ATOM      1  C4' PXY d   1      -2.220   0.015   1.755  0.00  0.00     0.077 C 
ATOM      2  C1' PXY d   1       2.028  -0.987  -2.035  0.00  0.00     0.077 C 
ATOM      3  C1  PXY d   1       0.917  -0.712  -1.041  0.00  0.00    -0.082 A 
ATOM      4  C2  PXY d   1       0.474  -1.690  -0.268  0.00  0.00     0.003 A 
ATOM      5  C3  PXY d   1      -0.552  -1.466   0.614  0.00  0.00     0.003 A 
ATOM      6  C4  PXY d   1      -1.093  -0.215   0.743  0.00  0.00    -0.082 A 
ATOM      7  C5  PXY d   1      -0.639   0.791  -0.034  0.00  0.00     0.003 A 
ATOM      8  C6  PXY d   1       0.375   0.533  -0.952  0.00  0.00     0.003 A 
ENDROOT
TORSDOF 0
ENDMDL
