MODEL 1
REMARK minimizedAffinity 15.9195471
REMARK minimizedRMSD -1
REMARK  0 active torsions:
REMARK  status: ('A' for Active; 'I' for Inactive)
ROOT
ATOM      1  O1  BZF d   1       5.629  -4.885  -2.046  0.00  0.00    -0.204 OA
ATOM      2  C2  BZF d   1       4.648  -5.069  -1.091  0.00  0.00     0.174 A 
ATOM      3  C3  BZF d   1       3.491  -5.461  -1.664  0.00  0.00    -0.012 A 
ATOM      4  C3A BZF d   1       3.793  -5.615  -3.054  0.00  0.00    -0.107 A 
ATOM      5  C4  BZF d   1       3.056  -6.000  -4.137  0.00  0.00     0.055 A 
ATOM      6  C5  BZF d   1       3.629  -5.974  -5.369  0.00  0.00    -0.016 A 
ATOM      7  C6  BZF d   1       4.934  -5.565  -5.554  0.00  0.00     0.022 A 
ATOM      8  C7  BZF d   1       5.706  -5.180  -4.509  0.00  0.00     0.029 A 
ATOM      9  C7A BZF d   1       5.139  -5.236  -3.259  0.00  0.00     0.058 A 
ENDROOT
TORSDOF 0
ENDMDL
