MODEL 1
REMARK minimizedAffinity 8.47753239
REMARK minimizedRMSD -1
REMARK  0 active torsions:
REMARK  status: ('A' for Active; 'I' for Inactive)
ROOT
ATOM      1  O1  BZF d   1       1.116   3.652  -0.690  0.00  0.00    -0.204 OA
ATOM      2  C2  BZF d   1       0.301   3.132   0.297  0.00  0.00     0.174 A 
ATOM      3  C3  BZF d   1      -0.941   3.650   0.214  0.00  0.00    -0.012 A 
ATOM      4  C3A BZF d   1      -0.926   4.481  -0.951  0.00  0.00    -0.107 A 
ATOM      5  C4  BZF d   1      -1.869   5.252  -1.567  0.00  0.00     0.055 A 
ATOM      6  C5  BZF d   1      -1.512   5.997  -2.646  0.00  0.00    -0.016 A 
ATOM      7  C6  BZF d   1      -0.221   5.998  -3.132  0.00  0.00     0.022 A 
ATOM      8  C7  BZF d   1       0.749   5.246  -2.557  0.00  0.00     0.029 A 
ATOM      9  C7A BZF d   1       0.383   4.466  -1.487  0.00  0.00     0.058 A 
ENDROOT
TORSDOF 0
ENDMDL
