MODEL 1
REMARK minimizedAffinity 15.1252394
REMARK minimizedRMSD -1
REMARK  0 active torsions:
REMARK  status: ('A' for Active; 'I' for Inactive)
ROOT
ATOM      1  O1  BZF d   1       4.594  -2.656  -0.257  0.00  0.00    -0.204 OA
ATOM      2  C2  BZF d   1       3.540  -1.793  -0.031  0.00  0.00     0.174 A 
ATOM      3  C3  BZF d   1       2.372  -2.358  -0.399  0.00  0.00    -0.012 A 
ATOM      4  C3A BZF d   1       2.707  -3.690  -0.799  0.00  0.00    -0.107 A 
ATOM      5  C4  BZF d   1       1.972  -4.748  -1.252  0.00  0.00     0.055 A 
ATOM      6  C5  BZF d   1       2.613  -5.886  -1.625  0.00  0.00    -0.016 A 
ATOM      7  C6  BZF d   1       3.987  -6.000  -1.563  0.00  0.00     0.022 A 
ATOM      8  C7  BZF d   1       4.758  -4.979  -1.115  0.00  0.00     0.029 A 
ATOM      9  C7A BZF d   1       4.111  -3.839  -0.706  0.00  0.00     0.058 A 
ENDROOT
TORSDOF 0
ENDMDL
