MODEL 1
REMARK minimizedAffinity 1.97021496
REMARK minimizedRMSD -1
REMARK  0 active torsions:
REMARK  status: ('A' for Active; 'I' for Inactive)
ROOT
ATOM      1  O1  BZF d   1      -5.471  -3.207   3.941  0.00  0.00    -0.204 OA
ATOM      2  C2  BZF d   1      -5.793  -3.564   5.236  0.00  0.00     0.174 A 
ATOM      3  C3  BZF d   1      -5.999  -2.470   5.997  0.00  0.00    -0.012 A 
ATOM      4  C3A BZF d   1      -5.883  -1.361   5.101  0.00  0.00    -0.107 A 
ATOM      5  C4  BZF d   1      -6.000  -0.010   5.259  0.00  0.00     0.055 A 
ATOM      6  C5  BZF d   1      -5.755   0.803   4.198  0.00  0.00    -0.016 A 
ATOM      7  C6  BZF d   1      -5.387   0.300   2.967  0.00  0.00     0.022 A 
ATOM      8  C7  BZF d   1      -5.263  -1.033   2.760  0.00  0.00     0.029 A 
ATOM      9  C7A BZF d   1      -5.541  -1.859   3.822  0.00  0.00     0.058 A 
ENDROOT
TORSDOF 0
ENDMDL
