MODEL 1
REMARK minimizedAffinity 13.4341021
REMARK minimizedRMSD -1
REMARK  1 active torsions:
REMARK  status: ('A' for Active; 'I' for Inactive)
REMARK    1  A    between atoms: N_2  and  C1_3 
ROOT
ATOM      1  C1  UNL d   1      -2.028  -0.564   2.901  0.00  0.00     0.143 A 
ATOM      2  C2  UNL d   1      -3.237  -0.226   2.283  0.00  0.00    -0.057 A 
ATOM      3  C3  UNL d   1      -3.292   0.750   1.281  0.00  0.00     0.033 A 
ATOM      4  C4  UNL d   1      -2.140   1.429   0.898  0.00  0.00    -0.042 A 
ATOM      5  C5  UNL d   1      -0.932   1.127   1.516  0.00  0.00     0.033 A 
ATOM      6  C6  UNL d   1      -0.881   0.147   2.511  0.00  0.00    -0.057 A 
ENDROOT
BRANCH   1   7
ATOM      7  N   UNL d   1      -1.924  -1.455   3.972  0.00  0.00    -0.732 N 
ATOM      8  C   UNL d   1      -3.000  -1.584   4.930  0.00  0.00     0.284 C 
ATOM      9  H3  UNL d   1      -1.499  -2.339   3.701  0.00  0.00     0.395 HD
ENDBRANCH   1   7
TORSDOF 1
ENDMDL
