MODEL 1
REMARK minimizedAffinity 10.9356079
REMARK minimizedRMSD -1
REMARK  1 active torsions:
REMARK  status: ('A' for Active; 'I' for Inactive)
REMARK    1  A    between atoms: N_2  and  C1_3 
ROOT
ATOM      1  C1  UNL d   1      -5.285  -3.206  -0.012  0.00  0.00     0.143 A 
ATOM      2  C2  UNL d   1      -4.545  -3.774  -1.054  0.00  0.00    -0.057 A 
ATOM      3  C3  UNL d   1      -4.550  -5.156  -1.280  0.00  0.00     0.033 A 
ATOM      4  C4  UNL d   1      -5.275  -6.000  -0.445  0.00  0.00    -0.042 A 
ATOM      5  C5  UNL d   1      -5.998  -5.460   0.613  0.00  0.00     0.033 A 
ATOM      6  C6  UNL d   1      -5.994  -4.078   0.829  0.00  0.00    -0.057 A 
ENDROOT
BRANCH   1   7
ATOM      7  N   UNL d   1      -5.242  -1.850   0.324  0.00  0.00    -0.732 N 
ATOM      8  C   UNL d   1      -3.976  -1.184   0.538  0.00  0.00     0.284 C 
ATOM      9  H3  UNL d   1      -5.919  -1.299  -0.199  0.00  0.00     0.395 HD
ENDBRANCH   1   7
TORSDOF 1
ENDMDL
