MODEL 1
REMARK minimizedAffinity 4.28754902
REMARK minimizedRMSD -1
REMARK  1 active torsions:
REMARK  status: ('A' for Active; 'I' for Inactive)
REMARK    1  A    between atoms: N_2  and  C1_3 
ROOT
ATOM      1  C1  UNL d   1      -4.801  -4.791  -0.537  0.00  0.00     0.143 A 
ATOM      2  C2  UNL d   1      -5.953  -4.001  -0.466  0.00  0.00    -0.057 A 
ATOM      3  C3  UNL d   1      -6.000  -2.855   0.338  0.00  0.00     0.033 A 
ATOM      4  C4  UNL d   1      -4.901  -2.495   1.110  0.00  0.00    -0.042 A 
ATOM      5  C5  UNL d   1      -3.753  -3.280   1.075  0.00  0.00     0.033 A 
ATOM      6  C6  UNL d   1      -3.711  -4.419   0.265  0.00  0.00    -0.057 A 
ENDROOT
BRANCH   1   7
ATOM      7  N   UNL d   1      -4.726  -5.995  -1.241  0.00  0.00    -0.732 N 
ATOM      8  C   UNL d   1      -4.560  -6.000  -2.679  0.00  0.00     0.284 C 
ATOM      9  H3  UNL d   1      -4.168  -6.695  -0.756  0.00  0.00     0.395 HD
ENDBRANCH   1   7
TORSDOF 1
ENDMDL
