MODEL 1
REMARK minimizedAffinity 8.679533
REMARK minimizedRMSD -1
REMARK  1 active torsions:
REMARK  status: ('A' for Active; 'I' for Inactive)
REMARK    1  A    between atoms: N_2  and  C1_3 
ROOT
ATOM      1  C1  UNL d   1      -1.421   1.936   2.036  0.00  0.00     0.143 A 
ATOM      2  C2  UNL d   1      -2.711   2.014   1.501  0.00  0.00    -0.057 A 
ATOM      3  C3  UNL d   1      -3.406   0.863   1.111  0.00  0.00     0.033 A 
ATOM      4  C4  UNL d   1      -2.809  -0.389   1.223  0.00  0.00    -0.042 A 
ATOM      5  C5  UNL d   1      -1.518  -0.488   1.729  0.00  0.00     0.033 A 
ATOM      6  C6  UNL d   1      -0.832   0.665   2.123  0.00  0.00    -0.057 A 
ENDROOT
BRANCH   1   7
ATOM      7  N   UNL d   1      -0.641   3.052   2.350  0.00  0.00    -0.732 N 
ATOM      8  C   UNL d   1       0.598   2.902   3.084  0.00  0.00     0.284 C 
ATOM      9  H3  UNL d   1      -0.592   3.720   1.584  0.00  0.00     0.395 HD
ENDBRANCH   1   7
TORSDOF 1
ENDMDL
