MODEL 1
REMARK minimizedAffinity -4.30873489
REMARK minimizedRMSD -1
REMARK  1 active torsions:
REMARK  status: ('A' for Active; 'I' for Inactive)
REMARK    1  A    between atoms: N_2  and  C1_3 
ROOT
ATOM      1  C1  UNL d   1      -3.713  -0.889  -2.626  0.00  0.00     0.143 A 
ATOM      2  C2  UNL d   1      -3.104  -0.017  -1.718  0.00  0.00    -0.057 A 
ATOM      3  C3  UNL d   1      -1.811  -0.256  -1.238  0.00  0.00     0.033 A 
ATOM      4  C4  UNL d   1      -1.113  -1.391  -1.637  0.00  0.00    -0.042 A 
ATOM      5  C5  UNL d   1      -1.709  -2.285  -2.519  0.00  0.00     0.033 A 
ATOM      6  C6  UNL d   1      -2.998  -2.037  -3.001  0.00  0.00    -0.057 A 
ENDROOT
BRANCH   1   7
ATOM      7  N   UNL d   1      -5.034  -0.759  -3.064  0.00  0.00    -0.732 N 
ATOM      8  C   UNL d   1      -5.578  -1.671  -4.046  0.00  0.00     0.284 C 
ATOM      9  H3  UNL d   1      -5.674  -0.533  -2.305  0.00  0.00     0.395 HD
ENDBRANCH   1   7
TORSDOF 1
ENDMDL
