MODEL 1
REMARK minimizedAffinity -0.795154929
REMARK minimizedRMSD -1
REMARK  1 active torsions:
REMARK  status: ('A' for Active; 'I' for Inactive)
REMARK    1  A    between atoms: N_2  and  C1_3 
ROOT
ATOM      1  C1  UNL d   1      -1.055   0.035  -1.606  0.00  0.00     0.143 A 
ATOM      2  C2  UNL d   1      -1.145  -0.972  -2.572  0.00  0.00    -0.057 A 
ATOM      3  C3  UNL d   1      -0.041  -1.325  -3.358  0.00  0.00     0.033 A 
ATOM      4  C4  UNL d   1       1.168  -0.653  -3.211  0.00  0.00    -0.042 A 
ATOM      5  C5  UNL d   1       1.273   0.369  -2.274  0.00  0.00     0.033 A 
ATOM      6  C6  UNL d   1       0.169   0.712  -1.488  0.00  0.00    -0.057 A 
ENDROOT
BRANCH   1   7
ATOM      7  N   UNL d   1      -2.143   0.498  -0.862  0.00  0.00    -0.732 N 
ATOM      8  C   UNL d   1      -2.171   0.344   0.577  0.00  0.00     0.284 C 
ATOM      9  H3  UNL d   1      -2.483   1.399  -1.190  0.00  0.00     0.395 HD
ENDBRANCH   1   7
TORSDOF 1
ENDMDL
