MODEL 1
REMARK minimizedAffinity -4.14756012
REMARK minimizedRMSD -1
REMARK  1 active torsions:
REMARK  status: ('A' for Active; 'I' for Inactive)
REMARK    1  A    between atoms: N_2  and  C1_3 
ROOT
ATOM      1  C1  UNL d   1      -1.440  -0.128   0.001  0.00  0.00     0.143 A 
ATOM      2  C2  UNL d   1      -2.234  -0.234   1.149  0.00  0.00    -0.057 A 
ATOM      3  C3  UNL d   1      -1.662  -0.260   2.427  0.00  0.00     0.033 A 
ATOM      4  C4  UNL d   1      -0.281  -0.209   2.579  0.00  0.00    -0.042 A 
ATOM      5  C5  UNL d   1       0.529  -0.129   1.452  0.00  0.00     0.033 A 
ATOM      6  C6  UNL d   1      -0.048  -0.097   0.178  0.00  0.00    -0.057 A 
ENDROOT
BRANCH   1   7
ATOM      7  N   UNL d   1      -1.942  -0.197  -1.301  0.00  0.00    -0.732 N 
ATOM      8  C   UNL d   1      -1.391  -1.136  -2.254  0.00  0.00     0.284 C 
ATOM      9  H3  UNL d   1      -2.956  -0.121  -1.331  0.00  0.00     0.395 HD
ENDBRANCH   1   7
TORSDOF 1
ENDMDL
