MODEL 1
REMARK minimizedAffinity -4.13924646
REMARK minimizedRMSD -1
REMARK  1 active torsions:
REMARK  status: ('A' for Active; 'I' for Inactive)
REMARK    1  A    between atoms: N_2  and  C1_3 
ROOT
ATOM      1  C1  UNL d   1      -1.389  -3.559  -2.904  0.00  0.00     0.143 A 
ATOM      2  C2  UNL d   1      -2.174  -3.025  -1.877  0.00  0.00    -0.057 A 
ATOM      3  C3  UNL d   1      -2.215  -1.646  -1.637  0.00  0.00     0.033 A 
ATOM      4  C4  UNL d   1      -1.447  -0.777  -2.404  0.00  0.00    -0.042 A 
ATOM      5  C5  UNL d   1      -0.640  -1.288  -3.415  0.00  0.00     0.033 A 
ATOM      6  C6  UNL d   1      -0.608  -2.666  -3.654  0.00  0.00    -0.057 A 
ENDROOT
BRANCH   1   7
ATOM      7  N   UNL d   1      -1.229  -4.929  -3.129  0.00  0.00    -0.732 N 
ATOM      8  C   UNL d   1      -2.381  -5.801  -3.216  0.00  0.00     0.284 C 
ATOM      9  H3  UNL d   1      -0.504  -5.128  -3.814  0.00  0.00     0.395 HD
ENDBRANCH   1   7
TORSDOF 1
ENDMDL
