MODEL 1
REMARK minimizedAffinity -4.98216248
REMARK minimizedRMSD -1
REMARK  1 active torsions:
REMARK  status: ('A' for Active; 'I' for Inactive)
REMARK    1  A    between atoms: N_2  and  C1_3 
ROOT
ATOM      1  C1  UNL d   1      -0.585  -0.464   0.134  0.00  0.00     0.143 A 
ATOM      2  C2  UNL d   1       0.666   0.151   0.014  0.00  0.00    -0.057 A 
ATOM      3  C3  UNL d   1       1.467   0.392   1.137  0.00  0.00     0.033 A 
ATOM      4  C4  UNL d   1       1.016   0.047   2.407  0.00  0.00    -0.042 A 
ATOM      5  C5  UNL d   1      -0.234  -0.543   2.552  0.00  0.00     0.033 A 
ATOM      6  C6  UNL d   1      -1.026  -0.787   1.427  0.00  0.00    -0.057 A 
ENDROOT
BRANCH   1   7
ATOM      7  N   UNL d   1      -1.470  -0.642  -0.933  0.00  0.00    -0.732 N 
ATOM      8  C   UNL d   1      -2.769  -0.004  -0.926  0.00  0.00     0.284 C 
ATOM      9  H3  UNL d   1      -1.000  -0.619  -1.835  0.00  0.00     0.395 HD
ENDBRANCH   1   7
TORSDOF 1
ENDMDL
