MODEL 1
REMARK minimizedAffinity -3.39288092
REMARK minimizedRMSD -1
REMARK  1 active torsions:
REMARK  status: ('A' for Active; 'I' for Inactive)
REMARK    1  A    between atoms: N_2  and  C1_3 
ROOT
ATOM      1  C1  UNL d   1      -0.844  -0.404   0.171  0.00  0.00     0.143 A 
ATOM      2  C2  UNL d   1       0.005  -0.028  -0.875  0.00  0.00    -0.057 A 
ATOM      3  C3  UNL d   1       1.283   0.485  -0.624  0.00  0.00     0.033 A 
ATOM      4  C4  UNL d   1       1.726   0.658   0.683  0.00  0.00    -0.042 A 
ATOM      5  C5  UNL d   1       0.890   0.314   1.739  0.00  0.00     0.033 A 
ATOM      6  C6  UNL d   1      -0.383  -0.204   1.482  0.00  0.00    -0.057 A 
ENDROOT
BRANCH   1   7
ATOM      7  N   UNL d   1      -2.163  -0.828  -0.011  0.00  0.00    -0.732 N 
ATOM      8  C   UNL d   1      -3.117   0.010  -0.705  0.00  0.00     0.284 C 
ATOM      9  H3  UNL d   1      -2.224  -1.815  -0.251  0.00  0.00     0.395 HD
ENDBRANCH   1   7
TORSDOF 1
ENDMDL
