MODEL 1
REMARK minimizedAffinity -5.34596395
REMARK minimizedRMSD -1
REMARK  1 active torsions:
REMARK  status: ('A' for Active; 'I' for Inactive)
REMARK    1  A    between atoms: N_2  and  C1_3 
ROOT
ATOM      1  C1  UNL d   1      -1.013  -0.249   0.814  0.00  0.00     0.143 A 
ATOM      2  C2  UNL d   1      -2.227  -0.770   1.275  0.00  0.00    -0.057 A 
ATOM      3  C3  UNL d   1      -3.371  -0.768   0.469  0.00  0.00     0.033 A 
ATOM      4  C4  UNL d   1      -3.329  -0.216  -0.807  0.00  0.00    -0.042 A 
ATOM      5  C5  UNL d   1      -2.139   0.330  -1.277  0.00  0.00     0.033 A 
ATOM      6  C6  UNL d   1      -0.998   0.319  -0.469  0.00  0.00    -0.057 A 
ENDROOT
BRANCH   1   7
ATOM      7  N   UNL d   1       0.134  -0.133   1.604  0.00  0.00    -0.732 N 
ATOM      8  C   UNL d   1       0.036   0.271   2.990  0.00  0.00     0.284 C 
ATOM      9  H3  UNL d   1       0.799  -0.884   1.436  0.00  0.00     0.395 HD
ENDBRANCH   1   7
TORSDOF 1
ENDMDL
