MODEL 1
REMARK minimizedAffinity -5.02100182
REMARK minimizedRMSD -1
REMARK  1 active torsions:
REMARK  status: ('A' for Active; 'I' for Inactive)
REMARK    1  A    between atoms: N_2  and  C1_3 
ROOT
ATOM      1  C1  UNL d   1      -1.447   0.227  -0.321  0.00  0.00     0.143 A 
ATOM      2  C2  UNL d   1      -1.964  -0.113   0.933  0.00  0.00    -0.057 A 
ATOM      3  C3  UNL d   1      -1.148  -0.149   2.070  0.00  0.00     0.033 A 
ATOM      4  C4  UNL d   1       0.212   0.127   1.966  0.00  0.00    -0.042 A 
ATOM      5  C5  UNL d   1       0.753   0.442   0.725  0.00  0.00     0.033 A 
ATOM      6  C6  UNL d   1      -0.069   0.483  -0.405  0.00  0.00    -0.057 A 
ENDROOT
BRANCH   1   7
ATOM      7  N   UNL d   1      -2.187   0.184  -1.505  0.00  0.00    -0.732 N 
ATOM      8  C   UNL d   1      -2.551  -1.083  -2.102  0.00  0.00     0.284 C 
ATOM      9  H3  UNL d   1      -2.928   0.881  -1.526  0.00  0.00     0.395 HD
ENDBRANCH   1   7
TORSDOF 1
ENDMDL
