MODEL 1
REMARK minimizedAffinity -4.95243883
REMARK minimizedRMSD -1
REMARK  1 active torsions:
REMARK  status: ('A' for Active; 'I' for Inactive)
REMARK    1  A    between atoms: N_2  and  C1_3 
ROOT
ATOM      1  C1  UNL d   1      -1.289   0.296   0.073  0.00  0.00     0.143 A 
ATOM      2  C2  UNL d   1      -1.784   0.043   1.357  0.00  0.00    -0.057 A 
ATOM      3  C3  UNL d   1      -0.979   0.206   2.491  0.00  0.00     0.033 A 
ATOM      4  C4  UNL d   1       0.349   0.598   2.358  0.00  0.00    -0.042 A 
ATOM      5  C5  UNL d   1       0.870   0.830   1.090  0.00  0.00     0.033 A 
ATOM      6  C6  UNL d   1       0.059   0.672  -0.038  0.00  0.00    -0.057 A 
ENDROOT
BRANCH   1   7
ATOM      7  N   UNL d   1      -2.010   0.057  -1.100  0.00  0.00    -0.732 N 
ATOM      8  C   UNL d   1      -2.478  -1.274  -1.420  0.00  0.00     0.284 C 
ATOM      9  H3  UNL d   1      -2.684   0.794  -1.298  0.00  0.00     0.395 HD
ENDBRANCH   1   7
TORSDOF 1
ENDMDL
