MODEL 1
REMARK minimizedAffinity 9.20498276
REMARK minimizedRMSD -1
REMARK  2 active torsions:
REMARK  status: ('A' for Active; 'I' for Inactive)
REMARK    1  A    between atoms: C1_2  and  C2_3 
REMARK    2  A    between atoms: C2_3  and  C3_4 
ROOT
ATOM      1  C3  UNL d   1      -5.261   1.111  -4.446  0.00  0.00    -0.075 A 
ATOM      2  C4  UNL d   1      -6.000   1.528  -5.562  0.00  0.00     0.002 A 
ATOM      3  C5  UNL d   1      -5.939   2.852  -5.998  0.00  0.00     0.002 A 
ATOM      4  C6  UNL d   1      -5.149   3.776  -5.319  0.00  0.00    -0.004 A 
ATOM      5  C7  UNL d   1      -4.424   3.378  -4.199  0.00  0.00     0.002 A 
ATOM      6  C8  UNL d   1      -4.479   2.053  -3.763  0.00  0.00     0.002 A 
ENDROOT
BRANCH   1   7
ATOM      7  C2  UNL d   1      -5.299  -0.327  -3.986  0.00  0.00     0.056 C 
BRANCH   7   8
ATOM      8  C1  UNL d   1      -6.000  -0.533  -2.639  0.00  0.00     0.007 C 
ATOM      9  C   UNL d   1      -5.906  -1.964  -2.126  0.00  0.00     0.009 C 
ENDBRANCH   7   8
ENDBRANCH   1   7
TORSDOF 2
ENDMDL
