MODEL 1
REMARK minimizedAffinity 3.92776108
REMARK minimizedRMSD -1
REMARK  2 active torsions:
REMARK  status: ('A' for Active; 'I' for Inactive)
REMARK    1  A    between atoms: C1_2  and  C2_3 
REMARK    2  A    between atoms: C2_3  and  C3_4 
ROOT
ATOM      1  C3  UNL d   1       0.328   1.289   0.298  0.00  0.00    -0.075 A 
ATOM      2  C4  UNL d   1       0.912   2.087   1.293  0.00  0.00     0.002 A 
ATOM      3  C5  UNL d   1       0.171   3.086   1.925  0.00  0.00     0.002 A 
ATOM      4  C6  UNL d   1      -1.156   3.306   1.565  0.00  0.00    -0.004 A 
ATOM      5  C7  UNL d   1      -1.742   2.531   0.567  0.00  0.00     0.002 A 
ATOM      6  C8  UNL d   1      -1.004   1.528  -0.065  0.00  0.00     0.002 A 
ENDROOT
BRANCH   1   7
ATOM      7  C2  UNL d   1       1.115   0.187  -0.370  0.00  0.00     0.056 C 
BRANCH   7   8
ATOM      8  C1  UNL d   1       1.859   0.630  -1.634  0.00  0.00     0.007 C 
ATOM      9  C   UNL d   1       1.105   0.310  -2.918  0.00  0.00     0.009 C 
ENDBRANCH   7   8
ENDBRANCH   1   7
TORSDOF 2
ENDMDL
