MODEL 1
REMARK minimizedAffinity 4.5711236
REMARK minimizedRMSD -1
REMARK  2 active torsions:
REMARK  status: ('A' for Active; 'I' for Inactive)
REMARK    1  A    between atoms: C1_2  and  C2_3 
REMARK    2  A    between atoms: C2_3  and  C3_4 
ROOT
ATOM      1  C3  UNL d   1      -4.052   2.827  -4.012  0.00  0.00    -0.075 A 
ATOM      2  C4  UNL d   1      -4.650   1.572  -4.199  0.00  0.00     0.002 A 
ATOM      3  C5  UNL d   1      -5.614   1.388  -5.190  0.00  0.00     0.002 A 
ATOM      4  C6  UNL d   1      -5.999   2.455  -5.999  0.00  0.00    -0.004 A 
ATOM      5  C7  UNL d   1      -5.423   3.710  -5.812  0.00  0.00     0.002 A 
ATOM      6  C8  UNL d   1      -4.455   3.896  -4.823  0.00  0.00     0.002 A 
ENDROOT
BRANCH   1   7
ATOM      7  C2  UNL d   1      -2.986   3.026  -2.961  0.00  0.00     0.056 C 
BRANCH   7   8
ATOM      8  C1  UNL d   1      -2.802   1.827  -2.025  0.00  0.00     0.007 C 
ATOM      9  C   UNL d   1      -1.394   1.720  -1.455  0.00  0.00     0.009 C 
ENDBRANCH   7   8
ENDBRANCH   1   7
TORSDOF 2
ENDMDL
