MODEL 1
REMARK minimizedAffinity 5.60303736
REMARK minimizedRMSD -1
REMARK  2 active torsions:
REMARK  status: ('A' for Active; 'I' for Inactive)
REMARK    1  A    between atoms: C1_2  and  C2_3 
REMARK    2  A    between atoms: C2_3  and  C3_4 
ROOT
ATOM      1  C3  UNL d   1       0.322   2.002   0.276  0.00  0.00    -0.075 A 
ATOM      2  C4  UNL d   1       0.726   3.344   0.254  0.00  0.00     0.002 A 
ATOM      3  C5  UNL d   1       0.770   4.090   1.432  0.00  0.00     0.002 A 
ATOM      4  C6  UNL d   1       0.401   3.509   2.643  0.00  0.00    -0.004 A 
ATOM      5  C7  UNL d   1      -0.019   2.180   2.674  0.00  0.00     0.002 A 
ATOM      6  C8  UNL d   1      -0.059   1.430   1.497  0.00  0.00     0.002 A 
ENDROOT
BRANCH   1   7
ATOM      7  C2  UNL d   1       0.300   1.180  -0.991  0.00  0.00     0.056 C 
BRANCH   7   8
ATOM      8  C1  UNL d   1       1.618   0.456  -1.287  0.00  0.00     0.007 C 
ATOM      9  C   UNL d   1       2.017  -0.533  -0.200  0.00  0.00     0.009 C 
ENDBRANCH   7   8
ENDBRANCH   1   7
TORSDOF 2
ENDMDL
