MODEL 1
REMARK minimizedAffinity 5.85793114
REMARK minimizedRMSD -1
REMARK  2 active torsions:
REMARK  status: ('A' for Active; 'I' for Inactive)
REMARK    1  A    between atoms: C1_2  and  C2_3 
REMARK    2  A    between atoms: C2_3  and  C3_4 
ROOT
ATOM      1  C3  UNL d   1      -4.521   3.657  -4.923  0.00  0.00    -0.075 A 
ATOM      2  C4  UNL d   1      -4.397   2.781  -3.834  0.00  0.00     0.002 A 
ATOM      3  C5  UNL d   1      -5.058   1.552  -3.835  0.00  0.00     0.002 A 
ATOM      4  C6  UNL d   1      -5.857   1.188  -4.917  0.00  0.00    -0.004 A 
ATOM      5  C7  UNL d   1      -6.000   2.057  -5.996  0.00  0.00     0.002 A 
ATOM      6  C8  UNL d   1      -5.337   3.286  -6.000  0.00  0.00     0.002 A 
ENDROOT
BRANCH   1   7
ATOM      7  C2  UNL d   1      -3.785   4.975  -4.941  0.00  0.00     0.056 C 
BRANCH   7   8
ATOM      8  C1  UNL d   1      -2.304   4.868  -4.564  0.00  0.00     0.007 C 
ATOM      9  C   UNL d   1      -1.435   5.921  -5.240  0.00  0.00     0.009 C 
ENDBRANCH   7   8
ENDBRANCH   1   7
TORSDOF 2
ENDMDL
