MODEL 1
REMARK minimizedAffinity 4.96222162
REMARK minimizedRMSD -1
REMARK  2 active torsions:
REMARK  status: ('A' for Active; 'I' for Inactive)
REMARK    1  A    between atoms: C1_2  and  C2_3 
REMARK    2  A    between atoms: C2_3  and  C3_4 
ROOT
ATOM      1  C3  UNL d   1       0.170   1.563  -0.850  0.00  0.00    -0.075 A 
ATOM      2  C4  UNL d   1      -0.007   0.342  -0.184  0.00  0.00     0.002 A 
ATOM      3  C5  UNL d   1      -0.099   0.300   1.207  0.00  0.00     0.002 A 
ATOM      4  C6  UNL d   1      -0.006   1.474   1.950  0.00  0.00    -0.004 A 
ATOM      5  C7  UNL d   1       0.187   2.692   1.301  0.00  0.00     0.002 A 
ATOM      6  C8  UNL d   1       0.275   2.737  -0.092  0.00  0.00     0.002 A 
ENDROOT
BRANCH   1   7
ATOM      7  C2  UNL d   1       0.241   1.619  -2.357  0.00  0.00     0.056 C 
BRANCH   7   8
ATOM      8  C1  UNL d   1       1.287   0.680  -2.967  0.00  0.00     0.007 C 
ATOM      9  C   UNL d   1       1.267   0.666  -4.490  0.00  0.00     0.009 C 
ENDBRANCH   7   8
ENDBRANCH   1   7
TORSDOF 2
ENDMDL
