MODEL 1
REMARK minimizedAffinity 3.52949548
REMARK minimizedRMSD -1
REMARK  2 active torsions:
REMARK  status: ('A' for Active; 'I' for Inactive)
REMARK    1  A    between atoms: C1_2  and  C2_3 
REMARK    2  A    between atoms: C2_3  and  C3_4 
ROOT
ATOM      1  C3  UNL d   1      -3.582   3.317  -5.694  0.00  0.00    -0.075 A 
ATOM      2  C4  UNL d   1      -3.595   1.979  -5.275  0.00  0.00     0.002 A 
ATOM      3  C5  UNL d   1      -4.797   1.277  -5.186  0.00  0.00     0.002 A 
ATOM      4  C6  UNL d   1      -5.999   1.904  -5.505  0.00  0.00    -0.004 A 
ATOM      5  C7  UNL d   1      -6.000   3.238  -5.906  0.00  0.00     0.002 A 
ATOM      6  C8  UNL d   1      -4.798   3.942  -6.000  0.00  0.00     0.002 A 
ENDROOT
BRANCH   1   7
ATOM      7  C2  UNL d   1      -2.281   4.074  -5.820  0.00  0.00     0.056 C 
BRANCH   7   8
ATOM      8  C1  UNL d   1      -1.664   4.482  -4.478  0.00  0.00     0.007 C 
ATOM      9  C   UNL d   1      -1.737   3.384  -3.425  0.00  0.00     0.009 C 
ENDBRANCH   7   8
ENDBRANCH   1   7
TORSDOF 2
ENDMDL
