MODEL 1
REMARK minimizedAffinity 1.11841464
REMARK minimizedRMSD -1
REMARK  2 active torsions:
REMARK  status: ('A' for Active; 'I' for Inactive)
REMARK    1  A    between atoms: C1_2  and  C2_3 
REMARK    2  A    between atoms: C2_3  and  C3_4 
ROOT
ATOM      1  C3  UNL d   1      -3.556   2.425  -5.029  0.00  0.00    -0.075 A 
ATOM      2  C4  UNL d   1      -3.602   3.612  -5.774  0.00  0.00     0.002 A 
ATOM      3  C5  UNL d   1      -4.817   4.260  -5.998  0.00  0.00     0.002 A 
ATOM      4  C6  UNL d   1      -5.999   3.727  -5.490  0.00  0.00    -0.004 A 
ATOM      5  C7  UNL d   1      -5.967   2.539  -4.762  0.00  0.00     0.002 A 
ATOM      6  C8  UNL d   1      -4.752   1.890  -4.532  0.00  0.00     0.002 A 
ENDROOT
BRANCH   1   7
ATOM      7  C2  UNL d   1      -2.241   1.734  -4.758  0.00  0.00     0.056 C 
BRANCH   7   8
ATOM      8  C1  UNL d   1      -1.175   2.643  -4.138  0.00  0.00     0.007 C 
ATOM      9  C   UNL d   1       0.079   1.892  -3.709  0.00  0.00     0.009 C 
ENDBRANCH   7   8
ENDBRANCH   1   7
TORSDOF 2
ENDMDL
