MODEL 1
REMARK minimizedAffinity 2.27528143
REMARK minimizedRMSD -1
REMARK  2 active torsions:
REMARK  status: ('A' for Active; 'I' for Inactive)
REMARK    1  A    between atoms: C1_2  and  C2_3 
REMARK    2  A    between atoms: C2_3  and  C3_4 
ROOT
ATOM      1  C3  UNL d   1      -3.224   3.235  -4.705  0.00  0.00    -0.075 A 
ATOM      2  C4  UNL d   1      -3.850   3.799  -5.826  0.00  0.00     0.002 A 
ATOM      3  C5  UNL d   1      -5.230   3.686  -6.000  0.00  0.00     0.002 A 
ATOM      4  C6  UNL d   1      -5.999   3.000  -5.062  0.00  0.00    -0.004 A 
ATOM      5  C7  UNL d   1      -5.386   2.422  -3.953  0.00  0.00     0.002 A 
ATOM      6  C8  UNL d   1      -4.006   2.537  -3.775  0.00  0.00     0.002 A 
ENDROOT
BRANCH   1   7
ATOM      7  C2  UNL d   1      -1.736   3.379  -4.497  0.00  0.00     0.056 C 
BRANCH   7   8
ATOM      8  C1  UNL d   1      -1.113   2.263  -3.651  0.00  0.00     0.007 C 
ATOM      9  C   UNL d   1       0.275   1.855  -4.125  0.00  0.00     0.009 C 
ENDBRANCH   7   8
ENDBRANCH   1   7
TORSDOF 2
ENDMDL
