MODEL 1
REMARK minimizedAffinity 1.36978281
REMARK minimizedRMSD -1
REMARK  2 active torsions:
REMARK  status: ('A' for Active; 'I' for Inactive)
REMARK    1  A    between atoms: C1_2  and  C2_3 
REMARK    2  A    between atoms: C2_3  and  C3_4 
ROOT
ATOM      1  C3  UNL d   1      -4.509   2.472  -3.799  0.00  0.00    -0.075 A 
ATOM      2  C4  UNL d   1      -4.922   1.134  -3.881  0.00  0.00     0.002 A 
ATOM      3  C5  UNL d   1      -5.659   0.686  -4.978  0.00  0.00     0.002 A 
ATOM      4  C6  UNL d   1      -6.000   1.570  -6.000  0.00  0.00    -0.004 A 
ATOM      5  C7  UNL d   1      -5.609   2.905  -5.921  0.00  0.00     0.002 A 
ATOM      6  C8  UNL d   1      -4.868   3.355  -4.826  0.00  0.00     0.002 A 
ENDROOT
BRANCH   1   7
ATOM      7  C2  UNL d   1      -3.687   2.956  -2.629  0.00  0.00     0.056 C 
BRANCH   7   8
ATOM      8  C1  UNL d   1      -3.365   1.867  -1.600  0.00  0.00     0.007 C 
ATOM      9  C   UNL d   1      -1.909   1.875  -1.152  0.00  0.00     0.009 C 
ENDBRANCH   7   8
ENDBRANCH   1   7
TORSDOF 2
ENDMDL
