MODEL 1
REMARK minimizedAffinity 4.23385668
REMARK minimizedRMSD -1
REMARK  2 active torsions:
REMARK  status: ('A' for Active; 'I' for Inactive)
REMARK    1  A    between atoms: C1_2  and  C2_3 
REMARK    2  A    between atoms: C2_3  and  C3_4 
ROOT
ATOM      1  C3  UNL d   1       0.238   1.450  -0.596  0.00  0.00    -0.075 A 
ATOM      2  C4  UNL d   1       0.737   0.262  -0.042  0.00  0.00     0.002 A 
ATOM      3  C5  UNL d   1       0.991   0.170   1.327  0.00  0.00     0.002 A 
ATOM      4  C6  UNL d   1       0.759   1.265   2.156  0.00  0.00    -0.004 A 
ATOM      5  C7  UNL d   1       0.279   2.455   1.615  0.00  0.00     0.002 A 
ATOM      6  C8  UNL d   1       0.020   2.549   0.246  0.00  0.00     0.002 A 
ENDROOT
BRANCH   1   7
ATOM      7  C2  UNL d   1      -0.067   1.546  -2.071  0.00  0.00     0.056 C 
BRANCH   7   8
ATOM      8  C1  UNL d   1       1.086   1.099  -2.977  0.00  0.00     0.007 C 
ATOM      9  C   UNL d   1       0.834   1.380  -4.452  0.00  0.00     0.009 C 
ENDBRANCH   7   8
ENDBRANCH   1   7
TORSDOF 2
ENDMDL
