MODEL 1
REMARK minimizedAffinity 2.68193913
REMARK minimizedRMSD -1
REMARK  2 active torsions:
REMARK  status: ('A' for Active; 'I' for Inactive)
REMARK    1  A    between atoms: C1_2  and  C2_3 
REMARK    2  A    between atoms: C2_3  and  C3_4 
ROOT
ATOM      1  C3  UNL d   1       0.789  -0.248  -0.136  0.00  0.00    -0.075 A 
ATOM      2  C4  UNL d   1       0.968   0.692  -1.161  0.00  0.00     0.002 A 
ATOM      3  C5  UNL d   1       0.647   2.034  -0.956  0.00  0.00     0.002 A 
ATOM      4  C6  UNL d   1       0.134   2.451   0.271  0.00  0.00    -0.004 A 
ATOM      5  C7  UNL d   1      -0.064   1.523   1.290  0.00  0.00     0.002 A 
ATOM      6  C8  UNL d   1       0.260   0.180   1.089  0.00  0.00     0.002 A 
ENDROOT
BRANCH   1   7
ATOM      7  C2  UNL d   1       1.162  -1.697  -0.342  0.00  0.00     0.056 C 
BRANCH   7   8
ATOM      8  C1  UNL d   1       0.009  -2.572  -0.847  0.00  0.00     0.007 C 
ATOM      9  C   UNL d   1       0.441  -3.990  -1.196  0.00  0.00     0.009 C 
ENDBRANCH   7   8
ENDBRANCH   1   7
TORSDOF 2
ENDMDL
