MODEL 1
REMARK minimizedAffinity 2.17229867
REMARK minimizedRMSD -1
REMARK  2 active torsions:
REMARK  status: ('A' for Active; 'I' for Inactive)
REMARK    1  A    between atoms: C1_2  and  C2_3 
REMARK    2  A    between atoms: C2_3  and  C3_4 
ROOT
ATOM      1  C3  UNL d   1      -0.919   1.783  -0.978  0.00  0.00    -0.075 A 
ATOM      2  C4  UNL d   1      -0.968   2.928  -0.168  0.00  0.00     0.002 A 
ATOM      3  C5  UNL d   1      -0.289   2.963   1.050  0.00  0.00     0.002 A 
ATOM      4  C6  UNL d   1       0.437   1.854   1.479  0.00  0.00    -0.004 A 
ATOM      5  C7  UNL d   1       0.479   0.706   0.690  0.00  0.00     0.002 A 
ATOM      6  C8  UNL d   1      -0.195   0.670  -0.531  0.00  0.00     0.002 A 
ENDROOT
BRANCH   1   7
ATOM      7  C2  UNL d   1      -1.627   1.750  -2.311  0.00  0.00     0.056 C 
BRANCH   7   8
ATOM      8  C1  UNL d   1      -3.116   2.105  -2.236  0.00  0.00     0.007 C 
ATOM      9  C   UNL d   1      -3.729   2.412  -3.595  0.00  0.00     0.009 C 
ENDBRANCH   7   8
ENDBRANCH   1   7
TORSDOF 2
ENDMDL
