MODEL 1
REMARK minimizedAffinity 9.14469433
REMARK minimizedRMSD -1
REMARK  2 active torsions:
REMARK  status: ('A' for Active; 'I' for Inactive)
REMARK    1  A    between atoms: C1_2  and  C2_3 
REMARK    2  A    between atoms: C2_3  and  C3_4 
ROOT
ATOM      1  C3  UNL d   1       0.246   2.418   0.908  0.00  0.00    -0.075 A 
ATOM      2  C4  UNL d   1      -0.491   2.375  -0.284  0.00  0.00     0.002 A 
ATOM      3  C5  UNL d   1      -0.669   1.169  -0.964  0.00  0.00     0.002 A 
ATOM      4  C6  UNL d   1      -0.105  -0.004  -0.467  0.00  0.00    -0.004 A 
ATOM      5  C7  UNL d   1       0.643   0.030   0.707  0.00  0.00     0.002 A 
ATOM      6  C8  UNL d   1       0.819   1.234   1.392  0.00  0.00     0.002 A 
ENDROOT
BRANCH   1   7
ATOM      7  C2  UNL d   1       0.417   3.713   1.664  0.00  0.00     0.056 C 
BRANCH   7   8
ATOM      8  C1  UNL d   1       1.414   4.683   1.021  0.00  0.00     0.007 C 
ATOM      9  C   UNL d   1       0.780   5.999   0.592  0.00  0.00     0.009 C 
ENDBRANCH   7   8
ENDBRANCH   1   7
TORSDOF 2
ENDMDL
