MODEL 1
REMARK minimizedAffinity 2.35203934
REMARK minimizedRMSD -1
REMARK  1 active torsions:
REMARK  status: ('A' for Active; 'I' for Inactive)
REMARK    1  A    between atoms: C1_2  and  C2_3 
ROOT
ATOM      1  C2  UNL d   1       2.277  -0.681  -0.510  0.00  0.00    -0.077 A 
ATOM      2  C3  UNL d   1       1.227  -1.610  -0.485  0.00  0.00     0.002 A 
ATOM      3  C4  UNL d   1      -0.034  -1.238  -0.014  0.00  0.00     0.002 A 
ATOM      4  C5  UNL d   1      -0.257   0.064   0.431  0.00  0.00    -0.004 A 
ATOM      5  C6  UNL d   1       0.782   0.994   0.413  0.00  0.00     0.002 A 
ATOM      6  C7  UNL d   1       2.043   0.623  -0.056  0.00  0.00     0.002 A 
ENDROOT
BRANCH   1   7
ATOM      7  C1  UNL d   1       3.624  -1.067  -1.063  0.00  0.00     0.055 C 
ATOM      8  C   UNL d   1       3.485  -1.923  -2.313  0.00  0.00     0.019 C 
ENDBRANCH   1   7
TORSDOF 1
ENDMDL
