MODEL 1
REMARK minimizedAffinity 9.45635128
REMARK minimizedRMSD -1
REMARK  1 active torsions:
REMARK  status: ('A' for Active; 'I' for Inactive)
REMARK    1  A    between atoms: C1_2  and  C2_3 
ROOT
ATOM      1  C2  UNL d   1      -2.349  -5.128  -2.318  0.00  0.00    -0.077 A 
ATOM      2  C3  UNL d   1      -2.014  -5.841  -1.158  0.00  0.00     0.002 A 
ATOM      3  C4  UNL d   1      -0.942  -5.432  -0.363  0.00  0.00     0.002 A 
ATOM      4  C5  UNL d   1      -0.198  -4.308  -0.717  0.00  0.00    -0.004 A 
ATOM      5  C6  UNL d   1      -0.522  -3.594  -1.870  0.00  0.00     0.002 A 
ATOM      6  C7  UNL d   1      -1.593  -4.001  -2.666  0.00  0.00     0.002 A 
ENDROOT
BRANCH   1   7
ATOM      7  C1  UNL d   1      -3.536  -5.538  -3.151  0.00  0.00     0.055 C 
ATOM      8  C   UNL d   1      -3.108  -5.994  -4.538  0.00  0.00     0.019 C 
ENDBRANCH   1   7
TORSDOF 1
ENDMDL
