MODEL 1
REMARK minimizedAffinity -0.612859547
REMARK minimizedRMSD -1
REMARK  1 active torsions:
REMARK  status: ('A' for Active; 'I' for Inactive)
REMARK    1  A    between atoms: C1_2  and  C2_3 
ROOT
ATOM      1  C2  UNL d   1       2.340  -1.754  -0.889  0.00  0.00    -0.077 A 
ATOM      2  C3  UNL d   1       2.957  -0.512  -0.682  0.00  0.00     0.002 A 
ATOM      3  C4  UNL d   1       4.104  -0.165  -1.399  0.00  0.00     0.002 A 
ATOM      4  C5  UNL d   1       4.640  -1.052  -2.329  0.00  0.00    -0.004 A 
ATOM      5  C6  UNL d   1       4.035  -2.291  -2.541  0.00  0.00     0.002 A 
ATOM      6  C7  UNL d   1       2.889  -2.639  -1.824  0.00  0.00     0.002 A 
ENDROOT
BRANCH   1   7
ATOM      7  C1  UNL d   1       1.075  -2.110  -0.152  0.00  0.00     0.055 C 
ATOM      8  C   UNL d   1      -0.156  -1.845  -1.007  0.00  0.00     0.019 C 
ENDBRANCH   1   7
TORSDOF 1
ENDMDL
