MODEL 1
REMARK minimizedAffinity -1.19591343
REMARK minimizedRMSD -1
REMARK  1 active torsions:
REMARK  status: ('A' for Active; 'I' for Inactive)
REMARK    1  A    between atoms: C1_2  and  C2_3 
ROOT
ATOM      1  C2  UNL d   1       1.321  -1.445  -0.402  0.00  0.00    -0.077 A 
ATOM      2  C3  UNL d   1       0.107  -2.011  -0.817  0.00  0.00     0.002 A 
ATOM      3  C4  UNL d   1      -1.042  -1.224  -0.918  0.00  0.00     0.002 A 
ATOM      4  C5  UNL d   1      -0.987   0.134  -0.608  0.00  0.00    -0.004 A 
ATOM      5  C6  UNL d   1       0.214   0.706  -0.192  0.00  0.00     0.002 A 
ATOM      6  C7  UNL d   1       1.363  -0.080  -0.090  0.00  0.00     0.002 A 
ENDROOT
BRANCH   1   7
ATOM      7  C1  UNL d   1       2.572  -2.281  -0.340  0.00  0.00     0.055 C 
ATOM      8  C   UNL d   1       2.968  -2.786  -1.720  0.00  0.00     0.019 C 
ENDBRANCH   1   7
TORSDOF 1
ENDMDL
