MODEL 1
REMARK minimizedAffinity 0.730306625
REMARK minimizedRMSD -1
REMARK  1 active torsions:
REMARK  status: ('A' for Active; 'I' for Inactive)
REMARK    1  A    between atoms: C1_2  and  C2_3 
ROOT
ATOM      1  C2  UNL d   1       1.164  -1.606  -0.571  0.00  0.00    -0.077 A 
ATOM      2  C3  UNL d   1       0.104  -2.476  -0.866  0.00  0.00     0.002 A 
ATOM      3  C4  UNL d   1      -1.191  -1.981  -1.030  0.00  0.00     0.002 A 
ATOM      4  C5  UNL d   1      -1.438  -0.615  -0.906  0.00  0.00    -0.004 A 
ATOM      5  C6  UNL d   1      -0.391   0.258  -0.611  0.00  0.00     0.002 A 
ATOM      6  C7  UNL d   1       0.904  -0.236  -0.445  0.00  0.00     0.002 A 
ENDROOT
BRANCH   1   7
ATOM      7  C1  UNL d   1       2.569  -2.132  -0.442  0.00  0.00     0.055 C 
ATOM      8  C   UNL d   1       3.560  -1.252  -1.189  0.00  0.00     0.019 C 
ENDBRANCH   1   7
TORSDOF 1
ENDMDL
