MODEL 1
REMARK minimizedAffinity -3.33890653
REMARK minimizedRMSD -1
REMARK  1 active torsions:
REMARK  status: ('A' for Active; 'I' for Inactive)
REMARK    1  A    between atoms: C1_2  and  C2_3 
ROOT
ATOM      1  C2  UNL d   1       1.493   0.225  -0.423  0.00  0.00    -0.077 A 
ATOM      2  C3  UNL d   1       2.770   0.707  -0.744  0.00  0.00     0.002 A 
ATOM      3  C4  UNL d   1       3.811  -0.180  -1.022  0.00  0.00     0.002 A 
ATOM      4  C5  UNL d   1       3.585  -1.555  -0.987  0.00  0.00    -0.004 A 
ATOM      5  C6  UNL d   1       2.319  -2.044  -0.667  0.00  0.00     0.002 A 
ATOM      6  C7  UNL d   1       1.278  -1.159  -0.387  0.00  0.00     0.002 A 
ENDROOT
BRANCH   1   7
ATOM      7  C1  UNL d   1       0.357   1.181  -0.171  0.00  0.00     0.055 C 
ATOM      8  C   UNL d   1       0.525   1.903   1.158  0.00  0.00     0.019 C 
ENDBRANCH   1   7
TORSDOF 1
ENDMDL
