MODEL 1
REMARK minimizedAffinity 3.18299747
REMARK minimizedRMSD -1
REMARK  0 active torsions:
REMARK  status: ('A' for Active; 'I' for Inactive)
ROOT
ATOM      1  C   UNL d   1       1.884  -2.632  -0.751  0.00  0.00     0.172 C 
ATOM      2  N   UNL d   1       2.562  -1.369  -0.580  0.00  0.00    -0.070 N 
ATOM      3  C1  UNL d   1       3.906  -1.206  -0.368  0.00  0.00    -0.004 A 
ATOM      4  C2  UNL d   1       4.154   0.145  -0.257  0.00  0.00    -0.047 A 
ATOM      5  C3  UNL d   1       2.918   0.817  -0.406  0.00  0.00    -0.047 A 
ATOM      6  C4  UNL d   1       1.949  -0.144  -0.604  0.00  0.00    -0.004 A 
ENDROOT
TORSDOF 0
ENDMDL
