MODEL 1
REMARK minimizedAffinity 5.03642178
REMARK minimizedRMSD -1
REMARK  0 active torsions:
REMARK  status: ('A' for Active; 'I' for Inactive)
ROOT
ATOM      1  C   UNL d   1       3.468  -0.107  -0.754  0.00  0.00     0.172 C 
ATOM      2  N   UNL d   1       4.254   1.078  -0.504  0.00  0.00    -0.070 N 
ATOM      3  C1  UNL d   1       3.764   2.351  -0.385  0.00  0.00    -0.004 A 
ATOM      4  C2  UNL d   1       4.829   3.194  -0.150  0.00  0.00    -0.047 A 
ATOM      5  C3  UNL d   1       6.000   2.400  -0.129  0.00  0.00    -0.047 A 
ATOM      6  C4  UNL d   1       5.615   1.094  -0.351  0.00  0.00    -0.004 A 
ENDROOT
TORSDOF 0
ENDMDL
