MODEL 1
REMARK minimizedAffinity 2.40971446
REMARK minimizedRMSD -1
REMARK  0 active torsions:
REMARK  status: ('A' for Active; 'I' for Inactive)
ROOT
ATOM      1  C   UNL d   1       2.972  -1.168  -0.293  0.00  0.00     0.172 C 
ATOM      2  N   UNL d   1       4.080  -0.245  -0.369  0.00  0.00    -0.070 N 
ATOM      3  C1  UNL d   1       5.171  -0.237   0.459  0.00  0.00    -0.004 A 
ATOM      4  C2  UNL d   1       5.996   0.792   0.059  0.00  0.00    -0.047 A 
ATOM      5  C3  UNL d   1       5.380   1.424  -1.047  0.00  0.00    -0.047 A 
ATOM      6  C4  UNL d   1       4.195   0.762  -1.291  0.00  0.00    -0.004 A 
ENDROOT
TORSDOF 0
ENDMDL
