MODEL 1
REMARK minimizedAffinity 6.48545647
REMARK minimizedRMSD -1
REMARK  0 active torsions:
REMARK  status: ('A' for Active; 'I' for Inactive)
ROOT
ATOM      1  C   UNL d   1       1.308   1.299   0.234  0.00  0.00     0.172 C 
ATOM      2  N   UNL d   1       2.736   1.358   0.028  0.00  0.00    -0.070 N 
ATOM      3  C1  UNL d   1       3.498   0.388  -0.566  0.00  0.00    -0.004 A 
ATOM      4  C2  UNL d   1       4.806   0.823  -0.571  0.00  0.00    -0.047 A 
ATOM      5  C3  UNL d   1       4.831   2.098   0.042  0.00  0.00    -0.047 A 
ATOM      6  C4  UNL d   1       3.536   2.406   0.403  0.00  0.00    -0.004 A 
ENDROOT
TORSDOF 0
ENDMDL
