MODEL 1
REMARK minimizedAffinity 1.49109161
REMARK minimizedRMSD -1
REMARK  0 active torsions:
REMARK  status: ('A' for Active; 'I' for Inactive)
ROOT
ATOM      1  C   UNL d   1       1.147  -2.669  -0.768  0.00  0.00     0.172 C 
ATOM      2  N   UNL d   1       1.967  -1.481  -0.765  0.00  0.00    -0.070 N 
ATOM      3  C1  UNL d   1       1.505  -0.193  -0.710  0.00  0.00    -0.004 A 
ATOM      4  C2  UNL d   1       2.597   0.648  -0.727  0.00  0.00    -0.047 A 
ATOM      5  C3  UNL d   1       3.755  -0.162  -0.794  0.00  0.00    -0.047 A 
ATOM      6  C4  UNL d   1       3.336  -1.476  -0.817  0.00  0.00    -0.004 A 
ENDROOT
TORSDOF 0
ENDMDL
