MODEL 1
REMARK minimizedAffinity 4.01885509
REMARK minimizedRMSD -1
REMARK  0 active torsions:
REMARK  status: ('A' for Active; 'I' for Inactive)
ROOT
ATOM      1  C   UNL d   1       1.393  -2.625  -0.361  0.00  0.00     0.172 C 
ATOM      2  N   UNL d   1       2.267  -1.532  -0.718  0.00  0.00    -0.070 N 
ATOM      3  C1  UNL d   1       2.350  -0.331  -0.066  0.00  0.00    -0.004 A 
ATOM      4  C2  UNL d   1       3.295   0.436  -0.712  0.00  0.00    -0.047 A 
ATOM      5  C3  UNL d   1       3.798  -0.331  -1.790  0.00  0.00    -0.047 A 
ATOM      6  C4  UNL d   1       3.143  -1.545  -1.771  0.00  0.00    -0.004 A 
ENDROOT
TORSDOF 0
ENDMDL
