MODEL 1
REMARK minimizedAffinity 3.21771622
REMARK minimizedRMSD -1
REMARK  0 active torsions:
REMARK  status: ('A' for Active; 'I' for Inactive)
ROOT
ATOM      1  C   UNL d   1       4.345   0.872  -1.071  0.00  0.00     0.172 C 
ATOM      2  N   UNL d   1       3.384  -0.202  -0.987  0.00  0.00    -0.070 N 
ATOM      3  C1  UNL d   1       2.023  -0.058  -0.992  0.00  0.00    -0.004 A 
ATOM      4  C2  UNL d   1       1.465  -1.314  -0.896  0.00  0.00    -0.047 A 
ATOM      5  C3  UNL d   1       2.528  -2.246  -0.830  0.00  0.00    -0.047 A 
ATOM      6  C4  UNL d   1       3.705  -1.530  -0.888  0.00  0.00    -0.004 A 
ENDROOT
TORSDOF 0
ENDMDL
