MODEL 1
REMARK minimizedAffinity 1.14369607
REMARK minimizedRMSD -1
REMARK  0 active torsions:
REMARK  status: ('A' for Active; 'I' for Inactive)
ROOT
ATOM      1  C   UNL d   1      -0.302   1.099  -0.216  0.00  0.00     0.023 A 
ATOM      2  C1  UNL d   1       0.331   1.678  -1.316  0.00  0.00     0.003 A 
ATOM      3  C2  UNL d   1       1.331   2.634  -1.124  0.00  0.00     0.048 A 
ATOM      4  C3  UNL d   1       1.693   3.005   0.170  0.00  0.00     0.023 A 
ATOM      5  C4  UNL d   1       1.063   2.428   1.274  0.00  0.00     0.048 A 
ATOM      6  C5  UNL d   1       0.063   1.473   1.077  0.00  0.00     0.003 A 
ATOM      7  I   UNL d   1       3.181   4.427   0.459  0.00  0.00    -0.146 I 
ENDROOT
TORSDOF 0
ENDMDL
