MODEL 1
REMARK minimizedAffinity 4.13991261
REMARK minimizedRMSD -1
REMARK  0 active torsions:
REMARK  status: ('A' for Active; 'I' for Inactive)
ROOT
ATOM      1  C   UNL d   1       5.264   5.372  -5.967  0.00  0.00     0.023 A 
ATOM      2  C1  UNL d   1       5.348   3.980  -5.955  0.00  0.00     0.003 A 
ATOM      3  C2  UNL d   1       4.183   3.209  -5.963  0.00  0.00     0.048 A 
ATOM      4  C3  UNL d   1       2.939   3.837  -5.984  0.00  0.00     0.023 A 
ATOM      5  C4  UNL d   1       2.850   5.230  -5.997  0.00  0.00     0.048 A 
ATOM      6  C5  UNL d   1       4.016   5.997  -5.988  0.00  0.00     0.003 A 
ATOM      7  I   UNL d   1       1.204   2.692  -5.997  0.00  0.00    -0.146 I 
ENDROOT
TORSDOF 0
ENDMDL
