MODEL 1
REMARK minimizedAffinity 0.73990041
REMARK minimizedRMSD -1
REMARK  0 active torsions:
REMARK  status: ('A' for Active; 'I' for Inactive)
ROOT
ATOM      1  C   UNL d   1       1.881   2.167  -2.701  0.00  0.00     0.023 A 
ATOM      2  C1  UNL d   1       1.082   2.964  -1.881  0.00  0.00     0.003 A 
ATOM      3  C2  UNL d   1       0.360   2.387  -0.834  0.00  0.00     0.048 A 
ATOM      4  C3  UNL d   1       0.442   1.013  -0.612  0.00  0.00     0.023 A 
ATOM      5  C4  UNL d   1       1.241   0.211  -1.429  0.00  0.00     0.048 A 
ATOM      6  C5  UNL d   1       1.960   0.792  -2.475  0.00  0.00     0.003 A 
ATOM      7  I   UNL d   1      -0.632   0.152   0.946  0.00  0.00    -0.146 I 
ENDROOT
TORSDOF 0
ENDMDL
