MODEL 1
REMARK minimizedAffinity 0.726774335
REMARK minimizedRMSD -1
REMARK  0 active torsions:
REMARK  status: ('A' for Active; 'I' for Inactive)
ROOT
ATOM      1  C   UNL d   1      -0.225   2.753  -5.999  0.00  0.00     0.023 A 
ATOM      2  C1  UNL d   1      -1.551   2.318  -5.999  0.00  0.00     0.003 A 
ATOM      3  C2  UNL d   1      -2.592   3.249  -5.999  0.00  0.00     0.048 A 
ATOM      4  C3  UNL d   1      -2.301   4.612  -5.999  0.00  0.00     0.023 A 
ATOM      5  C4  UNL d   1      -0.976   5.052  -6.000  0.00  0.00     0.048 A 
ATOM      6  C5  UNL d   1       0.062   4.118  -5.999  0.00  0.00     0.003 A 
ATOM      7  I   UNL d   1      -3.849   5.999  -6.000  0.00  0.00    -0.146 I 
ENDROOT
TORSDOF 0
ENDMDL
