MODEL 1
REMARK minimizedAffinity 1.49619806
REMARK minimizedRMSD -1
REMARK  0 active torsions:
REMARK  status: ('A' for Active; 'I' for Inactive)
ROOT
ATOM      1  C   UNL d   1       4.029   4.708  -5.979  0.00  0.00     0.023 A 
ATOM      2  C1  UNL d   1       3.562   3.394  -5.957  0.00  0.00     0.003 A 
ATOM      3  C2  UNL d   1       2.189   3.140  -5.956  0.00  0.00     0.048 A 
ATOM      4  C3  UNL d   1       1.289   4.204  -5.976  0.00  0.00     0.023 A 
ATOM      5  C4  UNL d   1       1.752   5.521  -5.999  0.00  0.00     0.048 A 
ATOM      6  C5  UNL d   1       3.125   5.770  -5.999  0.00  0.00     0.003 A 
ATOM      7  I   UNL d   1      -0.755   3.829  -5.974  0.00  0.00    -0.146 I 
ENDROOT
TORSDOF 0
ENDMDL
