MODEL 1
REMARK minimizedAffinity -2.74278498
REMARK minimizedRMSD -1
REMARK  0 active torsions:
REMARK  status: ('A' for Active; 'I' for Inactive)
ROOT
ATOM      1  C   UNL d   1       5.130   4.489  -5.987  0.00  0.00     0.023 A 
ATOM      2  C1  UNL d   1       4.274   3.388  -5.994  0.00  0.00     0.003 A 
ATOM      3  C2  UNL d   1       2.891   3.577  -5.996  0.00  0.00     0.048 A 
ATOM      4  C3  UNL d   1       2.370   4.871  -5.992  0.00  0.00     0.023 A 
ATOM      5  C4  UNL d   1       3.223   5.976  -5.986  0.00  0.00     0.048 A 
ATOM      6  C5  UNL d   1       4.605   5.782  -5.982  0.00  0.00     0.003 A 
ATOM      7  I   UNL d   1       0.311   5.155  -5.996  0.00  0.00    -0.146 I 
ENDROOT
TORSDOF 0
ENDMDL
