MODEL 1
REMARK minimizedAffinity 2.40894675
REMARK minimizedRMSD -1
REMARK  0 active torsions:
REMARK  status: ('A' for Active; 'I' for Inactive)
ROOT
ATOM      1  C   UNL d   1      -2.871   4.974  -5.820  0.00  0.00     0.023 A 
ATOM      2  C1  UNL d   1      -2.720   3.593  -5.940  0.00  0.00     0.003 A 
ATOM      3  C2  UNL d   1      -1.442   3.031  -5.986  0.00  0.00     0.048 A 
ATOM      4  C3  UNL d   1      -0.320   3.855  -5.911  0.00  0.00     0.023 A 
ATOM      5  C4  UNL d   1      -0.467   5.238  -5.791  0.00  0.00     0.048 A 
ATOM      6  C5  UNL d   1      -1.746   5.796  -5.746  0.00  0.00     0.003 A 
ATOM      7  I   UNL d   1       1.582   3.021  -5.980  0.00  0.00    -0.146 I 
ENDROOT
TORSDOF 0
ENDMDL
