MODEL 1
REMARK minimizedAffinity 0.235846594
REMARK minimizedRMSD -1
REMARK  0 active torsions:
REMARK  status: ('A' for Active; 'I' for Inactive)
ROOT
ATOM      1  C   UNL d   1      -4.264   4.944  -5.996  0.00  0.00     0.023 A 
ATOM      2  C1  UNL d   1      -3.845   3.613  -5.999  0.00  0.00     0.003 A 
ATOM      3  C2  UNL d   1      -2.482   3.309  -6.000  0.00  0.00     0.048 A 
ATOM      4  C3  UNL d   1      -1.543   4.340  -5.996  0.00  0.00     0.023 A 
ATOM      5  C4  UNL d   1      -1.958   5.673  -5.992  0.00  0.00     0.048 A 
ATOM      6  C5  UNL d   1      -3.321   5.972  -5.993  0.00  0.00     0.003 A 
ATOM      7  I   UNL d   1       0.486   3.889  -5.997  0.00  0.00    -0.146 I 
ENDROOT
TORSDOF 0
ENDMDL
