MODEL 1
REMARK minimizedAffinity -1.92665458
REMARK minimizedRMSD -1
REMARK  0 active torsions:
REMARK  status: ('A' for Active; 'I' for Inactive)
ROOT
ATOM      1  C   UNL d   1      -0.001   2.893  -5.977  0.00  0.00     0.023 A 
ATOM      2  C1  UNL d   1      -1.309   2.408  -5.985  0.00  0.00     0.003 A 
ATOM      3  C2  UNL d   1      -2.385   3.299  -5.991  0.00  0.00     0.048 A 
ATOM      4  C3  UNL d   1      -2.146   4.672  -5.990  0.00  0.00     0.023 A 
ATOM      5  C4  UNL d   1      -0.838   5.162  -5.984  0.00  0.00     0.048 A 
ATOM      6  C5  UNL d   1       0.234   4.268  -5.976  0.00  0.00     0.003 A 
ATOM      7  I   UNL d   1      -3.745   6.000  -6.000  0.00  0.00    -0.146 I 
ENDROOT
TORSDOF 0
ENDMDL
