MODEL 1
REMARK minimizedAffinity -1.92153347
REMARK minimizedRMSD -1
REMARK  0 active torsions:
REMARK  status: ('A' for Active; 'I' for Inactive)
ROOT
ATOM      1  C   UNL d   1      -0.148   2.879  -5.986  0.00  0.00     0.023 A 
ATOM      2  C1  UNL d   1       0.091   4.253  -5.981  0.00  0.00     0.003 A 
ATOM      3  C2  UNL d   1      -0.979   5.150  -5.983  0.00  0.00     0.048 A 
ATOM      4  C3  UNL d   1      -2.287   4.665  -5.989  0.00  0.00     0.023 A 
ATOM      5  C4  UNL d   1      -2.531   3.291  -5.994  0.00  0.00     0.048 A 
ATOM      6  C5  UNL d   1      -1.458   2.398  -5.992  0.00  0.00     0.003 A 
ATOM      7  I   UNL d   1      -3.882   5.998  -5.992  0.00  0.00    -0.146 I 
ENDROOT
TORSDOF 0
ENDMDL
