MODEL 1
REMARK minimizedAffinity -2.32448697
REMARK minimizedRMSD -1
REMARK  0 active torsions:
REMARK  status: ('A' for Active; 'I' for Inactive)
ROOT
ATOM      1  C   UNL d   1      -4.033   4.261  -4.180  0.00  0.00     0.023 A 
ATOM      2  C1  UNL d   1      -3.855   3.749  -5.465  0.00  0.00     0.003 A 
ATOM      3  C2  UNL d   1      -2.568   3.608  -5.989  0.00  0.00     0.048 A 
ATOM      4  C3  UNL d   1      -1.464   3.978  -5.222  0.00  0.00     0.023 A 
ATOM      5  C4  UNL d   1      -1.638   4.490  -3.935  0.00  0.00     0.048 A 
ATOM      6  C5  UNL d   1      -2.926   4.631  -3.415  0.00  0.00     0.003 A 
ATOM      7  I   UNL d   1       0.451   3.768  -6.000  0.00  0.00    -0.146 I 
ENDROOT
TORSDOF 0
ENDMDL
