MODEL 1
REMARK minimizedAffinity -1.68355703
REMARK minimizedRMSD -1
REMARK  0 active torsions:
REMARK  status: ('A' for Active; 'I' for Inactive)
ROOT
ATOM      1  C   UNL d   1      -3.364   4.371  -5.994  0.00  0.00     0.023 A 
ATOM      2  C1  UNL d   1      -2.276   5.244  -5.993  0.00  0.00     0.003 A 
ATOM      3  C2  UNL d   1      -0.975   4.740  -5.994  0.00  0.00     0.048 A 
ATOM      4  C3  UNL d   1      -0.768   3.361  -5.997  0.00  0.00     0.023 A 
ATOM      5  C4  UNL d   1      -1.853   2.483  -5.999  0.00  0.00     0.048 A 
ATOM      6  C5  UNL d   1      -3.153   2.992  -5.997  0.00  0.00     0.003 A 
ATOM      7  I   UNL d   1       1.169   2.607  -5.998  0.00  0.00    -0.146 I 
ENDROOT
TORSDOF 0
ENDMDL
