MODEL 1
REMARK minimizedAffinity -1.21407986
REMARK minimizedRMSD -1
REMARK  0 active torsions:
REMARK  status: ('A' for Active; 'I' for Inactive)
ROOT
ATOM      1  C   UNL d   1       0.716   4.086  -5.881  0.00  0.00     0.023 A 
ATOM      2  C1  UNL d   1       0.528   5.468  -5.883  0.00  0.00     0.003 A 
ATOM      3  C2  UNL d   1      -0.763   5.999  -5.917  0.00  0.00     0.048 A 
ATOM      4  C3  UNL d   1      -1.862   5.142  -5.949  0.00  0.00     0.023 A 
ATOM      5  C4  UNL d   1      -1.679   3.758  -5.946  0.00  0.00     0.048 A 
ATOM      6  C5  UNL d   1      -0.387   3.232  -5.912  0.00  0.00     0.003 A 
ATOM      7  I   UNL d   1      -3.785   5.929  -6.000  0.00  0.00    -0.146 I 
ENDROOT
TORSDOF 0
ENDMDL
