MODEL 1
REMARK minimizedAffinity 7.93224525
REMARK minimizedRMSD -1
REMARK  0 active torsions:
REMARK  status: ('A' for Active; 'I' for Inactive)
ROOT
ATOM      1  C   UNL d   1       2.178  -0.547  -4.064  0.00  0.00     0.023 A 
ATOM      2  C1  UNL d   1       2.409   0.748  -4.528  0.00  0.00     0.003 A 
ATOM      3  C2  UNL d   1       2.472   1.813  -3.627  0.00  0.00     0.048 A 
ATOM      4  C3  UNL d   1       2.306   1.576  -2.263  0.00  0.00     0.023 A 
ATOM      5  C4  UNL d   1       2.076   0.281  -1.794  0.00  0.00     0.048 A 
ATOM      6  C5  UNL d   1       2.012  -0.780  -2.699  0.00  0.00     0.003 A 
ATOM      7  I   UNL d   1       2.401   3.159  -0.921  0.00  0.00    -0.146 I 
ENDROOT
TORSDOF 0
ENDMDL
