MODEL 1
REMARK minimizedAffinity 6.30767393
REMARK minimizedRMSD -1
REMARK  0 active torsions:
REMARK  status: ('A' for Active; 'I' for Inactive)
ROOT
ATOM      1  C   UNL d   1      -1.153   1.881   1.541  0.00  0.00     0.023 A 
ATOM      2  C1  UNL d   1      -0.768   2.364   2.792  0.00  0.00     0.003 A 
ATOM      3  C2  UNL d   1       0.552   2.764   3.011  0.00  0.00     0.048 A 
ATOM      4  C3  UNL d   1       1.481   2.679   1.975  0.00  0.00     0.023 A 
ATOM      5  C4  UNL d   1       1.100   2.197   0.722  0.00  0.00     0.048 A 
ATOM      6  C5  UNL d   1      -0.221   1.798   0.508  0.00  0.00     0.003 A 
ATOM      7  I   UNL d   1       3.446   3.273   2.298  0.00  0.00    -0.146 I 
ENDROOT
TORSDOF 0
ENDMDL
