MODEL 1
REMARK minimizedAffinity -0.955833137
REMARK minimizedRMSD -1
REMARK  0 active torsions:
REMARK  status: ('A' for Active; 'I' for Inactive)
ROOT
ATOM      1  C   UNL d   1      -1.833   0.261   1.847  0.00  0.00    -0.002 A 
ATOM      2  C1  UNL d   1      -0.974   1.345   1.733  0.00  0.00     0.010 A 
ATOM      3  C2  UNL d   1       0.170   1.263   0.937  0.00  0.00     0.041 A 
ATOM      4  C3  UNL d   1       0.437   0.064   0.248  0.00  0.00    -0.075 A 
ATOM      5  S   UNL d   1       1.778  -0.265  -0.785  0.00  0.00     0.015 SA
ATOM      6  C4  UNL d   1       1.240  -1.852  -1.101  0.00  0.00     0.022 A 
ATOM      7  C5  UNL d   1       0.069  -2.140  -0.442  0.00  0.00     0.026 A 
ATOM      8  C6  UNL d   1      -0.414  -1.041   0.346  0.00  0.00    -0.082 A 
ATOM      9  C7  UNL d   1      -1.565  -0.927   1.162  0.00  0.00     0.045 A 
ENDROOT
TORSDOF 0
ENDMDL
