MODEL 1
REMARK minimizedAffinity -1.91427028
REMARK minimizedRMSD -1
REMARK  0 active torsions:
REMARK  status: ('A' for Active; 'I' for Inactive)
ROOT
ATOM      1  C   UNL d   1      -0.761   3.372   0.801  0.00  0.00    -0.002 A 
ATOM      2  C1  UNL d   1      -0.132   3.392  -0.435  0.00  0.00     0.010 A 
ATOM      3  C2  UNL d   1       0.261   2.203  -1.052  0.00  0.00     0.041 A 
ATOM      4  C3  UNL d   1       0.006   0.980  -0.399  0.00  0.00    -0.075 A 
ATOM      5  S   UNL d   1       0.396  -0.601  -0.965  0.00  0.00     0.015 SA
ATOM      6  C4  UNL d   1      -0.264  -1.341   0.422  0.00  0.00     0.022 A 
ATOM      7  C5  UNL d   1      -0.774  -0.418   1.305  0.00  0.00     0.026 A 
ATOM      8  C6  UNL d   1      -0.627   0.934   0.846  0.00  0.00    -0.082 A 
ATOM      9  C7  UNL d   1      -1.012   2.158   1.446  0.00  0.00     0.045 A 
ENDROOT
TORSDOF 0
ENDMDL
