MODEL 1
REMARK minimizedAffinity -2.22580123
REMARK minimizedRMSD -1
REMARK  0 active torsions:
REMARK  status: ('A' for Active; 'I' for Inactive)
ROOT
ATOM      1  C   UNL d   1      -0.578   0.113   1.398  0.00  0.00    -0.002 A 
ATOM      2  C1  UNL d   1      -1.487  -0.910   1.629  0.00  0.00     0.010 A 
ATOM      3  C2  UNL d   1      -1.415  -2.101   0.905  0.00  0.00     0.041 A 
ATOM      4  C3  UNL d   1      -0.402  -2.251  -0.062  0.00  0.00    -0.075 A 
ATOM      5  S   UNL d   1      -0.119  -3.622  -1.068  0.00  0.00     0.015 SA
ATOM      6  C4  UNL d   1       1.217  -2.884  -1.827  0.00  0.00     0.022 A 
ATOM      7  C5  UNL d   1       1.455  -1.622  -1.337  0.00  0.00     0.026 A 
ATOM      8  C6  UNL d   1       0.526  -1.236  -0.312  0.00  0.00    -0.082 A 
ATOM      9  C7  UNL d   1       0.426  -0.039   0.438  0.00  0.00     0.045 A 
ENDROOT
TORSDOF 0
ENDMDL
