MODEL 1
REMARK minimizedAffinity -0.376300395
REMARK minimizedRMSD -1
REMARK  0 active torsions:
REMARK  status: ('A' for Active; 'I' for Inactive)
ROOT
ATOM      1  C   UNL d   1      -0.815   0.828   1.923  0.00  0.00    -0.002 A 
ATOM      2  C1  UNL d   1      -1.948   0.105   1.580  0.00  0.00     0.010 A 
ATOM      3  C2  UNL d   1      -1.881  -0.910   0.623  0.00  0.00     0.041 A 
ATOM      4  C3  UNL d   1      -0.643  -1.190   0.013  0.00  0.00    -0.075 A 
ATOM      5  S   UNL d   1      -0.321  -2.388  -1.185  0.00  0.00     0.015 SA
ATOM      6  C4  UNL d   1       1.329  -1.969  -1.268  0.00  0.00     0.022 A 
ATOM      7  C5  UNL d   1       1.644  -0.942  -0.411  0.00  0.00     0.026 A 
ATOM      8  C6  UNL d   1       0.513  -0.476   0.342  0.00  0.00    -0.082 A 
ATOM      9  C7  UNL d   1       0.412   0.547   1.315  0.00  0.00     0.045 A 
ENDROOT
TORSDOF 0
ENDMDL
