MODEL 1
REMARK minimizedAffinity -2.09081459
REMARK minimizedRMSD -1
REMARK  0 active torsions:
REMARK  status: ('A' for Active; 'I' for Inactive)
ROOT
ATOM      1  C   UNL d   1       0.003   0.231   0.968  0.00  0.00    -0.002 A 
ATOM      2  C1  UNL d   1      -1.107  -0.554   1.249  0.00  0.00     0.010 A 
ATOM      3  C2  UNL d   1      -1.345  -1.729   0.533  0.00  0.00     0.041 A 
ATOM      4  C3  UNL d   1      -0.440  -2.106  -0.479  0.00  0.00    -0.075 A 
ATOM      5  S   UNL d   1      -0.529  -3.503  -1.485  0.00  0.00     0.015 SA
ATOM      6  C4  UNL d   1       0.904  -3.091  -2.311  0.00  0.00     0.022 A 
ATOM      7  C5  UNL d   1       1.450  -1.920  -1.843  0.00  0.00     0.026 A 
ATOM      8  C6  UNL d   1       0.685  -1.332  -0.779  0.00  0.00    -0.082 A 
ATOM      9  C7  UNL d   1       0.899  -0.147  -0.036  0.00  0.00     0.045 A 
ENDROOT
TORSDOF 0
ENDMDL
