MODEL 1
REMARK minimizedAffinity -2.03623414
REMARK minimizedRMSD -1
REMARK  0 active torsions:
REMARK  status: ('A' for Active; 'I' for Inactive)
ROOT
ATOM      1  C   UNL d   1      -1.850   0.239   2.049  0.00  0.00    -0.002 A 
ATOM      2  C1  UNL d   1      -1.241   1.427   1.671  0.00  0.00     0.010 A 
ATOM      3  C2  UNL d   1      -0.277   1.442   0.661  0.00  0.00     0.041 A 
ATOM      4  C3  UNL d   1       0.066   0.231   0.029  0.00  0.00    -0.075 A 
ATOM      5  S   UNL d   1       1.219   0.008  -1.233  0.00  0.00     0.015 SA
ATOM      6  C4  UNL d   1       0.929  -1.670  -1.302  0.00  0.00     0.022 A 
ATOM      7  C5  UNL d   1      -0.020  -2.068  -0.391  0.00  0.00     0.026 A 
ATOM      8  C6  UNL d   1      -0.534  -0.979   0.391  0.00  0.00    -0.082 A 
ATOM      9  C7  UNL d   1      -1.507  -0.961   1.419  0.00  0.00     0.045 A 
ENDROOT
TORSDOF 0
ENDMDL
