MODEL 1
REMARK minimizedAffinity -0.510760069
REMARK minimizedRMSD -1
REMARK  0 active torsions:
REMARK  status: ('A' for Active; 'I' for Inactive)
ROOT
ATOM      1  C   UNL d   1      -0.479  -0.419   2.034  0.00  0.00    -0.002 A 
ATOM      2  C1  UNL d   1       0.390  -1.042   1.149  0.00  0.00     0.010 A 
ATOM      3  C2  UNL d   1       0.957  -0.330   0.090  0.00  0.00     0.041 A 
ATOM      4  C3  UNL d   1       0.634   1.032  -0.065  0.00  0.00    -0.075 A 
ATOM      5  S   UNL d   1       1.208   2.104  -1.287  0.00  0.00     0.015 SA
ATOM      6  C4  UNL d   1       0.314   3.414  -0.664  0.00  0.00     0.022 A 
ATOM      7  C5  UNL d   1      -0.411   3.060   0.450  0.00  0.00     0.026 A 
ATOM      8  C6  UNL d   1      -0.238   1.682   0.813  0.00  0.00    -0.082 A 
ATOM      9  C7  UNL d   1      -0.797   0.932   1.876  0.00  0.00     0.045 A 
ENDROOT
TORSDOF 0
ENDMDL
