MODEL 1
REMARK minimizedAffinity -3.95935154
REMARK minimizedRMSD -1
REMARK  0 active torsions:
REMARK  status: ('A' for Active; 'I' for Inactive)
ROOT
ATOM      1  C   UNL d   1      -0.896   3.133   1.062  0.00  0.00    -0.002 A 
ATOM      2  C1  UNL d   1      -0.201   3.163  -0.138  0.00  0.00     0.010 A 
ATOM      3  C2  UNL d   1       0.428   2.015  -0.624  0.00  0.00     0.041 A 
ATOM      4  C3  UNL d   1       0.344   0.824   0.124  0.00  0.00    -0.075 A 
ATOM      5  S   UNL d   1       1.035  -0.705  -0.274  0.00  0.00     0.015 SA
ATOM      6  C4  UNL d   1       0.422  -1.434   1.140  0.00  0.00     0.022 A 
ATOM      7  C5  UNL d   1      -0.294  -0.547   1.908  0.00  0.00     0.026 A 
ATOM      8  C6  UNL d   1      -0.351   0.769   1.336  0.00  0.00    -0.082 A 
ATOM      9  C7  UNL d   1      -0.977   1.950   1.801  0.00  0.00     0.045 A 
ENDROOT
TORSDOF 0
ENDMDL
