MODEL 1
REMARK minimizedAffinity -2.44325709
REMARK minimizedRMSD -1
REMARK  1 active torsions:
REMARK  status: ('A' for Active; 'I' for Inactive)
REMARK    1  A    between atoms: C1_2  and  C2_3 
ROOT
ATOM      1  C2  UNL d   1      -1.459  -0.778  -0.517  0.00  0.00    -0.081 A 
ATOM      2  C3  UNL d   1      -0.992  -0.683   0.799  0.00  0.00     0.006 A 
ATOM      3  C4  UNL d   1       0.201  -0.014   1.081  0.00  0.00     0.002 A 
ATOM      4  C5  UNL d   1       0.943   0.577   0.052  0.00  0.00    -0.080 A 
ATOM      5  C6  UNL d   1       2.211   1.324   0.344  0.00  0.00     0.076 C 
ATOM      6  C7  UNL d   1       0.486   0.466  -1.265  0.00  0.00     0.002 A 
ATOM      7  C8  UNL d   1      -0.707  -0.203  -1.547  0.00  0.00     0.006 A 
ENDROOT
BRANCH   1   8
ATOM      8  C1  UNL d   1      -2.779  -1.443  -0.816  0.00  0.00     0.054 C 
ATOM      9  C   UNL d   1      -3.763  -1.260   0.330  0.00  0.00     0.018 C 
ENDBRANCH   1   8
TORSDOF 1
ENDMDL
