MODEL 1
REMARK minimizedAffinity -2.48616958
REMARK minimizedRMSD -1
REMARK  1 active torsions:
REMARK  status: ('A' for Active; 'I' for Inactive)
REMARK    1  A    between atoms: C1_2  and  C2_3 
ROOT
ATOM      1  C2  UNL d   1      -0.931   0.261  -0.879  0.00  0.00    -0.081 A 
ATOM      2  C3  UNL d   1       0.276  -0.447  -0.829  0.00  0.00     0.006 A 
ATOM      3  C4  UNL d   1       1.353   0.041  -0.085  0.00  0.00     0.002 A 
ATOM      4  C5  UNL d   1       1.238   1.239   0.628  0.00  0.00    -0.080 A 
ATOM      5  C6  UNL d   1       2.376   1.758   1.455  0.00  0.00     0.076 C 
ATOM      6  C7  UNL d   1       0.038   1.955   0.564  0.00  0.00     0.002 A 
ATOM      7  C8  UNL d   1      -1.039   1.469  -0.181  0.00  0.00     0.006 A 
ENDROOT
BRANCH   1   8
ATOM      8  C1  UNL d   1      -2.115  -0.295  -1.628  0.00  0.00     0.054 C 
ATOM      9  C   UNL d   1      -2.844  -1.350  -0.807  0.00  0.00     0.018 C 
ENDBRANCH   1   8
TORSDOF 1
ENDMDL
