MODEL 1
REMARK minimizedAffinity -3.33169842
REMARK minimizedRMSD -1
REMARK  1 active torsions:
REMARK  status: ('A' for Active; 'I' for Inactive)
REMARK    1  A    between atoms: C1_2  and  C2_3 
ROOT
ATOM      1  C2  UNL d   1      -1.410  -0.692   0.596  0.00  0.00    -0.081 A 
ATOM      2  C3  UNL d   1      -2.302  -0.988  -0.443  0.00  0.00     0.006 A 
ATOM      3  C4  UNL d   1      -2.099  -0.464  -1.722  0.00  0.00     0.002 A 
ATOM      4  C5  UNL d   1      -0.998   0.359  -1.985  0.00  0.00    -0.080 A 
ATOM      5  C6  UNL d   1      -0.752   0.904  -3.361  0.00  0.00     0.076 C 
ATOM      6  C7  UNL d   1      -0.117   0.669  -0.944  0.00  0.00     0.002 A 
ATOM      7  C8  UNL d   1      -0.320   0.145   0.335  0.00  0.00     0.006 A 
ENDROOT
BRANCH   1   8
ATOM      8  C1  UNL d   1      -1.590  -1.308   1.959  0.00  0.00     0.054 C 
ATOM      9  C   UNL d   1      -0.384  -2.150   2.350  0.00  0.00     0.018 C 
ENDBRANCH   1   8
TORSDOF 1
ENDMDL
