MODEL 1
REMARK minimizedAffinity -4.53173923
REMARK minimizedRMSD -1
REMARK  1 active torsions:
REMARK  status: ('A' for Active; 'I' for Inactive)
REMARK    1  A    between atoms: C1_2  and  C2_3 
ROOT
ATOM      1  C2  UNL d   1      -1.914  -1.370  -0.062  0.00  0.00    -0.081 A 
ATOM      2  C3  UNL d   1      -2.462  -2.635  -0.309  0.00  0.00     0.006 A 
ATOM      3  C4  UNL d   1      -2.714  -3.055  -1.617  0.00  0.00     0.002 A 
ATOM      4  C5  UNL d   1      -2.415  -2.222  -2.700  0.00  0.00    -0.080 A 
ATOM      5  C6  UNL d   1      -2.653  -2.672  -4.111  0.00  0.00     0.076 C 
ATOM      6  C7  UNL d   1      -1.884  -0.951  -2.453  0.00  0.00     0.002 A 
ATOM      7  C8  UNL d   1      -1.633  -0.530  -1.145  0.00  0.00     0.006 A 
ENDROOT
BRANCH   1   8
ATOM      8  C1  UNL d   1      -1.581  -0.940   1.344  0.00  0.00     0.054 C 
ATOM      9  C   UNL d   1      -0.492  -1.816   1.947  0.00  0.00     0.018 C 
ENDBRANCH   1   8
TORSDOF 1
ENDMDL
