MODEL 1
REMARK minimizedAffinity -1.55118167
REMARK minimizedRMSD -1
REMARK  1 active torsions:
REMARK  status: ('A' for Active; 'I' for Inactive)
REMARK    1  A    between atoms: C1_2  and  C2_3 
ROOT
ATOM      1  C2  UNL d   1      -1.504  -0.613  -0.251  0.00  0.00    -0.081 A 
ATOM      2  C3  UNL d   1      -2.323  -1.721  -0.002  0.00  0.00     0.006 A 
ATOM      3  C4  UNL d   1      -2.686  -2.580  -1.042  0.00  0.00     0.002 A 
ATOM      4  C5  UNL d   1      -2.231  -2.350  -2.345  0.00  0.00    -0.080 A 
ATOM      5  C6  UNL d   1      -2.590  -3.282  -3.464  0.00  0.00     0.076 C 
ATOM      6  C7  UNL d   1      -1.427  -1.233  -2.596  0.00  0.00     0.002 A 
ATOM      7  C8  UNL d   1      -1.064  -0.374  -1.558  0.00  0.00     0.006 A 
ENDROOT
BRANCH   1   8
ATOM      8  C1  UNL d   1      -1.057   0.279   0.879  0.00  0.00     0.054 C 
ATOM      9  C   UNL d   1      -0.226   1.447   0.367  0.00  0.00     0.018 C 
ENDBRANCH   1   8
TORSDOF 1
ENDMDL
