MODEL 1
REMARK minimizedAffinity -1.59992516
REMARK minimizedRMSD -1
REMARK  1 active torsions:
REMARK  status: ('A' for Active; 'I' for Inactive)
REMARK    1  A    between atoms: C1_2  and  C2_3 
ROOT
ATOM      1  C2  UNL d   1      -1.322  -0.986   0.344  0.00  0.00    -0.081 A 
ATOM      2  C3  UNL d   1      -1.119   0.399   0.384  0.00  0.00     0.006 A 
ATOM      3  C4  UNL d   1      -1.170   1.156  -0.788  0.00  0.00     0.002 A 
ATOM      4  C5  UNL d   1      -1.434   0.543  -2.018  0.00  0.00    -0.080 A 
ATOM      5  C6  UNL d   1      -1.521   1.349  -3.280  0.00  0.00     0.076 C 
ATOM      6  C7  UNL d   1      -1.620  -0.843  -2.060  0.00  0.00     0.002 A 
ATOM      7  C8  UNL d   1      -1.568  -1.601  -0.888  0.00  0.00     0.006 A 
ENDROOT
BRANCH   1   8
ATOM      8  C1  UNL d   1      -1.332  -1.796   1.616  0.00  0.00     0.054 C 
ATOM      9  C   UNL d   1      -2.323  -2.948   1.530  0.00  0.00     0.018 C 
ENDBRANCH   1   8
TORSDOF 1
ENDMDL
