MODEL 1
REMARK minimizedAffinity -5.93242884
REMARK minimizedRMSD -1
REMARK  1 active torsions:
REMARK  status: ('A' for Active; 'I' for Inactive)
REMARK    1  A    between atoms: C1_2  and  C2_3 
ROOT
ATOM      1  C2  UNL d   1      -0.293   0.702   0.029  0.00  0.00    -0.081 A 
ATOM      2  C3  UNL d   1       0.801   0.119   0.682  0.00  0.00     0.006 A 
ATOM      3  C4  UNL d   1       1.892   0.900   1.069  0.00  0.00     0.002 A 
ATOM      4  C5  UNL d   1       1.906   2.276   0.818  0.00  0.00    -0.080 A 
ATOM      5  C6  UNL d   1       3.058   3.131   1.255  0.00  0.00     0.076 C 
ATOM      6  C7  UNL d   1       0.821   2.855   0.151  0.00  0.00     0.002 A 
ATOM      7  C8  UNL d   1      -0.271   2.075  -0.237  0.00  0.00     0.006 A 
ENDROOT
BRANCH   1   8
ATOM      8  C1  UNL d   1      -1.500  -0.126  -0.332  0.00  0.00     0.054 C 
ATOM      9  C   UNL d   1      -1.696  -0.190  -1.840  0.00  0.00     0.018 C 
ENDBRANCH   1   8
TORSDOF 1
ENDMDL
