MODEL 1
REMARK minimizedAffinity -5.35503912
REMARK minimizedRMSD -1
REMARK  1 active torsions:
REMARK  status: ('A' for Active; 'I' for Inactive)
REMARK    1  A    between atoms: C1_2  and  C2_3 
ROOT
ATOM      1  C2  UNL d   1       0.866   0.607  -0.277  0.00  0.00    -0.081 A 
ATOM      2  C3  UNL d   1       0.252   0.803  -1.520  0.00  0.00     0.006 A 
ATOM      3  C4  UNL d   1      -1.039   0.322  -1.756  0.00  0.00     0.002 A 
ATOM      4  C5  UNL d   1      -1.739  -0.355  -0.752  0.00  0.00    -0.080 A 
ATOM      5  C6  UNL d   1      -3.136  -0.850  -0.983  0.00  0.00     0.076 C 
ATOM      6  C7  UNL d   1      -1.119  -0.567   0.484  0.00  0.00     0.002 A 
ATOM      7  C8  UNL d   1       0.172  -0.087   0.721  0.00  0.00     0.006 A 
ENDROOT
BRANCH   1   8
ATOM      8  C1  UNL d   1       2.231   1.180   0.002  0.00  0.00     0.054 C 
ATOM      9  C   UNL d   1       2.268   1.894   1.346  0.00  0.00     0.018 C 
ENDBRANCH   1   8
TORSDOF 1
ENDMDL
