MODEL 1
REMARK minimizedAffinity -4.91776371
REMARK minimizedRMSD -1
REMARK  1 active torsions:
REMARK  status: ('A' for Active; 'I' for Inactive)
REMARK    1  A    between atoms: C1_2  and  C2_3 
ROOT
ATOM      1  C2  UNL d   1      -2.026  -1.646   0.062  0.00  0.00    -0.081 A 
ATOM      2  C3  UNL d   1      -2.833  -1.242  -1.008  0.00  0.00     0.006 A 
ATOM      3  C4  UNL d   1      -2.456  -0.165  -1.813  0.00  0.00     0.002 A 
ATOM      4  C5  UNL d   1      -1.261   0.520  -1.568  0.00  0.00    -0.080 A 
ATOM      5  C6  UNL d   1      -0.829   1.659  -2.444  0.00  0.00     0.076 C 
ATOM      6  C7  UNL d   1      -0.463   0.128  -0.488  0.00  0.00     0.002 A 
ATOM      7  C8  UNL d   1      -0.840  -0.948   0.318  0.00  0.00     0.006 A 
ENDROOT
BRANCH   1   8
ATOM      8  C1  UNL d   1      -2.398  -2.847   0.893  0.00  0.00     0.054 C 
ATOM      9  C   UNL d   1      -1.209  -3.354   1.697  0.00  0.00     0.018 C 
ENDBRANCH   1   8
TORSDOF 1
ENDMDL
