MODEL 1
REMARK minimizedAffinity -3.13960814
REMARK minimizedRMSD -1
REMARK  1 active torsions:
REMARK  status: ('A' for Active; 'I' for Inactive)
REMARK    1  A    between atoms: C1_2  and  C2_3 
ROOT
ATOM      1  C2  UNL d   1       5.125   3.436  -2.708  0.00  0.00    -0.081 A 
ATOM      2  C3  UNL d   1       5.112   4.539  -1.845  0.00  0.00     0.006 A 
ATOM      3  C4  UNL d   1       4.357   4.510  -0.670  0.00  0.00     0.002 A 
ATOM      4  C5  UNL d   1       3.609   3.376  -0.336  0.00  0.00    -0.080 A 
ATOM      5  C6  UNL d   1       2.817   3.320   0.937  0.00  0.00     0.076 C 
ATOM      6  C7  UNL d   1       3.607   2.281  -1.207  0.00  0.00     0.002 A 
ATOM      7  C8  UNL d   1       4.362   2.310  -2.382  0.00  0.00     0.006 A 
ENDROOT
BRANCH   1   8
ATOM      8  C1  UNL d   1       5.990   3.440  -3.943  0.00  0.00     0.054 C 
ATOM      9  C   UNL d   1       5.341   4.230  -5.071  0.00  0.00     0.018 C 
ENDBRANCH   1   8
TORSDOF 1
ENDMDL
