MODEL 1
REMARK minimizedAffinity -0.650242567
REMARK minimizedRMSD -1
REMARK  1 active torsions:
REMARK  status: ('A' for Active; 'I' for Inactive)
REMARK    1  A    between atoms: C1_2  and  C2_3 
ROOT
ATOM      1  C2  UNL d   1      -0.570  -0.806   1.164  0.00  0.00    -0.081 A 
ATOM      2  C3  UNL d   1      -0.212   0.544   1.261  0.00  0.00     0.006 A 
ATOM      3  C4  UNL d   1      -1.195   1.535   1.310  0.00  0.00     0.002 A 
ATOM      4  C5  UNL d   1      -2.551   1.193   1.270  0.00  0.00    -0.080 A 
ATOM      5  C6  UNL d   1      -3.617   2.246   1.353  0.00  0.00     0.076 C 
ATOM      6  C7  UNL d   1      -2.909  -0.154   1.156  0.00  0.00     0.002 A 
ATOM      7  C8  UNL d   1      -1.926  -1.146   1.106  0.00  0.00     0.006 A 
ENDROOT
BRANCH   1   8
ATOM      8  C1  UNL d   1       0.486  -1.882   1.176  0.00  0.00     0.054 C 
ATOM      9  C   UNL d   1       1.145  -1.994   2.543  0.00  0.00     0.018 C 
ENDBRANCH   1   8
TORSDOF 1
ENDMDL
