MODEL 1
REMARK minimizedAffinity -1.52993178
REMARK minimizedRMSD -1
REMARK  1 active torsions:
REMARK  status: ('A' for Active; 'I' for Inactive)
REMARK    1  A    between atoms: C1_2  and  C2_3 
ROOT
ATOM      1  C2  UNL d   1      -0.982  -0.666   0.214  0.00  0.00    -0.081 A 
ATOM      2  C3  UNL d   1      -1.885  -0.940  -0.820  0.00  0.00     0.006 A 
ATOM      3  C4  UNL d   1      -1.593  -0.566  -2.134  0.00  0.00     0.002 A 
ATOM      4  C5  UNL d   1      -0.390   0.081  -2.436  0.00  0.00    -0.080 A 
ATOM      5  C6  UNL d   1      -0.050   0.461  -3.847  0.00  0.00     0.076 C 
ATOM      6  C7  UNL d   1       0.505   0.371  -1.401  0.00  0.00     0.002 A 
ATOM      7  C8  UNL d   1       0.213  -0.002  -0.087  0.00  0.00     0.006 A 
ENDROOT
BRANCH   1   8
ATOM      8  C1  UNL d   1      -1.265  -1.125   1.621  0.00  0.00     0.054 C 
ATOM      9  C   UNL d   1      -0.093  -1.910   2.194  0.00  0.00     0.018 C 
ENDBRANCH   1   8
TORSDOF 1
ENDMDL
