MODEL 1
REMARK minimizedAffinity -4.43761396
REMARK minimizedRMSD -1
REMARK  1 active torsions:
REMARK  status: ('A' for Active; 'I' for Inactive)
REMARK    1  A    between atoms: C1_2  and  C2_3 
ROOT
ATOM      1  C2  UNL d   1       0.802   0.157  -0.232  0.00  0.00    -0.081 A 
ATOM      2  C3  UNL d   1       0.114   0.468  -1.411  0.00  0.00     0.006 A 
ATOM      3  C4  UNL d   1      -1.261   0.245  -1.509  0.00  0.00     0.002 A 
ATOM      4  C5  UNL d   1      -1.973  -0.285  -0.428  0.00  0.00    -0.080 A 
ATOM      5  C6  UNL d   1      -3.455  -0.501  -0.509  0.00  0.00     0.076 C 
ATOM      6  C7  UNL d   1      -1.283  -0.612   0.745  0.00  0.00     0.002 A 
ATOM      7  C8  UNL d   1       0.092  -0.389   0.843  0.00  0.00     0.006 A 
ENDROOT
BRANCH   1   8
ATOM      8  C1  UNL d   1       2.273   0.457  -0.100  0.00  0.00     0.054 C 
ATOM      9  C   UNL d   1       2.509   1.903   0.312  0.00  0.00     0.018 C 
ENDBRANCH   1   8
TORSDOF 1
ENDMDL
