MODEL 1
REMARK minimizedAffinity -5.60128403
REMARK minimizedRMSD -1
REMARK  1 active torsions:
REMARK  status: ('A' for Active; 'I' for Inactive)
REMARK    1  A    between atoms: C1_2  and  C2_3 
ROOT
ATOM      1  C2  UNL d   1      -1.026   0.679   1.126  0.00  0.00    -0.081 A 
ATOM      2  C3  UNL d   1      -1.625  -0.203   0.218  0.00  0.00     0.006 A 
ATOM      3  C4  UNL d   1      -0.960  -0.573  -0.953  0.00  0.00     0.002 A 
ATOM      4  C5  UNL d   1       0.317  -0.074  -1.233  0.00  0.00    -0.080 A 
ATOM      5  C6  UNL d   1       1.054  -0.487  -2.472  0.00  0.00     0.076 C 
ATOM      6  C7  UNL d   1       0.908   0.821  -0.334  0.00  0.00     0.002 A 
ATOM      7  C8  UNL d   1       0.243   1.192   0.837  0.00  0.00     0.006 A 
ENDROOT
BRANCH   1   8
ATOM      8  C1  UNL d   1      -1.714   1.029   2.421  0.00  0.00     0.054 C 
ATOM      9  C   UNL d   1      -0.736   1.628   3.422  0.00  0.00     0.018 C 
ENDBRANCH   1   8
TORSDOF 1
ENDMDL
