MODEL 1
REMARK minimizedAffinity -3.48492646
REMARK minimizedRMSD -1
REMARK  0 active torsions:
REMARK  status: ('A' for Active; 'I' for Inactive)
ROOT
ATOM      1  C   UNL d   1      -0.652  -2.638   1.477  0.00  0.00     0.023 A 
ATOM      2  C1  UNL d   1       0.301  -2.450   0.476  0.00  0.00     0.003 A 
ATOM      3  C2  UNL d   1       0.535  -1.171  -0.035  0.00  0.00     0.048 A 
ATOM      4  C3  UNL d   1      -0.186  -0.086   0.461  0.00  0.00     0.023 A 
ATOM      5  C4  UNL d   1      -1.140  -0.269   1.463  0.00  0.00     0.048 A 
ATOM      6  C5  UNL d   1      -1.371  -1.549   1.970  0.00  0.00     0.003 A 
ATOM      7  I   UNL d   1       0.161   1.818  -0.298  0.00  0.00    -0.146 I 
ENDROOT
TORSDOF 0
ENDMDL
