MODEL 1
REMARK minimizedAffinity -2.91624665
REMARK minimizedRMSD -1
REMARK  0 active torsions:
REMARK  status: ('A' for Active; 'I' for Inactive)
ROOT
ATOM      1  C   UNL d   1      -0.222  -3.612   0.210  0.00  0.00     0.023 A 
ATOM      2  C1  UNL d   1       0.971  -2.985  -0.149  0.00  0.00     0.003 A 
ATOM      3  C2  UNL d   1       1.017  -1.596  -0.286  0.00  0.00     0.048 A 
ATOM      4  C3  UNL d   1      -0.133  -0.841  -0.061  0.00  0.00     0.023 A 
ATOM      5  C4  UNL d   1      -1.329  -1.464   0.300  0.00  0.00     0.048 A 
ATOM      6  C5  UNL d   1      -1.370  -2.853   0.434  0.00  0.00     0.003 A 
ATOM      7  I   UNL d   1      -0.067   1.227  -0.264  0.00  0.00    -0.146 I 
ENDROOT
TORSDOF 0
ENDMDL
