MODEL 1
REMARK minimizedAffinity -4.02865314
REMARK minimizedRMSD -1
REMARK  0 active torsions:
REMARK  status: ('A' for Active; 'I' for Inactive)
ROOT
ATOM      1  C   UNL d   1      -0.253  -3.232   0.887  0.00  0.00     0.023 A 
ATOM      2  C1  UNL d   1      -1.069  -2.235   1.422  0.00  0.00     0.003 A 
ATOM      3  C2  UNL d   1      -0.944  -0.916   0.980  0.00  0.00     0.048 A 
ATOM      4  C3  UNL d   1      -0.002  -0.602   0.001  0.00  0.00     0.023 A 
ATOM      5  C4  UNL d   1       0.816  -1.596  -0.537  0.00  0.00     0.048 A 
ATOM      6  C5  UNL d   1       0.688  -2.913  -0.091  0.00  0.00     0.003 A 
ATOM      7  I   UNL d   1       0.187   1.360  -0.659  0.00  0.00    -0.146 I 
ENDROOT
TORSDOF 0
ENDMDL
