MODEL 1
REMARK minimizedAffinity 0.393662333
REMARK minimizedRMSD -1
REMARK  0 active torsions:
REMARK  status: ('A' for Active; 'I' for Inactive)
ROOT
ATOM      1  C   UNL d   1      -1.667  -2.835   0.579  0.00  0.00     0.023 A 
ATOM      2  C1  UNL d   1      -0.904  -2.612  -0.567  0.00  0.00     0.003 A 
ATOM      3  C2  UNL d   1      -0.312  -1.365  -0.782  0.00  0.00     0.048 A 
ATOM      4  C3  UNL d   1      -0.487  -0.346   0.154  0.00  0.00     0.023 A 
ATOM      5  C4  UNL d   1      -1.249  -0.565   1.303  0.00  0.00     0.048 A 
ATOM      6  C5  UNL d   1      -1.839  -1.813   1.513  0.00  0.00     0.003 A 
ATOM      7  I   UNL d   1       0.393   1.510  -0.164  0.00  0.00    -0.146 I 
ENDROOT
TORSDOF 0
ENDMDL
