MODEL 1
REMARK minimizedAffinity -3.34044456
REMARK minimizedRMSD -1
REMARK  0 active torsions:
REMARK  status: ('A' for Active; 'I' for Inactive)
ROOT
ATOM      1  C   UNL d   1       1.429   3.576   0.620  0.00  0.00     0.023 A 
ATOM      2  C1  UNL d   1       0.149   3.041   0.477  0.00  0.00     0.003 A 
ATOM      3  C2  UNL d   1      -0.051   1.907  -0.313  0.00  0.00     0.048 A 
ATOM      4  C3  UNL d   1       1.034   1.313  -0.957  0.00  0.00     0.023 A 
ATOM      5  C4  UNL d   1       2.317   1.845  -0.817  0.00  0.00     0.048 A 
ATOM      6  C5  UNL d   1       2.512   2.979  -0.026  0.00  0.00     0.003 A 
ATOM      7  I   UNL d   1       0.739  -0.374  -2.134  0.00  0.00    -0.146 I 
ENDROOT
TORSDOF 0
ENDMDL
