MODEL 1
REMARK minimizedAffinity 1.92909634
REMARK minimizedRMSD -1
REMARK  0 active torsions:
REMARK  status: ('A' for Active; 'I' for Inactive)
ROOT
ATOM      1  C   UNL d   1       5.120  -1.176   4.357  0.00  0.00     0.023 A 
ATOM      2  C1  UNL d   1       5.866  -1.441   5.505  0.00  0.00     0.003 A 
ATOM      3  C2  UNL d   1       5.982  -2.749   5.978  0.00  0.00     0.048 A 
ATOM      4  C3  UNL d   1       5.350  -3.789   5.297  0.00  0.00     0.023 A 
ATOM      5  C4  UNL d   1       4.603  -3.529   4.147  0.00  0.00     0.048 A 
ATOM      6  C5  UNL d   1       4.489  -2.219   3.678  0.00  0.00     0.003 A 
ATOM      7  I   UNL d   1       5.521  -5.738   5.999  0.00  0.00    -0.146 I 
ENDROOT
TORSDOF 0
ENDMDL
