MODEL 1
REMARK minimizedAffinity -4.25512457
REMARK minimizedRMSD -1
REMARK  0 active torsions:
REMARK  status: ('A' for Active; 'I' for Inactive)
ROOT
ATOM      1  C   UNL d   1      -0.054  -3.306  -0.402  0.00  0.00     0.023 A 
ATOM      2  C1  UNL d   1      -0.333  -2.618   0.779  0.00  0.00     0.003 A 
ATOM      3  C2  UNL d   1      -0.259  -1.224   0.810  0.00  0.00     0.048 A 
ATOM      4  C3  UNL d   1       0.094  -0.524  -0.343  0.00  0.00     0.023 A 
ATOM      5  C4  UNL d   1       0.373  -1.209  -1.527  0.00  0.00     0.048 A 
ATOM      6  C5  UNL d   1       0.299  -2.602  -1.554  0.00  0.00     0.003 A 
ATOM      7  I   UNL d   1       0.205   1.551  -0.299  0.00  0.00    -0.146 I 
ENDROOT
TORSDOF 0
ENDMDL
