MODEL 1
REMARK minimizedAffinity -3.99884081
REMARK minimizedRMSD -1
REMARK  0 active torsions:
REMARK  status: ('A' for Active; 'I' for Inactive)
ROOT
ATOM      1  C   UNL d   1       1.979   3.409   0.427  0.00  0.00     0.023 A 
ATOM      2  C1  UNL d   1       2.482   2.433   1.288  0.00  0.00     0.003 A 
ATOM      3  C2  UNL d   1       1.919   1.156   1.301  0.00  0.00     0.048 A 
ATOM      4  C3  UNL d   1       0.854   0.860   0.451  0.00  0.00     0.023 A 
ATOM      5  C4  UNL d   1       0.348   1.833  -0.412  0.00  0.00     0.048 A 
ATOM      6  C5  UNL d   1       0.914   3.110  -0.422  0.00  0.00     0.003 A 
ATOM      7  I   UNL d   1       0.015  -1.041   0.470  0.00  0.00    -0.146 I 
ENDROOT
TORSDOF 0
ENDMDL
