MODEL 1
REMARK minimizedAffinity -4.17662239
REMARK minimizedRMSD -1
REMARK  0 active torsions:
REMARK  status: ('A' for Active; 'I' for Inactive)
ROOT
ATOM      1  C   UNL d   1       0.011  -3.436  -0.721  0.00  0.00     0.023 A 
ATOM      2  C1  UNL d   1       0.456  -2.650  -1.784  0.00  0.00     0.003 A 
ATOM      3  C2  UNL d   1       0.505  -1.261  -1.654  0.00  0.00     0.048 A 
ATOM      4  C3  UNL d   1       0.107  -0.664  -0.458  0.00  0.00     0.023 A 
ATOM      5  C4  UNL d   1      -0.339  -1.446   0.608  0.00  0.00     0.048 A 
ATOM      6  C5  UNL d   1      -0.386  -2.835   0.474  0.00  0.00     0.003 A 
ATOM      7  I   UNL d   1       0.178   1.404  -0.262  0.00  0.00    -0.146 I 
ENDROOT
TORSDOF 0
ENDMDL
