MODEL 1
REMARK minimizedAffinity -3.25081015
REMARK minimizedRMSD -1
REMARK  0 active torsions:
REMARK  status: ('A' for Active; 'I' for Inactive)
ROOT
ATOM      1  C   UNL d   1      -1.083  -2.794   0.746  0.00  0.00     0.023 A 
ATOM      2  C1  UNL d   1       0.121  -2.572   0.077  0.00  0.00     0.003 A 
ATOM      3  C2  UNL d   1       0.553  -1.268  -0.172  0.00  0.00     0.048 A 
ATOM      4  C3  UNL d   1      -0.223  -0.190   0.252  0.00  0.00     0.023 A 
ATOM      5  C4  UNL d   1      -1.428  -0.407   0.922  0.00  0.00     0.048 A 
ATOM      6  C5  UNL d   1      -1.857  -1.712   1.168  0.00  0.00     0.003 A 
ATOM      7  I   UNL d   1       0.418   1.752  -0.117  0.00  0.00    -0.146 I 
ENDROOT
TORSDOF 0
ENDMDL
