MODEL 1
REMARK minimizedAffinity -3.07457447
REMARK minimizedRMSD -1
REMARK  0 active torsions:
REMARK  status: ('A' for Active; 'I' for Inactive)
ROOT
ATOM      1  C   UNL d   1      -0.801  -2.685   0.745  0.00  0.00     0.023 A 
ATOM      2  C1  UNL d   1       0.026  -2.312  -0.315  0.00  0.00     0.003 A 
ATOM      3  C2  UNL d   1       0.352  -0.968  -0.507  0.00  0.00     0.048 A 
ATOM      4  C3  UNL d   1      -0.150  -0.002   0.364  0.00  0.00     0.023 A 
ATOM      5  C4  UNL d   1      -0.977  -0.372   1.427  0.00  0.00     0.048 A 
ATOM      6  C5  UNL d   1      -1.302  -1.716   1.614  0.00  0.00     0.003 A 
ATOM      7  I   UNL d   1       0.335   1.999   0.081  0.00  0.00    -0.146 I 
ENDROOT
TORSDOF 0
ENDMDL
