MODEL 1
REMARK minimizedAffinity -0.636086524
REMARK minimizedRMSD -1
REMARK  0 active torsions:
REMARK  status: ('A' for Active; 'I' for Inactive)
ROOT
ATOM      1  C   UNL d   1      -1.836  -1.915   1.238  0.00  0.00     0.023 A 
ATOM      2  C1  UNL d   1      -2.304  -0.639   1.549  0.00  0.00     0.003 A 
ATOM      3  C2  UNL d   1      -1.573   0.488   1.165  0.00  0.00     0.048 A 
ATOM      4  C3  UNL d   1      -0.375   0.330   0.470  0.00  0.00     0.023 A 
ATOM      5  C4  UNL d   1       0.097  -0.945   0.156  0.00  0.00     0.048 A 
ATOM      6  C5  UNL d   1      -0.636  -2.068   0.542  0.00  0.00     0.003 A 
ATOM      7  I   UNL d   1       0.715   2.005  -0.102  0.00  0.00    -0.146 I 
ENDROOT
TORSDOF 0
ENDMDL
