MODEL 1
REMARK minimizedAffinity -2.41504169
REMARK minimizedRMSD -1
REMARK  0 active torsions:
REMARK  status: ('A' for Active; 'I' for Inactive)
ROOT
ATOM      1  C   UNL d   1      -0.597  -0.622   1.723  0.00  0.00     0.023 A 
ATOM      2  C1  UNL d   1      -0.923  -1.964   1.523  0.00  0.00     0.003 A 
ATOM      3  C2  UNL d   1      -0.898  -2.505   0.236  0.00  0.00     0.048 A 
ATOM      4  C3  UNL d   1      -0.545  -1.700  -0.846  0.00  0.00     0.023 A 
ATOM      5  C4  UNL d   1      -0.217  -0.357  -0.650  0.00  0.00     0.048 A 
ATOM      6  C5  UNL d   1      -0.245   0.180   0.638  0.00  0.00     0.003 A 
ATOM      7  I   UNL d   1      -0.506  -2.503  -2.763  0.00  0.00    -0.146 I 
ENDROOT
TORSDOF 0
ENDMDL
