MODEL 1
REMARK minimizedAffinity 5.12161446
REMARK minimizedRMSD -1
REMARK  0 active torsions:
REMARK  status: ('A' for Active; 'I' for Inactive)
ROOT
ATOM      1  C   UNL d   1      -1.661   5.651   2.474  0.00  0.00     0.023 A 
ATOM      2  C1  UNL d   1      -1.668   4.970   1.256  0.00  0.00     0.003 A 
ATOM      3  C2  UNL d   1      -0.612   4.120   0.924  0.00  0.00     0.048 A 
ATOM      4  C3  UNL d   1       0.448   3.954   1.814  0.00  0.00     0.023 A 
ATOM      5  C4  UNL d   1       0.460   4.632   3.033  0.00  0.00     0.048 A 
ATOM      6  C5  UNL d   1      -0.598   5.482   3.361  0.00  0.00     0.003 A 
ATOM      7  I   UNL d   1       2.022   2.688   1.321  0.00  0.00    -0.146 I 
ENDROOT
TORSDOF 0
ENDMDL
