MODEL 1
REMARK minimizedAffinity 0.206313878
REMARK minimizedRMSD -1
REMARK  0 active torsions:
REMARK  status: ('A' for Active; 'I' for Inactive)
ROOT
ATOM      1  C1  BNZ d   1      -1.835  -3.603   0.960  0.00  0.00     0.000 A 
ATOM      2  C2  BNZ d   1      -1.394  -2.609   1.792  0.00  0.00     0.000 A 
ATOM      3  C3  BNZ d   1      -0.057  -2.403   1.988  0.00  0.00     0.000 A 
ATOM      4  C4  BNZ d   1       0.835  -3.215   1.384  0.00  0.00     0.000 A 
ATOM      5  C5  BNZ d   1       0.405  -4.227   0.550  0.00  0.00     0.000 A 
ATOM      6  C6  BNZ d   1      -0.940  -4.407   0.324  0.00  0.00     0.000 A 
ENDROOT
TORSDOF 0
ENDMDL
