MODEL 1
REMARK minimizedAffinity -2.4178412
REMARK minimizedRMSD -1
REMARK  0 active torsions:
REMARK  status: ('A' for Active; 'I' for Inactive)
ROOT
ATOM      1  C1  BNZ d   1      -4.865  -5.627  -4.961  0.00  0.00     0.000 A 
ATOM      2  C2  BNZ d   1      -4.337  -5.294  -3.742  0.00  0.00     0.000 A 
ATOM      3  C3  BNZ d   1      -2.985  -5.288  -3.543  0.00  0.00     0.000 A 
ATOM      4  C4  BNZ d   1      -2.165  -5.652  -4.550  0.00  0.00     0.000 A 
ATOM      5  C5  BNZ d   1      -2.682  -5.999  -5.782  0.00  0.00     0.000 A 
ATOM      6  C6  BNZ d   1      -4.042  -5.967  -5.990  0.00  0.00     0.000 A 
ENDROOT
TORSDOF 0
ENDMDL
