MODEL 1
REMARK minimizedAffinity 1.80772686
REMARK minimizedRMSD -1
REMARK  0 active torsions:
REMARK  status: ('A' for Active; 'I' for Inactive)
ROOT
ATOM      1  C1  BNZ d   1      -0.075   4.115  -3.813  0.00  0.00     0.000 A 
ATOM      2  C2  BNZ d   1      -0.825   4.501  -4.892  0.00  0.00     0.000 A 
ATOM      3  C3  BNZ d   1      -0.234   5.054  -5.993  0.00  0.00     0.000 A 
ATOM      4  C4  BNZ d   1       1.099   5.257  -5.999  0.00  0.00     0.000 A 
ATOM      5  C5  BNZ d   1       1.868   4.882  -4.915  0.00  0.00     0.000 A 
ATOM      6  C6  BNZ d   1       1.275   4.290  -3.824  0.00  0.00     0.000 A 
ENDROOT
TORSDOF 0
ENDMDL
