MODEL 1
REMARK minimizedAffinity 0.708210528
REMARK minimizedRMSD -1
REMARK  0 active torsions:
REMARK  status: ('A' for Active; 'I' for Inactive)
ROOT
ATOM      1  C1  BNZ d   1       2.196   4.058  -3.518  0.00  0.00     0.000 A 
ATOM      2  C2  BNZ d   1       2.158   4.976  -4.533  0.00  0.00     0.000 A 
ATOM      3  C3  BNZ d   1       1.024   5.153  -5.275  0.00  0.00     0.000 A 
ATOM      4  C4  BNZ d   1      -0.056   4.384  -5.028  0.00  0.00     0.000 A 
ATOM      5  C5  BNZ d   1      -0.031   3.448  -4.014  0.00  0.00     0.000 A 
ATOM      6  C6  BNZ d   1       1.099   3.300  -3.244  0.00  0.00     0.000 A 
ENDROOT
TORSDOF 0
ENDMDL
