MODEL 1
REMARK minimizedAffinity 2.50638628
REMARK minimizedRMSD -1
REMARK  0 active torsions:
REMARK  status: ('A' for Active; 'I' for Inactive)
ROOT
ATOM      1  C1  BNZ d   1       1.487   4.875  -4.925  0.00  0.00     0.000 A 
ATOM      2  C2  BNZ d   1       0.874   5.464  -5.999  0.00  0.00     0.000 A 
ATOM      3  C3  BNZ d   1      -0.475   5.687  -5.999  0.00  0.00     0.000 A 
ATOM      4  C4  BNZ d   1      -1.213   5.286  -4.944  0.00  0.00     0.000 A 
ATOM      5  C5  BNZ d   1      -0.610   4.683  -3.858  0.00  0.00     0.000 A 
ATOM      6  C6  BNZ d   1       0.753   4.495  -3.845  0.00  0.00     0.000 A 
ENDROOT
TORSDOF 0
ENDMDL
