MODEL 1
REMARK minimizedAffinity 0.922370255
REMARK minimizedRMSD -1
REMARK  0 active torsions:
REMARK  status: ('A' for Active; 'I' for Inactive)
ROOT
ATOM      1  C1  BNZ d   1      -4.796  -6.000  -4.693  0.00  0.00     0.000 A 
ATOM      2  C2  BNZ d   1      -4.169  -5.997  -5.911  0.00  0.00     0.000 A 
ATOM      3  C3  BNZ d   1      -2.811  -5.869  -5.999  0.00  0.00     0.000 A 
ATOM      4  C4  BNZ d   1      -2.087  -5.703  -4.874  0.00  0.00     0.000 A 
ATOM      5  C5  BNZ d   1      -2.705  -5.694  -3.639  0.00  0.00     0.000 A 
ATOM      6  C6  BNZ d   1      -4.067  -5.863  -3.552  0.00  0.00     0.000 A 
ENDROOT
TORSDOF 0
ENDMDL
