MODEL 1
REMARK minimizedAffinity 0.406028807
REMARK minimizedRMSD -1
REMARK  0 active torsions:
REMARK  status: ('A' for Active; 'I' for Inactive)
ROOT
ATOM      1  C1  BNZ d   1       1.476   4.525  -5.026  0.00  0.00     0.000 A 
ATOM      2  C2  BNZ d   1       1.121   5.425  -5.995  0.00  0.00     0.000 A 
ATOM      3  C3  BNZ d   1      -0.120   5.999  -5.997  0.00  0.00     0.000 A 
ATOM      4  C4  BNZ d   1      -1.017   5.642  -5.056  0.00  0.00     0.000 A 
ATOM      5  C5  BNZ d   1      -0.677   4.728  -4.078  0.00  0.00     0.000 A 
ATOM      6  C6  BNZ d   1       0.585   4.182  -4.056  0.00  0.00     0.000 A 
ENDROOT
TORSDOF 0
ENDMDL
