MODEL 1
REMARK minimizedAffinity 0.259504765
REMARK minimizedRMSD -1
REMARK  0 active torsions:
REMARK  status: ('A' for Active; 'I' for Inactive)
ROOT
ATOM      1  C1  BNZ d   1       1.652   4.560  -3.397  0.00  0.00     0.000 A 
ATOM      2  C2  BNZ d   1       1.222   5.279  -4.481  0.00  0.00     0.000 A 
ATOM      3  C3  BNZ d   1      -0.001   5.036  -5.041  0.00  0.00     0.000 A 
ATOM      4  C4  BNZ d   1      -0.774   4.050  -4.543  0.00  0.00     0.000 A 
ATOM      5  C5  BNZ d   1      -0.351   3.310  -3.456  0.00  0.00     0.000 A 
ATOM      6  C6  BNZ d   1       0.864   3.584  -2.871  0.00  0.00     0.000 A 
ENDROOT
TORSDOF 0
ENDMDL
