MODEL 1
REMARK minimizedAffinity 2.32911825
REMARK minimizedRMSD -1
REMARK  0 active torsions:
REMARK  status: ('A' for Active; 'I' for Inactive)
ROOT
ATOM      1  C1  BNZ d   1      -0.818   4.446  -3.831  0.00  0.00     0.000 A 
ATOM      2  C2  BNZ d   1      -1.572   4.874  -4.891  0.00  0.00     0.000 A 
ATOM      3  C3  BNZ d   1      -0.983   5.444  -5.984  0.00  0.00     0.000 A 
ATOM      4  C4  BNZ d   1       0.353   5.623  -6.000  0.00  0.00     0.000 A 
ATOM      5  C5  BNZ d   1       1.127   5.205  -4.935  0.00  0.00     0.000 A 
ATOM      6  C6  BNZ d   1       0.534   4.596  -3.853  0.00  0.00     0.000 A 
ENDROOT
TORSDOF 0
ENDMDL
