MODEL 1
REMARK minimizedAffinity 2.18712544
REMARK minimizedRMSD -1
REMARK  0 active torsions:
REMARK  status: ('A' for Active; 'I' for Inactive)
ROOT
ATOM      1  C1  BNZ d   1       0.592   5.983  -5.310  0.00  0.00     0.000 A 
ATOM      2  C2  BNZ d   1       1.662   5.996  -4.456  0.00  0.00     0.000 A 
ATOM      3  C3  BNZ d   1       1.820   5.017  -3.516  0.00  0.00     0.000 A 
ATOM      4  C4  BNZ d   1       0.887   4.049  -3.405  0.00  0.00     0.000 A 
ATOM      5  C5  BNZ d   1      -0.202   4.027  -4.252  0.00  0.00     0.000 A 
ATOM      6  C6  BNZ d   1      -0.337   4.993  -5.223  0.00  0.00     0.000 A 
ENDROOT
TORSDOF 0
ENDMDL
