MODEL 1
REMARK minimizedAffinity 3.92642426
REMARK minimizedRMSD -1
REMARK  0 active torsions:
REMARK  status: ('A' for Active; 'I' for Inactive)
ROOT
ATOM      1  C1  BNZ d   1       2.129  -0.007   2.240  0.00  0.00     0.000 A 
ATOM      2  C2  BNZ d   1       1.763  -1.026   3.079  0.00  0.00     0.000 A 
ATOM      3  C3  BNZ d   1       2.668  -1.974   3.466  0.00  0.00     0.000 A 
ATOM      4  C4  BNZ d   1       3.927  -1.925   2.984  0.00  0.00     0.000 A 
ATOM      5  C5  BNZ d   1       4.309  -0.910   2.130  0.00  0.00     0.000 A 
ATOM      6  C6  BNZ d   1       3.406   0.065   1.773  0.00  0.00     0.000 A 
ENDROOT
TORSDOF 0
ENDMDL
