MODEL 1
REMARK minimizedAffinity 4.1968298
REMARK minimizedRMSD -1
REMARK  0 active torsions:
REMARK  status: ('A' for Active; 'I' for Inactive)
ROOT
ATOM      1  C1  BNZ d   1       1.727   4.541  -4.801  0.00  0.00     0.000 A 
ATOM      2  C2  BNZ d   1       1.121   4.885  -5.980  0.00  0.00     0.000 A 
ATOM      3  C3  BNZ d   1      -0.170   5.333  -5.999  0.00  0.00     0.000 A 
ATOM      4  C4  BNZ d   1      -0.866   5.398  -4.846  0.00  0.00     0.000 A 
ATOM      5  C5  BNZ d   1      -0.272   5.045  -3.650  0.00  0.00     0.000 A 
ATOM      6  C6  BNZ d   1       1.040   4.632  -3.630  0.00  0.00     0.000 A 
ENDROOT
TORSDOF 0
ENDMDL
