MODEL 1
REMARK minimizedAffinity 1.6234349
REMARK minimizedRMSD -1
REMARK  1 active torsions:
REMARK  status: ('A' for Active; 'I' for Inactive)
REMARK    1  A    between atoms: C1_2  and  C2_3 
ROOT
ATOM      1  C2  UNL d   1       3.027   5.983   3.723  0.00  0.00    -0.076 A 
ATOM      2  C3  UNL d   1       3.235   5.964   5.113  0.00  0.00     0.004 A 
ATOM      3  C4  UNL d   1       2.160   5.973   6.000  0.00  0.00    -0.003 A 
ATOM      4  C5  UNL d   1       0.858   5.999   5.511  0.00  0.00     0.000 A 
ATOM      5  C6  UNL d   1       0.633   6.000   4.135  0.00  0.00     0.000 A 
ATOM      6  C7  UNL d   1       1.706   5.975   3.227  0.00  0.00    -0.073 A 
ATOM      7  C8  UNL d   1       1.405   5.983   1.753  0.00  0.00     0.078 C 
ENDROOT
BRANCH   1   8
ATOM      8  C1  UNL d   1       4.232   6.000   2.810  0.00  0.00     0.053 C 
ATOM      9  C   UNL d   1       4.405   4.695   2.049  0.00  0.00     0.018 C 
ENDBRANCH   1   8
TORSDOF 1
ENDMDL
