MODEL 1
REMARK minimizedAffinity 1.72025323
REMARK minimizedRMSD -1
REMARK  1 active torsions:
REMARK  status: ('A' for Active; 'I' for Inactive)
REMARK    1  A    between atoms: C1_2  and  C2_3 
ROOT
ATOM      1  C2  UNL d   1       0.027  -1.476   1.255  0.00  0.00    -0.076 A 
ATOM      2  C3  UNL d   1      -0.030  -2.098   2.515  0.00  0.00     0.004 A 
ATOM      3  C4  UNL d   1       0.849  -3.127   2.847  0.00  0.00    -0.003 A 
ATOM      4  C5  UNL d   1       1.800  -3.551   1.925  0.00  0.00     0.000 A 
ATOM      5  C6  UNL d   1       1.882  -2.933   0.677  0.00  0.00     0.000 A 
ATOM      6  C7  UNL d   1       1.014  -1.883   0.333  0.00  0.00    -0.073 A 
ATOM      7  C8  UNL d   1       1.143  -1.257  -1.029  0.00  0.00     0.078 C 
ENDROOT
BRANCH   1   8
ATOM      8  C1  UNL d   1      -0.970  -0.383   0.942  0.00  0.00     0.053 C 
ATOM      9  C   UNL d   1      -2.260  -0.925   0.344  0.00  0.00     0.018 C 
ENDBRANCH   1   8
TORSDOF 1
ENDMDL
