MODEL 1
REMARK minimizedAffinity -0.823187172
REMARK minimizedRMSD -1
REMARK  1 active torsions:
REMARK  status: ('A' for Active; 'I' for Inactive)
REMARK    1  A    between atoms: C1_2  and  C2_3 
ROOT
ATOM      1  C2  UNL d   1       0.016  -2.456   2.612  0.00  0.00    -0.076 A 
ATOM      2  C3  UNL d   1       1.159  -2.680   1.824  0.00  0.00     0.004 A 
ATOM      3  C4  UNL d   1       1.671  -3.965   1.651  0.00  0.00    -0.003 A 
ATOM      4  C5  UNL d   1       1.048  -5.047   2.263  0.00  0.00     0.000 A 
ATOM      5  C6  UNL d   1      -0.097  -4.845   3.034  0.00  0.00     0.000 A 
ATOM      6  C7  UNL d   1      -0.635  -3.559   3.205  0.00  0.00    -0.073 A 
ATOM      7  C8  UNL d   1      -1.868  -3.398   4.052  0.00  0.00     0.078 C 
ENDROOT
BRANCH   1   8
ATOM      8  C1  UNL d   1      -0.477  -1.037   2.786  0.00  0.00     0.053 C 
ATOM      9  C   UNL d   1      -1.099  -0.477   1.516  0.00  0.00     0.018 C 
ENDBRANCH   1   8
TORSDOF 1
ENDMDL
