MODEL 1
REMARK minimizedAffinity 3.17730188
REMARK minimizedRMSD -1
REMARK  1 active torsions:
REMARK  status: ('A' for Active; 'I' for Inactive)
REMARK    1  A    between atoms: C1_2  and  C2_3 
ROOT
ATOM      1  C2  UNL d   1      -2.507  -0.868   0.948  0.00  0.00    -0.076 A 
ATOM      2  C3  UNL d   1      -2.079  -1.615   2.060  0.00  0.00     0.004 A 
ATOM      3  C4  UNL d   1      -0.727  -1.880   2.269  0.00  0.00    -0.003 A 
ATOM      4  C5  UNL d   1       0.220  -1.402   1.370  0.00  0.00     0.000 A 
ATOM      5  C6  UNL d   1      -0.185  -0.645   0.271  0.00  0.00     0.000 A 
ATOM      6  C7  UNL d   1      -1.543  -0.355   0.054  0.00  0.00    -0.073 A 
ATOM      7  C8  UNL d   1      -1.924   0.462  -1.150  0.00  0.00     0.078 C 
ENDROOT
BRANCH   1   8
ATOM      8  C1  UNL d   1      -3.989  -0.636   0.758  0.00  0.00     0.053 C 
ATOM      9  C   UNL d   1      -4.682  -0.213   2.045  0.00  0.00     0.018 C 
ENDBRANCH   1   8
TORSDOF 1
ENDMDL
