MODEL 1
REMARK minimizedAffinity 3.25437713
REMARK minimizedRMSD -1
REMARK  1 active torsions:
REMARK  status: ('A' for Active; 'I' for Inactive)
REMARK    1  A    between atoms: C1_2  and  C2_3 
ROOT
ATOM      1  C2  UNL d   1      -0.974  -1.367   1.397  0.00  0.00    -0.076 A 
ATOM      2  C3  UNL d   1      -2.357  -1.164   1.250  0.00  0.00     0.004 A 
ATOM      3  C4  UNL d   1      -2.875  -0.552   0.110  0.00  0.00    -0.003 A 
ATOM      4  C5  UNL d   1      -2.018  -0.136  -0.903  0.00  0.00     0.000 A 
ATOM      5  C6  UNL d   1      -0.645  -0.346  -0.782  0.00  0.00     0.000 A 
ATOM      6  C7  UNL d   1      -0.108  -0.975   0.354  0.00  0.00    -0.073 A 
ATOM      7  C8  UNL d   1       1.381  -1.171   0.434  0.00  0.00     0.078 C 
ENDROOT
BRANCH   1   8
ATOM      8  C1  UNL d   1      -0.467  -2.011   2.668  0.00  0.00     0.053 C 
ATOM      9  C   UNL d   1      -1.503  -2.919   3.314  0.00  0.00     0.018 C 
ENDBRANCH   1   8
TORSDOF 1
ENDMDL
