MODEL 1
REMARK minimizedAffinity -1.22689962
REMARK minimizedRMSD -1
REMARK  1 active torsions:
REMARK  status: ('A' for Active; 'I' for Inactive)
REMARK    1  A    between atoms: C1_2  and  C2_3 
ROOT
ATOM      1  C2  UNL d   1       0.302  -1.024  -0.379  0.00  0.00    -0.076 A 
ATOM      2  C3  UNL d   1       0.820  -1.859   0.626  0.00  0.00     0.004 A 
ATOM      3  C4  UNL d   1       0.202  -1.951   1.872  0.00  0.00    -0.003 A 
ATOM      4  C5  UNL d   1      -0.945  -1.210   2.133  0.00  0.00     0.000 A 
ATOM      5  C6  UNL d   1      -1.483  -0.390   1.142  0.00  0.00     0.000 A 
ATOM      6  C7  UNL d   1      -0.882  -0.298  -0.125  0.00  0.00    -0.073 A 
ATOM      7  C8  UNL d   1      -1.501   0.606  -1.155  0.00  0.00     0.078 C 
ENDROOT
BRANCH   1   8
ATOM      8  C1  UNL d   1       1.030  -0.944  -1.701  0.00  0.00     0.053 C 
ATOM      9  C   UNL d   1       1.844   0.333  -1.842  0.00  0.00     0.018 C 
ENDBRANCH   1   8
TORSDOF 1
ENDMDL
