MODEL 1
REMARK minimizedAffinity -2.50842237
REMARK minimizedRMSD -1
REMARK  1 active torsions:
REMARK  status: ('A' for Active; 'I' for Inactive)
REMARK    1  A    between atoms: C1_2  and  C2_3 
ROOT
ATOM      1  C2  UNL d   1      -0.027  -0.673  -0.696  0.00  0.00    -0.076 A 
ATOM      2  C3  UNL d   1       1.039  -1.474  -0.250  0.00  0.00     0.004 A 
ATOM      3  C4  UNL d   1       2.277  -1.441  -0.889  0.00  0.00    -0.003 A 
ATOM      4  C5  UNL d   1       2.470  -0.607  -1.985  0.00  0.00     0.000 A 
ATOM      5  C6  UNL d   1       1.429   0.208  -2.430  0.00  0.00     0.000 A 
ATOM      6  C7  UNL d   1       0.180   0.199  -1.786  0.00  0.00    -0.073 A 
ATOM      7  C8  UNL d   1      -0.909   1.094  -2.312  0.00  0.00     0.078 C 
ENDROOT
BRANCH   1   8
ATOM      8  C1  UNL d   1      -1.355  -0.770   0.020  0.00  0.00     0.053 C 
ATOM      9  C   UNL d   1      -1.276  -0.294   1.462  0.00  0.00     0.018 C 
ENDBRANCH   1   8
TORSDOF 1
ENDMDL
