MODEL 1
REMARK minimizedAffinity 6.2312808
REMARK minimizedRMSD -1
REMARK  1 active torsions:
REMARK  status: ('A' for Active; 'I' for Inactive)
REMARK    1  A    between atoms: C1_2  and  C2_3 
ROOT
ATOM      1  C2  UNL d   1      -0.753  -0.311   0.842  0.00  0.00    -0.076 A 
ATOM      2  C3  UNL d   1      -1.798  -1.044   0.254  0.00  0.00     0.004 A 
ATOM      3  C4  UNL d   1      -3.030  -1.177   0.893  0.00  0.00    -0.003 A 
ATOM      4  C5  UNL d   1      -3.236  -0.580   2.131  0.00  0.00     0.000 A 
ATOM      5  C6  UNL d   1      -2.217   0.166   2.722  0.00  0.00     0.000 A 
ATOM      6  C7  UNL d   1      -0.975   0.324   2.083  0.00  0.00    -0.073 A 
ATOM      7  C8  UNL d   1       0.091   1.134   2.769  0.00  0.00     0.078 C 
ENDROOT
BRANCH   1   8
ATOM      8  C1  UNL d   1       0.569  -0.223   0.115  0.00  0.00     0.053 C 
ATOM      9  C   UNL d   1       0.628  -1.135  -1.100  0.00  0.00     0.018 C 
ENDBRANCH   1   8
TORSDOF 1
ENDMDL
