MODEL 1
REMARK minimizedAffinity -4.89840364
REMARK minimizedRMSD -1
REMARK  1 active torsions:
REMARK  status: ('A' for Active; 'I' for Inactive)
REMARK    1  A    between atoms: N_2  and  C1_3 
ROOT
ATOM      1  C1  UNL d   1       0.102   0.007  -0.221  0.00  0.00     0.143 A 
ATOM      2  C2  UNL d   1       1.111   0.395   0.667  0.00  0.00    -0.057 A 
ATOM      3  C3  UNL d   1       0.960   0.237   2.050  0.00  0.00     0.033 A 
ATOM      4  C4  UNL d   1      -0.218  -0.286   2.572  0.00  0.00    -0.042 A 
ATOM      5  C5  UNL d   1      -1.244  -0.655   1.710  0.00  0.00     0.033 A 
ATOM      6  C6  UNL d   1      -1.085  -0.501   0.329  0.00  0.00    -0.057 A 
ENDROOT
BRANCH   1   7
ATOM      7  N   UNL d   1       0.153   0.229  -1.600  0.00  0.00    -0.732 N 
ATOM      8  C   UNL d   1       0.880  -0.674  -2.466  0.00  0.00     0.284 C 
ATOM      9  H3  UNL d   1      -0.741   0.537  -1.976  0.00  0.00     0.395 HD
ENDBRANCH   1   7
TORSDOF 1
ENDMDL
