MODEL 1
REMARK minimizedAffinity -5.13105249
REMARK minimizedRMSD -1
REMARK  1 active torsions:
REMARK  status: ('A' for Active; 'I' for Inactive)
REMARK    1  A    between atoms: N_2  and  C1_3 
ROOT
ATOM      1  C1  UNL d   1       0.409   0.231  -0.198  0.00  0.00     0.143 A 
ATOM      2  C2  UNL d   1      -0.978   0.315  -0.036  0.00  0.00    -0.057 A 
ATOM      3  C3  UNL d   1      -1.569   0.212   1.230  0.00  0.00     0.033 A 
ATOM      4  C4  UNL d   1      -0.782  -0.006   2.356  0.00  0.00    -0.042 A 
ATOM      5  C5  UNL d   1       0.597  -0.117   2.215  0.00  0.00     0.033 A 
ATOM      6  C6  UNL d   1       1.181  -0.007   0.950  0.00  0.00    -0.057 A 
ENDROOT
BRANCH   1   7
ATOM      7  N   UNL d   1       1.047   0.227  -1.440  0.00  0.00    -0.732 N 
ATOM      8  C   UNL d   1       1.155  -0.993  -2.210  0.00  0.00     0.284 C 
ATOM      9  H3  UNL d   1       0.823   1.050  -1.995  0.00  0.00     0.395 HD
ENDBRANCH   1   7
TORSDOF 1
ENDMDL
