MODEL 1
REMARK minimizedAffinity -4.16966105
REMARK minimizedRMSD -1
REMARK  1 active torsions:
REMARK  status: ('A' for Active; 'I' for Inactive)
REMARK    1  A    between atoms: N_2  and  C1_3 
ROOT
ATOM      1  C1  UNL d   1      -0.200   0.015   0.205  0.00  0.00     0.143 A 
ATOM      2  C2  UNL d   1       0.715   0.136   1.257  0.00  0.00    -0.057 A 
ATOM      3  C3  UNL d   1       0.344  -0.141   2.578  0.00  0.00     0.033 A 
ATOM      4  C4  UNL d   1      -0.962  -0.516   2.876  0.00  0.00    -0.042 A 
ATOM      5  C5  UNL d   1      -1.895  -0.618   1.850  0.00  0.00     0.033 A 
ATOM      6  C6  UNL d   1      -1.516  -0.347   0.532  0.00  0.00    -0.057 A 
ENDROOT
BRANCH   1   7
ATOM      7  N   UNL d   1       0.082   0.371  -1.116  0.00  0.00    -0.732 N 
ATOM      8  C   UNL d   1       0.568  -0.615  -2.057  0.00  0.00     0.284 C 
ATOM      9  H3  UNL d   1      -0.610   1.009  -1.502  0.00  0.00     0.395 HD
ENDBRANCH   1   7
TORSDOF 1
ENDMDL
