MODEL 1
REMARK minimizedAffinity -4.56027317
REMARK minimizedRMSD -1
REMARK  1 active torsions:
REMARK  status: ('A' for Active; 'I' for Inactive)
REMARK    1  A    between atoms: N_2  and  C1_3 
ROOT
ATOM      1  C1  UNL d   1       0.470  -0.091  -0.508  0.00  0.00     0.143 A 
ATOM      2  C2  UNL d   1       1.325   0.390   0.489  0.00  0.00    -0.057 A 
ATOM      3  C3  UNL d   1       0.995   0.278   1.845  0.00  0.00     0.033 A 
ATOM      4  C4  UNL d   1      -0.214  -0.292   2.228  0.00  0.00    -0.042 A 
ATOM      5  C5  UNL d   1      -1.092  -0.754   1.253  0.00  0.00     0.033 A 
ATOM      6  C6  UNL d   1      -0.753  -0.646  -0.099  0.00  0.00    -0.057 A 
ENDROOT
BRANCH   1   7
ATOM      7  N   UNL d   1       0.696   0.078  -1.876  0.00  0.00    -0.732 N 
ATOM      8  C   UNL d   1       0.936  -1.064  -2.731  0.00  0.00     0.284 C 
ATOM      9  H3  UNL d   1       0.088   0.784  -2.286  0.00  0.00     0.395 HD
ENDBRANCH   1   7
TORSDOF 1
ENDMDL
