MODEL 1
REMARK minimizedAffinity -4.41580534
REMARK minimizedRMSD -1
REMARK  1 active torsions:
REMARK  status: ('A' for Active; 'I' for Inactive)
REMARK    1  A    between atoms: N_2  and  C1_3 
ROOT
ATOM      1  C1  UNL d   1      -0.458  -0.070  -0.735  0.00  0.00     0.143 A 
ATOM      2  C2  UNL d   1       0.283  -0.554   0.348  0.00  0.00    -0.057 A 
ATOM      3  C3  UNL d   1      -0.297  -0.704   1.614  0.00  0.00     0.033 A 
ATOM      4  C4  UNL d   1      -1.623  -0.344   1.826  0.00  0.00    -0.042 A 
ATOM      5  C5  UNL d   1      -2.371   0.164   0.770  0.00  0.00     0.033 A 
ATOM      6  C6  UNL d   1      -1.789   0.305  -0.494  0.00  0.00    -0.057 A 
ENDROOT
BRANCH   1   7
ATOM      7  N   UNL d   1       0.088   0.195  -1.994  0.00  0.00    -0.732 N 
ATOM      8  C   UNL d   1       0.744  -0.851  -2.748  0.00  0.00     0.284 C 
ATOM      9  H3  UNL d   1      -0.506   0.802  -2.555  0.00  0.00     0.395 HD
ENDBRANCH   1   7
TORSDOF 1
ENDMDL
