MODEL 1
REMARK minimizedAffinity -4.46570206
REMARK minimizedRMSD -1
REMARK  1 active torsions:
REMARK  status: ('A' for Active; 'I' for Inactive)
REMARK    1  A    between atoms: N_2  and  C1_3 
ROOT
ATOM      1  C1  UNL d   1       0.163   0.028  -0.162  0.00  0.00     0.143 A 
ATOM      2  C2  UNL d   1       1.274   0.409   0.599  0.00  0.00    -0.057 A 
ATOM      3  C3  UNL d   1       1.370   0.085   1.957  0.00  0.00     0.033 A 
ATOM      4  C4  UNL d   1       0.340  -0.605   2.588  0.00  0.00    -0.042 A 
ATOM      5  C5  UNL d   1      -0.785  -0.972   1.858  0.00  0.00     0.033 A 
ATOM      6  C6  UNL d   1      -0.872  -0.651   0.500  0.00  0.00    -0.057 A 
ENDROOT
BRANCH   1   7
ATOM      7  N   UNL d   1      -0.036   0.406  -1.492  0.00  0.00    -0.732 N 
ATOM      8  C   UNL d   1       0.539  -0.367  -2.572  0.00  0.00     0.284 C 
ATOM      9  H3  UNL d   1      -0.987   0.722  -1.667  0.00  0.00     0.395 HD
ENDBRANCH   1   7
TORSDOF 1
ENDMDL
