MODEL 1
REMARK minimizedAffinity -5.59454203
REMARK minimizedRMSD -1
REMARK  1 active torsions:
REMARK  status: ('A' for Active; 'I' for Inactive)
REMARK    1  A    between atoms: N_2  and  C1_3 
ROOT
ATOM      1  C1  UNL d   1      -0.926  -0.263   1.029  0.00  0.00     0.143 A 
ATOM      2  C2  UNL d   1      -2.245  -0.338   1.490  0.00  0.00    -0.057 A 
ATOM      3  C3  UNL d   1      -2.552  -0.165   2.845  0.00  0.00     0.033 A 
ATOM      4  C4  UNL d   1      -1.539   0.057   3.771  0.00  0.00    -0.042 A 
ATOM      5  C5  UNL d   1      -0.218   0.111   3.340  0.00  0.00     0.033 A 
ATOM      6  C6  UNL d   1       0.082  -0.055   1.984  0.00  0.00    -0.057 A 
ENDROOT
BRANCH   1   7
ATOM      7  N   UNL d   1      -0.547  -0.523  -0.289  0.00  0.00    -0.732 N 
ATOM      8  C   UNL d   1      -0.137   0.554  -1.165  0.00  0.00     0.284 C 
ATOM      9  H3  UNL d   1       0.020  -1.364  -0.372  0.00  0.00     0.395 HD
ENDBRANCH   1   7
TORSDOF 1
ENDMDL
