MODEL 1
REMARK minimizedAffinity -2.90711236
REMARK minimizedRMSD -1
REMARK  1 active torsions:
REMARK  status: ('A' for Active; 'I' for Inactive)
REMARK    1  A    between atoms: N_2  and  C1_3 
ROOT
ATOM      1  C1  UNL d   1      -0.575   0.097   0.713  0.00  0.00     0.143 A 
ATOM      2  C2  UNL d   1      -0.963  -1.205   0.378  0.00  0.00    -0.057 A 
ATOM      3  C3  UNL d   1      -1.469  -2.083   1.345  0.00  0.00     0.033 A 
ATOM      4  C4  UNL d   1      -1.567  -1.682   2.673  0.00  0.00    -0.042 A 
ATOM      5  C5  UNL d   1      -1.163  -0.402   3.033  0.00  0.00     0.033 A 
ATOM      6  C6  UNL d   1      -0.666   0.473   2.062  0.00  0.00    -0.057 A 
ENDROOT
BRANCH   1   7
ATOM      7  N   UNL d   1       0.027   0.984  -0.183  0.00  0.00    -0.732 N 
ATOM      8  C   UNL d   1       1.269   1.645   0.156  0.00  0.00     0.284 C 
ATOM      9  H3  UNL d   1      -0.020   0.655  -1.145  0.00  0.00     0.395 HD
ENDBRANCH   1   7
TORSDOF 1
ENDMDL
