MODEL 1
REMARK minimizedAffinity -5.36396456
REMARK minimizedRMSD -1
REMARK  1 active torsions:
REMARK  status: ('A' for Active; 'I' for Inactive)
REMARK    1  A    between atoms: N_2  and  C1_3 
ROOT
ATOM      1  C1  UNL d   1      -0.626  -0.103   1.066  0.00  0.00     0.143 A 
ATOM      2  C2  UNL d   1      -0.418  -0.059   2.448  0.00  0.00    -0.057 A 
ATOM      3  C3  UNL d   1      -1.481   0.138   3.338  0.00  0.00     0.033 A 
ATOM      4  C4  UNL d   1      -2.773   0.323   2.856  0.00  0.00    -0.042 A 
ATOM      5  C5  UNL d   1      -3.000   0.308   1.484  0.00  0.00     0.033 A 
ATOM      6  C6  UNL d   1      -1.935   0.105   0.602  0.00  0.00    -0.057 A 
ENDROOT
BRANCH   1   7
ATOM      7  N   UNL d   1       0.403  -0.197   0.126  0.00  0.00    -0.732 N 
ATOM      8  C   UNL d   1       0.329   0.528  -1.124  0.00  0.00     0.284 C 
ATOM      9  H3  UNL d   1       1.325  -0.188   0.558  0.00  0.00     0.395 HD
ENDBRANCH   1   7
TORSDOF 1
ENDMDL
