MODEL 1
REMARK minimizedAffinity -3.75713897
REMARK minimizedRMSD -1
REMARK  1 active torsions:
REMARK  status: ('A' for Active; 'I' for Inactive)
REMARK    1  A    between atoms: N_2  and  C1_3 
ROOT
ATOM      1  C1  UNL d   1      -0.166   0.103   1.513  0.00  0.00     0.143 A 
ATOM      2  C2  UNL d   1       0.766   0.335   0.495  0.00  0.00    -0.057 A 
ATOM      3  C3  UNL d   1       0.359   0.547  -0.828  0.00  0.00     0.033 A 
ATOM      4  C4  UNL d   1      -0.991   0.500  -1.162  0.00  0.00    -0.042 A 
ATOM      5  C5  UNL d   1      -1.933   0.246  -0.172  0.00  0.00     0.033 A 
ATOM      6  C6  UNL d   1      -1.520   0.042   1.149  0.00  0.00    -0.057 A 
ENDROOT
BRANCH   1   7
ATOM      7  N   UNL d   1       0.182  -0.212   2.829  0.00  0.00    -0.732 N 
ATOM      8  C   UNL d   1      -0.766  -0.867   3.705  0.00  0.00     0.284 C 
ATOM      9  H3  UNL d   1       1.132  -0.567   2.905  0.00  0.00     0.395 HD
ENDBRANCH   1   7
TORSDOF 1
ENDMDL
