MODEL 1
REMARK minimizedAffinity -3.3473742
REMARK minimizedRMSD -1
REMARK  1 active torsions:
REMARK  status: ('A' for Active; 'I' for Inactive)
REMARK    1  A    between atoms: N_2  and  C1_3 
ROOT
ATOM      1  C1  UNL d   1      -0.064   0.510  -1.089  0.00  0.00     0.143 A 
ATOM      2  C2  UNL d   1      -1.346   1.063  -1.003  0.00  0.00    -0.057 A 
ATOM      3  C3  UNL d   1      -2.227   0.697   0.022  0.00  0.00     0.033 A 
ATOM      4  C4  UNL d   1      -1.850  -0.255   0.964  0.00  0.00    -0.042 A 
ATOM      5  C5  UNL d   1      -0.590  -0.836   0.883  0.00  0.00     0.033 A 
ATOM      6  C6  UNL d   1       0.288  -0.461  -0.138  0.00  0.00    -0.057 A 
ENDROOT
BRANCH   1   7
ATOM      7  N   UNL d   1       0.822   0.761  -2.140  0.00  0.00    -0.732 N 
ATOM      8  C   UNL d   1       1.100  -0.259  -3.129  0.00  0.00     0.284 C 
ATOM      9  H3  UNL d   1       0.711   1.695  -2.527  0.00  0.00     0.395 HD
ENDBRANCH   1   7
TORSDOF 1
ENDMDL
