MODEL 1
REMARK minimizedAffinity -1.82944345
REMARK minimizedRMSD -1
REMARK  1 active torsions:
REMARK  status: ('A' for Active; 'I' for Inactive)
REMARK    1  A    between atoms: N_2  and  C1_3 
ROOT
ATOM      1  C1  UNL d   1      -0.926   0.078   0.353  0.00  0.00     0.143 A 
ATOM      2  C2  UNL d   1      -1.964  -0.689   0.892  0.00  0.00    -0.057 A 
ATOM      3  C3  UNL d   1      -1.964  -1.067   2.240  0.00  0.00     0.033 A 
ATOM      4  C4  UNL d   1      -0.906  -0.709   3.069  0.00  0.00    -0.042 A 
ATOM      5  C5  UNL d   1       0.149   0.032   2.549  0.00  0.00     0.033 A 
ATOM      6  C6  UNL d   1       0.140   0.413   1.204  0.00  0.00    -0.057 A 
ENDROOT
BRANCH   1   7
ATOM      7  N   UNL d   1      -0.820   0.402  -1.001  0.00  0.00    -0.732 N 
ATOM      8  C   UNL d   1       0.307   1.168  -1.490  0.00  0.00     0.284 C 
ATOM      9  H3  UNL d   1      -1.094  -0.367  -1.607  0.00  0.00     0.395 HD
ENDBRANCH   1   7
TORSDOF 1
ENDMDL
