MODEL 1
REMARK minimizedAffinity -2.29209304
REMARK minimizedRMSD -1
REMARK  1 active torsions:
REMARK  status: ('A' for Active; 'I' for Inactive)
REMARK    1  A    between atoms: N_2  and  C1_3 
ROOT
ATOM      1  C1  UNL d   1      -0.136   0.301  -0.392  0.00  0.00     0.143 A 
ATOM      2  C2  UNL d   1      -1.104  -0.396   0.340  0.00  0.00    -0.057 A 
ATOM      3  C3  UNL d   1      -0.930  -0.664   1.703  0.00  0.00     0.033 A 
ATOM      4  C4  UNL d   1       0.232  -0.264   2.353  0.00  0.00    -0.042 A 
ATOM      5  C5  UNL d   1       1.219   0.408   1.640  0.00  0.00     0.033 A 
ATOM      6  C6  UNL d   1       1.036   0.679   0.281  0.00  0.00    -0.057 A 
ENDROOT
BRANCH   1   7
ATOM      7  N   UNL d   1      -0.207   0.512  -1.771  0.00  0.00    -0.732 N 
ATOM      8  C   UNL d   1       0.657  -0.218  -2.674  0.00  0.00     0.284 C 
ATOM      9  H3  UNL d   1      -1.164   0.611  -2.101  0.00  0.00     0.395 HD
ENDBRANCH   1   7
TORSDOF 1
ENDMDL
