MODEL 1
REMARK minimizedAffinity -3.0053134
REMARK minimizedRMSD -1
REMARK  1 active torsions:
REMARK  status: ('A' for Active; 'I' for Inactive)
REMARK    1  A    between atoms: N_2  and  C1_3 
ROOT
ATOM      1  C1  UNL d   1      -0.427  -0.071   1.489  0.00  0.00     0.143 A 
ATOM      2  C2  UNL d   1      -1.278   0.033   0.383  0.00  0.00    -0.057 A 
ATOM      3  C3  UNL d   1      -0.773   0.251  -0.904  0.00  0.00     0.033 A 
ATOM      4  C4  UNL d   1       0.596   0.399  -1.105  0.00  0.00    -0.042 A 
ATOM      5  C5  UNL d   1       1.459   0.324  -0.017  0.00  0.00     0.033 A 
ATOM      6  C6  UNL d   1       0.948   0.099   1.265  0.00  0.00    -0.057 A 
ENDROOT
BRANCH   1   7
ATOM      7  N   UNL d   1      -0.875  -0.190   2.807  0.00  0.00    -0.732 N 
ATOM      8  C   UNL d   1      -0.326   0.650   3.850  0.00  0.00     0.284 C 
ATOM      9  H3  UNL d   1      -1.882  -0.319   2.865  0.00  0.00     0.395 HD
ENDBRANCH   1   7
TORSDOF 1
ENDMDL
