MODEL 1
REMARK minimizedAffinity 0.17032294
REMARK minimizedRMSD -1
REMARK  3 active torsions:
REMARK  status: ('A' for Active; 'I' for Inactive)
REMARK    1  A    between atoms: C3'_2  and  C2'_3 
REMARK    2  A    between atoms: C2'_3  and  C1'_4 
REMARK    3  A    between atoms: C1'_4  and  C1_5 
ROOT
ATOM      1  C1  N4B d   1       1.954   2.087   0.777  0.00  0.00    -0.075 A 
ATOM      2  C2  N4B d   1       1.711   1.906   2.156  0.00  0.00     0.002 A 
ATOM      3  C3  N4B d   1       0.682   2.581   2.766  0.00  0.00     0.002 A 
ATOM      4  C4  N4B d   1      -0.102   3.452   2.024  0.00  0.00    -0.004 A 
ATOM      5  C5  N4B d   1       0.124   3.602   0.687  0.00  0.00     0.002 A 
ATOM      6  C6  N4B d   1       1.152   2.927   0.060  0.00  0.00     0.002 A 
ENDROOT
BRANCH   1   7
ATOM      7  C1' N4B d   1       3.121   1.437   0.085  0.00  0.00     0.057 C 
BRANCH   7   8
ATOM      8  C2' N4B d   1       2.933  -0.078   0.103  0.00  0.00     0.009 C 
BRANCH   8   9
ATOM      9  C3' N4B d   1       1.769  -0.516  -0.769  0.00  0.00     0.004 C 
ATOM     10  C4' N4B d   1       1.916  -0.081  -2.196  0.00  0.00     0.003 C 
ENDBRANCH   8   9
ENDBRANCH   7   8
ENDBRANCH   1   7
TORSDOF 3
ENDMDL
