MODEL 1
REMARK minimizedAffinity 8.87137699
REMARK minimizedRMSD -1
REMARK  3 active torsions:
REMARK  status: ('A' for Active; 'I' for Inactive)
REMARK    1  A    between atoms: C3'_2  and  C2'_3 
REMARK    2  A    between atoms: C2'_3  and  C1'_4 
REMARK    3  A    between atoms: C1'_4  and  C1_5 
ROOT
ATOM      1  C1  N4B d   1      -1.526  -1.946   2.222  0.00  0.00    -0.075 A 
ATOM      2  C2  N4B d   1      -2.393  -2.674   1.378  0.00  0.00     0.002 A 
ATOM      3  C3  N4B d   1      -2.767  -3.951   1.716  0.00  0.00     0.002 A 
ATOM      4  C4  N4B d   1      -2.275  -4.525   2.878  0.00  0.00    -0.004 A 
ATOM      5  C5  N4B d   1      -1.458  -3.806   3.701  0.00  0.00     0.002 A 
ATOM      6  C6  N4B d   1      -1.077  -2.520   3.376  0.00  0.00     0.002 A 
ENDROOT
BRANCH   1   7
ATOM      7  C1' N4B d   1      -1.020  -0.578   1.851  0.00  0.00     0.057 C 
BRANCH   7   8
ATOM      8  C2' N4B d   1      -1.941   0.477   2.456  0.00  0.00     0.009 C 
BRANCH   8   9
ATOM      9  C3' N4B d   1      -2.192   1.629   1.498  0.00  0.00     0.004 C 
ATOM     10  C4' N4B d   1      -3.498   1.506   0.771  0.00  0.00     0.003 C 
ENDBRANCH   8   9
ENDBRANCH   7   8
ENDBRANCH   1   7
TORSDOF 3
ENDMDL
