MODEL 1
REMARK minimizedAffinity 5.59334564
REMARK minimizedRMSD -1
REMARK  3 active torsions:
REMARK  status: ('A' for Active; 'I' for Inactive)
REMARK    1  A    between atoms: C3'_2  and  C2'_3 
REMARK    2  A    between atoms: C2'_3  and  C1'_4 
REMARK    3  A    between atoms: C1'_4  and  C1_5 
ROOT
ATOM      1  C1  N4B d   1       1.107   1.780   0.178  0.00  0.00    -0.075 A 
ATOM      2  C2  N4B d   1       1.219   2.783  -0.810  0.00  0.00     0.002 A 
ATOM      3  C3  N4B d   1       0.285   3.788  -0.877  0.00  0.00     0.002 A 
ATOM      4  C4  N4B d   1      -0.775   3.800   0.017  0.00  0.00    -0.004 A 
ATOM      5  C5  N4B d   1      -0.862   2.842   0.985  0.00  0.00     0.002 A 
ATOM      6  C6  N4B d   1       0.072   1.828   1.066  0.00  0.00     0.002 A 
ENDROOT
BRANCH   1   7
ATOM      7  C1' N4B d   1       2.056   0.614   0.236  0.00  0.00     0.057 C 
BRANCH   7   8
ATOM      8  C2' N4B d   1       1.259  -0.669   0.451  0.00  0.00     0.009 C 
BRANCH   8   9
ATOM      9  C3' N4B d   1       2.039  -1.900   0.023  0.00  0.00     0.004 C 
ATOM     10  C4' N4B d   1       1.637  -2.401  -1.332  0.00  0.00     0.003 C 
ENDBRANCH   8   9
ENDBRANCH   7   8
ENDBRANCH   1   7
TORSDOF 3
ENDMDL
