MODEL 1
REMARK minimizedAffinity 1.23984361
REMARK minimizedRMSD -1
REMARK  3 active torsions:
REMARK  status: ('A' for Active; 'I' for Inactive)
REMARK    1  A    between atoms: C3'_2  and  C2'_3 
REMARK    2  A    between atoms: C2'_3  and  C1'_4 
REMARK    3  A    between atoms: C1'_4  and  C1_5 
ROOT
ATOM      1  C1  N4B d   1      -0.903  -3.534   2.063  0.00  0.00    -0.075 A 
ATOM      2  C2  N4B d   1      -1.652  -4.212   1.076  0.00  0.00     0.002 A 
ATOM      3  C3  N4B d   1      -2.224  -5.428   1.362  0.00  0.00     0.002 A 
ATOM      4  C4  N4B d   1      -2.044  -5.992   2.616  0.00  0.00    -0.004 A 
ATOM      5  C5  N4B d   1      -1.340  -5.319   3.572  0.00  0.00     0.002 A 
ATOM      6  C6  N4B d   1      -0.764  -4.094   3.300  0.00  0.00     0.002 A 
ENDROOT
BRANCH   1   7
ATOM      7  C1' N4B d   1      -0.188  -2.244   1.770  0.00  0.00     0.057 C 
BRANCH   7   8
ATOM      8  C2' N4B d   1       0.696  -2.429   0.540  0.00  0.00     0.009 C 
BRANCH   8   9
ATOM      9  C3' N4B d   1       1.758  -1.348   0.435  0.00  0.00     0.004 C 
ATOM     10  C4' N4B d   1       1.180   0.035   0.417  0.00  0.00     0.003 C 
ENDBRANCH   8   9
ENDBRANCH   7   8
ENDBRANCH   1   7
TORSDOF 3
ENDMDL
