MODEL 1
REMARK minimizedAffinity 6.43019152
REMARK minimizedRMSD -1
REMARK  3 active torsions:
REMARK  status: ('A' for Active; 'I' for Inactive)
REMARK    1  A    between atoms: C3'_2  and  C2'_3 
REMARK    2  A    between atoms: C2'_3  and  C1'_4 
REMARK    3  A    between atoms: C1'_4  and  C1_5 
ROOT
ATOM      1  C1  N4B d   1       2.041  -0.142  -0.585  0.00  0.00    -0.075 A 
ATOM      2  C2  N4B d   1       2.256   0.812  -1.604  0.00  0.00     0.002 A 
ATOM      3  C3  N4B d   1       2.059   0.468  -2.919  0.00  0.00     0.002 A 
ATOM      4  C4  N4B d   1       1.668  -0.824  -3.239  0.00  0.00    -0.004 A 
ATOM      5  C5  N4B d   1       1.438  -1.732  -2.247  0.00  0.00     0.002 A 
ATOM      6  C6  N4B d   1       1.628  -1.398  -0.921  0.00  0.00     0.002 A 
ENDROOT
BRANCH   1   7
ATOM      7  C1' N4B d   1       2.326   0.163   0.861  0.00  0.00     0.057 C 
BRANCH   7   8
ATOM      8  C2' N4B d   1       1.881   1.589   1.169  0.00  0.00     0.009 C 
BRANCH   8   9
ATOM      9  C3' N4B d   1       0.417   1.653   1.569  0.00  0.00     0.004 C 
ATOM     10  C4' N4B d   1      -0.277   2.873   1.040  0.00  0.00     0.003 C 
ENDBRANCH   8   9
ENDBRANCH   7   8
ENDBRANCH   1   7
TORSDOF 3
ENDMDL
