MODEL 1
REMARK minimizedAffinity 5.69173956
REMARK minimizedRMSD -1
REMARK  3 active torsions:
REMARK  status: ('A' for Active; 'I' for Inactive)
REMARK    1  A    between atoms: C3'_2  and  C2'_3 
REMARK    2  A    between atoms: C2'_3  and  C1'_4 
REMARK    3  A    between atoms: C1'_4  and  C1_5 
ROOT
ATOM      1  C1  N4B d   1       0.884   0.886   0.850  0.00  0.00    -0.075 A 
ATOM      2  C2  N4B d   1       0.794   2.251   0.496  0.00  0.00     0.002 A 
ATOM      3  C3  N4B d   1      -0.347   2.960   0.783  0.00  0.00     0.002 A 
ATOM      4  C4  N4B d   1      -1.412   2.325   1.403  0.00  0.00    -0.004 A 
ATOM      5  C5  N4B d   1      -1.308   1.014   1.764  0.00  0.00     0.002 A 
ATOM      6  C6  N4B d   1      -0.166   0.289   1.485  0.00  0.00     0.002 A 
ENDROOT
BRANCH   1   7
ATOM      7  C1' N4B d   1       2.076   0.047   0.480  0.00  0.00     0.057 C 
BRANCH   7   8
ATOM      8  C2' N4B d   1       1.639  -1.407   0.333  0.00  0.00     0.009 C 
BRANCH   8   9
ATOM      9  C3' N4B d   1       2.063  -1.996  -1.002  0.00  0.00     0.004 C 
ATOM     10  C4' N4B d   1       1.398  -1.328  -2.169  0.00  0.00     0.003 C 
ENDBRANCH   8   9
ENDBRANCH   7   8
ENDBRANCH   1   7
TORSDOF 3
ENDMDL
