MODEL 1
REMARK minimizedAffinity 2.33116055
REMARK minimizedRMSD -1
REMARK  1 active torsions:
REMARK  status: ('A' for Active; 'I' for Inactive)
REMARK    1  A    between atoms: C3_4  and  O_7 
ROOT
ATOM      1  C   UNL d   1      -1.379  -3.455  -1.500  0.00  0.00    -0.033 A 
ATOM      2  C1  UNL d   1      -0.813  -2.218  -1.817  0.00  0.00     0.039 A 
ATOM      3  C2  UNL d   1      -0.181  -1.464  -0.826  0.00  0.00    -0.080 A 
ATOM      4  C3  UNL d   1      -0.119  -1.958   0.474  0.00  0.00     0.150 A 
ATOM      5  C4  UNL d   1      -0.676  -3.192   0.795  0.00  0.00    -0.007 A 
ATOM      6  C5  UNL d   1      -1.309  -3.942  -0.195  0.00  0.00     0.039 A 
ENDROOT
BRANCH   4   7
ATOM      7  O   UNL d   1       0.484  -1.256   1.475  0.00  0.00    -0.526 OA
ATOM      8  H5  UNL d   1       0.798  -0.411   1.112  0.00  0.00     0.418 HD
ENDBRANCH   4   7
TORSDOF 1
ENDMDL
