MODEL 1
REMARK minimizedAffinity -2.92874026
REMARK minimizedRMSD -1
REMARK  1 active torsions:
REMARK  status: ('A' for Active; 'I' for Inactive)
REMARK    1  A    between atoms: C3_4  and  O_7 
ROOT
ATOM      1  C   UNL d   1      -5.321   4.618  -5.976  0.00  0.00    -0.033 A 
ATOM      2  C1  UNL d   1      -4.669   3.383  -5.997  0.00  0.00     0.039 A 
ATOM      3  C2  UNL d   1      -3.274   3.328  -5.996  0.00  0.00    -0.080 A 
ATOM      4  C3  UNL d   1      -2.544   4.513  -5.974  0.00  0.00     0.150 A 
ATOM      5  C4  UNL d   1      -3.187   5.747  -5.950  0.00  0.00    -0.007 A 
ATOM      6  C5  UNL d   1      -4.580   5.800  -5.951  0.00  0.00     0.039 A 
ENDROOT
BRANCH   4   7
ATOM      7  O   UNL d   1      -1.180   4.510  -5.977  0.00  0.00    -0.526 OA
ATOM      8  H5  UNL d   1      -0.875   3.589  -6.024  0.00  0.00     0.418 HD
ENDBRANCH   4   7
TORSDOF 1
ENDMDL
