MODEL 1
REMARK minimizedAffinity -3.1236105
REMARK minimizedRMSD -1
REMARK  1 active torsions:
REMARK  status: ('A' for Active; 'I' for Inactive)
REMARK    1  A    between atoms: C3_4  and  O_7 
ROOT
ATOM      1  C   UNL d   1      -2.417   2.463  -6.000  0.00  0.00    -0.033 A 
ATOM      2  C1  UNL d   1      -3.610   3.189  -5.993  0.00  0.00     0.039 A 
ATOM      3  C2  UNL d   1      -3.724   4.339  -5.210  0.00  0.00    -0.080 A 
ATOM      4  C3  UNL d   1      -2.640   4.753  -4.441  0.00  0.00     0.150 A 
ATOM      5  C4  UNL d   1      -1.447   4.037  -4.447  0.00  0.00    -0.007 A 
ATOM      6  C5  UNL d   1      -1.335   2.888  -5.228  0.00  0.00     0.039 A 
ENDROOT
BRANCH   4   7
ATOM      7  O   UNL d   1      -2.706   5.867  -3.658  0.00  0.00    -0.526 OA
ATOM      8  H5  UNL d   1      -3.599   6.243  -3.733  0.00  0.00     0.418 HD
ENDBRANCH   4   7
TORSDOF 1
ENDMDL
