MODEL 1
REMARK minimizedAffinity 1.92509794
REMARK minimizedRMSD -1
REMARK  1 active torsions:
REMARK  status: ('A' for Active; 'I' for Inactive)
REMARK    1  A    between atoms: C3_4  and  O_7 
ROOT
ATOM      1  C   UNL d   1       1.525   2.554  -0.619  0.00  0.00    -0.033 A 
ATOM      2  C1  UNL d   1       1.263   2.643   0.750  0.00  0.00     0.039 A 
ATOM      3  C2  UNL d   1       0.482   1.671   1.378  0.00  0.00    -0.080 A 
ATOM      4  C3  UNL d   1      -0.029   0.616   0.627  0.00  0.00     0.150 A 
ATOM      5  C4  UNL d   1       0.231   0.519  -0.736  0.00  0.00    -0.007 A 
ATOM      6  C5  UNL d   1       1.010   1.491  -1.361  0.00  0.00     0.039 A 
ENDROOT
BRANCH   4   7
ATOM      7  O   UNL d   1      -0.800  -0.354   1.195  0.00  0.00    -0.526 OA
ATOM      8  H5  UNL d   1      -0.920  -0.142   2.135  0.00  0.00     0.418 HD
ENDBRANCH   4   7
TORSDOF 1
ENDMDL
