MODEL 1
REMARK minimizedAffinity -2.92459273
REMARK minimizedRMSD -1
REMARK  1 active torsions:
REMARK  status: ('A' for Active; 'I' for Inactive)
REMARK    1  A    between atoms: C3_4  and  O_7 
ROOT
ATOM      1  C   UNL d   1       0.532   4.169  -5.998  0.00  0.00    -0.033 A 
ATOM      2  C1  UNL d   1      -0.520   5.087  -5.992  0.00  0.00     0.039 A 
ATOM      3  C2  UNL d   1      -1.842   4.637  -5.991  0.00  0.00    -0.080 A 
ATOM      4  C3  UNL d   1      -2.098   3.269  -5.996  0.00  0.00     0.150 A 
ATOM      5  C4  UNL d   1      -1.055   2.349  -5.998  0.00  0.00    -0.007 A 
ATOM      6  C5  UNL d   1       0.264   2.799  -6.000  0.00  0.00     0.039 A 
ENDROOT
BRANCH   4   7
ATOM      7  O   UNL d   1      -3.372   2.783  -6.000  0.00  0.00    -0.526 OA
ATOM      8  H5  UNL d   1      -3.988   3.534  -6.027  0.00  0.00     0.418 HD
ENDBRANCH   4   7
TORSDOF 1
ENDMDL
