MODEL 1
REMARK minimizedAffinity 2.35469246
REMARK minimizedRMSD -1
REMARK  1 active torsions:
REMARK  status: ('A' for Active; 'I' for Inactive)
REMARK    1  A    between atoms: C3_4  and  O_7 
ROOT
ATOM      1  C   UNL d   1       3.139   3.963   0.665  0.00  0.00    -0.033 A 
ATOM      2  C1  UNL d   1       2.206   3.633  -0.320  0.00  0.00     0.039 A 
ATOM      3  C2  UNL d   1       1.074   2.886   0.011  0.00  0.00    -0.080 A 
ATOM      4  C3  UNL d   1       0.886   2.477   1.328  0.00  0.00     0.150 A 
ATOM      5  C4  UNL d   1       1.809   2.805   2.315  0.00  0.00    -0.007 A 
ATOM      6  C5  UNL d   1       2.940   3.550   1.983  0.00  0.00     0.039 A 
ENDROOT
BRANCH   4   7
ATOM      7  O   UNL d   1      -0.201   1.742   1.698  0.00  0.00    -0.526 OA
ATOM      8  H5  UNL d   1      -0.738   1.566   0.907  0.00  0.00     0.418 HD
ENDBRANCH   4   7
TORSDOF 1
ENDMDL
