MODEL 1
REMARK minimizedAffinity 2.79823518
REMARK minimizedRMSD -1
REMARK  1 active torsions:
REMARK  status: ('A' for Active; 'I' for Inactive)
REMARK    1  A    between atoms: C3_4  and  O_7 
ROOT
ATOM      1  C   UNL d   1       1.787   3.086  -6.000  0.00  0.00    -0.033 A 
ATOM      2  C1  UNL d   1       2.838   2.167  -5.999  0.00  0.00     0.039 A 
ATOM      3  C2  UNL d   1       4.160   2.616  -5.997  0.00  0.00    -0.080 A 
ATOM      4  C3  UNL d   1       4.417   3.985  -5.994  0.00  0.00     0.150 A 
ATOM      5  C4  UNL d   1       3.374   4.906  -5.991  0.00  0.00    -0.007 A 
ATOM      6  C5  UNL d   1       2.055   4.455  -5.995  0.00  0.00     0.039 A 
ENDROOT
BRANCH   4   7
ATOM      7  O   UNL d   1       5.690   4.471  -5.997  0.00  0.00    -0.526 OA
ATOM      8  H5  UNL d   1       6.306   3.720  -6.028  0.00  0.00     0.418 HD
ENDBRANCH   4   7
TORSDOF 1
ENDMDL
