MODEL 1
REMARK minimizedAffinity -0.024688134
REMARK minimizedRMSD -1
REMARK  1 active torsions:
REMARK  status: ('A' for Active; 'I' for Inactive)
REMARK    1  A    between atoms: C3_4  and  O_7 
ROOT
ATOM      1  C   UNL d   1       1.454   3.370  -0.092  0.00  0.00    -0.033 A 
ATOM      2  C1  UNL d   1       1.238   3.093   1.259  0.00  0.00     0.039 A 
ATOM      3  C2  UNL d   1       0.616   1.903   1.639  0.00  0.00    -0.080 A 
ATOM      4  C3  UNL d   1       0.217   0.998   0.660  0.00  0.00     0.150 A 
ATOM      5  C4  UNL d   1       0.432   1.265  -0.688  0.00  0.00    -0.007 A 
ATOM      6  C5  UNL d   1       1.053   2.455  -1.066  0.00  0.00     0.039 A 
ENDROOT
BRANCH   4   7
ATOM      7  O   UNL d   1      -0.399  -0.176   0.982  0.00  0.00    -0.526 OA
ATOM      8  H5  UNL d   1      -0.507  -0.211   1.947  0.00  0.00     0.418 HD
ENDBRANCH   4   7
TORSDOF 1
ENDMDL
