MODEL 1
REMARK minimizedAffinity 5.48051119
REMARK minimizedRMSD -1
REMARK  1 active torsions:
REMARK  status: ('A' for Active; 'I' for Inactive)
REMARK    1  A    between atoms: C3_4  and  O_7 
ROOT
ATOM      1  C   UNL d   1       0.319   2.801  -5.987  0.00  0.00    -0.033 A 
ATOM      2  C1  UNL d   1      -0.112   4.129  -5.974  0.00  0.00     0.039 A 
ATOM      3  C2  UNL d   1      -1.477   4.421  -5.976  0.00  0.00    -0.080 A 
ATOM      4  C3  UNL d   1      -2.399   3.379  -5.990  0.00  0.00     0.150 A 
ATOM      5  C4  UNL d   1      -1.977   2.053  -5.999  0.00  0.00    -0.007 A 
ATOM      6  C5  UNL d   1      -0.613   1.763  -5.998  0.00  0.00     0.039 A 
ENDROOT
BRANCH   4   7
ATOM      7  O   UNL d   1      -3.742   3.615  -5.997  0.00  0.00    -0.526 OA
ATOM      8  H5  UNL d   1      -3.885   4.576  -6.019  0.00  0.00     0.418 HD
ENDBRANCH   4   7
TORSDOF 1
ENDMDL
