MODEL 1
REMARK minimizedAffinity 0.863603473
REMARK minimizedRMSD -1
REMARK  1 active torsions:
REMARK  status: ('A' for Active; 'I' for Inactive)
REMARK    1  A    between atoms: C3_4  and  O_7 
ROOT
ATOM      1  C   UNL d   1       3.178   3.743   0.537  0.00  0.00    -0.033 A 
ATOM      2  C1  UNL d   1       2.852   3.237   1.797  0.00  0.00     0.039 A 
ATOM      3  C2  UNL d   1       1.670   2.517   1.978  0.00  0.00    -0.080 A 
ATOM      4  C3  UNL d   1       0.824   2.309   0.892  0.00  0.00     0.150 A 
ATOM      5  C4  UNL d   1       1.144   2.806  -0.367  0.00  0.00    -0.007 A 
ATOM      6  C5  UNL d   1       2.325   3.526  -0.545  0.00  0.00     0.039 A 
ENDROOT
BRANCH   4   7
ATOM      7  O   UNL d   1      -0.344   1.616   1.021  0.00  0.00    -0.526 OA
ATOM      8  H5  UNL d   1      -0.447   1.358   1.952  0.00  0.00     0.418 HD
ENDBRANCH   4   7
TORSDOF 1
ENDMDL
