MODEL 1
REMARK minimizedAffinity 7.72260904
REMARK minimizedRMSD -1
REMARK  1 active torsions:
REMARK  status: ('A' for Active; 'I' for Inactive)
REMARK    1  A    between atoms: C3_4  and  O_7 
ROOT
ATOM      1  C   UNL d   1       1.689   4.495  -5.999  0.00  0.00    -0.033 A 
ATOM      2  C1  UNL d   1       2.819   3.675  -6.000  0.00  0.00     0.039 A 
ATOM      3  C2  UNL d   1       2.927   2.632  -5.078  0.00  0.00    -0.080 A 
ATOM      4  C3  UNL d   1       1.899   2.420  -4.163  0.00  0.00     0.150 A 
ATOM      5  C4  UNL d   1       0.769   3.231  -4.159  0.00  0.00    -0.007 A 
ATOM      6  C5  UNL d   1       0.663   4.272  -5.080  0.00  0.00     0.039 A 
ENDROOT
BRANCH   4   7
ATOM      7  O   UNL d   1       1.962   1.418  -3.241  0.00  0.00    -0.526 OA
ATOM      8  H5  UNL d   1       2.812   0.958  -3.343  0.00  0.00     0.418 HD
ENDBRANCH   4   7
TORSDOF 1
ENDMDL
