MODEL 1
REMARK minimizedAffinity 3.52386427
REMARK minimizedRMSD -1
REMARK  1 active torsions:
REMARK  status: ('A' for Active; 'I' for Inactive)
REMARK    1  A    between atoms: C3_4  and  O_7 
ROOT
ATOM      1  C   UNL d   1       1.558   2.544  -5.997  0.00  0.00    -0.033 A 
ATOM      2  C1  UNL d   1       0.845   1.344  -5.998  0.00  0.00     0.039 A 
ATOM      3  C2  UNL d   1      -0.551   1.359  -5.997  0.00  0.00    -0.080 A 
ATOM      4  C3  UNL d   1      -1.221   2.579  -5.997  0.00  0.00     0.150 A 
ATOM      5  C4  UNL d   1      -0.517   3.779  -6.000  0.00  0.00    -0.007 A 
ATOM      6  C5  UNL d   1       0.877   3.762  -6.000  0.00  0.00     0.039 A 
ENDROOT
BRANCH   4   7
ATOM      7  O   UNL d   1      -2.583   2.644  -5.991  0.00  0.00    -0.526 OA
ATOM      8  H5  UNL d   1      -2.934   1.738  -5.960  0.00  0.00     0.418 HD
ENDBRANCH   4   7
TORSDOF 1
ENDMDL
