MODEL 1
REMARK minimizedAffinity 2.95978117
REMARK minimizedRMSD -1
REMARK  1 active torsions:
REMARK  status: ('A' for Active; 'I' for Inactive)
REMARK    1  A    between atoms: C3_4  and  O_7 
ROOT
ATOM      1  C   UNL d   1       1.144   3.357  -6.000  0.00  0.00    -0.033 A 
ATOM      2  C1  UNL d   1       0.267   3.486  -4.921  0.00  0.00     0.039 A 
ATOM      3  C2  UNL d   1       0.364   2.616  -3.833  0.00  0.00    -0.080 A 
ATOM      4  C3  UNL d   1       1.341   1.625  -3.835  0.00  0.00     0.150 A 
ATOM      5  C4  UNL d   1       2.220   1.493  -4.905  0.00  0.00    -0.007 A 
ATOM      6  C5  UNL d   1       2.122   2.362  -5.991  0.00  0.00     0.039 A 
ENDROOT
BRANCH   4   7
ATOM      7  O   UNL d   1       1.471   0.750  -2.797  0.00  0.00    -0.526 OA
ATOM      8  H5  UNL d   1       0.778   0.942  -2.144  0.00  0.00     0.418 HD
ENDBRANCH   4   7
TORSDOF 1
ENDMDL
