MODEL 1
REMARK minimizedAffinity -1.52378511
REMARK minimizedRMSD -1
REMARK  1 active torsions:
REMARK  status: ('A' for Active; 'I' for Inactive)
REMARK    1  A    between atoms: C3_4  and  O_7 
ROOT
ATOM      1  C   UNL d   1       1.448   3.095  -5.994  0.00  0.00    -0.033 A 
ATOM      2  C1  UNL d   1       1.353   4.488  -5.986  0.00  0.00     0.039 A 
ATOM      3  C2  UNL d   1       0.100   5.104  -5.986  0.00  0.00    -0.080 A 
ATOM      4  C3  UNL d   1      -1.049   4.317  -5.993  0.00  0.00     0.150 A 
ATOM      5  C4  UNL d   1      -0.962   2.929  -5.997  0.00  0.00    -0.007 A 
ATOM      6  C5  UNL d   1       0.290   2.315  -5.998  0.00  0.00     0.039 A 
ENDROOT
BRANCH   4   7
ATOM      7  O   UNL d   1      -2.293   4.873  -5.998  0.00  0.00    -0.526 OA
ATOM      8  H5  UNL d   1      -2.198   5.840  -6.024  0.00  0.00     0.418 HD
ENDBRANCH   4   7
TORSDOF 1
ENDMDL
