MODEL 1
REMARK minimizedAffinity 4.74186945
REMARK minimizedRMSD -1
REMARK  1 active torsions:
REMARK  status: ('A' for Active; 'I' for Inactive)
REMARK    1  A    between atoms: C3_4  and  O_7 
ROOT
ATOM      1  C   UNL d   1       3.488   4.209   0.744  0.00  0.00    -0.033 A 
ATOM      2  C1  UNL d   1       2.556   4.040  -0.281  0.00  0.00     0.039 A 
ATOM      3  C2  UNL d   1       1.419   3.257  -0.071  0.00  0.00    -0.080 A 
ATOM      4  C3  UNL d   1       1.226   2.650   1.167  0.00  0.00     0.150 A 
ATOM      5  C4  UNL d   1       2.149   2.817   2.194  0.00  0.00    -0.007 A 
ATOM      6  C5  UNL d   1       3.284   3.598   1.982  0.00  0.00     0.039 A 
ENDROOT
BRANCH   4   7
ATOM      7  O   UNL d   1       0.134   1.873   1.417  0.00  0.00    -0.526 OA
ATOM      8  H5  UNL d   1      -0.401   1.824   0.608  0.00  0.00     0.418 HD
ENDBRANCH   4   7
TORSDOF 1
ENDMDL
