MODEL 1
REMARK minimizedAffinity -3.53374767
REMARK minimizedRMSD -1
REMARK  0 active torsions:
REMARK  status: ('A' for Active; 'I' for Inactive)
ROOT
ATOM      1  C1  DEN d   1      -0.700  -0.101  -0.519  0.00  0.00     0.130 A 
ATOM      2  C2  DEN d   1      -1.293   1.076   0.110  0.00  0.00    -0.031 A 
ATOM      3  C3  DEN d   1      -0.239   1.758   0.888  0.00  0.00     0.027 A 
ATOM      4  C4  DEN d   1       2.241   1.112   1.174  0.00  0.00     0.027 A 
ATOM      5  C5  DEN d   1       3.206   0.187   0.840  0.00  0.00    -0.003 A 
ATOM      6  C6  DEN d   1       2.930  -0.908   0.065  0.00  0.00     0.001 A 
ATOM      7  C7  DEN d   1       1.669  -1.082  -0.441  0.00  0.00     0.017 A 
ATOM      8  C8  DEN d   1       0.689  -0.158  -0.103  0.00  0.00    -0.094 A 
ATOM      9  C9  DEN d   1       0.991   0.949   0.672  0.00  0.00    -0.072 A 
ENDROOT
TORSDOF 0
ENDMDL
