MODEL 1
REMARK minimizedAffinity -3.61007476
REMARK minimizedRMSD -1
REMARK  0 active torsions:
REMARK  status: ('A' for Active; 'I' for Inactive)
ROOT
ATOM      1  C1  DEN d   1       1.950  -1.867   0.334  0.00  0.00     0.130 A 
ATOM      2  C2  DEN d   1       3.203  -1.130   0.475  0.00  0.00    -0.031 A 
ATOM      3  C3  DEN d   1       2.894   0.312   0.405  0.00  0.00     0.027 A 
ATOM      4  C4  DEN d   1       0.610   1.470   0.101  0.00  0.00     0.027 A 
ATOM      5  C5  DEN d   1      -0.741   1.260  -0.074  0.00  0.00    -0.003 A 
ATOM      6  C6  DEN d   1      -1.280   0.004  -0.159  0.00  0.00     0.001 A 
ATOM      7  C7  DEN d   1      -0.470  -1.092  -0.023  0.00  0.00     0.017 A 
ATOM      8  C8  DEN d   1       0.894  -0.889   0.146  0.00  0.00    -0.094 A 
ATOM      9  C9  DEN d   1       1.418   0.389   0.241  0.00  0.00    -0.072 A 
ENDROOT
TORSDOF 0
ENDMDL
