MODEL 1
REMARK minimizedAffinity -2.8116672
REMARK minimizedRMSD -1
REMARK  0 active torsions:
REMARK  status: ('A' for Active; 'I' for Inactive)
ROOT
ATOM      1  C1  DEN d   1      -0.866  -0.601  -0.096  0.00  0.00     0.130 A 
ATOM      2  C2  DEN d   1      -1.281   0.770  -0.379  0.00  0.00    -0.031 A 
ATOM      3  C3  DEN d   1      -0.074   1.621  -0.384  0.00  0.00     0.027 A 
ATOM      4  C4  DEN d   1       2.385   0.951   0.010  0.00  0.00     0.027 A 
ATOM      5  C5  DEN d   1       3.230  -0.097   0.299  0.00  0.00    -0.003 A 
ATOM      6  C6  DEN d   1       2.770  -1.370   0.507  0.00  0.00     0.001 A 
ATOM      7  C7  DEN d   1       1.432  -1.636   0.386  0.00  0.00     0.017 A 
ATOM      8  C8  DEN d   1       0.572  -0.583   0.103  0.00  0.00    -0.094 A 
ATOM      9  C9  DEN d   1       1.058   0.695  -0.117  0.00  0.00    -0.072 A 
ENDROOT
TORSDOF 0
ENDMDL
