MODEL 1
REMARK minimizedAffinity -5.81470346
REMARK minimizedRMSD -1
REMARK  0 active torsions:
REMARK  status: ('A' for Active; 'I' for Inactive)
ROOT
ATOM      1  C1  DEN d   1      -0.026   1.423   0.302  0.00  0.00     0.130 A 
ATOM      2  C2  DEN d   1      -1.004   0.375   0.024  0.00  0.00    -0.031 A 
ATOM      3  C3  DEN d   1      -0.305  -0.926   0.071  0.00  0.00     0.027 A 
ATOM      4  C4  DEN d   1       2.181  -1.415   0.550  0.00  0.00     0.027 A 
ATOM      5  C5  DEN d   1       3.403  -0.845   0.832  0.00  0.00    -0.003 A 
ATOM      6  C6  DEN d   1       3.574   0.511   0.922  0.00  0.00     0.001 A 
ATOM      7  C7  DEN d   1       2.495   1.342   0.774  0.00  0.00     0.017 A 
ATOM      8  C8  DEN d   1       1.261   0.775   0.483  0.00  0.00    -0.094 A 
ATOM      9  C9  DEN d   1       1.107  -0.599   0.407  0.00  0.00    -0.072 A 
ENDROOT
TORSDOF 0
ENDMDL
