MODEL 1
REMARK minimizedAffinity -6.19033432
REMARK minimizedRMSD -1
REMARK  0 active torsions:
REMARK  status: ('A' for Active; 'I' for Inactive)
ROOT
ATOM      1  C1  DEN d   1       0.213   1.134   0.741  0.00  0.00     0.130 A 
ATOM      2  C2  DEN d   1       1.608   1.117   0.309  0.00  0.00    -0.031 A 
ATOM      3  C3  DEN d   1       1.687   0.345  -0.947  0.00  0.00     0.027 A 
ATOM      4  C4  DEN d   1      -0.205  -0.816  -2.261  0.00  0.00     0.027 A 
ATOM      5  C5  DEN d   1      -1.555  -1.087  -2.281  0.00  0.00    -0.003 A 
ATOM      6  C6  DEN d   1      -2.398  -0.669  -1.285  0.00  0.00     0.001 A 
ATOM      7  C7  DEN d   1      -1.907   0.082  -0.250  0.00  0.00     0.017 A 
ATOM      8  C8  DEN d   1      -0.545   0.353  -0.219  0.00  0.00    -0.094 A 
ATOM      9  C9  DEN d   1       0.289  -0.068  -1.241  0.00  0.00    -0.072 A 
ENDROOT
TORSDOF 0
ENDMDL
