MODEL 1
REMARK minimizedAffinity 0.536117494
REMARK minimizedRMSD -1
REMARK  0 active torsions:
REMARK  status: ('A' for Active; 'I' for Inactive)
ROOT
ATOM      1  C1  DEN d   1       0.247   1.569   1.133  0.00  0.00     0.130 A 
ATOM      2  C2  DEN d   1       0.577   2.355  -0.053  0.00  0.00    -0.031 A 
ATOM      3  C3  DEN d   1       0.525   1.457  -1.224  0.00  0.00     0.027 A 
ATOM      4  C4  DEN d   1      -0.035  -1.059  -1.316  0.00  0.00     0.027 A 
ATOM      5  C5  DEN d   1      -0.369  -2.163  -0.564  0.00  0.00    -0.003 A 
ATOM      6  C6  DEN d   1      -0.487  -2.109   0.800  0.00  0.00     0.001 A 
ATOM      7  C7  DEN d   1      -0.313  -0.915   1.449  0.00  0.00     0.017 A 
ATOM      8  C8  DEN d   1       0.031   0.201   0.698  0.00  0.00    -0.094 A 
ATOM      9  C9  DEN d   1       0.134   0.128  -0.681  0.00  0.00    -0.072 A 
ENDROOT
TORSDOF 0
ENDMDL
