MODEL 1
REMARK minimizedAffinity 0.227706358
REMARK minimizedRMSD -1
REMARK  1 active torsions:
REMARK  status: ('A' for Active; 'I' for Inactive)
REMARK    1  A    between atoms: C1_2  and  C2_3 
ROOT
ATOM      1  C2  UNL d   1      -2.250  -1.541  -1.449  0.00  0.00    -0.077 A 
ATOM      2  C3  UNL d   1      -2.631  -0.192  -1.450  0.00  0.00     0.002 A 
ATOM      3  C4  UNL d   1      -3.093   0.410  -2.622  0.00  0.00     0.002 A 
ATOM      4  C5  UNL d   1      -3.182  -0.329  -3.799  0.00  0.00    -0.004 A 
ATOM      5  C6  UNL d   1      -2.803  -1.671  -3.809  0.00  0.00     0.002 A 
ATOM      6  C7  UNL d   1      -2.340  -2.275  -2.639  0.00  0.00     0.002 A 
ENDROOT
BRANCH   1   7
ATOM      7  C1  UNL d   1      -1.799  -2.206  -0.174  0.00  0.00     0.055 C 
ATOM      8  C   UNL d   1      -1.323  -1.182   0.845  0.00  0.00     0.019 C 
ENDBRANCH   1   7
TORSDOF 1
ENDMDL
