MODEL 1
REMARK minimizedAffinity 5.98778296
REMARK minimizedRMSD -1
REMARK  1 active torsions:
REMARK  status: ('A' for Active; 'I' for Inactive)
REMARK    1  A    between atoms: C1_2  and  C2_3 
ROOT
ATOM      1  C2  UNL d   1       1.238   1.095   0.344  0.00  0.00    -0.077 A 
ATOM      2  C3  UNL d   1       0.506  -0.088   0.166  0.00  0.00     0.002 A 
ATOM      3  C4  UNL d   1       0.679  -1.163   1.040  0.00  0.00     0.002 A 
ATOM      4  C5  UNL d   1       1.579  -1.065   2.099  0.00  0.00    -0.004 A 
ATOM      5  C6  UNL d   1       2.313   0.106   2.283  0.00  0.00     0.002 A 
ATOM      6  C7  UNL d   1       2.143   1.181   1.410  0.00  0.00     0.002 A 
ENDROOT
BRANCH   1   7
ATOM      7  C1  UNL d   1       1.017   2.273  -0.568  0.00  0.00     0.055 C 
ATOM      8  C   UNL d   1      -0.202   3.080  -0.144  0.00  0.00     0.019 C 
ENDBRANCH   1   7
TORSDOF 1
ENDMDL
