MODEL 1
REMARK minimizedAffinity -2.47309995
REMARK minimizedRMSD -1
REMARK  1 active torsions:
REMARK  status: ('A' for Active; 'I' for Inactive)
REMARK    1  A    between atoms: C1_2  and  C2_3 
ROOT
ATOM      1  C2  UNL d   1       3.648  -3.562  -5.641  0.00  0.00    -0.077 A 
ATOM      2  C3  UNL d   1       4.965  -3.999  -5.842  0.00  0.00     0.002 A 
ATOM      3  C4  UNL d   1       5.999  -3.074  -5.998  0.00  0.00     0.002 A 
ATOM      4  C5  UNL d   1       5.728  -1.708  -5.951  0.00  0.00    -0.004 A 
ATOM      5  C6  UNL d   1       4.421  -1.264  -5.753  0.00  0.00     0.002 A 
ATOM      6  C7  UNL d   1       3.386  -2.187  -5.598  0.00  0.00     0.002 A 
ENDROOT
BRANCH   1   7
ATOM      7  C1  UNL d   1       2.539  -4.558  -5.423  0.00  0.00     0.055 C 
ATOM      8  C   UNL d   1       3.030  -5.985  -5.618  0.00  0.00     0.019 C 
ENDBRANCH   1   7
TORSDOF 1
ENDMDL
