MODEL 1
REMARK minimizedAffinity -3.36156273
REMARK minimizedRMSD -1
REMARK  1 active torsions:
REMARK  status: ('A' for Active; 'I' for Inactive)
REMARK    1  A    between atoms: C1_2  and  C2_3 
ROOT
ATOM      1  C2  UNL d   1       2.163   0.027   2.336  0.00  0.00    -0.077 A 
ATOM      2  C3  UNL d   1       0.959  -0.529   1.884  0.00  0.00     0.002 A 
ATOM      3  C4  UNL d   1       0.235   0.089   0.862  0.00  0.00     0.002 A 
ATOM      4  C5  UNL d   1       0.709   1.264   0.283  0.00  0.00    -0.004 A 
ATOM      5  C6  UNL d   1       1.905   1.827   0.728  0.00  0.00     0.002 A 
ATOM      6  C7  UNL d   1       2.629   1.211   1.749  0.00  0.00     0.002 A 
ENDROOT
BRANCH   1   7
ATOM      7  C1  UNL d   1       2.970  -0.665   3.404  0.00  0.00     0.055 C 
ATOM      8  C   UNL d   1       2.103  -1.039   4.598  0.00  0.00     0.019 C 
ENDBRANCH   1   7
TORSDOF 1
ENDMDL
