MODEL 1
REMARK minimizedAffinity 10.1415348
REMARK minimizedRMSD -1
REMARK  0 active torsions:
REMARK  status: ('A' for Active; 'I' for Inactive)
ROOT
ATOM      1  C   UNL d   1       4.635  -1.886   1.430  0.00  0.00     0.172 C 
ATOM      2  N   UNL d   1       3.213  -1.637   1.482  0.00  0.00    -0.070 N 
ATOM      3  C1  UNL d   1       2.562  -0.599   0.871  0.00  0.00    -0.004 A 
ATOM      4  C2  UNL d   1       1.219  -0.715   1.160  0.00  0.00    -0.047 A 
ATOM      5  C3  UNL d   1       1.058  -1.862   1.973  0.00  0.00    -0.047 A 
ATOM      6  C4  UNL d   1       2.308  -2.414   2.156  0.00  0.00    -0.004 A 
ENDROOT
TORSDOF 0
ENDMDL
