MODEL 1
REMARK minimizedAffinity 6.12473345
REMARK minimizedRMSD -1
REMARK  0 active torsions:
REMARK  status: ('A' for Active; 'I' for Inactive)
ROOT
ATOM      1  C   UNL d   1      -5.958   2.622   2.361  0.00  0.00     0.172 C 
ATOM      2  N   UNL d   1      -5.974   3.451   1.179  0.00  0.00    -0.070 N 
ATOM      3  C1  UNL d   1      -5.986   3.000  -0.113  0.00  0.00    -0.004 A 
ATOM      4  C2  UNL d   1      -6.000   4.099  -0.944  0.00  0.00    -0.047 A 
ATOM      5  C3  UNL d   1      -5.995   5.251  -0.123  0.00  0.00    -0.047 A 
ATOM      6  C4  UNL d   1      -5.980   4.821   1.187  0.00  0.00    -0.004 A 
ENDROOT
TORSDOF 0
ENDMDL
