MODEL 1
REMARK minimizedAffinity 4.9605093
REMARK minimizedRMSD -1
REMARK  0 active torsions:
REMARK  status: ('A' for Active; 'I' for Inactive)
ROOT
ATOM      1  C   UNL d   1      -5.965   4.785   0.131  0.00  0.00     0.172 C 
ATOM      2  N   UNL d   1      -4.835   4.329   0.905  0.00  0.00    -0.070 N 
ATOM      3  C1  UNL d   1      -3.693   3.769   0.398  0.00  0.00    -0.004 A 
ATOM      4  C2  UNL d   1      -2.862   3.473   1.457  0.00  0.00    -0.047 A 
ATOM      5  C3  UNL d   1      -3.527   3.868   2.641  0.00  0.00    -0.047 A 
ATOM      6  C4  UNL d   1      -4.746   4.395   2.271  0.00  0.00    -0.004 A 
ENDROOT
TORSDOF 0
ENDMDL
