MODEL 1
REMARK minimizedAffinity 4.14707136
REMARK minimizedRMSD -1
REMARK  0 active torsions:
REMARK  status: ('A' for Active; 'I' for Inactive)
ROOT
ATOM      1  C   UNL d   1      -3.758  -1.711  -4.512  0.00  0.00     0.172 C 
ATOM      2  N   UNL d   1      -4.555  -2.854  -4.893  0.00  0.00    -0.070 N 
ATOM      3  C1  UNL d   1      -4.568  -4.066  -4.257  0.00  0.00    -0.004 A 
ATOM      4  C2  UNL d   1      -5.454  -4.884  -4.924  0.00  0.00    -0.047 A 
ATOM      5  C3  UNL d   1      -5.992  -4.137  -5.999  0.00  0.00    -0.047 A 
ATOM      6  C4  UNL d   1      -5.418  -2.884  -5.956  0.00  0.00    -0.004 A 
ENDROOT
TORSDOF 0
ENDMDL
