MODEL 1
REMARK minimizedAffinity 4.57101107
REMARK minimizedRMSD -1
REMARK  0 active torsions:
REMARK  status: ('A' for Active; 'I' for Inactive)
ROOT
ATOM      1  C   UNL d   1       1.211  -2.408   4.153  0.00  0.00     0.172 C 
ATOM      2  N   UNL d   1       1.488  -1.862   2.845  0.00  0.00    -0.070 N 
ATOM      3  C1  UNL d   1       0.728  -0.926   2.195  0.00  0.00    -0.004 A 
ATOM      4  C2  UNL d   1       1.326  -0.669   0.979  0.00  0.00    -0.047 A 
ATOM      5  C3  UNL d   1       2.483  -1.479   0.897  0.00  0.00    -0.047 A 
ATOM      6  C4  UNL d   1       2.559  -2.207   2.065  0.00  0.00    -0.004 A 
ENDROOT
TORSDOF 0
ENDMDL
