MODEL 1
REMARK minimizedAffinity -1.42756927
REMARK minimizedRMSD -1
REMARK  0 active torsions:
REMARK  status: ('A' for Active; 'I' for Inactive)
ROOT
ATOM      1  C   UNL d   1       3.100   4.443  -2.567  0.00  0.00     0.172 C 
ATOM      2  N   UNL d   1       4.134   4.962  -3.431  0.00  0.00    -0.070 N 
ATOM      3  C1  UNL d   1       4.150   4.876  -4.797  0.00  0.00    -0.004 A 
ATOM      4  C2  UNL d   1       5.300   5.490  -5.245  0.00  0.00    -0.047 A 
ATOM      5  C3  UNL d   1       6.000   5.959  -4.108  0.00  0.00    -0.047 A 
ATOM      6  C4  UNL d   1       5.255   5.619  -2.998  0.00  0.00    -0.004 A 
ENDROOT
TORSDOF 0
ENDMDL
