MODEL 1
REMARK minimizedAffinity -2.80169606
REMARK minimizedRMSD -1
REMARK  0 active torsions:
REMARK  status: ('A' for Active; 'I' for Inactive)
ROOT
ATOM      1  C   UNL d   1       5.604   4.934  -5.998  0.00  0.00     0.172 C 
ATOM      2  N   UNL d   1       5.471   4.980  -4.561  0.00  0.00    -0.070 N 
ATOM      3  C1  UNL d   1       6.000   5.940  -3.741  0.00  0.00    -0.004 A 
ATOM      4  C2  UNL d   1       5.650   5.628  -2.445  0.00  0.00    -0.047 A 
ATOM      5  C3  UNL d   1       4.885   4.438  -2.488  0.00  0.00    -0.047 A 
ATOM      6  C4  UNL d   1       4.790   4.059  -3.810  0.00  0.00    -0.004 A 
ENDROOT
TORSDOF 0
ENDMDL
