MODEL 1
REMARK minimizedAffinity 1.71194184
REMARK minimizedRMSD -1
REMARK  0 active torsions:
REMARK  status: ('A' for Active; 'I' for Inactive)
ROOT
ATOM      1  C   UNL d   1       0.950  -1.707   3.986  0.00  0.00     0.172 C 
ATOM      2  N   UNL d   1       1.790  -1.139   2.957  0.00  0.00    -0.070 N 
ATOM      3  C1  UNL d   1       1.841   0.184   2.609  0.00  0.00    -0.004 A 
ATOM      4  C2  UNL d   1       2.760   0.317   1.591  0.00  0.00    -0.047 A 
ATOM      5  C3  UNL d   1       3.279  -0.971   1.318  0.00  0.00    -0.047 A 
ATOM      6  C4  UNL d   1       2.661  -1.854   2.178  0.00  0.00    -0.004 A 
ENDROOT
TORSDOF 0
ENDMDL
