MODEL 1
REMARK minimizedAffinity 4.28498888
REMARK minimizedRMSD -1
REMARK  0 active torsions:
REMARK  status: ('A' for Active; 'I' for Inactive)
ROOT
ATOM      1  C   UNL d   1       1.241  -5.989  -4.845  0.00  0.00    -0.002 A 
ATOM      2  C1  UNL d   1       0.469  -5.988  -5.999  0.00  0.00     0.010 A 
ATOM      3  C2  UNL d   1      -0.925  -5.990  -5.921  0.00  0.00     0.041 A 
ATOM      4  C3  UNL d   1      -1.537  -5.991  -4.652  0.00  0.00    -0.075 A 
ATOM      5  S   UNL d   1      -3.227  -5.993  -4.313  0.00  0.00     0.015 SA
ATOM      6  C4  UNL d   1      -2.965  -5.994  -2.629  0.00  0.00     0.022 A 
ATOM      7  C5  UNL d   1      -1.626  -5.994  -2.315  0.00  0.00     0.026 A 
ATOM      8  C6  UNL d   1      -0.781  -5.992  -3.476  0.00  0.00    -0.082 A 
ATOM      9  C7  UNL d   1       0.630  -5.991  -3.588  0.00  0.00     0.045 A 
ENDROOT
TORSDOF 0
ENDMDL
