MODEL 1
REMARK minimizedAffinity 1.70921803
REMARK minimizedRMSD -1
REMARK  0 active torsions:
REMARK  status: ('A' for Active; 'I' for Inactive)
ROOT
ATOM      1  C   UNL d   1      -1.468  -5.964  -1.479  0.00  0.00    -0.002 A 
ATOM      2  C1  UNL d   1      -2.692  -5.988  -2.132  0.00  0.00     0.010 A 
ATOM      3  C2  UNL d   1      -2.753  -6.000  -3.527  0.00  0.00     0.041 A 
ATOM      4  C3  UNL d   1      -1.551  -5.988  -4.261  0.00  0.00    -0.075 A 
ATOM      5  S   UNL d   1      -1.381  -6.000  -5.977  0.00  0.00     0.015 SA
ATOM      6  C4  UNL d   1       0.321  -5.973  -5.883  0.00  0.00     0.022 A 
ATOM      7  C5  UNL d   1       0.765  -5.956  -4.583  0.00  0.00     0.026 A 
ATOM      8  C6  UNL d   1      -0.306  -5.964  -3.626  0.00  0.00    -0.082 A 
ATOM      9  C7  UNL d   1      -0.278  -5.952  -2.211  0.00  0.00     0.045 A 
ENDROOT
TORSDOF 0
ENDMDL
