MODEL 1
REMARK minimizedAffinity 8.31494236
REMARK minimizedRMSD -1
REMARK  0 active torsions:
REMARK  status: ('A' for Active; 'I' for Inactive)
ROOT
ATOM      1  C   UNL d   1       5.998   3.169  -1.459  0.00  0.00    -0.002 A 
ATOM      2  C1  UNL d   1       5.735   1.810  -1.557  0.00  0.00     0.010 A 
ATOM      3  C2  UNL d   1       4.511   1.290  -1.130  0.00  0.00     0.041 A 
ATOM      4  C3  UNL d   1       3.546   2.169  -0.600  0.00  0.00    -0.075 A 
ATOM      5  S   UNL d   1       1.977   1.758  -0.015  0.00  0.00     0.015 SA
ATOM      6  C4  UNL d   1       1.618   3.377   0.378  0.00  0.00     0.022 A 
ATOM      7  C5  UNL d   1       2.659   4.224   0.077  0.00  0.00     0.026 A 
ATOM      8  C6  UNL d   1       3.787   3.541  -0.492  0.00  0.00    -0.082 A 
ATOM      9  C7  UNL d   1       5.038   4.037  -0.932  0.00  0.00     0.045 A 
ENDROOT
TORSDOF 0
ENDMDL
