MODEL 1
REMARK minimizedAffinity 0.420004159
REMARK minimizedRMSD -1
REMARK  0 active torsions:
REMARK  status: ('A' for Active; 'I' for Inactive)
ROOT
ATOM      1  C   UNL d   1      -3.306  -5.989  -3.418  0.00  0.00    -0.002 A 
ATOM      2  C1  UNL d   1      -2.514  -5.948  -2.279  0.00  0.00     0.010 A 
ATOM      3  C2  UNL d   1      -1.122  -5.919  -2.382  0.00  0.00     0.041 A 
ATOM      4  C3  UNL d   1      -0.533  -5.929  -3.662  0.00  0.00    -0.075 A 
ATOM      5  S   UNL d   1       1.151  -5.898  -4.031  0.00  0.00     0.015 SA
ATOM      6  C4  UNL d   1       0.859  -5.936  -5.710  0.00  0.00     0.022 A 
ATOM      7  C5  UNL d   1      -0.485  -5.973  -5.999  0.00  0.00     0.026 A 
ATOM      8  C6  UNL d   1      -1.309  -5.969  -4.824  0.00  0.00    -0.082 A 
ATOM      9  C7  UNL d   1      -2.718  -5.999  -4.686  0.00  0.00     0.045 A 
ENDROOT
TORSDOF 0
ENDMDL
