MODEL 1
REMARK minimizedAffinity 6.62953901
REMARK minimizedRMSD -1
REMARK  0 active torsions:
REMARK  status: ('A' for Active; 'I' for Inactive)
ROOT
ATOM      1  C   UNL d   1       0.520  -3.392   1.775  0.00  0.00    -0.002 A 
ATOM      2  C1  UNL d   1      -0.388  -3.661   0.761  0.00  0.00     0.010 A 
ATOM      3  C2  UNL d   1      -0.725  -2.676  -0.169  0.00  0.00     0.041 A 
ATOM      4  C3  UNL d   1      -0.127  -1.405  -0.063  0.00  0.00    -0.075 A 
ATOM      5  S   UNL d   1      -0.388  -0.044  -1.090  0.00  0.00     0.015 SA
ATOM      6  C4  UNL d   1       0.701   0.925  -0.207  0.00  0.00     0.022 A 
ATOM      7  C5  UNL d   1       1.259   0.243   0.849  0.00  0.00     0.026 A 
ATOM      8  C6  UNL d   1       0.791  -1.111   0.949  0.00  0.00    -0.082 A 
ATOM      9  C7  UNL d   1       1.112  -2.130   1.877  0.00  0.00     0.045 A 
ENDROOT
TORSDOF 0
ENDMDL
