MODEL 1
REMARK minimizedAffinity -1.10231996
REMARK minimizedRMSD -1
REMARK  0 active torsions:
REMARK  status: ('A' for Active; 'I' for Inactive)
ROOT
ATOM      1  C   UNL d   1       1.169  -5.995  -5.985  0.00  0.00    -0.002 A 
ATOM      2  C1  UNL d   1       1.965  -5.998  -4.849  0.00  0.00     0.010 A 
ATOM      3  C2  UNL d   1       1.388  -5.999  -3.577  0.00  0.00     0.041 A 
ATOM      4  C3  UNL d   1      -0.016  -5.998  -3.466  0.00  0.00    -0.075 A 
ATOM      5  S   UNL d   1      -0.944  -6.000  -2.013  0.00  0.00     0.015 SA
ATOM      6  C4  UNL d   1      -2.419  -5.998  -2.867  0.00  0.00     0.022 A 
ATOM      7  C5  UNL d   1      -2.227  -5.995  -4.228  0.00  0.00     0.026 A 
ATOM      8  C6  UNL d   1      -0.839  -5.996  -4.596  0.00  0.00    -0.082 A 
ATOM      9  C7  UNL d   1      -0.224  -5.995  -5.871  0.00  0.00     0.045 A 
ENDROOT
TORSDOF 0
ENDMDL
