MODEL 1
REMARK minimizedAffinity 7.55819941
REMARK minimizedRMSD -1
REMARK  0 active torsions:
REMARK  status: ('A' for Active; 'I' for Inactive)
ROOT
ATOM      1  C   UNL d   1       1.563  -2.636   5.997  0.00  0.00    -0.002 A 
ATOM      2  C1  UNL d   1       0.559  -3.308   5.314  0.00  0.00     0.010 A 
ATOM      3  C2  UNL d   1       0.298  -3.020   3.973  0.00  0.00     0.041 A 
ATOM      4  C3  UNL d   1       1.070  -2.037   3.323  0.00  0.00    -0.075 A 
ATOM      5  S   UNL d   1       0.930  -1.519   1.685  0.00  0.00     0.015 SA
ATOM      6  C4  UNL d   1       2.199  -0.394   1.854  0.00  0.00     0.022 A 
ATOM      7  C5  UNL d   1       2.728  -0.400   3.122  0.00  0.00     0.026 A 
ATOM      8  C6  UNL d   1       2.087  -1.348   3.990  0.00  0.00    -0.082 A 
ATOM      9  C7  UNL d   1       2.327  -1.662   5.350  0.00  0.00     0.045 A 
ENDROOT
TORSDOF 0
ENDMDL
