MODEL 1
REMARK minimizedAffinity -1.63234997
REMARK minimizedRMSD -1
REMARK  0 active torsions:
REMARK  status: ('A' for Active; 'I' for Inactive)
ROOT
ATOM      1  C   UNL d   1      -2.604  -5.991  -1.875  0.00  0.00    -0.002 A 
ATOM      2  C1  UNL d   1      -3.486  -5.992  -2.946  0.00  0.00     0.010 A 
ATOM      3  C2  UNL d   1      -3.010  -5.993  -4.258  0.00  0.00     0.041 A 
ATOM      4  C3  UNL d   1      -1.618  -5.995  -4.478  0.00  0.00    -0.075 A 
ATOM      5  S   UNL d   1      -0.806  -5.998  -5.999  0.00  0.00     0.015 SA
ATOM      6  C4  UNL d   1       0.731  -5.999  -5.263  0.00  0.00     0.022 A 
ATOM      7  C5  UNL d   1       0.645  -5.997  -3.891  0.00  0.00     0.026 A 
ATOM      8  C6  UNL d   1      -0.710  -5.995  -3.416  0.00  0.00    -0.082 A 
ATOM      9  C7  UNL d   1      -1.224  -5.993  -2.097  0.00  0.00     0.045 A 
ENDROOT
TORSDOF 0
ENDMDL
