MODEL 1
REMARK minimizedAffinity 4.64490747
REMARK minimizedRMSD -1
REMARK  0 active torsions:
REMARK  status: ('A' for Active; 'I' for Inactive)
ROOT
ATOM      1  C   UNL d   1      -0.010  -5.995  -4.232  0.00  0.00    -0.002 A 
ATOM      2  C1  UNL d   1      -0.847  -5.995  -5.338  0.00  0.00     0.010 A 
ATOM      3  C2  UNL d   1      -2.234  -5.997  -5.179  0.00  0.00     0.041 A 
ATOM      4  C3  UNL d   1      -2.771  -5.998  -3.876  0.00  0.00    -0.075 A 
ATOM      5  S   UNL d   1      -4.438  -6.000  -3.439  0.00  0.00     0.015 SA
ATOM      6  C4  UNL d   1      -4.078  -6.000  -1.773  0.00  0.00     0.022 A 
ATOM      7  C5  UNL d   1      -2.724  -5.999  -1.538  0.00  0.00     0.026 A 
ATOM      8  C6  UNL d   1      -1.948  -5.997  -2.747  0.00  0.00    -0.082 A 
ATOM      9  C7  UNL d   1      -0.545  -5.996  -2.941  0.00  0.00     0.045 A 
ENDROOT
TORSDOF 0
ENDMDL
