MODEL 1
REMARK minimizedAffinity -1.86099708
REMARK minimizedRMSD -1
REMARK  0 active torsions:
REMARK  status: ('A' for Active; 'I' for Inactive)
ROOT
ATOM      1  C   UNL d   1      -1.847  -5.996  -1.410  0.00  0.00    -0.002 A 
ATOM      2  C1  UNL d   1      -3.129  -5.999  -1.943  0.00  0.00     0.010 A 
ATOM      3  C2  UNL d   1      -3.323  -6.000  -3.325  0.00  0.00     0.041 A 
ATOM      4  C3  UNL d   1      -2.197  -5.999  -4.172  0.00  0.00    -0.075 A 
ATOM      5  S   UNL d   1      -2.193  -6.000  -5.896  0.00  0.00     0.015 SA
ATOM      6  C4  UNL d   1      -0.490  -5.996  -5.966  0.00  0.00     0.022 A 
ATOM      7  C5  UNL d   1       0.077  -5.994  -4.714  0.00  0.00     0.026 A 
ATOM      8  C6  UNL d   1      -0.897  -5.996  -3.659  0.00  0.00    -0.082 A 
ATOM      9  C7  UNL d   1      -0.733  -5.994  -2.253  0.00  0.00     0.045 A 
ENDROOT
TORSDOF 0
ENDMDL
