MODEL 1
REMARK minimizedAffinity 4.07651424
REMARK minimizedRMSD -1
REMARK  0 active torsions:
REMARK  status: ('A' for Active; 'I' for Inactive)
ROOT
ATOM      1  C   UNL d   1      -4.628  -5.975   2.415  0.00  0.00    -0.002 A 
ATOM      2  C1  UNL d   1      -5.879  -5.971   1.815  0.00  0.00     0.010 A 
ATOM      3  C2  UNL d   1      -6.000  -5.973   0.424  0.00  0.00     0.041 A 
ATOM      4  C3  UNL d   1      -4.831  -5.981  -0.362  0.00  0.00    -0.075 A 
ATOM      5  S   UNL d   1      -4.735  -5.985  -2.083  0.00  0.00     0.015 SA
ATOM      6  C4  UNL d   1      -3.031  -5.993  -2.063  0.00  0.00     0.022 A 
ATOM      7  C5  UNL d   1      -2.530  -5.993  -0.783  0.00  0.00     0.026 A 
ATOM      8  C6  UNL d   1      -3.559  -5.986   0.219  0.00  0.00    -0.082 A 
ATOM      9  C7  UNL d   1      -3.470  -5.983   1.632  0.00  0.00     0.045 A 
ENDROOT
TORSDOF 0
ENDMDL
