MODEL 1
REMARK minimizedAffinity 0.944133937
REMARK minimizedRMSD -1
REMARK  0 active torsions:
REMARK  status: ('A' for Active; 'I' for Inactive)
ROOT
ATOM      1  C   UNL d   1       0.867  -5.968  -5.039  0.00  0.00    -0.002 A 
ATOM      2  C1  UNL d   1      -0.141  -5.978  -5.992  0.00  0.00     0.010 A 
ATOM      3  C2  UNL d   1      -1.483  -5.987  -5.606  0.00  0.00     0.041 A 
ATOM      4  C3  UNL d   1      -1.797  -5.983  -4.233  0.00  0.00    -0.075 A 
ATOM      5  S   UNL d   1      -3.370  -5.992  -3.526  0.00  0.00     0.015 SA
ATOM      6  C4  UNL d   1      -2.740  -5.982  -1.942  0.00  0.00     0.022 A 
ATOM      7  C5  UNL d   1      -1.365  -5.973  -1.935  0.00  0.00     0.026 A 
ATOM      8  C6  UNL d   1      -0.799  -5.973  -3.254  0.00  0.00    -0.082 A 
ATOM      9  C7  UNL d   1       0.552  -5.965  -3.678  0.00  0.00     0.045 A 
ENDROOT
TORSDOF 0
ENDMDL
