MODEL 1
REMARK minimizedAffinity 3.9410131
REMARK minimizedRMSD -1
REMARK  0 active torsions:
REMARK  status: ('A' for Active; 'I' for Inactive)
ROOT
ATOM      1  C   UNL d   1      -5.428  -0.555   0.931  0.00  0.00    -0.002 A 
ATOM      2  C1  UNL d   1      -4.528   0.393   1.397  0.00  0.00     0.010 A 
ATOM      3  C2  UNL d   1      -3.935   1.302   0.519  0.00  0.00     0.041 A 
ATOM      4  C3  UNL d   1      -4.267   1.243  -0.849  0.00  0.00    -0.075 A 
ATOM      5  S   UNL d   1      -3.666   2.256  -2.109  0.00  0.00     0.015 SA
ATOM      6  C4  UNL d   1      -4.591   1.455  -3.295  0.00  0.00     0.022 A 
ATOM      7  C5  UNL d   1      -5.346   0.437  -2.761  0.00  0.00     0.026 A 
ATOM      8  C6  UNL d   1      -5.172   0.299  -1.342  0.00  0.00    -0.082 A 
ATOM      9  C7  UNL d   1      -5.755  -0.610  -0.427  0.00  0.00     0.045 A 
ENDROOT
TORSDOF 0
ENDMDL
