MODEL 1
REMARK minimizedAffinity 0.867114246
REMARK minimizedRMSD -1
REMARK  0 active torsions:
REMARK  status: ('A' for Active; 'I' for Inactive)
ROOT
ATOM      1  C   UNL d   1      -1.743  -5.999  -1.450  0.00  0.00    -0.002 A 
ATOM      2  C1  UNL d   1      -2.979  -5.999  -2.080  0.00  0.00     0.010 A 
ATOM      3  C2  UNL d   1      -3.066  -5.993  -3.474  0.00  0.00     0.041 A 
ATOM      4  C3  UNL d   1      -1.877  -5.989  -4.231  0.00  0.00    -0.075 A 
ATOM      5  S   UNL d   1      -1.739  -5.982  -5.949  0.00  0.00     0.015 SA
ATOM      6  C4  UNL d   1      -0.036  -5.980  -5.887  0.00  0.00     0.022 A 
ATOM      7  C5  UNL d   1       0.433  -5.984  -4.595  0.00  0.00     0.026 A 
ATOM      8  C6  UNL d   1      -0.621  -5.990  -3.619  0.00  0.00    -0.082 A 
ATOM      9  C7  UNL d   1      -0.566  -5.995  -2.204  0.00  0.00     0.045 A 
ENDROOT
TORSDOF 0
ENDMDL
