MODEL 1
REMARK minimizedAffinity -5.5316062
REMARK minimizedRMSD -1
REMARK  0 active torsions:
REMARK  status: ('A' for Active; 'I' for Inactive)
ROOT
ATOM      1  C4' PXY d   1      -3.044  -1.786  -0.832  0.00  0.00     0.077 C 
ATOM      2  C1' PXY d   1       1.517   0.688   1.715  0.00  0.00     0.077 C 
ATOM      3  C1  PXY d   1       0.322   0.029   1.055  0.00  0.00    -0.082 A 
ATOM      4  C2  PXY d   1      -0.038   0.398  -0.164  0.00  0.00     0.003 A 
ATOM      5  C3  PXY d   1      -1.135  -0.165  -0.763  0.00  0.00     0.003 A 
ATOM      6  C4  PXY d   1      -1.839  -1.155  -0.130  0.00  0.00    -0.082 A 
ATOM      7  C5  PXY d   1      -1.471  -1.545   1.108  0.00  0.00     0.003 A 
ATOM      8  C6  PXY d   1      -0.380  -0.931   1.716  0.00  0.00     0.003 A 
ENDROOT
TORSDOF 0
ENDMDL
