MODEL 1
REMARK minimizedAffinity 2.54992366
REMARK minimizedRMSD -1
REMARK  0 active torsions:
REMARK  status: ('A' for Active; 'I' for Inactive)
ROOT
ATOM      1  C4' PXY d   1      -0.225  -2.201   1.954  0.00  0.00     0.077 C 
ATOM      2  C1' PXY d   1       0.225   1.064  -2.796  0.00  0.00     0.077 C 
ATOM      3  C1  PXY d   1       0.120   0.207  -1.549  0.00  0.00    -0.082 A 
ATOM      4  C2  PXY d   1      -0.979  -0.496  -1.329  0.00  0.00     0.003 A 
ATOM      5  C3  PXY d   1      -1.104  -1.251  -0.192  0.00  0.00     0.003 A 
ATOM      6  C4  PXY d   1      -0.071  -1.329   0.704  0.00  0.00    -0.082 A 
ATOM      7  C5  PXY d   1       1.058  -0.624   0.481  0.00  0.00     0.003 A 
ATOM      8  C6  PXY d   1       1.148   0.169  -0.659  0.00  0.00     0.003 A 
ENDROOT
TORSDOF 0
ENDMDL
