MODEL 1
REMARK minimizedAffinity -5.24378824
REMARK minimizedRMSD -1
REMARK  0 active torsions:
REMARK  status: ('A' for Active; 'I' for Inactive)
ROOT
ATOM      1  C4' PXY d   1       1.962   3.542   0.806  0.00  0.00     0.077 C 
ATOM      2  C1' PXY d   1       0.476  -1.904   2.048  0.00  0.00     0.077 C 
ATOM      3  C1  PXY d   1       0.858  -0.472   1.732  0.00  0.00    -0.082 A 
ATOM      4  C2  PXY d   1       1.221  -0.147   0.502  0.00  0.00     0.003 A 
ATOM      5  C3  PXY d   1       1.601   1.136   0.206  0.00  0.00     0.003 A 
ATOM      6  C4  PXY d   1       1.558   2.110   1.168  0.00  0.00    -0.082 A 
ATOM      7  C5  PXY d   1       1.179   1.790   2.423  0.00  0.00     0.003 A 
ATOM      8  C6  PXY d   1       0.837   0.472   2.712  0.00  0.00     0.003 A 
ENDROOT
TORSDOF 0
ENDMDL
