MODEL 1
REMARK minimizedAffinity -1.59876418
REMARK minimizedRMSD -1
REMARK  0 active torsions:
REMARK  status: ('A' for Active; 'I' for Inactive)
ROOT
ATOM      1  C4' PXY d   1       0.051  -1.788   2.128  0.00  0.00     0.077 C 
ATOM      2  C1' PXY d   1      -1.536   1.012  -2.674  0.00  0.00     0.077 C 
ATOM      3  C1  PXY d   1      -1.107   0.281  -1.416  0.00  0.00    -0.082 A 
ATOM      4  C2  PXY d   1      -1.850  -0.710  -0.951  0.00  0.00     0.003 A 
ATOM      5  C3  PXY d   1      -1.494  -1.361   0.203  0.00  0.00     0.003 A 
ATOM      6  C4  PXY d   1      -0.338  -1.029   0.857  0.00  0.00    -0.082 A 
ATOM      7  C5  PXY d   1       0.430  -0.026   0.382  0.00  0.00     0.003 A 
ATOM      8  C6  PXY d   1       0.030   0.650  -0.767  0.00  0.00     0.003 A 
ENDROOT
TORSDOF 0
ENDMDL
