MODEL 1
REMARK minimizedAffinity -4.17989063
REMARK minimizedRMSD -1
REMARK  0 active torsions:
REMARK  status: ('A' for Active; 'I' for Inactive)
ROOT
ATOM      1  C4' PXY d   1       2.294   3.320   1.084  0.00  0.00     0.077 C 
ATOM      2  C1' PXY d   1       1.033  -2.264   1.887  0.00  0.00     0.077 C 
ATOM      3  C1  PXY d   1       1.374  -0.803   1.669  0.00  0.00    -0.082 A 
ATOM      4  C2  PXY d   1       0.974   0.100   2.549  0.00  0.00     0.003 A 
ATOM      5  C3  PXY d   1       1.246   1.430   2.351  0.00  0.00     0.003 A 
ATOM      6  C4  PXY d   1       1.981   1.832   1.268  0.00  0.00    -0.082 A 
ATOM      7  C5  PXY d   1       2.401   0.915   0.371  0.00  0.00     0.003 A 
ATOM      8  C6  PXY d   1       2.079  -0.424   0.569  0.00  0.00     0.003 A 
ENDROOT
TORSDOF 0
ENDMDL
