MODEL 1
REMARK minimizedAffinity -4.83006811
REMARK minimizedRMSD -1
REMARK  0 active torsions:
REMARK  status: ('A' for Active; 'I' for Inactive)
ROOT
ATOM      1  C4' PXY d   1       2.719   3.515   1.144  0.00  0.00     0.077 C 
ATOM      2  C1' PXY d   1       0.022  -1.543   1.893  0.00  0.00     0.077 C 
ATOM      3  C1  PXY d   1       0.725  -0.212   1.709  0.00  0.00    -0.082 A 
ATOM      4  C2  PXY d   1       1.000   0.218   0.488  0.00  0.00     0.003 A 
ATOM      5  C3  PXY d   1       1.664   1.403   0.304  0.00  0.00     0.003 A 
ATOM      6  C4  PXY d   1       2.002   2.182   1.378  0.00  0.00    -0.082 A 
ATOM      7  C5  PXY d   1       1.715   1.755   2.626  0.00  0.00     0.003 A 
ATOM      8  C6  PXY d   1       1.077   0.529   2.793  0.00  0.00     0.003 A 
ENDROOT
TORSDOF 0
ENDMDL
