MODEL 1
REMARK minimizedAffinity -3.61597991
REMARK minimizedRMSD -1
REMARK  0 active torsions:
REMARK  status: ('A' for Active; 'I' for Inactive)
ROOT
ATOM      1  C4' PXY d   1       2.252   2.082  -0.343  0.00  0.00     0.077 C 
ATOM      2  C1' PXY d   1      -2.177  -1.542  -1.159  0.00  0.00     0.077 C 
ATOM      3  C1  PXY d   1      -1.015  -0.595  -0.932  0.00  0.00    -0.082 A 
ATOM      4  C2  PXY d   1      -0.863   0.455  -1.723  0.00  0.00     0.003 A 
ATOM      5  C3  PXY d   1       0.200   1.303  -1.553  0.00  0.00     0.003 A 
ATOM      6  C4  PXY d   1       1.088   1.105  -0.529  0.00  0.00    -0.082 A 
ATOM      7  C5  PXY d   1       0.933   0.042   0.289  0.00  0.00     0.003 A 
ATOM      8  C6  PXY d   1      -0.130  -0.831   0.073  0.00  0.00     0.003 A 
ENDROOT
TORSDOF 0
ENDMDL
