MODEL 1
REMARK minimizedAffinity -1.31462264
REMARK minimizedRMSD -1
REMARK  0 active torsions:
REMARK  status: ('A' for Active; 'I' for Inactive)
ROOT
ATOM      1  C4' PXY d   1      -2.201  -0.848  -1.338  0.00  0.00     0.077 C 
ATOM      2  C1' PXY d   1       2.006   2.485   0.809  0.00  0.00     0.077 C 
ATOM      3  C1  PXY d   1       0.912   1.604   0.240  0.00  0.00    -0.082 A 
ATOM      4  C2  PXY d   1      -0.321   2.074   0.139  0.00  0.00     0.003 A 
ATOM      5  C3  PXY d   1      -1.329   1.280  -0.344  0.00  0.00     0.003 A 
ATOM      6  C4  PXY d   1      -1.063   0.009  -0.778  0.00  0.00    -0.082 A 
ATOM      7  C5  PXY d   1       0.194  -0.475  -0.688  0.00  0.00     0.003 A 
ATOM      8  C6  PXY d   1       1.196   0.333  -0.156  0.00  0.00     0.003 A 
ENDROOT
TORSDOF 0
ENDMDL
