MODEL 1
REMARK minimizedAffinity -6.18098116
REMARK minimizedRMSD -1
REMARK  0 active torsions:
REMARK  status: ('A' for Active; 'I' for Inactive)
ROOT
ATOM      1  C4' PXY d   1      -3.164  -1.979   0.041  0.00  0.00     0.077 C 
ATOM      2  C1' PXY d   1       1.944   0.258   1.563  0.00  0.00     0.077 C 
ATOM      3  C1  PXY d   1       0.608  -0.340   1.169  0.00  0.00    -0.082 A 
ATOM      4  C2  PXY d   1      -0.090   0.208   0.187  0.00  0.00     0.003 A 
ATOM      5  C3  PXY d   1      -1.314  -0.301  -0.161  0.00  0.00     0.003 A 
ATOM      6  C4  PXY d   1      -1.806  -1.414   0.467  0.00  0.00    -0.082 A 
ATOM      7  C5  PXY d   1      -1.095  -1.985   1.462  0.00  0.00     0.003 A 
ATOM      8  C6  PXY d   1       0.127  -1.428   1.828  0.00  0.00     0.003 A 
ENDROOT
TORSDOF 0
ENDMDL
