MODEL 1
REMARK minimizedAffinity -4.649611
REMARK minimizedRMSD -1
REMARK  0 active torsions:
REMARK  status: ('A' for Active; 'I' for Inactive)
ROOT
ATOM      1  C4' PXY d   1       1.991   2.103   2.056  0.00  0.00     0.077 C 
ATOM      2  C1' PXY d   1      -1.981  -0.894  -0.887  0.00  0.00     0.077 C 
ATOM      3  C1  PXY d   1      -0.930  -0.117  -0.118  0.00  0.00    -0.082 A 
ATOM      4  C2  PXY d   1      -1.305   0.739   0.819  0.00  0.00     0.003 A 
ATOM      5  C3  PXY d   1      -0.370   1.473   1.502  0.00  0.00     0.003 A 
ATOM      6  C4  PXY d   1       0.966   1.290   1.261  0.00  0.00    -0.082 A 
ATOM      7  C5  PXY d   1       1.357   0.411   0.315  0.00  0.00     0.003 A 
ATOM      8  C6  PXY d   1       0.390  -0.294  -0.396  0.00  0.00     0.003 A 
ENDROOT
TORSDOF 0
ENDMDL
