MODEL 1
REMARK minimizedAffinity -6.02482462
REMARK minimizedRMSD -1
REMARK  0 active torsions:
REMARK  status: ('A' for Active; 'I' for Inactive)
ROOT
ATOM      1  C4' PXY d   1       2.097   1.291   0.264  0.00  0.00     0.077 C 
ATOM      2  C1' PXY d   1      -3.102  -1.198  -0.174  0.00  0.00     0.077 C 
ATOM      3  C1  PXY d   1      -1.739  -0.546  -0.046  0.00  0.00    -0.082 A 
ATOM      4  C2  PXY d   1      -1.279   0.207  -1.032  0.00  0.00     0.003 A 
ATOM      5  C3  PXY d   1      -0.036   0.778  -0.947  0.00  0.00     0.003 A 
ATOM      6  C4  PXY d   1       0.723   0.620   0.182  0.00  0.00    -0.082 A 
ATOM      7  C5  PXY d   1       0.257  -0.138   1.197  0.00  0.00     0.003 A 
ATOM      8  C6  PXY d   1      -0.991  -0.742   1.073  0.00  0.00     0.003 A 
ENDROOT
TORSDOF 0
ENDMDL
