MODEL 1
REMARK minimizedAffinity -4.58141994
REMARK minimizedRMSD -1
REMARK  0 active torsions:
REMARK  status: ('A' for Active; 'I' for Inactive)
ROOT
ATOM      1  C4' PXY d   1       1.983   0.793   2.159  0.00  0.00     0.077 C 
ATOM      2  C1' PXY d   1      -2.496  -0.776  -1.143  0.00  0.00     0.077 C 
ATOM      3  C1  PXY d   1      -1.313  -0.366  -0.287  0.00  0.00    -0.082 A 
ATOM      4  C2  PXY d   1      -1.375  -0.511   1.027  0.00  0.00     0.003 A 
ATOM      5  C3  PXY d   1      -0.327  -0.116   1.818  0.00  0.00     0.003 A 
ATOM      6  C4  PXY d   1       0.816   0.384   1.255  0.00  0.00    -0.082 A 
ATOM      7  C5  PXY d   1       0.891   0.525  -0.086  0.00  0.00     0.003 A 
ATOM      8  C6  PXY d   1      -0.199   0.156  -0.868  0.00  0.00     0.003 A 
ENDROOT
TORSDOF 0
ENDMDL
