MODEL 1
REMARK minimizedAffinity -4.51553535
REMARK minimizedRMSD -1
REMARK  0 active torsions:
REMARK  status: ('A' for Active; 'I' for Inactive)
ROOT
ATOM      1  C4' PXY d   1       0.357  -1.562   1.853  0.00  0.00     0.077 C 
ATOM      2  C1' PXY d   1      -0.200   1.560  -2.980  0.00  0.00     0.077 C 
ATOM      3  C1  PXY d   1      -0.066   0.743  -1.710  0.00  0.00    -0.082 A 
ATOM      4  C2  PXY d   1       1.112   0.643  -1.117  0.00  0.00     0.003 A 
ATOM      5  C3  PXY d   1       1.257  -0.118   0.014  0.00  0.00     0.003 A 
ATOM      6  C4  PXY d   1       0.174  -0.740   0.574  0.00  0.00    -0.082 A 
ATOM      7  C5  PXY d   1      -1.034  -0.634  -0.019  0.00  0.00     0.003 A 
ATOM      8  C6  PXY d   1      -1.152   0.109  -1.190  0.00  0.00     0.003 A 
ENDROOT
TORSDOF 0
ENDMDL
