MODEL 1
REMARK minimizedAffinity -5.55929804
REMARK minimizedRMSD -1
REMARK  0 active torsions:
REMARK  status: ('A' for Active; 'I' for Inactive)
ROOT
ATOM      1  C4' PXY d   1       1.834   0.812  -0.386  0.00  0.00     0.077 C 
ATOM      2  C1' PXY d   1      -3.555  -1.185   0.234  0.00  0.00     0.077 C 
ATOM      3  C1  PXY d   1      -2.140  -0.661   0.085  0.00  0.00    -0.082 A 
ATOM      4  C2  PXY d   1      -1.790  -0.032  -1.026  0.00  0.00     0.003 A 
ATOM      5  C3  PXY d   1      -0.506   0.420  -1.191  0.00  0.00     0.003 A 
ATOM      6  C4  PXY d   1       0.414   0.275  -0.187  0.00  0.00    -0.082 A 
ATOM      7  C5  PXY d   1       0.062  -0.356   0.953  0.00  0.00     0.003 A 
ATOM      8  C6  PXY d   1      -1.235  -0.845   1.084  0.00  0.00     0.003 A 
ENDROOT
TORSDOF 0
ENDMDL
