MODEL 1
REMARK minimizedAffinity -5.30408764
REMARK minimizedRMSD -1
REMARK  0 active torsions:
REMARK  status: ('A' for Active; 'I' for Inactive)
ROOT
ATOM      1  C4' PXY d   1      -1.887  -3.004   0.877  0.00  0.00     0.077 C 
ATOM      2  C1' PXY d   1       2.016   1.223   0.316  0.00  0.00     0.077 C 
ATOM      3  C1  PXY d   1       0.983   0.122   0.459  0.00  0.00    -0.082 A 
ATOM      4  C2  PXY d   1       1.210  -0.885   1.287  0.00  0.00     0.003 A 
ATOM      5  C3  PXY d   1       0.301  -1.904   1.405  0.00  0.00     0.003 A 
ATOM      6  C4  PXY d   1      -0.877  -1.866   0.708  0.00  0.00    -0.082 A 
ATOM      7  C5  PXY d   1      -1.121  -0.837  -0.131  0.00  0.00     0.003 A 
ATOM      8  C6  PXY d   1      -0.167   0.167  -0.267  0.00  0.00     0.003 A 
ENDROOT
TORSDOF 0
ENDMDL
