MODEL 1
REMARK minimizedAffinity -3.21094871
REMARK minimizedRMSD -1
REMARK  0 active torsions:
REMARK  status: ('A' for Active; 'I' for Inactive)
ROOT
ATOM      1  C4' PXY d   1       2.874   3.324   0.167  0.00  0.00     0.077 C 
ATOM      2  C1' PXY d   1       0.504  -1.683   1.820  0.00  0.00     0.077 C 
ATOM      3  C1  PXY d   1       1.118  -0.364   1.396  0.00  0.00    -0.082 A 
ATOM      4  C2  PXY d   1       1.628  -0.241   0.181  0.00  0.00     0.003 A 
ATOM      5  C3  PXY d   1       2.216   0.935  -0.209  0.00  0.00     0.003 A 
ATOM      6  C4  PXY d   1       2.235   2.013   0.636  0.00  0.00    -0.082 A 
ATOM      7  C5  PXY d   1       1.707   1.899   1.873  0.00  0.00     0.003 A 
ATOM      8  C6  PXY d   1       1.152   0.684   2.263  0.00  0.00     0.003 A 
ENDROOT
TORSDOF 0
ENDMDL
