MODEL 1
REMARK minimizedAffinity 0.925074399
REMARK minimizedRMSD -1
REMARK  0 active torsions:
REMARK  status: ('A' for Active; 'I' for Inactive)
ROOT
ATOM      1  C4' PXY d   1      -2.847  -2.597  -0.577  0.00  0.00     0.077 C 
ATOM      2  C1' PXY d   1       1.450   1.234  -1.096  0.00  0.00     0.077 C 
ATOM      3  C1  PXY d   1       0.315   0.238  -0.965  0.00  0.00    -0.082 A 
ATOM      4  C2  PXY d   1       0.410  -0.750  -0.090  0.00  0.00     0.003 A 
ATOM      5  C3  PXY d   1      -0.594  -1.678   0.019  0.00  0.00     0.003 A 
ATOM      6  C4  PXY d   1      -1.729  -1.563  -0.737  0.00  0.00    -0.082 A 
ATOM      7  C5  PXY d   1      -1.838  -0.551  -1.624  0.00  0.00     0.003 A 
ATOM      8  C6  PXY d   1      -0.790   0.357  -1.749  0.00  0.00     0.003 A 
ENDROOT
TORSDOF 0
ENDMDL
