MODEL 1
REMARK minimizedAffinity -3.54284763
REMARK minimizedRMSD -1
REMARK  0 active torsions:
REMARK  status: ('A' for Active; 'I' for Inactive)
ROOT
ATOM      1  C4' PXY d   1       2.140   1.512   1.151  0.00  0.00     0.077 C 
ATOM      2  C1' PXY d   1      -2.333  -1.400  -1.071  0.00  0.00     0.077 C 
ATOM      3  C1  PXY d   1      -1.164  -0.639  -0.476  0.00  0.00    -0.082 A 
ATOM      4  C2  PXY d   1      -0.559   0.294  -1.193  0.00  0.00     0.003 A 
ATOM      5  C3  PXY d   1       0.520   0.970  -0.682  0.00  0.00     0.003 A 
ATOM      6  C4  PXY d   1       0.950   0.725   0.595  0.00  0.00    -0.082 A 
ATOM      7  C5  PXY d   1       0.330  -0.218   1.336  0.00  0.00     0.003 A 
ATOM      8  C6  PXY d   1      -0.737  -0.921   0.784  0.00  0.00     0.003 A 
ENDROOT
TORSDOF 0
ENDMDL
