MODEL 1
REMARK minimizedAffinity -5.46023417
REMARK minimizedRMSD -1
REMARK  0 active torsions:
REMARK  status: ('A' for Active; 'I' for Inactive)
ROOT
ATOM      1  C4' PXY d   1       1.855   1.698   0.486  0.00  0.00     0.077 C 
ATOM      2  C1' PXY d   1      -2.655  -1.887   0.017  0.00  0.00     0.077 C 
ATOM      3  C1  PXY d   1      -1.474  -0.947   0.153  0.00  0.00    -0.082 A 
ATOM      4  C2  PXY d   1      -1.112  -0.198  -0.876  0.00  0.00     0.003 A 
ATOM      5  C3  PXY d   1      -0.026   0.635  -0.781  0.00  0.00     0.003 A 
ATOM      6  C4  PXY d   1       0.663   0.741   0.397  0.00  0.00    -0.082 A 
ATOM      7  C5  PXY d   1       0.294  -0.011   1.455  0.00  0.00     0.003 A 
ATOM      8  C6  PXY d   1      -0.786  -0.881   1.325  0.00  0.00     0.003 A 
ENDROOT
TORSDOF 0
ENDMDL
