MODEL 1
REMARK minimizedAffinity -4.65550518
REMARK minimizedRMSD -1
REMARK  0 active torsions:
REMARK  status: ('A' for Active; 'I' for Inactive)
ROOT
ATOM      1  C4' PXY d   1      -3.643  -0.727  -0.336  0.00  0.00     0.077 C 
ATOM      2  C1' PXY d   1       2.010   0.147   0.496  0.00  0.00     0.077 C 
ATOM      3  C1  PXY d   1       0.528  -0.074   0.267  0.00  0.00    -0.082 A 
ATOM      4  C2  PXY d   1      -0.249  -0.404   1.286  0.00  0.00     0.003 A 
ATOM      5  C3  PXY d   1      -1.585  -0.639   1.091  0.00  0.00     0.003 A 
ATOM      6  C4  PXY d   1      -2.142  -0.484  -0.150  0.00  0.00    -0.082 A 
ATOM      7  C5  PXY d   1      -1.358  -0.138  -1.193  0.00  0.00     0.003 A 
ATOM      8  C6  PXY d   1       0.004   0.056  -0.981  0.00  0.00     0.003 A 
ENDROOT
TORSDOF 0
ENDMDL
