MODEL 1
REMARK minimizedAffinity -2.73010421
REMARK minimizedRMSD -1
REMARK  0 active torsions:
REMARK  status: ('A' for Active; 'I' for Inactive)
ROOT
ATOM      1  O1  BZF d   1      -1.770  -0.241   0.830  0.00  0.00    -0.204 OA
ATOM      2  C2  BZF d   1      -1.760   1.020   0.265  0.00  0.00     0.174 A 
ATOM      3  C3  BZF d   1      -0.606   1.238  -0.398  0.00  0.00    -0.012 A 
ATOM      4  C3A BZF d   1       0.115   0.005  -0.315  0.00  0.00    -0.107 A 
ATOM      5  C4  BZF d   1       1.324  -0.409  -0.794  0.00  0.00     0.055 A 
ATOM      6  C5  BZF d   1       1.771  -1.652  -0.475  0.00  0.00    -0.016 A 
ATOM      7  C6  BZF d   1       1.037  -2.504   0.324  0.00  0.00     0.022 A 
ATOM      8  C7  BZF d   1      -0.171  -2.140   0.819  0.00  0.00     0.029 A 
ATOM      9  C7A BZF d   1      -0.640  -0.896   0.471  0.00  0.00     0.058 A 
ENDROOT
TORSDOF 0
ENDMDL
