MODEL 1
REMARK minimizedAffinity -2.95256424
REMARK minimizedRMSD -1
REMARK  0 active torsions:
REMARK  status: ('A' for Active; 'I' for Inactive)
ROOT
ATOM      1  O1  BZF d   1       1.375  -0.267   1.488  0.00  0.00    -0.204 OA
ATOM      2  C2  BZF d   1       2.462   0.576   1.354  0.00  0.00     0.174 A 
ATOM      3  C3  BZF d   1       2.158   1.626   0.564  0.00  0.00    -0.012 A 
ATOM      4  C3A BZF d   1       0.769   1.476   0.255  0.00  0.00    -0.107 A 
ATOM      5  C4  BZF d   1      -0.115   2.213  -0.479  0.00  0.00     0.055 A 
ATOM      6  C5  BZF d   1      -1.383   1.753  -0.644  0.00  0.00    -0.016 A 
ATOM      7  C6  BZF d   1      -1.798   0.558  -0.094  0.00  0.00     0.022 A 
ATOM      8  C7  BZF d   1      -0.959  -0.206   0.646  0.00  0.00     0.029 A 
ATOM      9  C7A BZF d   1       0.313   0.273   0.842  0.00  0.00     0.058 A 
ENDROOT
TORSDOF 0
ENDMDL
