MODEL 1
REMARK minimizedAffinity -4.8294816
REMARK minimizedRMSD -1
REMARK  0 active torsions:
REMARK  status: ('A' for Active; 'I' for Inactive)
ROOT
ATOM      1  O1  BZF d   1       1.886   2.062   0.190  0.00  0.00    -0.204 OA
ATOM      2  C2  BZF d   1       0.585   2.284  -0.216  0.00  0.00     0.174 A 
ATOM      3  C3  BZF d   1      -0.050   1.117  -0.447  0.00  0.00    -0.012 A 
ATOM      4  C3A BZF d   1       0.887   0.100  -0.079  0.00  0.00    -0.107 A 
ATOM      5  C4  BZF d   1       0.835  -1.264  -0.069  0.00  0.00     0.055 A 
ATOM      6  C5  BZF d   1       1.947  -1.965   0.278  0.00  0.00    -0.016 A 
ATOM      7  C6  BZF d   1       3.127  -1.334   0.614  0.00  0.00     0.022 A 
ATOM      8  C7  BZF d   1       3.225   0.018   0.624  0.00  0.00     0.029 A 
ATOM      9  C7A BZF d   1       2.094   0.729   0.306  0.00  0.00     0.058 A 
ENDROOT
TORSDOF 0
ENDMDL
