MODEL 1
REMARK minimizedAffinity -4.71015644
REMARK minimizedRMSD -1
REMARK  0 active torsions:
REMARK  status: ('A' for Active; 'I' for Inactive)
ROOT
ATOM      1  O1  BZF d   1       0.044   1.116  -0.612  0.00  0.00    -0.204 OA
ATOM      2  C2  BZF d   1      -0.785   0.128  -1.107  0.00  0.00     0.174 A 
ATOM      3  C3  BZF d   1      -0.213  -1.086  -0.978  0.00  0.00    -0.012 A 
ATOM      4  C3A BZF d   1       1.014  -0.852  -0.280  0.00  0.00    -0.107 A 
ATOM      5  C4  BZF d   1       2.017  -1.669   0.157  0.00  0.00     0.055 A 
ATOM      6  C5  BZF d   1       3.112  -1.117   0.741  0.00  0.00    -0.016 A 
ATOM      7  C6  BZF d   1       3.241   0.248   0.898  0.00  0.00     0.022 A 
ATOM      8  C7  BZF d   1       2.270   1.099   0.485  0.00  0.00     0.029 A 
ATOM      9  C7A BZF d   1       1.147   0.541  -0.076  0.00  0.00     0.058 A 
ENDROOT
TORSDOF 0
ENDMDL
