MODEL 1
REMARK minimizedAffinity -5.59609842
REMARK minimizedRMSD -1
REMARK  0 active torsions:
REMARK  status: ('A' for Active; 'I' for Inactive)
ROOT
ATOM      1  O1  BZF d   1       0.045   0.926  -0.613  0.00  0.00    -0.204 OA
ATOM      2  C2  BZF d   1      -0.770  -0.094  -1.066  0.00  0.00     0.174 A 
ATOM      3  C3  BZF d   1      -0.206  -1.296  -0.834  0.00  0.00    -0.012 A 
ATOM      4  C3A BZF d   1       0.997  -1.015  -0.112  0.00  0.00    -0.107 A 
ATOM      5  C4  BZF d   1       1.981  -1.801   0.415  0.00  0.00     0.055 A 
ATOM      6  C5  BZF d   1       3.058  -1.211   0.996  0.00  0.00    -0.016 A 
ATOM      7  C6  BZF d   1       3.186   0.161   1.063  0.00  0.00     0.022 A 
ATOM      8  C7  BZF d   1       2.233   0.983   0.558  0.00  0.00     0.029 A 
ATOM      9  C7A BZF d   1       1.128   0.388  -0.000  0.00  0.00     0.058 A 
ENDROOT
TORSDOF 0
ENDMDL
