MODEL 1
REMARK minimizedAffinity -2.67540526
REMARK minimizedRMSD -1
REMARK  0 active torsions:
REMARK  status: ('A' for Active; 'I' for Inactive)
ROOT
ATOM      1  O1  BZF d   1      -0.514   1.535  -0.391  0.00  0.00    -0.204 OA
ATOM      2  C2  BZF d   1      -1.768   1.066  -0.051  0.00  0.00     0.174 A 
ATOM      3  C3  BZF d   1      -1.730  -0.256   0.214  0.00  0.00    -0.012 A 
ATOM      4  C3A BZF d   1      -0.349  -0.618   0.118  0.00  0.00    -0.107 A 
ATOM      5  C4  BZF d   1       0.327  -1.792   0.290  0.00  0.00     0.055 A 
ATOM      6  C5  BZF d   1       1.665  -1.825   0.050  0.00  0.00    -0.016 A 
ATOM      7  C6  BZF d   1       2.355  -0.706  -0.367  0.00  0.00     0.022 A 
ATOM      8  C7  BZF d   1       1.728   0.482  -0.546  0.00  0.00     0.029 A 
ATOM      9  C7A BZF d   1       0.383   0.527  -0.273  0.00  0.00     0.058 A 
ENDROOT
TORSDOF 0
ENDMDL
