MODEL 1
REMARK minimizedAffinity -4.60802794
REMARK minimizedRMSD -1
REMARK  0 active torsions:
REMARK  status: ('A' for Active; 'I' for Inactive)
ROOT
ATOM      1  O1  BZF d   1       2.824   0.794   0.077  0.00  0.00    -0.204 OA
ATOM      2  C2  BZF d   1       3.322  -0.494   0.068  0.00  0.00     0.174 A 
ATOM      3  C3  BZF d   1       2.320  -1.394  -0.013  0.00  0.00    -0.012 A 
ATOM      4  C3A BZF d   1       1.127  -0.617  -0.150  0.00  0.00    -0.107 A 
ATOM      5  C4  BZF d   1      -0.193  -0.940  -0.290  0.00  0.00     0.055 A 
ATOM      6  C5  BZF d   1      -1.116   0.056  -0.324  0.00  0.00    -0.016 A 
ATOM      7  C6  BZF d   1      -0.757   1.383  -0.217  0.00  0.00     0.022 A 
ATOM      8  C7  BZF d   1       0.540   1.753  -0.082  0.00  0.00     0.029 A 
ATOM      9  C7A BZF d   1       1.479   0.751  -0.079  0.00  0.00     0.058 A 
ENDROOT
TORSDOF 0
ENDMDL
