MODEL 1
REMARK minimizedAffinity -3.86295724
REMARK minimizedRMSD -1
REMARK  0 active torsions:
REMARK  status: ('A' for Active; 'I' for Inactive)
ROOT
ATOM      1  O1  BZF d   1       1.179   1.700   0.029  0.00  0.00    -0.204 OA
ATOM      2  C2  BZF d   1       2.560   1.664   0.033  0.00  0.00     0.174 A 
ATOM      3  C3  BZF d   1       3.006   0.392   0.008  0.00  0.00    -0.012 A 
ATOM      4  C3A BZF d   1       1.831  -0.417  -0.106  0.00  0.00    -0.107 A 
ATOM      5  C4  BZF d   1       1.623  -1.763  -0.193  0.00  0.00     0.055 A 
ATOM      6  C5  BZF d   1       0.348  -2.234  -0.220  0.00  0.00    -0.016 A 
ATOM      7  C6  BZF d   1      -0.740  -1.389  -0.155  0.00  0.00     0.022 A 
ATOM      8  C7  BZF d   1      -0.583  -0.045  -0.073  0.00  0.00     0.029 A 
ATOM      9  C7A BZF d   1       0.703   0.436  -0.080  0.00  0.00     0.058 A 
ENDROOT
TORSDOF 0
ENDMDL
