MODEL 1
REMARK minimizedAffinity -2.43907738
REMARK minimizedRMSD -1
REMARK  0 active torsions:
REMARK  status: ('A' for Active; 'I' for Inactive)
ROOT
ATOM      1  O1  BZF d   1       2.971   0.110   0.433  0.00  0.00    -0.204 OA
ATOM      2  C2  BZF d   1       3.396  -1.203   0.503  0.00  0.00     0.174 A 
ATOM      3  C3  BZF d   1       2.355  -2.051   0.370  0.00  0.00    -0.012 A 
ATOM      4  C3A BZF d   1       1.221  -1.217   0.114  0.00  0.00    -0.107 A 
ATOM      5  C4  BZF d   1      -0.099  -1.474  -0.122  0.00  0.00     0.055 A 
ATOM      6  C5  BZF d   1      -0.960  -0.432  -0.261  0.00  0.00    -0.016 A 
ATOM      7  C6  BZF d   1      -0.537   0.877  -0.166  0.00  0.00     0.022 A 
ATOM      8  C7  BZF d   1       0.764   1.182   0.061  0.00  0.00     0.029 A 
ATOM      9  C7A BZF d   1       1.642   0.132   0.170  0.00  0.00     0.058 A 
ENDROOT
TORSDOF 0
ENDMDL
