MODEL 1
REMARK minimizedAffinity 7.28538609
REMARK minimizedRMSD -1
REMARK  2 active torsions:
REMARK  status: ('A' for Active; 'I' for Inactive)
REMARK    1  A    between atoms: C2'_3  and  C1'_4 
REMARK    2  A    between atoms: C1'_4  and  C1_5 
ROOT
ATOM      1  C1  I4B d   1       1.150   1.056   0.829  0.00  0.00    -0.075 A 
ATOM      2  C2  I4B d   1       0.033   0.799   0.073  0.00  0.00     0.003 A 
ATOM      3  C3  I4B d   1      -0.706   1.867  -0.492  0.00  0.00     0.002 A 
ATOM      4  C4  I4B d   1      -0.324   3.168  -0.236  0.00  0.00    -0.004 A 
ATOM      5  C5  I4B d   1       0.822   3.426   0.511  0.00  0.00     0.002 A 
ATOM      6  C6  I4B d   1       1.571   2.363   1.037  0.00  0.00     0.003 A 
ENDROOT
BRANCH   1   7
ATOM      7  C1' I4B d   1       1.888  -0.094   1.438  0.00  0.00     0.060 C 
BRANCH   7   8
ATOM      8  C2' I4B d   1       1.062  -1.346   1.221  0.00  0.00    -0.013 C 
ATOM      9  C4' I4B d   1       1.915  -2.481   0.720  0.00  0.00     0.013 C 
ATOM     10  C3' I4B d   1       0.403  -1.697   2.522  0.00  0.00     0.013 C 
ENDBRANCH   7   8
ENDBRANCH   1   7
TORSDOF 2
ENDMDL
