MODEL 1
REMARK minimizedAffinity -3.7282021
REMARK minimizedRMSD -1
REMARK  2 active torsions:
REMARK  status: ('A' for Active; 'I' for Inactive)
REMARK    1  A    between atoms: C2'_3  and  C1'_4 
REMARK    2  A    between atoms: C1'_4  and  C1_5 
ROOT
ATOM      1  C1  I4B d   1      -4.205   2.592  -4.329  0.00  0.00    -0.075 A 
ATOM      2  C2  I4B d   1      -3.459   2.359  -3.201  0.00  0.00     0.003 A 
ATOM      3  C3  I4B d   1      -3.723   1.227  -2.393  0.00  0.00     0.002 A 
ATOM      4  C4  I4B d   1      -4.769   0.388  -2.719  0.00  0.00    -0.004 A 
ATOM      5  C5  I4B d   1      -5.510   0.613  -3.876  0.00  0.00     0.002 A 
ATOM      6  C6  I4B d   1      -5.219   1.715  -4.693  0.00  0.00     0.003 A 
ENDROOT
BRANCH   1   7
ATOM      7  C1' I4B d   1      -3.920   3.815  -5.142  0.00  0.00     0.060 C 
BRANCH   7   8
ATOM      8  C2' I4B d   1      -4.918   4.883  -4.744  0.00  0.00    -0.013 C 
ATOM      9  C4' I4B d   1      -4.278   5.930  -3.871  0.00  0.00     0.013 C 
ATOM     10  C3' I4B d   1      -5.473   5.489  -5.998  0.00  0.00     0.013 C 
ENDBRANCH   7   8
ENDBRANCH   1   7
TORSDOF 2
ENDMDL
