MODEL 1
REMARK minimizedAffinity 1.0767889
REMARK minimizedRMSD -1
REMARK  2 active torsions:
REMARK  status: ('A' for Active; 'I' for Inactive)
REMARK    1  A    between atoms: C2'_3  and  C1'_4 
REMARK    2  A    between atoms: C1'_4  and  C1_5 
ROOT
ATOM      1  C1  I4B d   1       2.511  -1.111   0.319  0.00  0.00    -0.075 A 
ATOM      2  C2  I4B d   1       2.226  -2.417   0.629  0.00  0.00     0.003 A 
ATOM      3  C3  I4B d   1       3.171  -3.436   0.363  0.00  0.00     0.002 A 
ATOM      4  C4  I4B d   1       4.361  -3.114  -0.257  0.00  0.00    -0.004 A 
ATOM      5  C5  I4B d   1       4.659  -1.786  -0.550  0.00  0.00     0.002 A 
ATOM      6  C6  I4B d   1       3.734  -0.776  -0.250  0.00  0.00     0.003 A 
ENDROOT
BRANCH   1   7
ATOM      7  C1' I4B d   1       1.477  -0.064   0.584  0.00  0.00     0.060 C 
BRANCH   7   8
ATOM      8  C2' I4B d   1       1.509   0.926  -0.563  0.00  0.00    -0.013 C 
ATOM      9  C4' I4B d   1       1.102   0.273  -1.858  0.00  0.00     0.013 C 
ATOM     10  C3' I4B d   1       0.595   2.064  -0.219  0.00  0.00     0.013 C 
ENDBRANCH   7   8
ENDBRANCH   1   7
TORSDOF 2
ENDMDL
