MODEL 1
REMARK minimizedAffinity -3.87100768
REMARK minimizedRMSD -1
REMARK  2 active torsions:
REMARK  status: ('A' for Active; 'I' for Inactive)
REMARK    1  A    between atoms: C2'_3  and  C1'_4 
REMARK    2  A    between atoms: C1'_4  and  C1_5 
ROOT
ATOM      1  C1  I4B d   1      -5.920  -1.240   3.475  0.00  0.00    -0.075 A 
ATOM      2  C2  I4B d   1      -5.998  -0.634   4.705  0.00  0.00     0.003 A 
ATOM      3  C3  I4B d   1      -6.000  -1.416   5.885  0.00  0.00     0.002 A 
ATOM      4  C4  I4B d   1      -5.974  -2.792   5.789  0.00  0.00    -0.004 A 
ATOM      5  C5  I4B d   1      -5.872  -3.404   4.543  0.00  0.00     0.002 A 
ATOM      6  C6  I4B d   1      -5.832  -2.622   3.379  0.00  0.00     0.003 A 
ENDROOT
BRANCH   1   7
ATOM      7  C1' I4B d   1      -5.953  -0.385   2.248  0.00  0.00     0.060 C 
BRANCH   7   8
ATOM      8  C2' I4B d   1      -4.536  -0.261   1.727  0.00  0.00    -0.013 C 
ATOM      9  C4' I4B d   1      -4.512   0.358   0.355  0.00  0.00     0.013 C 
ATOM     10  C3' I4B d   1      -3.754   0.563   2.706  0.00  0.00     0.013 C 
ENDBRANCH   7   8
ENDBRANCH   1   7
TORSDOF 2
ENDMDL
