MODEL 1
REMARK minimizedAffinity 12.0424967
REMARK minimizedRMSD -1
REMARK  0 active torsions:
REMARK  status: ('A' for Active; 'I' for Inactive)
ROOT
ATOM      1  C   UNL d   1      -4.411   5.994   2.360  0.00  0.00     0.077 C 
ATOM      2  C1  UNL d   1      -3.719   5.985   1.029  0.00  0.00    -0.074 A 
ATOM      3  C2  UNL d   1      -4.452   5.999  -0.162  0.00  0.00    -0.005 A 
ATOM      4  C3  UNL d   1      -3.795   6.000  -1.392  0.00  0.00     0.006 A 
ATOM      5  C4  UNL d   1      -2.400   5.988  -1.443  0.00  0.00    -0.005 A 
ATOM      6  C5  UNL d   1      -1.651   5.975  -0.263  0.00  0.00    -0.074 A 
ATOM      7  C6  UNL d   1      -0.151   5.972  -0.301  0.00  0.00     0.077 C 
ATOM      8  C7  UNL d   1      -2.319   5.981   0.969  0.00  0.00    -0.001 A 
ENDROOT
TORSDOF 0
ENDMDL
