MODEL 1
REMARK minimizedAffinity 16.7646275
REMARK minimizedRMSD -1
REMARK  0 active torsions:
REMARK  status: ('A' for Active; 'I' for Inactive)
ROOT
ATOM      1  C   UNL d   1       1.249   0.855  -5.886  0.00  0.00     0.077 C 
ATOM      2  C1  UNL d   1       1.479  -0.626  -5.916  0.00  0.00    -0.074 A 
ATOM      3  C2  UNL d   1       0.404  -1.520  -5.944  0.00  0.00    -0.005 A 
ATOM      4  C3  UNL d   1       0.633  -2.896  -5.981  0.00  0.00     0.006 A 
ATOM      5  C4  UNL d   1       1.938  -3.390  -5.993  0.00  0.00    -0.005 A 
ATOM      6  C5  UNL d   1       3.025  -2.512  -5.967  0.00  0.00    -0.074 A 
ATOM      7  C6  UNL d   1       4.434  -3.027  -5.988  0.00  0.00     0.077 C 
ATOM      8  C7  UNL d   1       2.787  -1.131  -5.936  0.00  0.00    -0.001 A 
ENDROOT
TORSDOF 0
ENDMDL
