MODEL 1
REMARK minimizedAffinity 7.16726208
REMARK minimizedRMSD -1
REMARK  0 active torsions:
REMARK  status: ('A' for Active; 'I' for Inactive)
ROOT
ATOM      1  C   UNL d   1      -1.872  -3.041   4.850  0.00  0.00     0.077 C 
ATOM      2  C1  UNL d   1      -3.308  -3.473   4.900  0.00  0.00    -0.074 A 
ATOM      3  C2  UNL d   1      -4.130  -3.113   5.972  0.00  0.00    -0.005 A 
ATOM      4  C3  UNL d   1      -5.466  -3.514   5.999  0.00  0.00     0.006 A 
ATOM      5  C4  UNL d   1      -5.992  -4.278   4.957  0.00  0.00    -0.005 A 
ATOM      6  C5  UNL d   1      -5.185  -4.647   3.876  0.00  0.00    -0.074 A 
ATOM      7  C6  UNL d   1      -5.736  -5.459   2.742  0.00  0.00     0.077 C 
ATOM      8  C7  UNL d   1      -3.845  -4.234   3.852  0.00  0.00    -0.001 A 
ENDROOT
TORSDOF 0
ENDMDL
