MODEL 1
REMARK minimizedAffinity 18.0967484
REMARK minimizedRMSD -1
REMARK  0 active torsions:
REMARK  status: ('A' for Active; 'I' for Inactive)
ROOT
ATOM      1  C   UNL d   1      -2.459   3.726  -0.410  0.00  0.00     0.077 C 
ATOM      2  C1  UNL d   1      -3.679   4.523  -0.055  0.00  0.00    -0.074 A 
ATOM      3  C2  UNL d   1      -4.601   4.901  -1.037  0.00  0.00    -0.005 A 
ATOM      4  C3  UNL d   1      -5.736   5.634  -0.690  0.00  0.00     0.006 A 
ATOM      5  C4  UNL d   1      -5.960   5.996   0.639  0.00  0.00    -0.005 A 
ATOM      6  C5  UNL d   1      -5.050   5.627   1.634  0.00  0.00    -0.074 A 
ATOM      7  C6  UNL d   1      -5.281   5.999   3.068  0.00  0.00     0.077 C 
ATOM      8  C7  UNL d   1      -3.915   4.884   1.279  0.00  0.00    -0.001 A 
ENDROOT
TORSDOF 0
ENDMDL
