MODEL 1
REMARK minimizedAffinity 20.5298386
REMARK minimizedRMSD -1
REMARK  0 active torsions:
REMARK  status: ('A' for Active; 'I' for Inactive)
ROOT
ATOM      1  C   UNL d   1      -2.040   4.525  -0.419  0.00  0.00     0.077 C 
ATOM      2  C1  UNL d   1      -3.363   5.046   0.061  0.00  0.00    -0.074 A 
ATOM      3  C2  UNL d   1      -4.408   5.289  -0.835  0.00  0.00    -0.005 A 
ATOM      4  C3  UNL d   1      -5.635   5.764  -0.373  0.00  0.00     0.006 A 
ATOM      5  C4  UNL d   1      -5.829   6.000   0.989  0.00  0.00    -0.005 A 
ATOM      6  C5  UNL d   1      -4.796   5.761   1.900  0.00  0.00    -0.074 A 
ATOM      7  C6  UNL d   1      -4.992   5.999   3.368  0.00  0.00     0.077 C 
ATOM      8  C7  UNL d   1      -3.568   5.277   1.429  0.00  0.00    -0.001 A 
ENDROOT
TORSDOF 0
ENDMDL
