MODEL 1
REMARK minimizedAffinity 14.7995834
REMARK minimizedRMSD -1
REMARK  0 active torsions:
REMARK  status: ('A' for Active; 'I' for Inactive)
ROOT
ATOM      1  C   UNL d   1       2.646  -3.389  -1.037  0.00  0.00     0.077 C 
ATOM      2  C1  UNL d   1       2.262  -4.053  -2.326  0.00  0.00    -0.074 A 
ATOM      3  C2  UNL d   1       1.879  -5.398  -2.356  0.00  0.00    -0.005 A 
ATOM      4  C3  UNL d   1       1.515  -5.999  -3.560  0.00  0.00     0.006 A 
ATOM      5  C4  UNL d   1       1.530  -5.263  -4.746  0.00  0.00    -0.005 A 
ATOM      6  C5  UNL d   1       1.909  -3.917  -4.736  0.00  0.00    -0.074 A 
ATOM      7  C6  UNL d   1       1.922  -3.109  -5.999  0.00  0.00     0.077 C 
ATOM      8  C7  UNL d   1       2.267  -3.318  -3.520  0.00  0.00    -0.001 A 
ENDROOT
TORSDOF 0
ENDMDL
