MODEL 1
REMARK minimizedAffinity 20.3345013
REMARK minimizedRMSD -1
REMARK  0 active torsions:
REMARK  status: ('A' for Active; 'I' for Inactive)
ROOT
ATOM      1  C   UNL d   1      -5.397   5.989   2.912  0.00  0.00     0.077 C 
ATOM      2  C1  UNL d   1      -4.736   5.865   1.572  0.00  0.00    -0.074 A 
ATOM      3  C2  UNL d   1      -3.350   6.000   1.440  0.00  0.00    -0.005 A 
ATOM      4  C3  UNL d   1      -2.747   5.872   0.188  0.00  0.00     0.006 A 
ATOM      5  C4  UNL d   1      -3.523   5.609  -0.941  0.00  0.00    -0.005 A 
ATOM      6  C5  UNL d   1      -4.910   5.470  -0.828  0.00  0.00    -0.074 A 
ATOM      7  C6  UNL d   1      -5.757   5.177  -2.031  0.00  0.00     0.077 C 
ATOM      8  C7  UNL d   1      -5.507   5.592   0.434  0.00  0.00    -0.001 A 
ENDROOT
TORSDOF 0
ENDMDL
