MODEL 1
REMARK minimizedAffinity 16.7678642
REMARK minimizedRMSD -1
REMARK  0 active torsions:
REMARK  status: ('A' for Active; 'I' for Inactive)
ROOT
ATOM      1  C   UNL d   1      -5.900   5.519  -0.455  0.00  0.00     0.077 C 
ATOM      2  C1  UNL d   1      -5.135   5.679   0.825  0.00  0.00    -0.074 A 
ATOM      3  C2  UNL d   1      -3.739   5.767   0.822  0.00  0.00    -0.005 A 
ATOM      4  C3  UNL d   1      -3.041   5.924   2.019  0.00  0.00     0.006 A 
ATOM      5  C4  UNL d   1      -3.731   5.996   3.230  0.00  0.00    -0.005 A 
ATOM      6  C5  UNL d   1      -5.127   5.911   3.253  0.00  0.00    -0.074 A 
ATOM      7  C6  UNL d   1      -5.885   5.995   4.544  0.00  0.00     0.077 C 
ATOM      8  C7  UNL d   1      -5.821   5.759   2.045  0.00  0.00    -0.001 A 
ENDROOT
TORSDOF 0
ENDMDL
