MODEL 1
REMARK minimizedAffinity 2.83727932
REMARK minimizedRMSD -1
REMARK  0 active torsions:
REMARK  status: ('A' for Active; 'I' for Inactive)
ROOT
ATOM      1  C   UNL d   1      -1.005   3.271  -3.255  0.00  0.00     0.077 C 
ATOM      2  C1  UNL d   1      -0.658   3.520  -1.817  0.00  0.00    -0.074 A 
ATOM      3  C2  UNL d   1      -0.264   4.789  -1.383  0.00  0.00    -0.005 A 
ATOM      4  C3  UNL d   1       0.046   5.009  -0.041  0.00  0.00     0.006 A 
ATOM      5  C4  UNL d   1      -0.035   3.962   0.879  0.00  0.00    -0.005 A 
ATOM      6  C5  UNL d   1      -0.428   2.686   0.463  0.00  0.00    -0.074 A 
ATOM      7  C6  UNL d   1      -0.530   1.553   1.441  0.00  0.00     0.077 C 
ATOM      8  C7  UNL d   1      -0.745   2.476  -0.886  0.00  0.00    -0.001 A 
ENDROOT
TORSDOF 0
ENDMDL
