MODEL 1
REMARK minimizedAffinity 17.3865871
REMARK minimizedRMSD -1
REMARK  0 active torsions:
REMARK  status: ('A' for Active; 'I' for Inactive)
ROOT
ATOM      1  C   UNL d   1      -0.497   2.433   0.058  0.00  0.00     0.077 C 
ATOM      2  C1  UNL d   1      -0.432   3.576  -0.910  0.00  0.00    -0.074 A 
ATOM      3  C2  UNL d   1       0.709   4.380  -0.998  0.00  0.00    -0.005 A 
ATOM      4  C3  UNL d   1       0.758   5.434  -1.910  0.00  0.00     0.006 A 
ATOM      5  C4  UNL d   1      -0.332   5.695  -2.742  0.00  0.00    -0.005 A 
ATOM      6  C5  UNL d   1      -1.481   4.901  -2.669  0.00  0.00    -0.074 A 
ATOM      7  C6  UNL d   1      -2.657   5.161  -3.563  0.00  0.00     0.077 C 
ATOM      8  C7  UNL d   1      -1.520   3.839  -1.755  0.00  0.00    -0.001 A 
ENDROOT
TORSDOF 0
ENDMDL
