MODEL 1
REMARK minimizedAffinity 8.06517029
REMARK minimizedRMSD -1
REMARK  0 active torsions:
REMARK  status: ('A' for Active; 'I' for Inactive)
ROOT
ATOM      1  C   UNL d   1      -1.434   3.855  -3.304  0.00  0.00     0.077 C 
ATOM      2  C1  UNL d   1      -0.823   3.760  -1.937  0.00  0.00    -0.074 A 
ATOM      3  C2  UNL d   1       0.284   4.541  -1.589  0.00  0.00    -0.005 A 
ATOM      4  C3  UNL d   1       0.835   4.449  -0.311  0.00  0.00     0.006 A 
ATOM      5  C4  UNL d   1       0.287   3.576   0.630  0.00  0.00    -0.005 A 
ATOM      6  C5  UNL d   1      -0.820   2.788   0.300  0.00  0.00    -0.074 A 
ATOM      7  C6  UNL d   1      -1.428   1.853   1.302  0.00  0.00     0.077 C 
ATOM      8  C7  UNL d   1      -1.373   2.892  -0.984  0.00  0.00    -0.001 A 
ENDROOT
TORSDOF 0
ENDMDL
