MODEL 1
REMARK minimizedAffinity 4.27411938
REMARK minimizedRMSD -1
REMARK  0 active torsions:
REMARK  status: ('A' for Active; 'I' for Inactive)
ROOT
ATOM      1  C   UNL d   1      -0.841   1.809   1.265  0.00  0.00     0.077 C 
ATOM      2  C1  UNL d   1      -0.427   2.948   0.382  0.00  0.00    -0.074 A 
ATOM      3  C2  UNL d   1       0.218   4.071   0.912  0.00  0.00    -0.005 A 
ATOM      4  C3  UNL d   1       0.606   5.119   0.077  0.00  0.00     0.006 A 
ATOM      5  C4  UNL d   1       0.353   5.055  -1.294  0.00  0.00    -0.005 A 
ATOM      6  C5  UNL d   1      -0.289   3.940  -1.842  0.00  0.00    -0.074 A 
ATOM      7  C6  UNL d   1      -0.559   3.852  -3.315  0.00  0.00     0.077 C 
ATOM      8  C7  UNL d   1      -0.669   2.888  -0.998  0.00  0.00    -0.001 A 
ENDROOT
TORSDOF 0
ENDMDL
