MODEL 1
REMARK minimizedAffinity 3.17639232
REMARK minimizedRMSD -1
REMARK  0 active torsions:
REMARK  status: ('A' for Active; 'I' for Inactive)
ROOT
ATOM      1  C   UNL d   1      -0.020   1.629   0.692  0.00  0.00     0.077 C 
ATOM      2  C1  UNL d   1       0.020   2.926  -0.061  0.00  0.00    -0.074 A 
ATOM      3  C2  UNL d   1       0.581   4.072   0.512  0.00  0.00    -0.005 A 
ATOM      4  C3  UNL d   1       0.620   5.269  -0.204  0.00  0.00     0.006 A 
ATOM      5  C4  UNL d   1       0.100   5.331  -1.498  0.00  0.00    -0.005 A 
ATOM      6  C5  UNL d   1      -0.464   4.195  -2.087  0.00  0.00    -0.074 A 
ATOM      7  C6  UNL d   1      -1.019   4.242  -3.479  0.00  0.00     0.077 C 
ATOM      8  C7  UNL d   1      -0.493   2.995  -1.364  0.00  0.00    -0.001 A 
ENDROOT
TORSDOF 0
ENDMDL
