MODEL 1
REMARK minimizedAffinity 8.5769062
REMARK minimizedRMSD -1
REMARK  0 active torsions:
REMARK  status: ('A' for Active; 'I' for Inactive)
ROOT
ATOM      1  C   UNL d   1      -1.570   3.631  -3.334  0.00  0.00     0.077 C 
ATOM      2  C1  UNL d   1      -0.816   3.755  -2.043  0.00  0.00    -0.074 A 
ATOM      3  C2  UNL d   1      -0.211   4.962  -1.677  0.00  0.00    -0.005 A 
ATOM      4  C3  UNL d   1       0.479   5.064  -0.469  0.00  0.00     0.006 A 
ATOM      5  C4  UNL d   1       0.570   3.964   0.384  0.00  0.00    -0.005 A 
ATOM      6  C5  UNL d   1      -0.030   2.750   0.035  0.00  0.00    -0.074 A 
ATOM      7  C6  UNL d   1       0.050   1.560   0.945  0.00  0.00     0.077 C 
ATOM      8  C7  UNL d   1      -0.727   2.656  -1.177  0.00  0.00    -0.001 A 
ENDROOT
TORSDOF 0
ENDMDL
