MODEL 1
REMARK minimizedAffinity 9.51665115
REMARK minimizedRMSD -1
REMARK  0 active torsions:
REMARK  status: ('A' for Active; 'I' for Inactive)
ROOT
ATOM      1  C   UNL d   1      -1.323   3.625  -3.780  0.00  0.00     0.077 C 
ATOM      2  C1  UNL d   1      -0.822   3.754  -2.373  0.00  0.00    -0.074 A 
ATOM      3  C2  UNL d   1      -0.416   4.993  -1.865  0.00  0.00    -0.005 A 
ATOM      4  C3  UNL d   1       0.039   5.099  -0.551  0.00  0.00     0.006 A 
ATOM      5  C4  UNL d   1       0.093   3.971   0.268  0.00  0.00    -0.005 A 
ATOM      6  C5  UNL d   1      -0.310   2.724  -0.222  0.00  0.00    -0.074 A 
ATOM      7  C6  UNL d   1      -0.268   1.503   0.648  0.00  0.00     0.077 C 
ATOM      8  C7  UNL d   1      -0.772   2.626  -1.542  0.00  0.00    -0.001 A 
ENDROOT
TORSDOF 0
ENDMDL
