MODEL 1
REMARK minimizedAffinity 5.06785011
REMARK minimizedRMSD -1
REMARK  0 active torsions:
REMARK  status: ('A' for Active; 'I' for Inactive)
ROOT
ATOM      1  C   UNL d   1      -0.410   2.719  -2.694  0.00  0.00     0.077 C 
ATOM      2  C1  UNL d   1      -0.222   3.184  -1.281  0.00  0.00    -0.074 A 
ATOM      3  C2  UNL d   1       0.273   4.462  -1.004  0.00  0.00    -0.005 A 
ATOM      4  C3  UNL d   1       0.433   4.884   0.316  0.00  0.00     0.006 A 
ATOM      5  C4  UNL d   1       0.100   4.033   1.370  0.00  0.00    -0.005 A 
ATOM      6  C5  UNL d   1      -0.397   2.752   1.113  0.00  0.00    -0.074 A 
ATOM      7  C6  UNL d   1      -0.769   1.829   2.235  0.00  0.00     0.077 C 
ATOM      8  C7  UNL d   1      -0.562   2.338  -0.216  0.00  0.00    -0.001 A 
ENDROOT
TORSDOF 0
ENDMDL
