MODEL 1
REMARK minimizedAffinity -1.59711802
REMARK minimizedRMSD -1
REMARK  1 active torsions:
REMARK  status: ('A' for Active; 'I' for Inactive)
REMARK    1  A    between atoms: C1_2  and  C2_3 
ROOT
ATOM      1  C2  UNL d   1      -0.415   0.074  -0.199  0.00  0.00    -0.073 A 
ATOM      2  C3  UNL d   1       0.584   0.880   0.361  0.00  0.00    -0.002 A 
ATOM      3  C4  UNL d   1       1.750   1.155  -0.354  0.00  0.00     0.004 A 
ATOM      4  C5  UNL d   1       1.928   0.635  -1.636  0.00  0.00    -0.004 A 
ATOM      5  C6  UNL d   1       0.937  -0.163  -2.217  0.00  0.00    -0.075 A 
ATOM      6  C7  UNL d   1       1.113  -0.732  -3.594  0.00  0.00     0.076 C 
ATOM      7  C8  UNL d   1      -0.231  -0.437  -1.492  0.00  0.00     0.001 A 
ENDROOT
BRANCH   1   8
ATOM      8  C1  UNL d   1      -1.679  -0.221   0.566  0.00  0.00     0.053 C 
ATOM      9  C   UNL d   1      -1.950   0.820   1.641  0.00  0.00     0.018 C 
ENDBRANCH   1   8
TORSDOF 1
ENDMDL
