MODEL 1
REMARK minimizedAffinity -5.39606047
REMARK minimizedRMSD -1
REMARK  1 active torsions:
REMARK  status: ('A' for Active; 'I' for Inactive)
REMARK    1  A    between atoms: C1_2  and  C2_3 
ROOT
ATOM      1  C2  UNL d   1      -0.118  -0.258  -0.053  0.00  0.00    -0.073 A 
ATOM      2  C3  UNL d   1       0.335  -1.051  -1.113  0.00  0.00    -0.002 A 
ATOM      3  C4  UNL d   1       1.100  -0.489  -2.137  0.00  0.00     0.004 A 
ATOM      4  C5  UNL d   1       1.423   0.867  -2.108  0.00  0.00    -0.004 A 
ATOM      5  C6  UNL d   1       0.989   1.673  -1.050  0.00  0.00    -0.075 A 
ATOM      6  C7  UNL d   1       1.327   3.135  -1.005  0.00  0.00     0.076 C 
ATOM      7  C8  UNL d   1       0.220   1.102  -0.028  0.00  0.00     0.001 A 
ENDROOT
BRANCH   1   8
ATOM      8  C1  UNL d   1      -0.938  -0.862   1.058  0.00  0.00     0.053 C 
ATOM      9  C   UNL d   1      -2.083   0.046   1.480  0.00  0.00     0.018 C 
ENDBRANCH   1   8
TORSDOF 1
ENDMDL
