MODEL 1
REMARK minimizedAffinity -1.92286551
REMARK minimizedRMSD -1
REMARK  1 active torsions:
REMARK  status: ('A' for Active; 'I' for Inactive)
REMARK    1  A    between atoms: C1_2  and  C2_3 
ROOT
ATOM      1  C2  UNL d   1      -0.425  -0.230   0.399  0.00  0.00    -0.073 A 
ATOM      2  C3  UNL d   1      -0.552  -1.571   0.019  0.00  0.00    -0.002 A 
ATOM      3  C4  UNL d   1      -0.008  -2.017  -1.187  0.00  0.00     0.004 A 
ATOM      4  C5  UNL d   1       0.672  -1.130  -2.020  0.00  0.00    -0.004 A 
ATOM      5  C6  UNL d   1       0.820   0.211  -1.653  0.00  0.00    -0.075 A 
ATOM      6  C7  UNL d   1       1.547   1.179  -2.539  0.00  0.00     0.076 C 
ATOM      7  C8  UNL d   1       0.269   0.652  -0.442  0.00  0.00     0.001 A 
ENDROOT
BRANCH   1   8
ATOM      8  C1  UNL d   1      -1.005   0.254   1.702  0.00  0.00     0.053 C 
ATOM      9  C   UNL d   1      -2.501   0.505   1.603  0.00  0.00     0.018 C 
ENDBRANCH   1   8
TORSDOF 1
ENDMDL
