MODEL 1
REMARK minimizedAffinity -4.05014133
REMARK minimizedRMSD -1
REMARK  1 active torsions:
REMARK  status: ('A' for Active; 'I' for Inactive)
REMARK    1  A    between atoms: C1_2  and  C2_3 
ROOT
ATOM      1  C2  UNL d   1      -0.133  -0.399  -0.479  0.00  0.00    -0.073 A 
ATOM      2  C3  UNL d   1      -0.801  -0.569  -1.697  0.00  0.00    -0.002 A 
ATOM      3  C4  UNL d   1      -0.231  -0.105  -2.884  0.00  0.00     0.004 A 
ATOM      4  C5  UNL d   1       1.013   0.526  -2.866  0.00  0.00    -0.004 A 
ATOM      5  C6  UNL d   1       1.701   0.695  -1.660  0.00  0.00    -0.075 A 
ATOM      6  C7  UNL d   1       3.038   1.374  -1.623  0.00  0.00     0.076 C 
ATOM      7  C8  UNL d   1       1.121   0.229  -0.472  0.00  0.00     0.001 A 
ENDROOT
BRANCH   1   8
ATOM      8  C1  UNL d   1      -0.741  -0.904   0.804  0.00  0.00     0.053 C 
ATOM      9  C   UNL d   1      -0.295  -2.321   1.126  0.00  0.00     0.018 C 
ENDBRANCH   1   8
TORSDOF 1
ENDMDL
