MODEL 1
REMARK minimizedAffinity -3.02801847
REMARK minimizedRMSD -1
REMARK  1 active torsions:
REMARK  status: ('A' for Active; 'I' for Inactive)
REMARK    1  A    between atoms: C1_2  and  C2_3 
ROOT
ATOM      1  C2  UNL d   1      -0.530  -0.253   0.182  0.00  0.00    -0.073 A 
ATOM      2  C3  UNL d   1       0.143   0.771   0.858  0.00  0.00    -0.002 A 
ATOM      3  C4  UNL d   1       1.231   1.412   0.264  0.00  0.00     0.004 A 
ATOM      4  C5  UNL d   1       1.653   1.041  -1.013  0.00  0.00    -0.004 A 
ATOM      5  C6  UNL d   1       0.985   0.028  -1.710  0.00  0.00    -0.075 A 
ATOM      6  C7  UNL d   1       1.428  -0.385  -3.083  0.00  0.00     0.076 C 
ATOM      7  C8  UNL d   1      -0.105  -0.612  -1.105  0.00  0.00     0.001 A 
ENDROOT
BRANCH   1   8
ATOM      8  C1  UNL d   1      -1.709  -0.943   0.817  0.00  0.00     0.053 C 
ATOM      9  C   UNL d   1      -2.699   0.049   1.409  0.00  0.00     0.018 C 
ENDBRANCH   1   8
TORSDOF 1
ENDMDL
