MODEL 1
REMARK minimizedAffinity -2.15395999
REMARK minimizedRMSD -1
REMARK  1 active torsions:
REMARK  status: ('A' for Active; 'I' for Inactive)
REMARK    1  A    between atoms: C1_2  and  C2_3 
ROOT
ATOM      1  C2  UNL d   1      -0.841   0.161   0.923  0.00  0.00    -0.073 A 
ATOM      2  C3  UNL d   1      -0.182   1.262   0.366  0.00  0.00    -0.002 A 
ATOM      3  C4  UNL d   1       0.755   1.082  -0.653  0.00  0.00     0.004 A 
ATOM      4  C5  UNL d   1       1.037  -0.198  -1.129  0.00  0.00    -0.004 A 
ATOM      5  C6  UNL d   1       0.380  -1.310  -0.593  0.00  0.00    -0.075 A 
ATOM      6  C7  UNL d   1       0.673  -2.694  -1.093  0.00  0.00     0.076 C 
ATOM      7  C8  UNL d   1      -0.557  -1.122   0.431  0.00  0.00     0.001 A 
ENDROOT
BRANCH   1   8
ATOM      8  C1  UNL d   1      -1.858   0.350   2.019  0.00  0.00     0.053 C 
ATOM      9  C   UNL d   1      -3.268   0.031   1.549  0.00  0.00     0.018 C 
ENDBRANCH   1   8
TORSDOF 1
ENDMDL
