MODEL 1
REMARK minimizedAffinity 0.617902815
REMARK minimizedRMSD -1
REMARK  1 active torsions:
REMARK  status: ('A' for Active; 'I' for Inactive)
REMARK    1  A    between atoms: C1_2  and  C2_3 
ROOT
ATOM      1  C2  UNL d   1       1.250   0.340  -1.003  0.00  0.00    -0.073 A 
ATOM      2  C3  UNL d   1       0.756   1.335  -0.152  0.00  0.00    -0.002 A 
ATOM      3  C4  UNL d   1      -0.099   1.002   0.899  0.00  0.00     0.004 A 
ATOM      4  C5  UNL d   1      -0.463  -0.327   1.115  0.00  0.00    -0.004 A 
ATOM      5  C6  UNL d   1       0.031  -1.337   0.282  0.00  0.00    -0.075 A 
ATOM      6  C7  UNL d   1      -0.353  -2.772   0.499  0.00  0.00     0.076 C 
ATOM      7  C8  UNL d   1       0.887  -0.995  -0.773  0.00  0.00     0.001 A 
ENDROOT
BRANCH   1   8
ATOM      8  C1  UNL d   1       2.179   0.693  -2.136  0.00  0.00     0.053 C 
ATOM      9  C   UNL d   1       3.629   0.379  -1.803  0.00  0.00     0.018 C 
ENDBRANCH   1   8
TORSDOF 1
ENDMDL
