MODEL 1
REMARK minimizedAffinity -4.7855587
REMARK minimizedRMSD -1
REMARK  1 active torsions:
REMARK  status: ('A' for Active; 'I' for Inactive)
REMARK    1  A    between atoms: C1_2  and  C2_3 
ROOT
ATOM      1  C2  UNL d   1      -0.369  -0.087   0.309  0.00  0.00    -0.073 A 
ATOM      2  C3  UNL d   1       0.141   1.216   0.331  0.00  0.00    -0.002 A 
ATOM      3  C4  UNL d   1       1.129   1.602  -0.575  0.00  0.00     0.004 A 
ATOM      4  C5  UNL d   1       1.613   0.692  -1.515  0.00  0.00    -0.004 A 
ATOM      5  C6  UNL d   1       1.107  -0.611  -1.561  0.00  0.00    -0.075 A 
ATOM      6  C7  UNL d   1       1.618  -1.602  -2.565  0.00  0.00     0.076 C 
ATOM      7  C8  UNL d   1       0.116  -0.991  -0.646  0.00  0.00     0.001 A 
ENDROOT
BRANCH   1   8
ATOM      8  C1  UNL d   1      -1.441  -0.506   1.282  0.00  0.00     0.053 C 
ATOM      9  C   UNL d   1      -2.220   0.685   1.820  0.00  0.00     0.018 C 
ENDBRANCH   1   8
TORSDOF 1
ENDMDL
