MODEL 1
REMARK minimizedAffinity -2.34607983
REMARK minimizedRMSD -1
REMARK  0 active torsions:
REMARK  status: ('A' for Active; 'I' for Inactive)
ROOT
ATOM      1  C   UNL d   1       0.989   2.242   1.459  0.00  0.00     0.077 C 
ATOM      2  C1  UNL d   1      -0.231   1.429   1.775  0.00  0.00    -0.074 A 
ATOM      3  C2  UNL d   1      -0.298   0.073   1.440  0.00  0.00    -0.005 A 
ATOM      4  C3  UNL d   1      -1.436  -0.672   1.749  0.00  0.00     0.006 A 
ATOM      5  C4  UNL d   1      -2.516  -0.071   2.396  0.00  0.00    -0.005 A 
ATOM      6  C5  UNL d   1      -2.467   1.284   2.740  0.00  0.00    -0.074 A 
ATOM      7  C6  UNL d   1      -3.615   1.944   3.444  0.00  0.00     0.077 C 
ATOM      8  C7  UNL d   1      -1.317   2.025   2.432  0.00  0.00    -0.001 A 
ENDROOT
TORSDOF 0
ENDMDL
