MODEL 1
REMARK minimizedAffinity -1.62004006
REMARK minimizedRMSD -1
REMARK  0 active torsions:
REMARK  status: ('A' for Active; 'I' for Inactive)
ROOT
ATOM      1  C   UNL d   1       0.542  -1.292   1.963  0.00  0.00     0.077 C 
ATOM      2  C1  UNL d   1      -0.029   0.087   1.813  0.00  0.00    -0.074 A 
ATOM      3  C2  UNL d   1       0.469   0.970   0.849  0.00  0.00    -0.005 A 
ATOM      4  C3  UNL d   1      -0.079   2.245   0.714  0.00  0.00     0.006 A 
ATOM      5  C4  UNL d   1      -1.129   2.650   1.540  0.00  0.00    -0.005 A 
ATOM      6  C5  UNL d   1      -1.640   1.781   2.508  0.00  0.00    -0.074 A 
ATOM      7  C6  UNL d   1      -2.775   2.196   3.397  0.00  0.00     0.077 C 
ATOM      8  C7  UNL d   1      -1.089   0.498   2.633  0.00  0.00    -0.001 A 
ENDROOT
TORSDOF 0
ENDMDL
