MODEL 1
REMARK minimizedAffinity -1.06445873
REMARK minimizedRMSD -1
REMARK  0 active torsions:
REMARK  status: ('A' for Active; 'I' for Inactive)
ROOT
ATOM      1  C   UNL d   1      -2.082   2.597   1.485  0.00  0.00     0.077 C 
ATOM      2  C1  UNL d   1      -1.112   1.462   1.345  0.00  0.00    -0.074 A 
ATOM      3  C2  UNL d   1      -1.392   0.205   1.891  0.00  0.00    -0.005 A 
ATOM      4  C3  UNL d   1      -0.485  -0.844   1.745  0.00  0.00     0.006 A 
ATOM      5  C4  UNL d   1       0.710  -0.647   1.052  0.00  0.00    -0.005 A 
ATOM      6  C5  UNL d   1       1.008   0.602   0.499  0.00  0.00    -0.074 A 
ATOM      7  C6  UNL d   1       2.283   0.827  -0.257  0.00  0.00     0.077 C 
ATOM      8  C7  UNL d   1       0.087   1.649   0.644  0.00  0.00    -0.001 A 
ENDROOT
TORSDOF 0
ENDMDL
