MODEL 1
REMARK minimizedAffinity -0.00909182243
REMARK minimizedRMSD -1
REMARK  0 active torsions:
REMARK  status: ('A' for Active; 'I' for Inactive)
ROOT
ATOM      1  C   UNL d   1      -2.567   2.473   3.418  0.00  0.00     0.077 C 
ATOM      2  C1  UNL d   1      -1.585   1.769   2.531  0.00  0.00    -0.074 A 
ATOM      3  C2  UNL d   1      -0.618   2.485   1.817  0.00  0.00    -0.005 A 
ATOM      4  C3  UNL d   1       0.295   1.815   1.003  0.00  0.00     0.006 A 
ATOM      5  C4  UNL d   1       0.251   0.425   0.893  0.00  0.00    -0.005 A 
ATOM      6  C5  UNL d   1      -0.708  -0.308   1.600  0.00  0.00    -0.074 A 
ATOM      7  C6  UNL d   1      -0.763  -1.804   1.501  0.00  0.00     0.077 C 
ATOM      8  C7  UNL d   1      -1.618   0.371   2.422  0.00  0.00    -0.001 A 
ENDROOT
TORSDOF 0
ENDMDL
