MODEL 1
REMARK minimizedAffinity -1.34110785
REMARK minimizedRMSD -1
REMARK  0 active torsions:
REMARK  status: ('A' for Active; 'I' for Inactive)
ROOT
ATOM      1  C   UNL d   1      -2.933  -1.225   2.730  0.00  0.00     0.077 C 
ATOM      2  C1  UNL d   1      -2.271   0.091   2.450  0.00  0.00    -0.074 A 
ATOM      3  C2  UNL d   1      -2.818   1.287   2.927  0.00  0.00    -0.005 A 
ATOM      4  C3  UNL d   1      -2.186   2.502   2.666  0.00  0.00     0.006 A 
ATOM      5  C4  UNL d   1      -1.003   2.535   1.927  0.00  0.00    -0.005 A 
ATOM      6  C5  UNL d   1      -0.441   1.349   1.443  0.00  0.00    -0.074 A 
ATOM      7  C6  UNL d   1       0.836   1.365   0.655  0.00  0.00     0.077 C 
ATOM      8  C7  UNL d   1      -1.078   0.131   1.715  0.00  0.00    -0.001 A 
ENDROOT
TORSDOF 0
ENDMDL
