MODEL 1
REMARK minimizedAffinity 1.94722164
REMARK minimizedRMSD -1
REMARK  0 active torsions:
REMARK  status: ('A' for Active; 'I' for Inactive)
ROOT
ATOM      1  C   UNL d   1      -0.778  -1.949   1.908  0.00  0.00     0.077 C 
ATOM      2  C1  UNL d   1      -0.738  -0.451   1.964  0.00  0.00    -0.074 A 
ATOM      3  C2  UNL d   1       0.258   0.267   1.293  0.00  0.00    -0.005 A 
ATOM      4  C3  UNL d   1       0.277   1.660   1.347  0.00  0.00     0.006 A 
ATOM      5  C4  UNL d   1      -0.697   2.349   2.070  0.00  0.00    -0.005 A 
ATOM      6  C5  UNL d   1      -1.701   1.649   2.746  0.00  0.00    -0.074 A 
ATOM      7  C6  UNL d   1      -2.761   2.374   3.520  0.00  0.00     0.077 C 
ATOM      8  C7  UNL d   1      -1.718   0.249   2.682  0.00  0.00    -0.001 A 
ENDROOT
TORSDOF 0
ENDMDL
