MODEL 1
REMARK minimizedAffinity -0.436897367
REMARK minimizedRMSD -1
REMARK  0 active torsions:
REMARK  status: ('A' for Active; 'I' for Inactive)
ROOT
ATOM      1  C   UNL d   1      -3.638   0.084   3.018  0.00  0.00     0.077 C 
ATOM      2  C1  UNL d   1      -2.403   0.776   2.526  0.00  0.00    -0.074 A 
ATOM      3  C2  UNL d   1      -2.217   2.147   2.732  0.00  0.00    -0.005 A 
ATOM      4  C3  UNL d   1      -1.058   2.776   2.277  0.00  0.00     0.006 A 
ATOM      5  C4  UNL d   1      -0.075   2.042   1.612  0.00  0.00    -0.005 A 
ATOM      6  C5  UNL d   1      -0.243   0.670   1.398  0.00  0.00    -0.074 A 
ATOM      7  C6  UNL d   1       0.809  -0.136   0.695  0.00  0.00     0.077 C 
ATOM      8  C7  UNL d   1      -1.407   0.044   1.865  0.00  0.00    -0.001 A 
ENDROOT
TORSDOF 0
ENDMDL
