MODEL 1
REMARK minimizedAffinity -0.913333178
REMARK minimizedRMSD -1
REMARK  0 active torsions:
REMARK  status: ('A' for Active; 'I' for Inactive)
ROOT
ATOM      1  C   UNL d   1      -0.022   2.118   1.652  0.00  0.00     0.077 C 
ATOM      2  C1  UNL d   1       0.886   1.075   1.071  0.00  0.00    -0.074 A 
ATOM      3  C2  UNL d   1       0.886  -0.233   1.565  0.00  0.00    -0.005 A 
ATOM      4  C3  UNL d   1       1.729  -1.195   1.009  0.00  0.00     0.006 A 
ATOM      5  C4  UNL d   1       2.580  -0.858  -0.045  0.00  0.00    -0.005 A 
ATOM      6  C5  UNL d   1       2.593   0.445  -0.553  0.00  0.00    -0.074 A 
ATOM      7  C6  UNL d   1       3.494   0.820  -1.692  0.00  0.00     0.077 C 
ATOM      8  C7  UNL d   1       1.737   1.404   0.007  0.00  0.00    -0.001 A 
ENDROOT
TORSDOF 0
ENDMDL
