MODEL 1
REMARK minimizedAffinity 0.636643767
REMARK minimizedRMSD -1
REMARK  0 active torsions:
REMARK  status: ('A' for Active; 'I' for Inactive)
ROOT
ATOM      1  C   UNL d   1      -6.000   4.024   4.855  0.00  0.00     0.077 C 
ATOM      2  C1  UNL d   1      -5.235   2.734   4.875  0.00  0.00    -0.074 A 
ATOM      3  C2  UNL d   1      -5.257   1.903   5.999  0.00  0.00    -0.005 A 
ATOM      4  C3  UNL d   1      -4.548   0.702   6.000  0.00  0.00     0.006 A 
ATOM      5  C4  UNL d   1      -3.811   0.320   4.878  0.00  0.00    -0.005 A 
ATOM      6  C5  UNL d   1      -3.778   1.138   3.744  0.00  0.00    -0.074 A 
ATOM      7  C6  UNL d   1      -2.999   0.738   2.526  0.00  0.00     0.077 C 
ATOM      8  C7  UNL d   1      -4.499   2.340   3.749  0.00  0.00    -0.001 A 
ENDROOT
TORSDOF 0
ENDMDL
