MODEL 1
REMARK minimizedAffinity -6.25142241
REMARK minimizedRMSD -1
REMARK  0 active torsions:
REMARK  status: ('A' for Active; 'I' for Inactive)
ROOT
ATOM      1  C   UNL d   1       1.135   3.126   1.335  0.00  0.00     0.077 C 
ATOM      2  C1  UNL d   1       0.163   1.985   1.397  0.00  0.00    -0.074 A 
ATOM      3  C2  UNL d   1       0.382   0.814   0.666  0.00  0.00    -0.005 A 
ATOM      4  C3  UNL d   1      -0.526  -0.243   0.741  0.00  0.00     0.006 A 
ATOM      5  C4  UNL d   1      -1.660  -0.138   1.547  0.00  0.00    -0.005 A 
ATOM      6  C5  UNL d   1      -1.895   1.025   2.286  0.00  0.00    -0.074 A 
ATOM      7  C6  UNL d   1      -3.104   1.150   3.165  0.00  0.00     0.077 C 
ATOM      8  C7  UNL d   1      -0.975   2.080   2.211  0.00  0.00    -0.001 A 
ENDROOT
TORSDOF 0
ENDMDL
