MODEL 1
REMARK minimizedAffinity -4.01993799
REMARK minimizedRMSD -1
REMARK  0 active torsions:
REMARK  status: ('A' for Active; 'I' for Inactive)
ROOT
ATOM      1  C   UNL d   1      -3.758   1.698   3.725  0.00  0.00     0.077 C 
ATOM      2  C1  UNL d   1      -2.554   1.595   2.837  0.00  0.00    -0.074 A 
ATOM      3  C2  UNL d   1      -1.913   2.743   2.359  0.00  0.00    -0.005 A 
ATOM      4  C3  UNL d   1      -0.788   2.631   1.542  0.00  0.00     0.006 A 
ATOM      5  C4  UNL d   1      -0.294   1.374   1.194  0.00  0.00    -0.005 A 
ATOM      6  C5  UNL d   1      -0.921   0.215   1.663  0.00  0.00    -0.074 A 
ATOM      7  C6  UNL d   1      -0.396  -1.144   1.308  0.00  0.00     0.077 C 
ATOM      8  C7  UNL d   1      -2.046   0.335   2.490  0.00  0.00    -0.001 A 
ENDROOT
TORSDOF 0
ENDMDL
