MODEL 1
REMARK minimizedAffinity 0.50990355
REMARK minimizedRMSD -1
REMARK  0 active torsions:
REMARK  status: ('A' for Active; 'I' for Inactive)
ROOT
ATOM      1  C   UNL d   1       1.308  -0.886   3.090  0.00  0.00     0.077 C 
ATOM      2  C1  UNL d   1       0.608   0.286   2.469  0.00  0.00    -0.074 A 
ATOM      3  C2  UNL d   1       1.178   0.977   1.395  0.00  0.00    -0.005 A 
ATOM      4  C3  UNL d   1       0.510   2.060   0.822  0.00  0.00     0.006 A 
ATOM      5  C4  UNL d   1      -0.732   2.461   1.315  0.00  0.00    -0.005 A 
ATOM      6  C5  UNL d   1      -1.318   1.781   2.388  0.00  0.00    -0.074 A 
ATOM      7  C6  UNL d   1      -2.656   2.193   2.924  0.00  0.00     0.077 C 
ATOM      8  C7  UNL d   1      -0.644   0.690   2.954  0.00  0.00    -0.001 A 
ENDROOT
TORSDOF 0
ENDMDL
