MODEL 1
REMARK minimizedAffinity -1.18120325
REMARK minimizedRMSD -1
REMARK  0 active torsions:
REMARK  status: ('A' for Active; 'I' for Inactive)
ROOT
ATOM      1  C   UNL d   1       1.816   2.272   1.215  0.00  0.00     0.077 C 
ATOM      2  C1  UNL d   1       0.496   1.577   1.372  0.00  0.00    -0.074 A 
ATOM      3  C2  UNL d   1       0.287   0.302   0.836  0.00  0.00    -0.005 A 
ATOM      4  C3  UNL d   1      -0.943  -0.336   0.998  0.00  0.00     0.006 A 
ATOM      5  C4  UNL d   1      -1.974   0.293   1.696  0.00  0.00    -0.005 A 
ATOM      6  C5  UNL d   1      -1.784   1.567   2.240  0.00  0.00    -0.074 A 
ATOM      7  C6  UNL d   1      -2.878   2.253   3.001  0.00  0.00     0.077 C 
ATOM      8  C7  UNL d   1      -0.543   2.199   2.079  0.00  0.00    -0.001 A 
ENDROOT
TORSDOF 0
ENDMDL
