MODEL 1
REMARK minimizedAffinity -4.48209381
REMARK minimizedRMSD -1
REMARK  0 active torsions:
REMARK  status: ('A' for Active; 'I' for Inactive)
ROOT
ATOM      1  C   UNL d   1      -2.614   2.416   3.164  0.00  0.00     0.077 C 
ATOM      2  C1  UNL d   1      -1.579   1.874   2.223  0.00  0.00    -0.074 A 
ATOM      3  C2  UNL d   1      -0.724   2.732   1.524  0.00  0.00    -0.005 A 
ATOM      4  C3  UNL d   1       0.240   2.213   0.659  0.00  0.00     0.006 A 
ATOM      5  C4  UNL d   1       0.357   0.834   0.485  0.00  0.00    -0.005 A 
ATOM      6  C5  UNL d   1      -0.488  -0.040   1.177  0.00  0.00    -0.074 A 
ATOM      7  C6  UNL d   1      -0.368  -1.525   1.009  0.00  0.00     0.077 C 
ATOM      8  C7  UNL d   1      -1.450   0.489   2.049  0.00  0.00    -0.001 A 
ENDROOT
TORSDOF 0
ENDMDL
