MODEL 1
REMARK minimizedAffinity 1.78500426
REMARK minimizedRMSD -1
REMARK  0 active torsions:
REMARK  status: ('A' for Active; 'I' for Inactive)
ROOT
ATOM      1  C   UNL d   1      -3.722   0.381   3.347  0.00  0.00     0.077 C 
ATOM      2  C1  UNL d   1      -2.415   0.844   2.774  0.00  0.00    -0.074 A 
ATOM      3  C2  UNL d   1      -2.177   2.200   2.531  0.00  0.00    -0.005 A 
ATOM      4  C3  UNL d   1      -0.953   2.617   2.007  0.00  0.00     0.006 A 
ATOM      5  C4  UNL d   1       0.043   1.682   1.721  0.00  0.00    -0.005 A 
ATOM      6  C5  UNL d   1      -0.177   0.322   1.959  0.00  0.00    -0.074 A 
ATOM      7  C6  UNL d   1       0.887  -0.695   1.667  0.00  0.00     0.077 C 
ATOM      8  C7  UNL d   1      -1.407  -0.088   2.492  0.00  0.00    -0.001 A 
ENDROOT
TORSDOF 0
ENDMDL
