MODEL 1
REMARK minimizedAffinity 1.77574158
REMARK minimizedRMSD -1
REMARK  0 active torsions:
REMARK  status: ('A' for Active; 'I' for Inactive)
ROOT
ATOM      1  C   UNL d   1      -3.232   1.607   3.214  0.00  0.00     0.077 C 
ATOM      2  C1  UNL d   1      -1.855   1.900   2.699  0.00  0.00    -0.074 A 
ATOM      3  C2  UNL d   1      -1.549   3.142   2.132  0.00  0.00    -0.005 A 
ATOM      4  C3  UNL d   1      -0.260   3.403   1.666  0.00  0.00     0.006 A 
ATOM      5  C4  UNL d   1       0.733   2.429   1.762  0.00  0.00    -0.005 A 
ATOM      6  C5  UNL d   1       0.446   1.182   2.327  0.00  0.00    -0.074 A 
ATOM      7  C6  UNL d   1       1.505   0.127   2.447  0.00  0.00     0.077 C 
ATOM      8  C7  UNL d   1      -0.849   0.929   2.800  0.00  0.00    -0.001 A 
ENDROOT
TORSDOF 0
ENDMDL
