MODEL 1
REMARK minimizedAffinity -4.11640215
REMARK minimizedRMSD -1
REMARK  0 active torsions:
REMARK  status: ('A' for Active; 'I' for Inactive)
ROOT
ATOM      1  C1  BNZ d   1       0.331   0.166   0.649  0.00  0.00     0.000 A 
ATOM      2  C2  BNZ d   1      -0.534   0.410  -0.384  0.00  0.00     0.000 A 
ATOM      3  C3  BNZ d   1      -0.515   1.606  -1.046  0.00  0.00     0.000 A 
ATOM      4  C4  BNZ d   1       0.341   2.569  -0.649  0.00  0.00     0.000 A 
ATOM      5  C5  BNZ d   1       1.214   2.342   0.397  0.00  0.00     0.000 A 
ATOM      6  C6  BNZ d   1       1.218   1.123   1.036  0.00  0.00     0.000 A 
ENDROOT
TORSDOF 0
ENDMDL
