MODEL 1
REMARK minimizedAffinity -3.87012005
REMARK minimizedRMSD -1
REMARK  0 active torsions:
REMARK  status: ('A' for Active; 'I' for Inactive)
ROOT
ATOM      1  C1  BNZ d   1       0.374   0.229  -0.258  0.00  0.00     0.000 A 
ATOM      2  C2  BNZ d   1       1.069   1.324   0.181  0.00  0.00     0.000 A 
ATOM      3  C3  BNZ d   1       0.683   1.992   1.309  0.00  0.00     0.000 A 
ATOM      4  C4  BNZ d   1      -0.419   1.588   1.974  0.00  0.00     0.000 A 
ATOM      5  C5  BNZ d   1      -1.136   0.491   1.538  0.00  0.00     0.000 A 
ATOM      6  C6  BNZ d   1      -0.722  -0.202   0.424  0.00  0.00     0.000 A 
ENDROOT
TORSDOF 0
ENDMDL
