MODEL 1
REMARK minimizedAffinity -2.41527176
REMARK minimizedRMSD -1
REMARK  0 active torsions:
REMARK  status: ('A' for Active; 'I' for Inactive)
ROOT
ATOM      1  C1  BNZ d   1      -0.113   1.122   1.431  0.00  0.00     0.000 A 
ATOM      2  C2  BNZ d   1      -0.699  -0.110   1.309  0.00  0.00     0.000 A 
ATOM      3  C3  BNZ d   1      -0.514  -0.865   0.185  0.00  0.00     0.000 A 
ATOM      4  C4  BNZ d   1       0.222  -0.372  -0.832  0.00  0.00     0.000 A 
ATOM      5  C5  BNZ d   1       0.812   0.872  -0.728  0.00  0.00     0.000 A 
ATOM      6  C6  BNZ d   1       0.656   1.613   0.421  0.00  0.00     0.000 A 
ENDROOT
TORSDOF 0
ENDMDL
