MODEL 1
REMARK minimizedAffinity -4.71508741
REMARK minimizedRMSD -1
REMARK  0 active torsions:
REMARK  status: ('A' for Active; 'I' for Inactive)
ROOT
ATOM      1  C1  BNZ d   1      -0.403  -0.780   0.326  0.00  0.00     0.000 A 
ATOM      2  C2  BNZ d   1      -0.623   0.339   1.085  0.00  0.00     0.000 A 
ATOM      3  C3  BNZ d   1       0.262   1.381   1.068  0.00  0.00     0.000 A 
ATOM      4  C4  BNZ d   1       1.383   1.287   0.325  0.00  0.00     0.000 A 
ATOM      5  C5  BNZ d   1       1.624   0.161  -0.438  0.00  0.00     0.000 A 
ATOM      6  C6  BNZ d   1       0.712  -0.869  -0.449  0.00  0.00     0.000 A 
ENDROOT
TORSDOF 0
ENDMDL
