MODEL 1
REMARK minimizedAffinity -2.1718545
REMARK minimizedRMSD -1
REMARK  0 active torsions:
REMARK  status: ('A' for Active; 'I' for Inactive)
ROOT
ATOM      1  C1  BNZ d   1       2.363   3.376  -5.998  0.00  0.00     0.000 A 
ATOM      2  C2  BNZ d   1       1.652   3.372  -4.828  0.00  0.00     0.000 A 
ATOM      3  C3  BNZ d   1       2.246   3.018  -3.649  0.00  0.00     0.000 A 
ATOM      4  C4  BNZ d   1       3.538   2.629  -3.648  0.00  0.00     0.000 A 
ATOM      5  C5  BNZ d   1       4.265   2.618  -4.821  0.00  0.00     0.000 A 
ATOM      6  C6  BNZ d   1       3.675   3.013  -6.000  0.00  0.00     0.000 A 
ENDROOT
TORSDOF 0
ENDMDL
