MODEL 1
REMARK minimizedAffinity -4.13978338
REMARK minimizedRMSD -1
REMARK  0 active torsions:
REMARK  status: ('A' for Active; 'I' for Inactive)
ROOT
ATOM      1  C1  BNZ d   1       0.827   2.225  -0.050  0.00  0.00     0.000 A 
ATOM      2  C2  BNZ d   1       0.578   2.427   1.281  0.00  0.00     0.000 A 
ATOM      3  C3  BNZ d   1       0.019   1.442   2.046  0.00  0.00     0.000 A 
ATOM      4  C4  BNZ d   1      -0.326   0.272   1.472  0.00  0.00     0.000 A 
ATOM      5  C5  BNZ d   1      -0.089   0.056   0.129  0.00  0.00     0.000 A 
ATOM      6  C6  BNZ d   1       0.509   1.035  -0.630  0.00  0.00     0.000 A 
ENDROOT
TORSDOF 0
ENDMDL
