MODEL 1
REMARK minimizedAffinity -5.22527456
REMARK minimizedRMSD -1
REMARK  0 active torsions:
REMARK  status: ('A' for Active; 'I' for Inactive)
ROOT
ATOM      1  C1  BNZ d   1      -0.142  -0.178   0.084  0.00  0.00     0.000 A 
ATOM      2  C2  BNZ d   1      -0.470   0.765   1.021  0.00  0.00     0.000 A 
ATOM      3  C3  BNZ d   1       0.360   1.823   1.271  0.00  0.00     0.000 A 
ATOM      4  C4  BNZ d   1       1.534   1.914   0.614  0.00  0.00     0.000 A 
ATOM      5  C5  BNZ d   1       1.884   0.966  -0.327  0.00  0.00     0.000 A 
ATOM      6  C6  BNZ d   1       1.028  -0.076  -0.604  0.00  0.00     0.000 A 
ENDROOT
TORSDOF 0
ENDMDL
