MODEL 1
REMARK minimizedAffinity -4.61450005
REMARK minimizedRMSD -1
REMARK  0 active torsions:
REMARK  status: ('A' for Active; 'I' for Inactive)
ROOT
ATOM      1  C1  BNZ d   1       1.378   0.925   0.273  0.00  0.00     0.000 A 
ATOM      2  C2  BNZ d   1       0.556  -0.060  -0.205  0.00  0.00     0.000 A 
ATOM      3  C3  BNZ d   1      -0.582  -0.409   0.467  0.00  0.00     0.000 A 
ATOM      4  C4  BNZ d   1      -0.875   0.198   1.635  0.00  0.00     0.000 A 
ATOM      5  C5  BNZ d   1      -0.051   1.187   2.135  0.00  0.00     0.000 A 
ATOM      6  C6  BNZ d   1       1.073   1.563   1.436  0.00  0.00     0.000 A 
ENDROOT
TORSDOF 0
ENDMDL
