MODEL 1
REMARK minimizedAffinity -5.19292784
REMARK minimizedRMSD -1
REMARK  0 active torsions:
REMARK  status: ('A' for Active; 'I' for Inactive)
ROOT
ATOM      1  C1  BNZ d   1       2.782   1.641   1.197  0.00  0.00     0.000 A 
ATOM      2  C2  BNZ d   1       1.419   1.600   1.330  0.00  0.00     0.000 A 
ATOM      3  C3  BNZ d   1       0.679   0.662   0.667  0.00  0.00     0.000 A 
ATOM      4  C4  BNZ d   1       1.297  -0.207  -0.159  0.00  0.00     0.000 A 
ATOM      5  C5  BNZ d   1       2.669  -0.173  -0.311  0.00  0.00     0.000 A 
ATOM      6  C6  BNZ d   1       3.415   0.748   0.389  0.00  0.00     0.000 A 
ENDROOT
TORSDOF 0
ENDMDL
