MODEL 1
REMARK minimizedAffinity -3.2655406
REMARK minimizedRMSD -1
REMARK  0 active torsions:
REMARK  status: ('A' for Active; 'I' for Inactive)
ROOT
ATOM      1  C1  BNZ d   1      -0.392  -0.486   0.345  0.00  0.00     0.000 A 
ATOM      2  C2  BNZ d   1      -0.659   0.369   1.381  0.00  0.00     0.000 A 
ATOM      3  C3  BNZ d   1       0.173   1.418   1.654  0.00  0.00     0.000 A 
ATOM      4  C4  BNZ d   1       1.290   1.588   0.917  0.00  0.00     0.000 A 
ATOM      5  C5  BNZ d   1       1.577   0.729  -0.125  0.00  0.00     0.000 A 
ATOM      6  C6  BNZ d   1       0.717  -0.304  -0.421  0.00  0.00     0.000 A 
ENDROOT
TORSDOF 0
ENDMDL
