MODEL 1
REMARK minimizedAffinity -2.42928982
REMARK minimizedRMSD -1
REMARK  0 active torsions:
REMARK  status: ('A' for Active; 'I' for Inactive)
ROOT
ATOM      1  C1  BNZ d   1       1.285   0.870   0.692  0.00  0.00     0.000 A 
ATOM      2  C2  BNZ d   1       1.379  -0.191  -0.168  0.00  0.00     0.000 A 
ATOM      3  C3  BNZ d   1       0.413  -1.158  -0.194  0.00  0.00     0.000 A 
ATOM      4  C4  BNZ d   1      -0.623  -1.084   0.667  0.00  0.00     0.000 A 
ATOM      5  C5  BNZ d   1      -0.727  -0.024   1.546  0.00  0.00     0.000 A 
ATOM      6  C6  BNZ d   1       0.227   0.967   1.542  0.00  0.00     0.000 A 
ENDROOT
TORSDOF 0
ENDMDL
