MODEL 1
REMARK minimizedAffinity -3.2676959
REMARK minimizedRMSD -1
REMARK  0 active torsions:
REMARK  status: ('A' for Active; 'I' for Inactive)
ROOT
ATOM      1  C1  BNZ d   1      -4.158  -1.864  -1.821  0.00  0.00     0.000 A 
ATOM      2  C2  BNZ d   1      -3.758  -1.367  -3.032  0.00  0.00     0.000 A 
ATOM      3  C3  BNZ d   1      -2.431  -1.243  -3.334  0.00  0.00     0.000 A 
ATOM      4  C4  BNZ d   1      -1.507  -1.579  -2.411  0.00  0.00     0.000 A 
ATOM      5  C5  BNZ d   1      -1.894  -2.073  -1.181  0.00  0.00     0.000 A 
ATOM      6  C6  BNZ d   1      -3.231  -2.233  -0.895  0.00  0.00     0.000 A 
ENDROOT
TORSDOF 0
ENDMDL
