MODEL 1
REMARK minimizedAffinity -4.96592379
REMARK minimizedRMSD -1
REMARK  0 active torsions:
REMARK  status: ('A' for Active; 'I' for Inactive)
ROOT
ATOM      1  C1  BNZ d   1       0.893   0.617  -0.379  0.00  0.00     0.000 A 
ATOM      2  C2  BNZ d   1       1.662   1.677   0.022  0.00  0.00     0.000 A 
ATOM      3  C3  BNZ d   1       1.367   2.362   1.167  0.00  0.00     0.000 A 
ATOM      4  C4  BNZ d   1       0.283   2.012   1.888  0.00  0.00     0.000 A 
ATOM      5  C5  BNZ d   1      -0.508   0.952   1.492  0.00  0.00     0.000 A 
ATOM      6  C6  BNZ d   1      -0.186   0.240   0.360  0.00  0.00     0.000 A 
ENDROOT
TORSDOF 0
ENDMDL
