MODEL 1
REMARK minimizedAffinity -3.75032067
REMARK minimizedRMSD -1
REMARK  0 active torsions:
REMARK  status: ('A' for Active; 'I' for Inactive)
ROOT
ATOM      1  C1  BNZ d   1      -0.594  -0.082   1.084  0.00  0.00     0.000 A 
ATOM      2  C2  BNZ d   1       0.078   1.077   1.367  0.00  0.00     0.000 A 
ATOM      3  C3  BNZ d   1       1.192   1.431   0.659  0.00  0.00     0.000 A 
ATOM      4  C4  BNZ d   1       1.656   0.608  -0.303  0.00  0.00     0.000 A 
ATOM      5  C5  BNZ d   1       0.995  -0.569  -0.594  0.00  0.00     0.000 A 
ATOM      6  C6  BNZ d   1      -0.149  -0.904   0.094  0.00  0.00     0.000 A 
ENDROOT
TORSDOF 0
ENDMDL
