MODEL 1
REMARK minimizedAffinity -6.02456474
REMARK minimizedRMSD -1
REMARK  0 active torsions:
REMARK  status: ('A' for Active; 'I' for Inactive)
ROOT
ATOM      1  N1  IND d   1      -0.186  -0.750   0.621  0.00  0.00    -0.196 N 
ATOM      2  C2  IND d   1      -0.161   0.573   0.965  0.00  0.00     0.054 A 
ATOM      3  C3  IND d   1       0.580   1.276   0.078  0.00  0.00    -0.031 A 
ATOM      4  C4  IND d   1       1.757   0.476  -2.067  0.00  0.00     0.051 A 
ATOM      5  C5  IND d   1       2.047  -0.654  -2.779  0.00  0.00    -0.031 A 
ATOM      6  C6  IND d   1       1.596  -1.898  -2.388  0.00  0.00     0.015 A 
ATOM      7  C7  IND d   1       0.826  -2.058  -1.271  0.00  0.00    -0.016 A 
ATOM      8  C8  IND d   1       0.535  -0.914  -0.542  0.00  0.00    -0.047 A 
ATOM      9  C9  IND d   1       1.025   0.346  -0.910  0.00  0.00    -0.096 A 
ATOM     10  HN1 IND d   1      -0.585  -1.374   1.057  0.00  0.00     0.298 HD
ENDROOT
TORSDOF 0
ENDMDL
