MODEL 1
REMARK minimizedAffinity -1.70326746
REMARK minimizedRMSD -1
REMARK  0 active torsions:
REMARK  status: ('A' for Active; 'I' for Inactive)
ROOT
ATOM      1  N1  IND d   1      -0.282  -1.160   1.562  0.00  0.00    -0.196 N 
ATOM      2  C2  IND d   1      -0.450   0.185   1.743  0.00  0.00     0.054 A 
ATOM      3  C3  IND d   1      -0.305   0.840   0.570  0.00  0.00    -0.031 A 
ATOM      4  C4  IND d   1       0.108  -0.104  -1.790  0.00  0.00     0.051 A 
ATOM      5  C5  IND d   1       0.367  -1.270  -2.453  0.00  0.00    -0.031 A 
ATOM      6  C6  IND d   1       0.421  -2.484  -1.799  0.00  0.00     0.015 A 
ATOM      7  C7  IND d   1       0.206  -2.579  -0.454  0.00  0.00    -0.016 A 
ATOM      8  C8  IND d   1      -0.050  -1.396   0.224  0.00  0.00    -0.047 A 
ATOM      9  C9  IND d   1      -0.064  -0.155  -0.427  0.00  0.00    -0.096 A 
ATOM     10  HN1 IND d   1      -0.316  -1.757   2.179  0.00  0.00     0.298 HD
ENDROOT
TORSDOF 0
ENDMDL
