MODEL 1
REMARK minimizedAffinity -5.04133844
REMARK minimizedRMSD -1
REMARK  0 active torsions:
REMARK  status: ('A' for Active; 'I' for Inactive)
ROOT
ATOM      1  N1  IND d   1       0.219  -0.611   0.471  0.00  0.00    -0.196 N 
ATOM      2  C2  IND d   1       0.042   0.730   0.665  0.00  0.00     0.054 A 
ATOM      3  C3  IND d   1       0.566   1.428  -0.368  0.00  0.00    -0.031 A 
ATOM      4  C4  IND d   1       1.669   0.570  -2.529  0.00  0.00     0.051 A 
ATOM      5  C5  IND d   1       2.089  -0.577  -3.142  0.00  0.00    -0.031 A 
ATOM      6  C6  IND d   1       1.900  -1.820  -2.572  0.00  0.00     0.015 A 
ATOM      7  C7  IND d   1       1.272  -1.963  -1.367  0.00  0.00    -0.016 A 
ATOM      8  C8  IND d   1       0.851  -0.799  -0.738  0.00  0.00    -0.047 A 
ATOM      9  C9  IND d   1       1.078   0.467  -1.292  0.00  0.00    -0.096 A 
ATOM     10  HN1 IND d   1      -0.023  -1.233   1.013  0.00  0.00     0.298 HD
ENDROOT
TORSDOF 0
ENDMDL
