MODEL 1
REMARK minimizedAffinity -6.21728992
REMARK minimizedRMSD -1
REMARK  0 active torsions:
REMARK  status: ('A' for Active; 'I' for Inactive)
ROOT
ATOM      1  N1  IND d   1      -0.480  -0.996   0.429  0.00  0.00    -0.196 N 
ATOM      2  C2  IND d   1      -0.658   0.336   0.681  0.00  0.00     0.054 A 
ATOM      3  C3  IND d   1       0.068   1.079  -0.184  0.00  0.00    -0.031 A 
ATOM      4  C4  IND d   1       1.539   0.323  -2.156  0.00  0.00     0.051 A 
ATOM      5  C5  IND d   1       2.039  -0.797  -2.759  0.00  0.00    -0.031 A 
ATOM      6  C6  IND d   1       1.717  -2.066  -2.324  0.00  0.00     0.015 A 
ATOM      7  C7  IND d   1       0.869  -2.263  -1.270  0.00  0.00    -0.016 A 
ATOM      8  C8  IND d   1       0.365  -1.129  -0.651  0.00  0.00    -0.047 A 
ATOM      9  C9  IND d   1       0.722   0.162  -1.062  0.00  0.00    -0.096 A 
ATOM     10  HN1 IND d   1      -0.835  -1.642   0.871  0.00  0.00     0.298 HD
ENDROOT
TORSDOF 0
ENDMDL
