MODEL 1
REMARK minimizedAffinity -4.54967356
REMARK minimizedRMSD -1
REMARK  0 active torsions:
REMARK  status: ('A' for Active; 'I' for Inactive)
ROOT
ATOM      1  N1  IND d   1      -0.954  -1.506   0.688  0.00  0.00    -0.196 N 
ATOM      2  C2  IND d   1      -1.100  -0.561   1.665  0.00  0.00     0.054 A 
ATOM      3  C3  IND d   1      -0.402   0.553   1.349  0.00  0.00    -0.031 A 
ATOM      4  C4  IND d   1       0.965   1.083  -0.767  0.00  0.00     0.051 A 
ATOM      5  C5  IND d   1       1.419   0.518  -1.925  0.00  0.00    -0.031 A 
ATOM      6  C6  IND d   1       1.097  -0.776  -2.280  0.00  0.00     0.015 A 
ATOM      7  C7  IND d   1       0.295  -1.553  -1.492  0.00  0.00    -0.016 A 
ATOM      8  C8  IND d   1      -0.162  -0.984  -0.312  0.00  0.00    -0.047 A 
ATOM      9  C9  IND d   1       0.197   0.314   0.075  0.00  0.00    -0.096 A 
ATOM     10  HN1 IND d   1      -1.300  -2.293   0.696  0.00  0.00     0.298 HD
ENDROOT
TORSDOF 0
ENDMDL
