MODEL 1
REMARK minimizedAffinity -4.5298872
REMARK minimizedRMSD -1
REMARK  0 active torsions:
REMARK  status: ('A' for Active; 'I' for Inactive)
ROOT
ATOM      1  N1  IND d   1      -0.132  -0.341   0.349  0.00  0.00    -0.196 N 
ATOM      2  C2  IND d   1       0.050   1.010   0.450  0.00  0.00     0.054 A 
ATOM      3  C3  IND d   1       0.861   1.450  -0.538  0.00  0.00    -0.031 A 
ATOM      4  C4  IND d   1       1.921   0.146  -2.487  0.00  0.00     0.051 A 
ATOM      5  C5  IND d   1       2.073  -1.120  -2.980  0.00  0.00    -0.031 A 
ATOM      6  C6  IND d   1       1.483  -2.212  -2.378  0.00  0.00     0.015 A 
ATOM      7  C7  IND d   1       0.707  -2.078  -1.262  0.00  0.00    -0.016 A 
ATOM      8  C8  IND d   1       0.557  -0.795  -0.754  0.00  0.00    -0.047 A 
ATOM      9  C9  IND d   1       1.188   0.312  -1.336  0.00  0.00    -0.096 A 
ATOM     10  HN1 IND d   1      -0.598  -0.826   0.885  0.00  0.00     0.298 HD
ENDROOT
TORSDOF 0
ENDMDL
