MODEL 1
REMARK minimizedAffinity -3.04030371
REMARK minimizedRMSD -1
REMARK  0 active torsions:
REMARK  status: ('A' for Active; 'I' for Inactive)
ROOT
ATOM      1  N1  IND d   1      -3.777   1.667  -5.999  0.00  0.00    -0.196 N 
ATOM      2  C2  IND d   1      -4.959   0.982  -5.963  0.00  0.00     0.054 A 
ATOM      3  C3  IND d   1      -5.999   1.844  -5.892  0.00  0.00    -0.031 A 
ATOM      4  C4  IND d   1      -5.996   4.418  -5.928  0.00  0.00     0.051 A 
ATOM      5  C5  IND d   1      -5.154   5.494  -5.916  0.00  0.00    -0.031 A 
ATOM      6  C6  IND d   1      -3.782   5.347  -5.934  0.00  0.00     0.015 A 
ATOM      7  C7  IND d   1      -3.198   4.112  -5.977  0.00  0.00    -0.016 A 
ATOM      8  C8  IND d   1      -4.050   3.017  -5.982  0.00  0.00    -0.047 A 
ATOM      9  C9  IND d   1      -5.443   3.159  -5.920  0.00  0.00    -0.096 A 
ATOM     10  HN1 IND d   1      -2.993   1.313  -6.028  0.00  0.00     0.298 HD
ENDROOT
TORSDOF 0
ENDMDL
