MODEL 1
REMARK minimizedAffinity -3.48727632
REMARK minimizedRMSD -1
REMARK  0 active torsions:
REMARK  status: ('A' for Active; 'I' for Inactive)
ROOT
ATOM      1  N1  IND d   1       0.565   1.106  -0.723  0.00  0.00    -0.196 N 
ATOM      2  C2  IND d   1       0.917   0.616  -1.949  0.00  0.00     0.054 A 
ATOM      3  C3  IND d   1       0.950  -0.735  -1.924  0.00  0.00    -0.031 A 
ATOM      4  C4  IND d   1       0.364  -2.350  -0.006  0.00  0.00     0.051 A 
ATOM      5  C5  IND d   1       0.024  -2.372   1.318  0.00  0.00    -0.031 A 
ATOM      6  C6  IND d   1      -0.160  -1.212   2.043  0.00  0.00     0.015 A 
ATOM      7  C7  IND d   1      -0.021   0.019   1.466  0.00  0.00    -0.016 A 
ATOM      8  C8  IND d   1       0.332   0.045   0.124  0.00  0.00    -0.047 A 
ATOM      9  C9  IND d   1       0.561  -1.129  -0.606  0.00  0.00    -0.096 A 
ATOM     10  HN1 IND d   1       0.500   1.938  -0.515  0.00  0.00     0.298 HD
ENDROOT
TORSDOF 0
ENDMDL
