MODEL 1
REMARK minimizedAffinity -2.16461229
REMARK minimizedRMSD -1
REMARK  0 active torsions:
REMARK  status: ('A' for Active; 'I' for Inactive)
ROOT
ATOM      1  N1  IND d   1      -4.435   4.018  -5.357  0.00  0.00    -0.196 N 
ATOM      2  C2  IND d   1      -3.075   4.121  -5.257  0.00  0.00     0.054 A 
ATOM      3  C3  IND d   1      -2.501   2.903  -5.380  0.00  0.00    -0.031 A 
ATOM      4  C4  IND d   1      -3.593   0.620  -5.853  0.00  0.00     0.051 A 
ATOM      5  C5  IND d   1      -4.812   0.016  -5.987  0.00  0.00    -0.031 A 
ATOM      6  C6  IND d   1      -5.991   0.730  -5.920  0.00  0.00     0.015 A 
ATOM      7  C7  IND d   1      -5.994   2.083  -5.726  0.00  0.00    -0.016 A 
ATOM      8  C8  IND d   1      -4.759   2.698  -5.582  0.00  0.00    -0.047 A 
ATOM      9  C9  IND d   1      -3.561   1.973  -5.607  0.00  0.00    -0.096 A 
ATOM     10  HN1 IND d   1      -4.993   4.668  -5.291  0.00  0.00     0.298 HD
ENDROOT
TORSDOF 0
ENDMDL
