MODEL 1
REMARK minimizedAffinity -5.19832468
REMARK minimizedRMSD -1
REMARK  0 active torsions:
REMARK  status: ('A' for Active; 'I' for Inactive)
ROOT
ATOM      1  N1  IND d   1       0.398  -1.924  -0.422  0.00  0.00    -0.196 N 
ATOM      2  C2  IND d   1      -0.153  -2.020   0.826  0.00  0.00     0.054 A 
ATOM      3  C3  IND d   1      -0.039  -0.843   1.482  0.00  0.00    -0.031 A 
ATOM      4  C4  IND d   1       0.924   1.399   0.664  0.00  0.00     0.051 A 
ATOM      5  C5  IND d   1       1.576   1.970  -0.393  0.00  0.00    -0.031 A 
ATOM      6  C6  IND d   1       1.872   1.259  -1.538  0.00  0.00     0.015 A 
ATOM      7  C7  IND d   1       1.516  -0.053  -1.673  0.00  0.00    -0.016 A 
ATOM      8  C8  IND d   1       0.860  -0.638  -0.599  0.00  0.00    -0.047 A 
ATOM      9  C9  IND d   1       0.594   0.067   0.582  0.00  0.00    -0.096 A 
ATOM     10  HN1 IND d   1       0.447  -2.560  -0.998  0.00  0.00     0.298 HD
ENDROOT
TORSDOF 0
ENDMDL
