MODEL 1
REMARK minimizedAffinity -4.90461016
REMARK minimizedRMSD -1
REMARK  0 active torsions:
REMARK  status: ('A' for Active; 'I' for Inactive)
ROOT
ATOM      1  N1  IND d   1      -0.434  -0.824   0.284  0.00  0.00    -0.196 N 
ATOM      2  C2  IND d   1      -0.599   0.242   1.124  0.00  0.00     0.054 A 
ATOM      3  C3  IND d   1      -0.018   1.345   0.603  0.00  0.00    -0.031 A 
ATOM      4  C4  IND d   1       1.169   1.655  -1.660  0.00  0.00     0.051 A 
ATOM      5  C5  IND d   1       1.598   0.959  -2.756  0.00  0.00    -0.031 A 
ATOM      6  C6  IND d   1       1.365  -0.394  -2.898  0.00  0.00     0.015 A 
ATOM      7  C7  IND d   1       0.681  -1.102  -1.951  0.00  0.00    -0.016 A 
ATOM      8  C8  IND d   1       0.250  -0.400  -0.834  0.00  0.00    -0.047 A 
ATOM      9  C9  IND d   1       0.520   0.964  -0.664  0.00  0.00    -0.096 A 
ATOM     10  HN1 IND d   1      -0.710  -1.625   0.430  0.00  0.00     0.298 HD
ENDROOT
TORSDOF 0
ENDMDL
