MODEL 1
REMARK minimizedAffinity -1.14211452
REMARK minimizedRMSD -1
REMARK  0 active torsions:
REMARK  status: ('A' for Active; 'I' for Inactive)
ROOT
ATOM      1  N1  IND d   1       1.872  -1.084  -1.712  0.00  0.00    -0.196 N 
ATOM      2  C2  IND d   1       2.745  -0.123  -2.139  0.00  0.00     0.054 A 
ATOM      3  C3  IND d   1       2.526   1.038  -1.482  0.00  0.00    -0.031 A 
ATOM      4  C4  IND d   1       0.855   1.558   0.406  0.00  0.00     0.051 A 
ATOM      5  C5  IND d   1      -0.179   1.009   1.111  0.00  0.00    -0.031 A 
ATOM      6  C6  IND d   1      -0.589  -0.293   0.908  0.00  0.00     0.015 A 
ATOM      7  C7  IND d   1       0.030  -1.102  -0.002  0.00  0.00    -0.016 A 
ATOM      8  C8  IND d   1       1.076  -0.545  -0.725  0.00  0.00    -0.047 A 
ATOM      9  C9  IND d   1       1.469   0.789  -0.554  0.00  0.00    -0.096 A 
ATOM     10  HN1 IND d   1       1.826  -1.889  -2.010  0.00  0.00     0.298 HD
ENDROOT
TORSDOF 0
ENDMDL
