MODEL 1
REMARK minimizedAffinity -2.27370501
REMARK minimizedRMSD -1
REMARK  0 active torsions:
REMARK  status: ('A' for Active; 'I' for Inactive)
ROOT
ATOM      1  N1  IND d   1      -3.839   3.278   3.909  0.00  0.00    -0.196 N 
ATOM      2  C2  IND d   1      -2.854   3.598   4.800  0.00  0.00     0.054 A 
ATOM      3  C3  IND d   1      -1.775   2.804   4.614  0.00  0.00    -0.031 A 
ATOM      4  C4  IND d   1      -1.371   0.984   2.839  0.00  0.00     0.051 A 
ATOM      5  C5  IND d   1      -1.995   0.308   1.828  0.00  0.00    -0.031 A 
ATOM      6  C6  IND d   1      -3.290   0.595   1.450  0.00  0.00     0.015 A 
ATOM      7  C7  IND d   1      -4.010   1.581   2.064  0.00  0.00    -0.016 A 
ATOM      8  C8  IND d   1      -3.382   2.265   3.095  0.00  0.00    -0.047 A 
ATOM      9  C9  IND d   1      -2.083   1.949   3.512  0.00  0.00    -0.096 A 
ATOM     10  HN1 IND d   1      -4.615   3.647   3.864  0.00  0.00     0.298 HD
ENDROOT
TORSDOF 0
ENDMDL
