MODEL 1
REMARK minimizedAffinity 0.840393126
REMARK minimizedRMSD -1
REMARK  0 active torsions:
REMARK  status: ('A' for Active; 'I' for Inactive)
ROOT
ATOM      1  N1  IND d   1       1.780  -1.566  -0.203  0.00  0.00    -0.196 N 
ATOM      2  C2  IND d   1       2.710  -2.053  -1.080  0.00  0.00     0.054 A 
ATOM      3  C3  IND d   1       3.120  -1.076  -1.919  0.00  0.00    -0.031 A 
ATOM      4  C4  IND d   1       2.476   1.416  -1.970  0.00  0.00     0.051 A 
ATOM      5  C5  IND d   1       1.635   2.323  -1.388  0.00  0.00    -0.031 A 
ATOM      6  C6  IND d   1       0.785   1.974  -0.360  0.00  0.00     0.015 A 
ATOM      7  C7  IND d   1       0.751   0.701   0.136  0.00  0.00    -0.016 A 
ATOM      8  C8  IND d   1       1.598  -0.225  -0.457  0.00  0.00    -0.047 A 
ATOM      9  C9  IND d   1       2.433   0.114  -1.529  0.00  0.00    -0.096 A 
ATOM     10  HN1 IND d   1       1.377  -2.022   0.405  0.00  0.00     0.298 HD
ENDROOT
TORSDOF 0
ENDMDL
