MODEL 1
REMARK minimizedAffinity -2.96662712
REMARK minimizedRMSD -1
REMARK  0 active torsions:
REMARK  status: ('A' for Active; 'I' for Inactive)
ROOT
ATOM      1  N1  IND d   1      -0.361  -1.000   0.383  0.00  0.00    -0.196 N 
ATOM      2  C2  IND d   1      -0.470   0.319   0.726  0.00  0.00     0.054 A 
ATOM      3  C3  IND d   1       0.306   1.080  -0.077  0.00  0.00    -0.031 A 
ATOM      4  C4  IND d   1       1.760   0.384  -2.084  0.00  0.00     0.051 A 
ATOM      5  C5  IND d   1       2.207  -0.716  -2.760  0.00  0.00    -0.031 A 
ATOM      6  C6  IND d   1       1.811  -1.993  -2.418  0.00  0.00     0.015 A 
ATOM      7  C7  IND d   1       0.940  -2.217  -1.390  0.00  0.00    -0.016 A 
ATOM      8  C8  IND d   1       0.490  -1.102  -0.696  0.00  0.00    -0.047 A 
ATOM      9  C9  IND d   1       0.921   0.192  -1.012  0.00  0.00    -0.096 A 
ATOM     10  HN1 IND d   1      -0.756  -1.655   0.775  0.00  0.00     0.298 HD
ENDROOT
TORSDOF 0
ENDMDL
