MODEL 1
REMARK minimizedAffinity -6.28350067
REMARK minimizedRMSD -1
REMARK  0 active torsions:
REMARK  status: ('A' for Active; 'I' for Inactive)
ROOT
ATOM      1  N1  IND d   1      -0.236  -1.088   0.734  0.00  0.00    -0.196 N 
ATOM      2  C2  IND d   1      -0.238   0.208   1.167  0.00  0.00     0.054 A 
ATOM      3  C3  IND d   1       0.523   0.977   0.356  0.00  0.00    -0.031 A 
ATOM      4  C4  IND d   1       1.781   0.335  -1.797  0.00  0.00     0.051 A 
ATOM      5  C5  IND d   1       2.108  -0.741  -2.573  0.00  0.00    -0.031 A 
ATOM      6  C6  IND d   1       1.660  -2.014  -2.282  0.00  0.00     0.015 A 
ATOM      7  C7  IND d   1       0.854  -2.256  -1.206  0.00  0.00    -0.016 A 
ATOM      8  C8  IND d   1       0.525  -1.167  -0.411  0.00  0.00    -0.047 A 
ATOM      9  C9  IND d   1       1.012   0.120  -0.678  0.00  0.00    -0.096 A 
ATOM     10  HN1 IND d   1      -0.641  -1.745   1.114  0.00  0.00     0.298 HD
ENDROOT
TORSDOF 0
ENDMDL
