MODEL 1
REMARK minimizedAffinity 1.19746745
REMARK minimizedRMSD -1
REMARK  0 active torsions:
REMARK  status: ('A' for Active; 'I' for Inactive)
ROOT
ATOM      1  C   UNL d   1       2.955  -2.110  -0.824  0.00  0.00     0.078 C 
ATOM      2  C1  UNL d   1       3.663  -0.868  -0.370  0.00  0.00    -0.077 A 
ATOM      3  C2  UNL d   1       4.407  -0.854   0.816  0.00  0.00    -0.001 A 
ATOM      4  C3  UNL d   1       5.052   0.311   1.231  0.00  0.00     0.003 A 
ATOM      5  C4  UNL d   1       4.961   1.472   0.467  0.00  0.00    -0.005 A 
ATOM      6  C5  UNL d   1       4.221   1.469  -0.715  0.00  0.00     0.003 A 
ATOM      7  C6  UNL d   1       3.575   0.304  -1.131  0.00  0.00    -0.001 A 
ENDROOT
TORSDOF 0
ENDMDL
