MODEL 1
REMARK minimizedAffinity -2.42726731
REMARK minimizedRMSD -1
REMARK  0 active torsions:
REMARK  status: ('A' for Active; 'I' for Inactive)
ROOT
ATOM      1  C   UNL d   1       3.380   1.646   5.999  0.00  0.00     0.078 C 
ATOM      2  C1  UNL d   1       3.404   3.143   5.924  0.00  0.00    -0.077 A 
ATOM      3  C2  UNL d   1       4.610   3.850   5.999  0.00  0.00    -0.001 A 
ATOM      4  C3  UNL d   1       4.617   5.244   5.938  0.00  0.00     0.003 A 
ATOM      5  C4  UNL d   1       3.419   5.944   5.803  0.00  0.00    -0.005 A 
ATOM      6  C5  UNL d   1       2.214   5.250   5.729  0.00  0.00     0.003 A 
ATOM      7  C6  UNL d   1       2.205   3.855   5.790  0.00  0.00    -0.001 A 
ENDROOT
TORSDOF 0
ENDMDL
