MODEL 1
REMARK minimizedAffinity 0.42532602
REMARK minimizedRMSD -1
REMARK  0 active torsions:
REMARK  status: ('A' for Active; 'I' for Inactive)
ROOT
ATOM      1  C   UNL d   1       0.746  -1.115   3.738  0.00  0.00     0.078 C 
ATOM      2  C1  UNL d   1       0.444  -2.398   4.453  0.00  0.00    -0.077 A 
ATOM      3  C2  UNL d   1       1.363  -2.958   5.348  0.00  0.00    -0.001 A 
ATOM      4  C3  UNL d   1       1.074  -4.158   5.999  0.00  0.00     0.003 A 
ATOM      5  C4  UNL d   1      -0.135  -4.809   5.761  0.00  0.00    -0.005 A 
ATOM      6  C5  UNL d   1      -1.055  -4.261   4.870  0.00  0.00     0.003 A 
ATOM      7  C6  UNL d   1      -0.767  -3.061   4.218  0.00  0.00    -0.001 A 
ENDROOT
TORSDOF 0
ENDMDL
