MODEL 1
REMARK minimizedAffinity -2.40737486
REMARK minimizedRMSD -1
REMARK  0 active torsions:
REMARK  status: ('A' for Active; 'I' for Inactive)
ROOT
ATOM      1  C   UNL d   1       2.420   4.870   6.000  0.00  0.00     0.078 C 
ATOM      2  C1  UNL d   1       3.368   3.708   5.996  0.00  0.00    -0.077 A 
ATOM      3  C2  UNL d   1       4.754   3.908   5.976  0.00  0.00    -0.001 A 
ATOM      4  C3  UNL d   1       5.624   2.818   5.963  0.00  0.00     0.003 A 
ATOM      5  C4  UNL d   1       5.119   1.519   5.969  0.00  0.00    -0.005 A 
ATOM      6  C5  UNL d   1       3.742   1.310   5.987  0.00  0.00     0.003 A 
ATOM      7  C6  UNL d   1       2.870   2.399   6.000  0.00  0.00    -0.001 A 
ENDROOT
TORSDOF 0
ENDMDL
