MODEL 1
REMARK minimizedAffinity -0.401794493
REMARK minimizedRMSD -1
REMARK  0 active torsions:
REMARK  status: ('A' for Active; 'I' for Inactive)
ROOT
ATOM      1  C   UNL d   1       3.286   1.130   5.355  0.00  0.00     0.078 C 
ATOM      2  C1  UNL d   1       3.791   2.541   5.309  0.00  0.00    -0.077 A 
ATOM      3  C2  UNL d   1       4.949   2.870   4.593  0.00  0.00    -0.001 A 
ATOM      4  C3  UNL d   1       5.413   4.186   4.567  0.00  0.00     0.003 A 
ATOM      5  C4  UNL d   1       4.726   5.184   5.255  0.00  0.00    -0.005 A 
ATOM      6  C5  UNL d   1       3.574   4.866   5.972  0.00  0.00     0.003 A 
ATOM      7  C6  UNL d   1       3.109   3.551   6.000  0.00  0.00    -0.001 A 
ENDROOT
TORSDOF 0
ENDMDL
