MODEL 1
REMARK minimizedAffinity -3.98802853
REMARK minimizedRMSD -1
REMARK  0 active torsions:
REMARK  status: ('A' for Active; 'I' for Inactive)
ROOT
ATOM      1  C   UNL d   1       5.939   5.674   5.281  0.00  0.00     0.078 C 
ATOM      2  C1  UNL d   1       5.235   4.357   5.146  0.00  0.00    -0.077 A 
ATOM      3  C2  UNL d   1       4.178   4.014   5.998  0.00  0.00    -0.001 A 
ATOM      4  C3  UNL d   1       3.539   2.780   5.868  0.00  0.00     0.003 A 
ATOM      5  C4  UNL d   1       3.949   1.880   4.887  0.00  0.00    -0.005 A 
ATOM      6  C5  UNL d   1       5.001   2.211   4.036  0.00  0.00     0.003 A 
ATOM      7  C6  UNL d   1       5.642   3.445   4.165  0.00  0.00    -0.001 A 
ENDROOT
TORSDOF 0
ENDMDL
