MODEL 1
REMARK minimizedAffinity 19.1533298
REMARK minimizedRMSD -1
REMARK  2 active torsions:
REMARK  status: ('A' for Active; 'I' for Inactive)
REMARK    1  A    between atoms: C2'_3  and  C1'_4 
REMARK    2  A    between atoms: C1'_4  and  C1_5 
ROOT
ATOM      1  C1  I4B d   1      -0.930  -3.215  -5.509  0.00  0.00    -0.075 A 
ATOM      2  C2  I4B d   1       0.151  -4.061  -5.532  0.00  0.00     0.003 A 
ATOM      3  C3  I4B d   1      -0.027  -5.439  -5.804  0.00  0.00     0.002 A 
ATOM      4  C4  I4B d   1      -1.301  -5.934  -5.996  0.00  0.00    -0.004 A 
ATOM      5  C5  I4B d   1      -2.393  -5.072  -5.995  0.00  0.00     0.002 A 
ATOM      6  C6  I4B d   1      -2.206  -3.702  -5.762  0.00  0.00     0.003 A 
ENDROOT
BRANCH   1   7
ATOM      7  C1' I4B d   1      -0.709  -1.772  -5.186  0.00  0.00     0.060 C 
BRANCH   7   8
ATOM      8  C2' I4B d   1      -0.257  -1.680  -3.742  0.00  0.00    -0.013 C 
ATOM      9  C4' I4B d   1       0.649  -0.496  -3.529  0.00  0.00     0.013 C 
ATOM     10  C3' I4B d   1      -1.480  -1.589  -2.879  0.00  0.00     0.013 C 
ENDBRANCH   7   8
ENDBRANCH   1   7
TORSDOF 2
ENDMDL
