MODEL 1
REMARK minimizedAffinity 13.3423691
REMARK minimizedRMSD -1
REMARK  2 active torsions:
REMARK  status: ('A' for Active; 'I' for Inactive)
REMARK    1  A    between atoms: C2'_3  and  C1'_4 
REMARK    2  A    between atoms: C1'_4  and  C1_5 
ROOT
ATOM      1  C1  I4B d   1      -0.821  -2.560  -4.812  0.00  0.00    -0.075 A 
ATOM      2  C2  I4B d   1      -0.062  -1.488  -5.210  0.00  0.00     0.003 A 
ATOM      3  C3  I4B d   1       0.377  -0.534  -4.260  0.00  0.00     0.002 A 
ATOM      4  C4  I4B d   1      -0.005  -0.663  -2.941  0.00  0.00    -0.004 A 
ATOM      5  C5  I4B d   1      -0.755  -1.763  -2.535  0.00  0.00     0.002 A 
ATOM      6  C6  I4B d   1      -1.155  -2.725  -3.474  0.00  0.00     0.003 A 
ENDROOT
BRANCH   1   7
ATOM      7  C1' I4B d   1      -1.295  -3.531  -5.847  0.00  0.00     0.060 C 
BRANCH   7   8
ATOM      8  C2' I4B d   1      -2.329  -4.432  -5.203  0.00  0.00    -0.013 C 
ATOM      9  C4' I4B d   1      -3.607  -4.452  -6.000  0.00  0.00     0.013 C 
ATOM     10  C3' I4B d   1      -1.740  -5.806  -5.089  0.00  0.00     0.013 C 
ENDBRANCH   7   8
ENDBRANCH   1   7
TORSDOF 2
ENDMDL
