MODEL 1
REMARK minimizedAffinity 20.5375824
REMARK minimizedRMSD -1
REMARK  2 active torsions:
REMARK  status: ('A' for Active; 'I' for Inactive)
REMARK    1  A    between atoms: C2'_3  and  C1'_4 
REMARK    2  A    between atoms: C1'_4  and  C1_5 
ROOT
ATOM      1  C1  I4B d   1      -0.825  -2.547  -5.166  0.00  0.00    -0.075 A 
ATOM      2  C2  I4B d   1      -0.898  -2.650  -3.800  0.00  0.00     0.003 A 
ATOM      3  C3  I4B d   1      -0.538  -1.552  -2.981  0.00  0.00     0.002 A 
ATOM      4  C4  I4B d   1      -0.066  -0.395  -3.566  0.00  0.00    -0.004 A 
ATOM      5  C5  I4B d   1      -0.014  -0.284  -4.953  0.00  0.00     0.002 A 
ATOM      6  C6  I4B d   1      -0.408  -1.362  -5.759  0.00  0.00     0.003 A 
ENDROOT
BRANCH   1   7
ATOM      7  C1' I4B d   1      -1.182  -3.737  -5.999  0.00  0.00     0.060 C 
BRANCH   7   8
ATOM      8  C2' I4B d   1      -2.207  -4.551  -5.236  0.00  0.00    -0.013 C 
ATOM      9  C4' I4B d   1      -3.502  -4.650  -6.000  0.00  0.00     0.013 C 
ATOM     10  C3' I4B d   1      -1.624  -5.908  -4.980  0.00  0.00     0.013 C 
ENDBRANCH   7   8
ENDBRANCH   1   7
TORSDOF 2
ENDMDL
