MODEL 1
REMARK minimizedAffinity 5.21820784
REMARK minimizedRMSD -1
REMARK  2 active torsions:
REMARK  status: ('A' for Active; 'I' for Inactive)
REMARK    1  A    between atoms: C2'_3  and  C1'_4 
REMARK    2  A    between atoms: C1'_4  and  C1_5 
ROOT
ATOM      1  C1  I4B d   1      -1.223  -3.195  -3.966  0.00  0.00    -0.075 A 
ATOM      2  C2  I4B d   1      -1.494  -3.324  -5.305  0.00  0.00     0.003 A 
ATOM      3  C3  I4B d   1      -1.951  -4.559  -5.825  0.00  0.00     0.002 A 
ATOM      4  C4  I4B d   1      -2.072  -5.647  -4.984  0.00  0.00    -0.004 A 
ATOM      5  C5  I4B d   1      -1.818  -5.509  -3.622  0.00  0.00     0.002 A 
ATOM      6  C6  I4B d   1      -1.403  -4.272  -3.107  0.00  0.00     0.003 A 
ENDROOT
BRANCH   1   7
ATOM      7  C1' I4B d   1      -0.711  -1.885  -3.457  0.00  0.00     0.060 C 
BRANCH   7   8
ATOM      8  C2' I4B d   1       0.028  -1.201  -4.589  0.00  0.00    -0.013 C 
ATOM      9  C4' I4B d   1      -0.915  -0.407  -5.454  0.00  0.00     0.013 C 
ATOM     10  C3' I4B d   1       1.083  -0.320  -3.987  0.00  0.00     0.013 C 
ENDBRANCH   7   8
ENDBRANCH   1   7
TORSDOF 2
ENDMDL
