MODEL 1
REMARK minimizedAffinity 18.4421806
REMARK minimizedRMSD -1
REMARK  2 active torsions:
REMARK  status: ('A' for Active; 'I' for Inactive)
REMARK    1  A    between atoms: C2'_3  and  C1'_4 
REMARK    2  A    between atoms: C1'_4  and  C1_5 
ROOT
ATOM      1  C1  I4B d   1      -0.706  -1.961  -4.698  0.00  0.00    -0.075 A 
ATOM      2  C2  I4B d   1       0.015  -1.917  -3.531  0.00  0.00     0.003 A 
ATOM      3  C3  I4B d   1       1.152  -1.079  -3.427  0.00  0.00     0.002 A 
ATOM      4  C4  I4B d   1       1.558  -0.346  -4.523  0.00  0.00    -0.004 A 
ATOM      5  C5  I4B d   1       0.812  -0.374  -5.697  0.00  0.00     0.002 A 
ATOM      6  C6  I4B d   1      -0.334  -1.177  -5.782  0.00  0.00     0.003 A 
ENDROOT
BRANCH   1   7
ATOM      7  C1' I4B d   1      -1.882  -2.881  -4.784  0.00  0.00     0.060 C 
BRANCH   7   8
ATOM      8  C2' I4B d   1      -1.693  -3.768  -5.998  0.00  0.00    -0.013 C 
ATOM      9  C4' I4B d   1      -0.337  -4.423  -5.988  0.00  0.00     0.013 C 
ATOM     10  C3' I4B d   1      -2.789  -4.791  -5.999  0.00  0.00     0.013 C 
ENDBRANCH   7   8
ENDBRANCH   1   7
TORSDOF 2
ENDMDL
