MODEL 1
REMARK minimizedAffinity -1.08968246
REMARK minimizedRMSD -1
REMARK  0 active torsions:
REMARK  status: ('A' for Active; 'I' for Inactive)
ROOT
ATOM      1  C   UNL d   1       4.033   5.834  -1.498  0.00  0.00     0.023 A 
ATOM      2  C1  UNL d   1       3.220   5.636  -2.615  0.00  0.00     0.003 A 
ATOM      3  C2  UNL d   1       3.783   5.602  -3.892  0.00  0.00     0.048 A 
ATOM      4  C3  UNL d   1       5.160   5.765  -4.046  0.00  0.00     0.023 A 
ATOM      5  C4  UNL d   1       5.977   5.962  -2.931  0.00  0.00     0.048 A 
ATOM      6  C5  UNL d   1       5.409   5.996  -1.656  0.00  0.00     0.003 A 
ATOM      7  I   UNL d   1       6.000   5.714  -5.946  0.00  0.00    -0.146 I 
ENDROOT
TORSDOF 0
ENDMDL
