MODEL 1
REMARK minimizedAffinity 4.24698257
REMARK minimizedRMSD -1
REMARK  0 active torsions:
REMARK  status: ('A' for Active; 'I' for Inactive)
ROOT
ATOM      1  C   UNL d   1       5.888  -2.443   5.431  0.00  0.00     0.023 A 
ATOM      2  C1  UNL d   1       4.628  -2.632   6.000  0.00  0.00     0.003 A 
ATOM      3  C2  UNL d   1       3.478  -2.309   5.276  0.00  0.00     0.048 A 
ATOM      4  C3  UNL d   1       3.595  -1.799   3.984  0.00  0.00     0.023 A 
ATOM      5  C4  UNL d   1       4.853  -1.608   3.410  0.00  0.00     0.048 A 
ATOM      6  C5  UNL d   1       6.000  -1.932   4.138  0.00  0.00     0.003 A 
ATOM      7  I   UNL d   1       1.885  -1.318   2.905  0.00  0.00    -0.146 I 
ENDROOT
TORSDOF 0
ENDMDL
