MODEL 1
REMARK minimizedAffinity 4.7304945
REMARK minimizedRMSD -1
REMARK  0 active torsions:
REMARK  status: ('A' for Active; 'I' for Inactive)
ROOT
ATOM      1  C   UNL d   1       2.091  -1.617   3.793  0.00  0.00     0.023 A 
ATOM      2  C1  UNL d   1       1.296  -1.411   2.665  0.00  0.00     0.003 A 
ATOM      3  C2  UNL d   1       1.477  -0.270   1.881  0.00  0.00     0.048 A 
ATOM      4  C3  UNL d   1       2.455   0.660   2.230  0.00  0.00     0.023 A 
ATOM      5  C4  UNL d   1       3.253   0.458   3.357  0.00  0.00     0.048 A 
ATOM      6  C5  UNL d   1       3.068  -0.684   4.139  0.00  0.00     0.003 A 
ATOM      7  I   UNL d   1       2.727   2.359   1.064  0.00  0.00    -0.146 I 
ENDROOT
TORSDOF 0
ENDMDL
