MODEL 1
REMARK minimizedAffinity 13.85007
REMARK minimizedRMSD -1
REMARK  0 active torsions:
REMARK  status: ('A' for Active; 'I' for Inactive)
ROOT
ATOM      1  C   UNL d   1       2.755  -0.590   2.499  0.00  0.00     0.023 A 
ATOM      2  C1  UNL d   1       1.723  -0.599   3.438  0.00  0.00     0.003 A 
ATOM      3  C2  UNL d   1       1.495  -1.737   4.215  0.00  0.00     0.048 A 
ATOM      4  C3  UNL d   1       2.303  -2.861   4.049  0.00  0.00     0.023 A 
ATOM      5  C4  UNL d   1       3.337  -2.856   3.111  0.00  0.00     0.048 A 
ATOM      6  C5  UNL d   1       3.561  -1.717   2.336  0.00  0.00     0.003 A 
ATOM      7  I   UNL d   1       1.965  -4.555   5.204  0.00  0.00    -0.146 I 
ENDROOT
TORSDOF 0
ENDMDL
