MODEL 1
REMARK minimizedAffinity 15.5070963
REMARK minimizedRMSD -1
REMARK  0 active torsions:
REMARK  status: ('A' for Active; 'I' for Inactive)
ROOT
ATOM      1  C   UNL d   1       1.967   0.150   2.239  0.00  0.00     0.023 A 
ATOM      2  C1  UNL d   1       3.034   0.407   1.379  0.00  0.00     0.003 A 
ATOM      3  C2  UNL d   1       3.053   1.579   0.619  0.00  0.00     0.048 A 
ATOM      4  C3  UNL d   1       2.002   2.489   0.725  0.00  0.00     0.023 A 
ATOM      5  C4  UNL d   1       0.932   2.236   1.586  0.00  0.00     0.048 A 
ATOM      6  C5  UNL d   1       0.917   1.063   2.343  0.00  0.00     0.003 A 
ATOM      7  I   UNL d   1       2.029   4.233  -0.404  0.00  0.00    -0.146 I 
ENDROOT
TORSDOF 0
ENDMDL
