MODEL 1
REMARK minimizedAffinity 1.32311797
REMARK minimizedRMSD -1
REMARK  0 active torsions:
REMARK  status: ('A' for Active; 'I' for Inactive)
ROOT
ATOM      1  C   UNL d   1       2.721  -1.507   2.294  0.00  0.00     0.023 A 
ATOM      2  C1  UNL d   1       2.005  -1.022   3.389  0.00  0.00     0.003 A 
ATOM      3  C2  UNL d   1       1.450  -1.912   4.310  0.00  0.00     0.048 A 
ATOM      4  C3  UNL d   1       1.615  -3.285   4.132  0.00  0.00     0.023 A 
ATOM      5  C4  UNL d   1       2.331  -3.774   3.038  0.00  0.00     0.048 A 
ATOM      6  C5  UNL d   1       2.884  -2.881   2.119  0.00  0.00     0.003 A 
ATOM      7  I   UNL d   1       0.789  -4.611   5.502  0.00  0.00    -0.146 I 
ENDROOT
TORSDOF 0
ENDMDL
