MODEL 1
REMARK minimizedAffinity -4.14031506
REMARK minimizedRMSD -1
REMARK  3 active torsions:
REMARK  status: ('A' for Active; 'I' for Inactive)
REMARK    1  A    between atoms: C3'_2  and  C2'_3 
REMARK    2  A    between atoms: C2'_3  and  C1'_4 
REMARK    3  A    between atoms: C1'_4  and  C1_5 
ROOT
ATOM      1  C1  N4B d   1      -0.295   0.569   0.008  0.00  0.00    -0.075 A 
ATOM      2  C2  N4B d   1      -1.628   0.126   0.161  0.00  0.00     0.002 A 
ATOM      3  C3  N4B d   1      -2.059  -0.346   1.377  0.00  0.00     0.002 A 
ATOM      4  C4  N4B d   1      -1.175  -0.402   2.444  0.00  0.00    -0.004 A 
ATOM      5  C5  N4B d   1       0.103   0.052   2.295  0.00  0.00     0.002 A 
ATOM      6  C6  N4B d   1       0.549   0.533   1.080  0.00  0.00     0.002 A 
ENDROOT
BRANCH   1   7
ATOM      7  C1' N4B d   1       0.246   1.013  -1.323  0.00  0.00     0.057 C 
BRANCH   7   8
ATOM      8  C2' N4B d   1       0.008  -0.088  -2.352  0.00  0.00     0.009 C 
BRANCH   8   9
ATOM      9  C3' N4B d   1       1.288  -0.481  -3.070  0.00  0.00     0.004 C 
ATOM     10  C4' N4B d   1       1.108  -1.667  -3.969  0.00  0.00     0.003 C 
ENDBRANCH   8   9
ENDBRANCH   7   8
ENDBRANCH   1   7
TORSDOF 3
ENDMDL
