MODEL 1
REMARK minimizedAffinity -4.43599653
REMARK minimizedRMSD -1
REMARK  3 active torsions:
REMARK  status: ('A' for Active; 'I' for Inactive)
REMARK    1  A    between atoms: C3'_2  and  C2'_3 
REMARK    2  A    between atoms: C2'_3  and  C1'_4 
REMARK    3  A    between atoms: C1'_4  and  C1_5 
ROOT
ATOM      1  C1  N4B d   1       0.198   0.132   0.427  0.00  0.00    -0.075 A 
ATOM      2  C2  N4B d   1      -0.962  -0.625   0.703  0.00  0.00     0.002 A 
ATOM      3  C3  N4B d   1      -1.278  -0.951   1.999  0.00  0.00     0.002 A 
ATOM      4  C4  N4B d   1      -0.442  -0.550   3.030  0.00  0.00    -0.004 A 
ATOM      5  C5  N4B d   1       0.664   0.201   2.758  0.00  0.00     0.002 A 
ATOM      6  C6  N4B d   1       0.991   0.540   1.460  0.00  0.00     0.002 A 
ENDROOT
BRANCH   1   7
ATOM      7  C1' N4B d   1       0.630   0.439  -0.980  0.00  0.00     0.057 C 
BRANCH   7   8
ATOM      8  C2' N4B d   1       0.267  -0.735  -1.884  0.00  0.00     0.009 C 
BRANCH   8   9
ATOM      9  C3' N4B d   1       1.394  -1.087  -2.840  0.00  0.00     0.004 C 
ATOM     10  C4' N4B d   1       1.119  -2.333  -3.628  0.00  0.00     0.003 C 
ENDBRANCH   8   9
ENDBRANCH   7   8
ENDBRANCH   1   7
TORSDOF 3
ENDMDL
