MODEL 1
REMARK minimizedAffinity -4.40285587
REMARK minimizedRMSD -1
REMARK  3 active torsions:
REMARK  status: ('A' for Active; 'I' for Inactive)
REMARK    1  A    between atoms: C3'_2  and  C2'_3 
REMARK    2  A    between atoms: C2'_3  and  C1'_4 
REMARK    3  A    between atoms: C1'_4  and  C1_5 
ROOT
ATOM      1  C1  N4B d   1      -0.372   0.162  -0.096  0.00  0.00    -0.075 A 
ATOM      2  C2  N4B d   1      -1.743   0.215   0.237  0.00  0.00     0.002 A 
ATOM      3  C3  N4B d   1      -2.152  -0.087   1.513  0.00  0.00     0.002 A 
ATOM      4  C4  N4B d   1      -1.213  -0.460   2.464  0.00  0.00    -0.004 A 
ATOM      5  C5  N4B d   1       0.112  -0.484   2.140  0.00  0.00     0.002 A 
ATOM      6  C6  N4B d   1       0.537  -0.179   0.863  0.00  0.00     0.002 A 
ENDROOT
BRANCH   1   7
ATOM      7  C1' N4B d   1       0.114   0.400  -1.500  0.00  0.00     0.057 C 
BRANCH   7   8
ATOM      8  C2' N4B d   1       0.342  -0.944  -2.185  0.00  0.00     0.009 C 
BRANCH   8   9
ATOM      9  C3' N4B d   1       1.559  -0.918  -3.094  0.00  0.00     0.004 C 
ATOM     10  C4' N4B d   1       2.236   0.419  -3.121  0.00  0.00     0.003 C 
ENDBRANCH   8   9
ENDBRANCH   7   8
ENDBRANCH   1   7
TORSDOF 3
ENDMDL
