MODEL 1
REMARK minimizedAffinity -2.54232168
REMARK minimizedRMSD -1
REMARK  3 active torsions:
REMARK  status: ('A' for Active; 'I' for Inactive)
REMARK    1  A    between atoms: C3'_2  and  C2'_3 
REMARK    2  A    between atoms: C2'_3  and  C1'_4 
REMARK    3  A    between atoms: C1'_4  and  C1_5 
ROOT
ATOM      1  C1  N4B d   1       0.185   0.580  -1.186  0.00  0.00    -0.075 A 
ATOM      2  C2  N4B d   1      -0.995   0.366  -0.441  0.00  0.00     0.002 A 
ATOM      3  C3  N4B d   1      -0.938   0.285   0.929  0.00  0.00     0.002 A 
ATOM      4  C4  N4B d   1       0.286   0.398   1.572  0.00  0.00    -0.004 A 
ATOM      5  C5  N4B d   1       1.418   0.630   0.847  0.00  0.00     0.002 A 
ATOM      6  C6  N4B d   1       1.374   0.717  -0.530  0.00  0.00     0.002 A 
ENDROOT
BRANCH   1   7
ATOM      7  C1' N4B d   1       0.185   0.589  -2.690  0.00  0.00     0.057 C 
BRANCH   7   8
ATOM      8  C2' N4B d   1       1.499   0.001  -3.195  0.00  0.00     0.009 C 
BRANCH   8   9
ATOM      9  C3' N4B d   1       1.412  -1.504  -3.383  0.00  0.00     0.004 C 
ATOM     10  C4' N4B d   1       0.123  -1.937  -4.014  0.00  0.00     0.003 C 
ENDBRANCH   8   9
ENDBRANCH   7   8
ENDBRANCH   1   7
TORSDOF 3
ENDMDL
