MODEL 1
REMARK minimizedAffinity -4.31707764
REMARK minimizedRMSD -1
REMARK  3 active torsions:
REMARK  status: ('A' for Active; 'I' for Inactive)
REMARK    1  A    between atoms: C3'_2  and  C2'_3 
REMARK    2  A    between atoms: C2'_3  and  C1'_4 
REMARK    3  A    between atoms: C1'_4  and  C1_5 
ROOT
ATOM      1  C1  N4B d   1      -0.189   0.245   0.238  0.00  0.00    -0.075 A 
ATOM      2  C2  N4B d   1      -1.092  -0.133   1.256  0.00  0.00     0.002 A 
ATOM      3  C3  N4B d   1      -0.651  -0.267   2.550  0.00  0.00     0.002 A 
ATOM      4  C4  N4B d   1       0.686  -0.047   2.845  0.00  0.00    -0.004 A 
ATOM      5  C5  N4B d   1       1.546   0.343   1.861  0.00  0.00     0.002 A 
ATOM      6  C6  N4B d   1       1.116   0.485   0.557  0.00  0.00     0.002 A 
ENDROOT
BRANCH   1   7
ATOM      7  C1' N4B d   1      -0.605   0.321  -1.205  0.00  0.00     0.057 C 
BRANCH   7   8
ATOM      8  C2' N4B d   1       0.604   0.035  -2.091  0.00  0.00     0.009 C 
BRANCH   8   9
ATOM      9  C3' N4B d   1       0.452  -1.269  -2.855  0.00  0.00     0.004 C 
ATOM     10  C4' N4B d   1       1.533  -1.474  -3.874  0.00  0.00     0.003 C 
ENDBRANCH   8   9
ENDBRANCH   7   8
ENDBRANCH   1   7
TORSDOF 3
ENDMDL
