MODEL 1
REMARK minimizedAffinity -5.99955606
REMARK minimizedRMSD -1
REMARK  3 active torsions:
REMARK  status: ('A' for Active; 'I' for Inactive)
REMARK    1  A    between atoms: C3'_2  and  C2'_3 
REMARK    2  A    between atoms: C2'_3  and  C1'_4 
REMARK    3  A    between atoms: C1'_4  and  C1_5 
ROOT
ATOM      1  C1  N4B d   1      -0.033   0.122   0.642  0.00  0.00    -0.075 A 
ATOM      2  C2  N4B d   1      -1.320  -0.459   0.607  0.00  0.00     0.002 A 
ATOM      3  C3  N4B d   1      -1.843  -1.038   1.737  0.00  0.00     0.002 A 
ATOM      4  C4  N4B d   1      -1.093  -1.064   2.904  0.00  0.00    -0.004 A 
ATOM      5  C5  N4B d   1       0.138  -0.478   2.936  0.00  0.00     0.002 A 
ATOM      6  C6  N4B d   1       0.675   0.111   1.809  0.00  0.00     0.002 A 
ENDROOT
BRANCH   1   7
ATOM      7  C1' N4B d   1       0.616   0.691  -0.590  0.00  0.00     0.057 C 
BRANCH   7   8
ATOM      8  C2' N4B d   1       0.062  -0.021  -1.821  0.00  0.00     0.009 C 
BRANCH   8   9
ATOM      9  C3' N4B d   1       1.144  -0.304  -2.849  0.00  0.00     0.004 C 
ATOM     10  C4' N4B d   1       0.988  -1.646  -3.501  0.00  0.00     0.003 C 
ENDBRANCH   8   9
ENDBRANCH   7   8
ENDBRANCH   1   7
TORSDOF 3
ENDMDL
