MODEL 1
REMARK minimizedAffinity -0.856935084
REMARK minimizedRMSD -1
REMARK  3 active torsions:
REMARK  status: ('A' for Active; 'I' for Inactive)
REMARK    1  A    between atoms: C3'_2  and  C2'_3 
REMARK    2  A    between atoms: C2'_3  and  C1'_4 
REMARK    3  A    between atoms: C1'_4  and  C1_5 
ROOT
ATOM      1  C1  N4B d   1       0.451   0.027   0.674  0.00  0.00    -0.075 A 
ATOM      2  C2  N4B d   1       1.185   0.289   1.851  0.00  0.00     0.002 A 
ATOM      3  C3  N4B d   1       0.637   0.012   3.079  0.00  0.00     0.002 A 
ATOM      4  C4  N4B d   1      -0.647  -0.508   3.155  0.00  0.00    -0.004 A 
ATOM      5  C5  N4B d   1      -1.340  -0.783   2.013  0.00  0.00     0.002 A 
ATOM      6  C6  N4B d   1      -0.799  -0.513   0.772  0.00  0.00     0.002 A 
ENDROOT
BRANCH   1   7
ATOM      7  C1' N4B d   1       0.975   0.393  -0.687  0.00  0.00     0.057 C 
BRANCH   7   8
ATOM      8  C2' N4B d   1       0.572  -0.688  -1.687  0.00  0.00     0.009 C 
BRANCH   8   9
ATOM      9  C3' N4B d   1       1.739  -1.122  -2.556  0.00  0.00     0.004 C 
ATOM     10  C4' N4B d   1       1.386  -2.246  -3.484  0.00  0.00     0.003 C 
ENDBRANCH   8   9
ENDBRANCH   7   8
ENDBRANCH   1   7
TORSDOF 3
ENDMDL
