MODEL 1
REMARK minimizedAffinity -2.95931482
REMARK minimizedRMSD -1
REMARK  3 active torsions:
REMARK  status: ('A' for Active; 'I' for Inactive)
REMARK    1  A    between atoms: C3'_2  and  C2'_3 
REMARK    2  A    between atoms: C2'_3  and  C1'_4 
REMARK    3  A    between atoms: C1'_4  and  C1_5 
ROOT
ATOM      1  C1  N4B d   1       0.064  -0.035   0.393  0.00  0.00    -0.075 A 
ATOM      2  C2  N4B d   1      -1.339  -0.189   0.438  0.00  0.00     0.002 A 
ATOM      3  C3  N4B d   1      -1.979  -0.297   1.648  0.00  0.00     0.002 A 
ATOM      4  C4  N4B d   1      -1.239  -0.274   2.820  0.00  0.00    -0.004 A 
ATOM      5  C5  N4B d   1       0.113  -0.100   2.769  0.00  0.00     0.002 A 
ATOM      6  C6  N4B d   1       0.770   0.014   1.560  0.00  0.00     0.002 A 
ENDROOT
BRANCH   1   7
ATOM      7  C1' N4B d   1       0.818   0.001  -0.909  0.00  0.00     0.057 C 
BRANCH   7   8
ATOM      8  C2' N4B d   1       0.403  -1.195  -1.761  0.00  0.00     0.009 C 
BRANCH   8   9
ATOM      9  C3' N4B d   1       1.079  -1.185  -3.121  0.00  0.00     0.004 C 
ATOM     10  C4' N4B d   1       2.020  -2.337  -3.311  0.00  0.00     0.003 C 
ENDBRANCH   8   9
ENDBRANCH   7   8
ENDBRANCH   1   7
TORSDOF 3
ENDMDL
