MODEL 1
REMARK minimizedAffinity -3.32497954
REMARK minimizedRMSD -1
REMARK  3 active torsions:
REMARK  status: ('A' for Active; 'I' for Inactive)
REMARK    1  A    between atoms: C3'_2  and  C2'_3 
REMARK    2  A    between atoms: C2'_3  and  C1'_4 
REMARK    3  A    between atoms: C1'_4  and  C1_5 
ROOT
ATOM      1  C1  N4B d   1       0.414   0.159   0.914  0.00  0.00    -0.075 A 
ATOM      2  C2  N4B d   1       0.887   0.518   2.196  0.00  0.00     0.002 A 
ATOM      3  C3  N4B d   1       0.176   0.159   3.315  0.00  0.00     0.002 A 
ATOM      4  C4  N4B d   1      -1.014  -0.539   3.177  0.00  0.00    -0.004 A 
ATOM      5  C5  N4B d   1      -1.451  -0.904   1.937  0.00  0.00     0.002 A 
ATOM      6  C6  N4B d   1      -0.744  -0.554   0.804  0.00  0.00     0.002 A 
ENDROOT
BRANCH   1   7
ATOM      7  C1' N4B d   1       1.112   0.603  -0.342  0.00  0.00     0.057 C 
BRANCH   7   8
ATOM      8  C2' N4B d   1       0.827  -0.401  -1.455  0.00  0.00     0.009 C 
BRANCH   8   9
ATOM      9  C3' N4B d   1       1.822  -0.281  -2.597  0.00  0.00     0.004 C 
ATOM     10  C4' N4B d   1       1.994  -1.564  -3.354  0.00  0.00     0.003 C 
ENDBRANCH   8   9
ENDBRANCH   7   8
ENDBRANCH   1   7
TORSDOF 3
ENDMDL
