MODEL 1
REMARK minimizedAffinity -2.38231611
REMARK minimizedRMSD -1
REMARK  3 active torsions:
REMARK  status: ('A' for Active; 'I' for Inactive)
REMARK    1  A    between atoms: C3'_2  and  C2'_3 
REMARK    2  A    between atoms: C2'_3  and  C1'_4 
REMARK    3  A    between atoms: C1'_4  and  C1_5 
ROOT
ATOM      1  C1  N4B d   1       0.297   0.188   0.258  0.00  0.00    -0.075 A 
ATOM      2  C2  N4B d   1       1.413   0.468   1.077  0.00  0.00     0.002 A 
ATOM      3  C3  N4B d   1       1.390   0.131   2.408  0.00  0.00     0.002 A 
ATOM      4  C4  N4B d   1       0.260  -0.467   2.944  0.00  0.00    -0.004 A 
ATOM      5  C5  N4B d   1      -0.804  -0.757   2.141  0.00  0.00     0.002 A 
ATOM      6  C6  N4B d   1      -0.793  -0.428   0.801  0.00  0.00     0.002 A 
ENDROOT
BRANCH   1   7
ATOM      7  C1' N4B d   1       0.242   0.615  -1.183  0.00  0.00     0.057 C 
BRANCH   7   8
ATOM      8  C2' N4B d   1       0.458  -0.604  -2.075  0.00  0.00     0.009 C 
BRANCH   8   9
ATOM      9  C3' N4B d   1       1.567  -0.377  -3.088  0.00  0.00     0.004 C 
ATOM     10  C4' N4B d   1       1.696  -1.504  -4.070  0.00  0.00     0.003 C 
ENDBRANCH   8   9
ENDBRANCH   7   8
ENDBRANCH   1   7
TORSDOF 3
ENDMDL
