MODEL 1
REMARK minimizedAffinity -0.484514922
REMARK minimizedRMSD -1
REMARK  3 active torsions:
REMARK  status: ('A' for Active; 'I' for Inactive)
REMARK    1  A    between atoms: C3'_2  and  C2'_3 
REMARK    2  A    between atoms: C2'_3  and  C1'_4 
REMARK    3  A    between atoms: C1'_4  and  C1_5 
ROOT
ATOM      1  C1  N4B d   1      -0.224  -0.489   0.238  0.00  0.00    -0.075 A 
ATOM      2  C2  N4B d   1      -1.629  -0.447   0.101  0.00  0.00     0.002 A 
ATOM      3  C3  N4B d   1      -2.413  -1.331   0.801  0.00  0.00     0.002 A 
ATOM      4  C4  N4B d   1      -1.817  -2.274   1.624  0.00  0.00    -0.004 A 
ATOM      5  C5  N4B d   1      -0.461  -2.292   1.770  0.00  0.00     0.002 A 
ATOM      6  C6  N4B d   1       0.340  -1.407   1.076  0.00  0.00     0.002 A 
ENDROOT
BRANCH   1   7
ATOM      7  C1' N4B d   1       0.680   0.400  -0.572  0.00  0.00     0.057 C 
BRANCH   7   8
ATOM      8  C2' N4B d   1       0.252   0.349  -2.036  0.00  0.00     0.009 C 
BRANCH   8   9
ATOM      9  C3' N4B d   1       1.416   0.027  -2.957  0.00  0.00     0.004 C 
ATOM     10  C4' N4B d   1       1.273  -1.306  -3.629  0.00  0.00     0.003 C 
ENDBRANCH   8   9
ENDBRANCH   7   8
ENDBRANCH   1   7
TORSDOF 3
ENDMDL
