MODEL 1
REMARK minimizedAffinity -1.69615984
REMARK minimizedRMSD -1
REMARK  0 active torsions:
REMARK  status: ('A' for Active; 'I' for Inactive)
ROOT
ATOM      1  C   UNL d   1       2.175   0.766   1.505  0.00  0.00     0.172 C 
ATOM      2  N   UNL d   1       0.987   0.563   0.709  0.00  0.00    -0.070 N 
ATOM      3  C1  UNL d   1       0.455   1.464  -0.174  0.00  0.00    -0.004 A 
ATOM      4  C2  UNL d   1      -0.671   0.896  -0.730  0.00  0.00    -0.047 A 
ATOM      5  C3  UNL d   1      -0.821  -0.391  -0.161  0.00  0.00    -0.047 A 
ATOM      6  C4  UNL d   1       0.220  -0.571   0.726  0.00  0.00    -0.004 A 
ENDROOT
TORSDOF 0
ENDMDL
