MODEL 1
REMARK minimizedAffinity -0.95977819
REMARK minimizedRMSD -1
REMARK  0 active torsions:
REMARK  status: ('A' for Active; 'I' for Inactive)
ROOT
ATOM      1  C   UNL d   1      -1.151  -0.017  -0.566  0.00  0.00     0.172 C 
ATOM      2  N   UNL d   1       0.117   0.326   0.035  0.00  0.00    -0.070 N 
ATOM      3  C1  UNL d   1       0.937   1.348  -0.362  0.00  0.00    -0.004 A 
ATOM      4  C2  UNL d   1       2.043   1.344   0.461  0.00  0.00    -0.047 A 
ATOM      5  C3  UNL d   1       1.882   0.282   1.382  0.00  0.00    -0.047 A 
ATOM      6  C4  UNL d   1       0.681  -0.332   1.096  0.00  0.00    -0.004 A 
ENDROOT
TORSDOF 0
ENDMDL
