MODEL 1
REMARK minimizedAffinity -1.55401802
REMARK minimizedRMSD -1
REMARK  0 active torsions:
REMARK  status: ('A' for Active; 'I' for Inactive)
ROOT
ATOM      1  C   UNL d   1       2.784   0.452   1.608  0.00  0.00     0.172 C 
ATOM      2  N   UNL d   1       1.526   0.218   0.940  0.00  0.00    -0.070 N 
ATOM      3  C1  UNL d   1       0.856  -0.975   0.895  0.00  0.00    -0.004 A 
ATOM      4  C2  UNL d   1      -0.298  -0.785   0.165  0.00  0.00    -0.047 A 
ATOM      5  C3  UNL d   1      -0.321   0.570  -0.243  0.00  0.00    -0.047 A 
ATOM      6  C4  UNL d   1       0.819   1.168   0.250  0.00  0.00    -0.004 A 
ENDROOT
TORSDOF 0
ENDMDL
