MODEL 1
REMARK minimizedAffinity -0.620902538
REMARK minimizedRMSD -1
REMARK  0 active torsions:
REMARK  status: ('A' for Active; 'I' for Inactive)
ROOT
ATOM      1  C   UNL d   1      -0.708   0.192   0.035  0.00  0.00     0.172 C 
ATOM      2  N   UNL d   1      -1.477  -0.054  -1.163  0.00  0.00    -0.070 N 
ATOM      3  C1  UNL d   1      -2.311   0.843  -1.775  0.00  0.00    -0.004 A 
ATOM      4  C2  UNL d   1      -2.853   0.228  -2.882  0.00  0.00    -0.047 A 
ATOM      5  C3  UNL d   1      -2.328  -1.085  -2.937  0.00  0.00    -0.047 A 
ATOM      6  C4  UNL d   1      -1.478  -1.232  -1.861  0.00  0.00    -0.004 A 
ENDROOT
TORSDOF 0
ENDMDL
