MODEL 1
REMARK minimizedAffinity -2.12231302
REMARK minimizedRMSD -1
REMARK  0 active torsions:
REMARK  status: ('A' for Active; 'I' for Inactive)
ROOT
ATOM      1  C   UNL d   1      -1.398  -0.494  -0.552  0.00  0.00     0.172 C 
ATOM      2  N   UNL d   1      -0.032  -0.218  -0.175  0.00  0.00    -0.070 N 
ATOM      3  C1  UNL d   1       1.012  -1.101  -0.251  0.00  0.00    -0.004 A 
ATOM      4  C2  UNL d   1       2.144  -0.456   0.199  0.00  0.00    -0.047 A 
ATOM      5  C3  UNL d   1       1.767   0.860   0.559  0.00  0.00    -0.047 A 
ATOM      6  C4  UNL d   1       0.415   0.980   0.317  0.00  0.00    -0.004 A 
ENDROOT
TORSDOF 0
ENDMDL
