MODEL 1
REMARK minimizedAffinity -1.66183102
REMARK minimizedRMSD -1
REMARK  0 active torsions:
REMARK  status: ('A' for Active; 'I' for Inactive)
ROOT
ATOM      1  C   UNL d   1      -1.153  -0.176   0.013  0.00  0.00     0.172 C 
ATOM      2  N   UNL d   1      -1.690  -0.098  -1.325  0.00  0.00    -0.070 N 
ATOM      3  C1  UNL d   1      -2.520   0.884  -1.796  0.00  0.00    -0.004 A 
ATOM      4  C2  UNL d   1      -2.805   0.600  -3.114  0.00  0.00    -0.047 A 
ATOM      5  C3  UNL d   1      -2.123  -0.595  -3.446  0.00  0.00    -0.047 A 
ATOM      6  C4  UNL d   1      -1.440  -1.005  -2.320  0.00  0.00    -0.004 A 
ENDROOT
TORSDOF 0
ENDMDL
