MODEL 1
REMARK minimizedAffinity -1.96683049
REMARK minimizedRMSD -1
REMARK  0 active torsions:
REMARK  status: ('A' for Active; 'I' for Inactive)
ROOT
ATOM      1  C   UNL d   1      -1.735   0.180  -0.046  0.00  0.00     0.172 C 
ATOM      2  N   UNL d   1      -2.422   0.332  -1.308  0.00  0.00    -0.070 N 
ATOM      3  C1  UNL d   1      -2.807  -0.689  -2.135  0.00  0.00    -0.004 A 
ATOM      4  C2  UNL d   1      -3.430  -0.132  -3.231  0.00  0.00    -0.047 A 
ATOM      5  C3  UNL d   1      -3.417   1.272  -3.057  0.00  0.00    -0.047 A 
ATOM      6  C4  UNL d   1      -2.787   1.532  -1.858  0.00  0.00    -0.004 A 
ENDROOT
TORSDOF 0
ENDMDL
