MODEL 1
REMARK minimizedAffinity -2.51967287
REMARK minimizedRMSD -1
REMARK  0 active torsions:
REMARK  status: ('A' for Active; 'I' for Inactive)
ROOT
ATOM      1  C   UNL d   1      -1.084   0.180  -0.285  0.00  0.00     0.172 C 
ATOM      2  N   UNL d   1       0.246   0.333   0.257  0.00  0.00    -0.070 N 
ATOM      3  C1  UNL d   1       0.818  -0.470   1.208  0.00  0.00    -0.004 A 
ATOM      4  C2  UNL d   1       2.088   0.005   1.452  0.00  0.00    -0.047 A 
ATOM      5  C3  UNL d   1       2.286   1.133   0.620  0.00  0.00    -0.047 A 
ATOM      6  C4  UNL d   1       1.130   1.313  -0.109  0.00  0.00    -0.004 A 
ENDROOT
TORSDOF 0
ENDMDL
