MODEL 1
REMARK minimizedAffinity -2.49328828
REMARK minimizedRMSD -1
REMARK  0 active torsions:
REMARK  status: ('A' for Active; 'I' for Inactive)
ROOT
ATOM      1  C   UNL d   1       2.394   0.660   1.212  0.00  0.00     0.172 C 
ATOM      2  N   UNL d   1       1.037   0.406   0.787  0.00  0.00    -0.070 N 
ATOM      3  C1  UNL d   1       0.421  -0.817   0.773  0.00  0.00    -0.004 A 
ATOM      4  C2  UNL d   1      -0.862  -0.638   0.303  0.00  0.00    -0.047 A 
ATOM      5  C3  UNL d   1      -1.022   0.740   0.024  0.00  0.00    -0.047 A 
ATOM      6  C4  UNL d   1       0.169   1.363   0.332  0.00  0.00    -0.004 A 
ENDROOT
TORSDOF 0
ENDMDL
