MODEL 1
REMARK minimizedAffinity -3.00448608
REMARK minimizedRMSD -1
REMARK  0 active torsions:
REMARK  status: ('A' for Active; 'I' for Inactive)
ROOT
ATOM      1  C   UNL d   1      -1.253   0.310  -0.264  0.00  0.00     0.172 C 
ATOM      2  N   UNL d   1       0.172   0.398  -0.049  0.00  0.00    -0.070 N 
ATOM      3  C1  UNL d   1       0.940  -0.531   0.601  0.00  0.00    -0.004 A 
ATOM      4  C2  UNL d   1       2.243  -0.081   0.595  0.00  0.00    -0.047 A 
ATOM      5  C3  UNL d   1       2.258   1.162  -0.081  0.00  0.00    -0.047 A 
ATOM      6  C4  UNL d   1       0.963   1.435  -0.469  0.00  0.00    -0.004 A 
ENDROOT
TORSDOF 0
ENDMDL
