MODEL 1
REMARK minimizedAffinity 23.6175289
REMARK minimizedRMSD -1
REMARK  0 active torsions:
REMARK  status: ('A' for Active; 'I' for Inactive)
ROOT
ATOM      1  C   UNL d   1      -1.717  -0.665   2.578  0.00  0.00     0.124 A 
ATOM      2  C1  UNL d   1      -1.750  -1.805   3.369  0.00  0.00     0.062 A 
ATOM      3  C2  UNL d   1      -0.589  -2.265   3.983  0.00  0.00     0.162 A 
ATOM      4  C3  UNL d   1       0.616  -1.585   3.809  0.00  0.00    -0.034 A 
ATOM      5  C4  UNL d   1       0.642  -0.440   3.011  0.00  0.00     0.162 A 
ATOM      6  C5  UNL d   1      -0.521   0.016   2.400  0.00  0.00     0.062 A 
ATOM      7  F   UNL d   1      -0.486   1.118   1.636  0.00  0.00    -0.097 F 
ATOM      8  F1  UNL d   1       1.784   0.238   2.822  0.00  0.00    -0.096 F 
ATOM      9  I   UNL d   1       2.355  -2.271   4.725  0.00  0.00    -0.060 I 
ATOM     10  F2  UNL d   1      -0.651  -3.370   4.742  0.00  0.00    -0.096 F 
ATOM     11  F3  UNL d   1      -2.904  -2.465   3.543  0.00  0.00    -0.097 F 
ATOM     12  F4  UNL d   1      -2.835  -0.225   1.988  0.00  0.00    -0.092 F 
ENDROOT
TORSDOF 0
ENDMDL
