MODEL 1
REMARK minimizedAffinity 30.5366764
REMARK minimizedRMSD -1
REMARK  0 active torsions:
REMARK  status: ('A' for Active; 'I' for Inactive)
ROOT
ATOM      1  C   UNL d   1       3.677   1.943   2.282  0.00  0.00     0.124 A 
ATOM      2  C1  UNL d   1       4.436   1.939   3.444  0.00  0.00     0.062 A 
ATOM      3  C2  UNL d   1       5.100   3.092   3.851  0.00  0.00     0.162 A 
ATOM      4  C3  UNL d   1       5.008   4.261   3.095  0.00  0.00    -0.034 A 
ATOM      5  C4  UNL d   1       4.244   4.258   1.927  0.00  0.00     0.162 A 
ATOM      6  C5  UNL d   1       3.582   3.102   1.525  0.00  0.00     0.062 A 
ATOM      7  F   UNL d   1       2.849   3.108   0.401  0.00  0.00    -0.097 F 
ATOM      8  F1  UNL d   1       4.133   5.364   1.176  0.00  0.00    -0.096 F 
ATOM      9  I   UNL d   1       6.000   5.988   3.699  0.00  0.00    -0.060 I 
ATOM     10  F2  UNL d   1       5.827   3.059   4.978  0.00  0.00    -0.096 F 
ATOM     11  F3  UNL d   1       4.531   0.820   4.177  0.00  0.00    -0.097 F 
ATOM     12  F4  UNL d   1       3.040   0.832   1.893  0.00  0.00    -0.092 F 
ENDROOT
TORSDOF 0
ENDMDL
