MODEL 1
REMARK minimizedAffinity 20.6543331
REMARK minimizedRMSD -1
REMARK  0 active torsions:
REMARK  status: ('A' for Active; 'I' for Inactive)
ROOT
ATOM      1  C   UNL d   1       2.023  -0.030   3.023  0.00  0.00     0.124 A 
ATOM      2  C1  UNL d   1       2.630   0.730   4.013  0.00  0.00     0.062 A 
ATOM      3  C2  UNL d   1       1.859   1.517   4.863  0.00  0.00     0.162 A 
ATOM      4  C3  UNL d   1       0.471   1.549   4.727  0.00  0.00    -0.034 A 
ATOM      5  C4  UNL d   1      -0.132   0.783   3.727  0.00  0.00     0.162 A 
ATOM      6  C5  UNL d   1       0.643  -0.002   2.881  0.00  0.00     0.062 A 
ATOM      7  F   UNL d   1       0.055  -0.735   1.924  0.00  0.00    -0.097 F 
ATOM      8  F1  UNL d   1      -1.464   0.790   3.569  0.00  0.00    -0.096 F 
ATOM      9  I   UNL d   1      -0.686   2.725   5.996  0.00  0.00    -0.060 I 
ATOM     10  F2  UNL d   1       2.472   2.240   5.812  0.00  0.00    -0.096 F 
ATOM     11  F3  UNL d   1       3.964   0.706   4.152  0.00  0.00    -0.097 F 
ATOM     12  F4  UNL d   1       2.768  -0.786   2.206  0.00  0.00    -0.092 F 
ENDROOT
TORSDOF 0
ENDMDL
