MODEL 1
REMARK minimizedAffinity 34.1340904
REMARK minimizedRMSD -1
REMARK  0 active torsions:
REMARK  status: ('A' for Active; 'I' for Inactive)
ROOT
ATOM      1  C   UNL d   1       1.929  -0.720   4.307  0.00  0.00     0.124 A 
ATOM      2  C1  UNL d   1       1.132  -1.850   4.434  0.00  0.00     0.062 A 
ATOM      3  C2  UNL d   1      -0.119  -1.896   3.825  0.00  0.00     0.162 A 
ATOM      4  C3  UNL d   1      -0.581  -0.810   3.082  0.00  0.00    -0.034 A 
ATOM      5  C4  UNL d   1       0.226   0.323   2.959  0.00  0.00     0.162 A 
ATOM      6  C5  UNL d   1       1.475   0.365   3.570  0.00  0.00     0.062 A 
ATOM      7  F   UNL d   1       2.243   1.457   3.446  0.00  0.00    -0.097 F 
ATOM      8  F1  UNL d   1      -0.188   1.385   2.252  0.00  0.00    -0.096 F 
ATOM      9  I   UNL d   1      -2.450  -0.876   2.169  0.00  0.00    -0.060 I 
ATOM     10  F2  UNL d   1      -0.867  -3.001   3.964  0.00  0.00    -0.096 F 
ATOM     11  F3  UNL d   1       1.568  -2.899   5.146  0.00  0.00    -0.097 F 
ATOM     12  F4  UNL d   1       3.131  -0.677   4.894  0.00  0.00    -0.092 F 
ENDROOT
TORSDOF 0
ENDMDL
