MODEL 1
REMARK minimizedAffinity 13.6115532
REMARK minimizedRMSD -1
REMARK  0 active torsions:
REMARK  status: ('A' for Active; 'I' for Inactive)
ROOT
ATOM      1  C   UNL d   1       1.211  -0.144   3.150  0.00  0.00     0.124 A 
ATOM      2  C1  UNL d   1       0.271   0.721   2.609  0.00  0.00     0.062 A 
ATOM      3  C2  UNL d   1      -1.063   0.336   2.516  0.00  0.00     0.162 A 
ATOM      4  C3  UNL d   1      -1.466  -0.922   2.965  0.00  0.00    -0.034 A 
ATOM      5  C4  UNL d   1      -0.514  -1.787   3.507  0.00  0.00     0.162 A 
ATOM      6  C5  UNL d   1       0.818  -1.398   3.598  0.00  0.00     0.062 A 
ATOM      7  F   UNL d   1       1.725  -2.235   4.121  0.00  0.00    -0.097 F 
ATOM      8  F1  UNL d   1      -0.866  -3.004   3.949  0.00  0.00    -0.096 F 
ATOM      9  I   UNL d   1      -3.460  -1.502   2.828  0.00  0.00    -0.060 I 
ATOM     10  F2  UNL d   1      -1.951   1.193   1.989  0.00  0.00    -0.096 F 
ATOM     11  F3  UNL d   1       0.648   1.932   2.174  0.00  0.00    -0.097 F 
ATOM     12  F4  UNL d   1       2.494   0.229   3.238  0.00  0.00    -0.092 F 
ENDROOT
TORSDOF 0
ENDMDL
