MODEL 1
REMARK minimizedAffinity 25.8762875
REMARK minimizedRMSD -1
REMARK  0 active torsions:
REMARK  status: ('A' for Active; 'I' for Inactive)
ROOT
ATOM      1  C   UNL d   1      -0.430  -1.868  -4.874  0.00  0.00     0.124 A 
ATOM      2  C1  UNL d   1      -1.102  -3.040  -5.192  0.00  0.00     0.062 A 
ATOM      3  C2  UNL d   1      -0.389  -4.191  -5.514  0.00  0.00     0.162 A 
ATOM      4  C3  UNL d   1       1.006  -4.176  -5.519  0.00  0.00    -0.034 A 
ATOM      5  C4  UNL d   1       1.675  -2.993  -5.199  0.00  0.00     0.162 A 
ATOM      6  C5  UNL d   1       0.957  -1.846  -4.878  0.00  0.00     0.062 A 
ATOM      7  F   UNL d   1       1.609  -0.714  -4.571  0.00  0.00    -0.097 F 
ATOM      8  F1  UNL d   1       3.015  -2.944  -5.194  0.00  0.00    -0.096 F 
ATOM      9  I   UNL d   1       2.076  -5.895  -6.000  0.00  0.00    -0.060 I 
ATOM     10  F2  UNL d   1      -1.065  -5.309  -5.817  0.00  0.00    -0.096 F 
ATOM     11  F3  UNL d   1      -2.443  -3.064  -5.190  0.00  0.00    -0.097 F 
ATOM     12  F4  UNL d   1      -1.119  -0.762  -4.566  0.00  0.00    -0.092 F 
ENDROOT
TORSDOF 0
ENDMDL
