MODEL 1
REMARK minimizedAffinity 16.0006828
REMARK minimizedRMSD -1
REMARK  0 active torsions:
REMARK  status: ('A' for Active; 'I' for Inactive)
ROOT
ATOM      1  C   UNL d   1      -3.072   0.072   2.829  0.00  0.00     0.124 A 
ATOM      2  C1  UNL d   1      -2.031   0.953   2.570  0.00  0.00     0.062 A 
ATOM      3  C2  UNL d   1      -0.718   0.586   2.850  0.00  0.00     0.162 A 
ATOM      4  C3  UNL d   1      -0.438  -0.668   3.391  0.00  0.00    -0.034 A 
ATOM      5  C4  UNL d   1      -1.490  -1.549   3.650  0.00  0.00     0.162 A 
ATOM      6  C5  UNL d   1      -2.801  -1.177   3.368  0.00  0.00     0.062 A 
ATOM      7  F   UNL d   1      -3.806  -2.030   3.619  0.00  0.00    -0.097 F 
ATOM      8  F1  UNL d   1      -1.257  -2.763   4.170  0.00  0.00    -0.096 F 
ATOM      9  I   UNL d   1       1.524  -1.220   3.812  0.00  0.00    -0.060 I 
ATOM     10  F2  UNL d   1       0.268   1.458   2.590  0.00  0.00    -0.096 F 
ATOM     11  F3  UNL d   1      -2.291   2.161   2.050  0.00  0.00    -0.097 F 
ATOM     12  F4  UNL d   1      -4.335   0.428   2.559  0.00  0.00    -0.092 F 
ENDROOT
TORSDOF 0
ENDMDL
