MODEL 1
REMARK minimizedAffinity 21.7507343
REMARK minimizedRMSD -1
REMARK  0 active torsions:
REMARK  status: ('A' for Active; 'I' for Inactive)
ROOT
ATOM      1  C   UNL d   1       4.164  -0.797   5.243  0.00  0.00     0.124 A 
ATOM      2  C1  UNL d   1       4.008   0.336   4.457  0.00  0.00     0.062 A 
ATOM      3  C2  UNL d   1       2.871   0.490   3.670  0.00  0.00     0.162 A 
ATOM      4  C3  UNL d   1       1.880  -0.492   3.664  0.00  0.00    -0.034 A 
ATOM      5  C4  UNL d   1       2.045  -1.629   4.456  0.00  0.00     0.162 A 
ATOM      6  C5  UNL d   1       3.183  -1.779   5.242  0.00  0.00     0.062 A 
ATOM      7  F   UNL d   1       3.333  -2.874   6.000  0.00  0.00    -0.097 F 
ATOM      8  F1  UNL d   1       1.112  -2.593   4.474  0.00  0.00    -0.096 F 
ATOM      9  I   UNL d   1       0.179  -0.265   2.487  0.00  0.00    -0.060 I 
ATOM     10  F2  UNL d   1       2.746   1.596   2.920  0.00  0.00    -0.096 F 
ATOM     11  F3  UNL d   1       4.955   1.286   4.456  0.00  0.00    -0.097 F 
ATOM     12  F4  UNL d   1       5.260  -0.943   5.999  0.00  0.00    -0.092 F 
ENDROOT
TORSDOF 0
ENDMDL
