MODEL 1
REMARK minimizedAffinity 14.6999073
REMARK minimizedRMSD -1
REMARK  0 active torsions:
REMARK  status: ('A' for Active; 'I' for Inactive)
ROOT
ATOM      1  C   UNL d   1       3.001  -0.799  -5.277  0.00  0.00     0.124 A 
ATOM      2  C1  UNL d   1       1.712  -0.292  -5.197  0.00  0.00     0.062 A 
ATOM      3  C2  UNL d   1       0.617  -1.129  -5.388  0.00  0.00     0.162 A 
ATOM      4  C3  UNL d   1       0.806  -2.484  -5.660  0.00  0.00    -0.034 A 
ATOM      5  C4  UNL d   1       2.106  -2.987  -5.740  0.00  0.00     0.162 A 
ATOM      6  C5  UNL d   1       3.197  -2.146  -5.548  0.00  0.00     0.062 A 
ATOM      7  F   UNL d   1       4.442  -2.638  -5.626  0.00  0.00    -0.097 F 
ATOM      8  F1  UNL d   1       2.324  -4.285  -6.000  0.00  0.00    -0.096 F 
ATOM      9  I   UNL d   1      -0.828  -3.740  -5.947  0.00  0.00    -0.060 I 
ATOM     10  F2  UNL d   1      -0.618  -0.612  -5.306  0.00  0.00    -0.096 F 
ATOM     11  F3  UNL d   1       1.520   1.009  -4.936  0.00  0.00    -0.097 F 
ATOM     12  F4  UNL d   1       4.053   0.009  -5.094  0.00  0.00    -0.092 F 
ENDROOT
TORSDOF 0
ENDMDL
