MODEL 1
REMARK minimizedAffinity 5.28393698
REMARK minimizedRMSD -1
REMARK  1 active torsions:
REMARK  status: ('A' for Active; 'I' for Inactive)
REMARK    1  A    between atoms: C1_2  and  C2_3 
ROOT
ATOM      1  C2  UNL d   1      -1.220   1.798   3.039  0.00  0.00    -0.076 A 
ATOM      2  C3  UNL d   1      -0.837   1.148   1.853  0.00  0.00     0.004 A 
ATOM      3  C4  UNL d   1       0.506   1.035   1.498  0.00  0.00    -0.003 A 
ATOM      4  C5  UNL d   1       1.488   1.569   2.323  0.00  0.00     0.000 A 
ATOM      5  C6  UNL d   1       1.128   2.202   3.513  0.00  0.00     0.000 A 
ATOM      6  C7  UNL d   1      -0.220   2.310   3.894  0.00  0.00    -0.073 A 
ATOM      7  C8  UNL d   1      -0.552   3.008   5.184  0.00  0.00     0.078 C 
ENDROOT
BRANCH   1   8
ATOM      8  C1  UNL d   1      -2.693   1.914   3.359  0.00  0.00     0.053 C 
ATOM      9  C   UNL d   1      -3.383   0.560   3.425  0.00  0.00     0.018 C 
ENDBRANCH   1   8
TORSDOF 1
ENDMDL
