MODEL 1
REMARK minimizedAffinity 29.5311337
REMARK minimizedRMSD -1
REMARK  1 active torsions:
REMARK  status: ('A' for Active; 'I' for Inactive)
REMARK    1  A    between atoms: C1_2  and  C2_3 
ROOT
ATOM      1  C2  UNL d   1       1.761   0.728   1.314  0.00  0.00    -0.076 A 
ATOM      2  C3  UNL d   1       2.632   1.794   1.598  0.00  0.00     0.004 A 
ATOM      3  C4  UNL d   1       3.846   1.927   0.926  0.00  0.00    -0.003 A 
ATOM      4  C5  UNL d   1       4.208   0.996  -0.041  0.00  0.00     0.000 A 
ATOM      5  C6  UNL d   1       3.349  -0.058  -0.348  0.00  0.00     0.000 A 
ATOM      6  C7  UNL d   1       2.114  -0.197   0.308  0.00  0.00    -0.073 A 
ATOM      7  C8  UNL d   1       1.228  -1.357  -0.058  0.00  0.00     0.078 C 
ENDROOT
BRANCH   1   8
ATOM      8  C1  UNL d   1       0.470   0.620   2.093  0.00  0.00     0.053 C 
ATOM      9  C   UNL d   1       0.633   1.026   3.550  0.00  0.00     0.018 C 
ENDBRANCH   1   8
TORSDOF 1
ENDMDL
