MODEL 1
REMARK minimizedAffinity 23.6891994
REMARK minimizedRMSD -1
REMARK  1 active torsions:
REMARK  status: ('A' for Active; 'I' for Inactive)
REMARK    1  A    between atoms: C1_2  and  C2_3 
ROOT
ATOM      1  C2  UNL d   1       1.748  -0.318  -3.233  0.00  0.00    -0.076 A 
ATOM      2  C3  UNL d   1       2.872   0.145  -2.526  0.00  0.00     0.004 A 
ATOM      3  C4  UNL d   1       2.967  -0.018  -1.145  0.00  0.00    -0.003 A 
ATOM      4  C5  UNL d   1       1.942  -0.647  -0.448  0.00  0.00     0.000 A 
ATOM      5  C6  UNL d   1       0.828  -1.129  -1.136  0.00  0.00     0.000 A 
ATOM      6  C7  UNL d   1       0.723  -0.987  -2.531  0.00  0.00    -0.073 A 
ATOM      7  C8  UNL d   1      -0.503  -1.520  -3.220  0.00  0.00     0.078 C 
ENDROOT
BRANCH   1   8
ATOM      8  C1  UNL d   1       1.688  -0.089  -4.726  0.00  0.00     0.053 C 
ATOM      9  C   UNL d   1       2.724  -0.905  -5.484  0.00  0.00     0.018 C 
ENDBRANCH   1   8
TORSDOF 1
ENDMDL
