MODEL 1
REMARK minimizedAffinity 7.24167299
REMARK minimizedRMSD -1
REMARK  1 active torsions:
REMARK  status: ('A' for Active; 'I' for Inactive)
REMARK    1  A    between atoms: C1_2  and  C2_3 
ROOT
ATOM      1  C2  UNL d   1      -3.143   4.994  -5.087  0.00  0.00    -0.076 A 
ATOM      2  C3  UNL d   1      -2.480   5.890  -4.231  0.00  0.00     0.004 A 
ATOM      3  C4  UNL d   1      -1.493   5.446  -3.353  0.00  0.00    -0.003 A 
ATOM      4  C5  UNL d   1      -1.151   4.099  -3.318  0.00  0.00     0.000 A 
ATOM      5  C6  UNL d   1      -1.785   3.198  -4.173  0.00  0.00     0.000 A 
ATOM      6  C7  UNL d   1      -2.772   3.632  -5.076  0.00  0.00    -0.073 A 
ATOM      7  C8  UNL d   1      -3.428   2.617  -5.971  0.00  0.00     0.078 C 
ENDROOT
BRANCH   1   8
ATOM      8  C1  UNL d   1      -4.224   5.528  -5.999  0.00  0.00     0.053 C 
ATOM      9  C   UNL d   1      -5.477   4.666  -5.984  0.00  0.00     0.018 C 
ENDBRANCH   1   8
TORSDOF 1
ENDMDL
