MODEL 1
REMARK minimizedAffinity 12.9672413
REMARK minimizedRMSD -1
REMARK  1 active torsions:
REMARK  status: ('A' for Active; 'I' for Inactive)
REMARK    1  A    between atoms: C1_2  and  C2_3 
ROOT
ATOM      1  C2  UNL d   1       1.522   0.695   0.359  0.00  0.00    -0.076 A 
ATOM      2  C3  UNL d   1       0.447   0.292  -0.453  0.00  0.00     0.004 A 
ATOM      3  C4  UNL d   1       0.645  -0.042  -1.792  0.00  0.00    -0.003 A 
ATOM      4  C5  UNL d   1       1.921   0.021  -2.340  0.00  0.00     0.000 A 
ATOM      5  C6  UNL d   1       3.001   0.401  -1.545  0.00  0.00     0.000 A 
ATOM      6  C7  UNL d   1       2.822   0.725  -0.189  0.00  0.00    -0.073 A 
ATOM      7  C8  UNL d   1       4.021   1.135   0.620  0.00  0.00     0.078 C 
ENDROOT
BRANCH   1   8
ATOM      8  C1  UNL d   1       1.242   1.071   1.796  0.00  0.00     0.053 C 
ATOM      9  C   UNL d   1      -0.197   1.514   2.013  0.00  0.00     0.018 C 
ENDBRANCH   1   8
TORSDOF 1
ENDMDL
