MODEL 1
REMARK minimizedAffinity 11.911232
REMARK minimizedRMSD -1
REMARK  1 active torsions:
REMARK  status: ('A' for Active; 'I' for Inactive)
REMARK    1  A    between atoms: C1_2  and  C2_3 
ROOT
ATOM      1  C2  UNL d   1      -2.645   3.946  -5.386  0.00  0.00    -0.076 A 
ATOM      2  C3  UNL d   1      -2.600   2.682  -5.999  0.00  0.00     0.004 A 
ATOM      3  C4  UNL d   1      -1.794   1.665  -5.489  0.00  0.00    -0.003 A 
ATOM      4  C5  UNL d   1      -1.021   1.896  -4.356  0.00  0.00     0.000 A 
ATOM      5  C6  UNL d   1      -1.068   3.138  -3.724  0.00  0.00     0.000 A 
ATOM      6  C7  UNL d   1      -1.887   4.168  -4.216  0.00  0.00    -0.073 A 
ATOM      7  C8  UNL d   1      -1.893   5.490  -3.499  0.00  0.00     0.078 C 
ENDROOT
BRANCH   1   8
ATOM      8  C1  UNL d   1      -3.516   5.018  -6.000  0.00  0.00     0.053 C 
ATOM      9  C   UNL d   1      -4.990   4.642  -6.000  0.00  0.00     0.018 C 
ENDBRANCH   1   8
TORSDOF 1
ENDMDL
