MODEL 1
REMARK minimizedAffinity 20.568428
REMARK minimizedRMSD -1
REMARK  1 active torsions:
REMARK  status: ('A' for Active; 'I' for Inactive)
REMARK    1  A    between atoms: C1_2  and  C2_3 
ROOT
ATOM      1  C2  UNL d   1       0.901   1.168   3.572  0.00  0.00    -0.076 A 
ATOM      2  C3  UNL d   1       0.326   1.011   4.845  0.00  0.00     0.004 A 
ATOM      3  C4  UNL d   1       1.047   1.307   6.000  0.00  0.00    -0.003 A 
ATOM      4  C5  UNL d   1       2.356   1.766   5.901  0.00  0.00     0.000 A 
ATOM      5  C6  UNL d   1       2.937   1.944   4.646  0.00  0.00     0.000 A 
ATOM      6  C7  UNL d   1       2.218   1.666   3.471  0.00  0.00    -0.073 A 
ATOM      7  C8  UNL d   1       2.896   1.870   2.144  0.00  0.00     0.078 C 
ENDROOT
BRANCH   1   8
ATOM      8  C1  UNL d   1       0.079   0.805   2.356  0.00  0.00     0.053 C 
ATOM      9  C   UNL d   1      -1.409   1.035   2.568  0.00  0.00     0.018 C 
ENDBRANCH   1   8
TORSDOF 1
ENDMDL
