MODEL 1
REMARK minimizedAffinity 16.6064701
REMARK minimizedRMSD -1
REMARK  1 active torsions:
REMARK  status: ('A' for Active; 'I' for Inactive)
REMARK    1  A    between atoms: C1_2  and  C2_3 
ROOT
ATOM      1  C2  UNL d   1      -1.607  -0.318  -3.523  0.00  0.00    -0.076 A 
ATOM      2  C3  UNL d   1      -0.347  -0.001  -2.988  0.00  0.00     0.004 A 
ATOM      3  C4  UNL d   1       0.613  -0.990  -2.779  0.00  0.00    -0.003 A 
ATOM      4  C5  UNL d   1       0.329  -2.312  -3.102  0.00  0.00     0.000 A 
ATOM      5  C6  UNL d   1      -0.910  -2.642  -3.650  0.00  0.00     0.000 A 
ATOM      6  C7  UNL d   1      -1.883  -1.655  -3.883  0.00  0.00    -0.073 A 
ATOM      7  C8  UNL d   1      -3.205  -2.069  -4.471  0.00  0.00     0.078 C 
ENDROOT
BRANCH   1   8
ATOM      8  C1  UNL d   1      -2.618   0.791  -3.703  0.00  0.00     0.053 C 
ATOM      9  C   UNL d   1      -1.972   2.109  -4.103  0.00  0.00     0.018 C 
ENDBRANCH   1   8
TORSDOF 1
ENDMDL
