MODEL 1
REMARK minimizedAffinity 17.9468288
REMARK minimizedRMSD -1
REMARK  1 active torsions:
REMARK  status: ('A' for Active; 'I' for Inactive)
REMARK    1  A    between atoms: C1_2  and  C2_3 
ROOT
ATOM      1  C2  UNL d   1      -3.831  -3.631  -4.888  0.00  0.00    -0.076 A 
ATOM      2  C3  UNL d   1      -3.023  -2.956  -3.957  0.00  0.00     0.004 A 
ATOM      3  C4  UNL d   1      -2.420  -3.639  -2.902  0.00  0.00    -0.003 A 
ATOM      4  C5  UNL d   1      -2.615  -5.008  -2.762  0.00  0.00     0.000 A 
ATOM      5  C6  UNL d   1      -3.399  -5.697  -3.686  0.00  0.00     0.000 A 
ATOM      6  C7  UNL d   1      -4.001  -5.026  -4.765  0.00  0.00    -0.073 A 
ATOM      7  C8  UNL d   1      -4.842  -5.818  -5.728  0.00  0.00     0.078 C 
ENDROOT
BRANCH   1   8
ATOM      8  C1  UNL d   1      -4.482  -2.833  -5.995  0.00  0.00     0.053 C 
ATOM      9  C   UNL d   1      -5.999  -2.930  -5.970  0.00  0.00     0.018 C 
ENDBRANCH   1   8
TORSDOF 1
ENDMDL
