MODEL 1
REMARK minimizedAffinity 22.2262459
REMARK minimizedRMSD -1
REMARK  1 active torsions:
REMARK  status: ('A' for Active; 'I' for Inactive)
REMARK    1  A    between atoms: C1_2  and  C2_3 
ROOT
ATOM      1  C2  UNL d   1       2.355   0.305  -1.967  0.00  0.00    -0.076 A 
ATOM      2  C3  UNL d   1       2.774   1.606  -2.297  0.00  0.00     0.004 A 
ATOM      3  C4  UNL d   1       3.592   2.336  -1.437  0.00  0.00    -0.003 A 
ATOM      4  C5  UNL d   1       4.004   1.778  -0.232  0.00  0.00     0.000 A 
ATOM      5  C6  UNL d   1       3.613   0.482   0.104  0.00  0.00     0.000 A 
ATOM      6  C7  UNL d   1       2.802  -0.274  -0.760  0.00  0.00    -0.073 A 
ATOM      7  C8  UNL d   1       2.404  -1.664  -0.345  0.00  0.00     0.078 C 
ENDROOT
BRANCH   1   8
ATOM      8  C1  UNL d   1       1.446  -0.428  -2.927  0.00  0.00     0.053 C 
ATOM      9  C   UNL d   1       2.083  -0.632  -4.293  0.00  0.00     0.018 C 
ENDBRANCH   1   8
TORSDOF 1
ENDMDL
