MODEL 1
REMARK minimizedAffinity 14.9448595
REMARK minimizedRMSD -1
REMARK  1 active torsions:
REMARK  status: ('A' for Active; 'I' for Inactive)
REMARK    1  A    between atoms: C1_2  and  C2_3 
ROOT
ATOM      1  C2  UNL d   1       0.654   3.253  -3.444  0.00  0.00    -0.076 A 
ATOM      2  C3  UNL d   1       1.768   3.618  -2.668  0.00  0.00     0.004 A 
ATOM      3  C4  UNL d   1       1.732   4.744  -1.847  0.00  0.00    -0.003 A 
ATOM      4  C5  UNL d   1       0.582   5.522  -1.788  0.00  0.00     0.000 A 
ATOM      5  C6  UNL d   1      -0.539   5.165  -2.537  0.00  0.00     0.000 A 
ATOM      6  C7  UNL d   1      -0.525   4.024  -3.358  0.00  0.00    -0.073 A 
ATOM      7  C8  UNL d   1      -1.760   3.689  -4.149  0.00  0.00     0.078 C 
ENDROOT
BRANCH   1   8
ATOM      8  C1  UNL d   1       0.760   2.037  -4.337  0.00  0.00     0.053 C 
ATOM      9  C   UNL d   1       1.827   1.061  -3.867  0.00  0.00     0.018 C 
ENDBRANCH   1   8
TORSDOF 1
ENDMDL
