MODEL 1
REMARK minimizedAffinity 10.4489508
REMARK minimizedRMSD -1
REMARK  1 active torsions:
REMARK  status: ('A' for Active; 'I' for Inactive)
REMARK    1  A    between atoms: C1_2  and  C2_3 
ROOT
ATOM      1  C2  UNL d   1      -3.148  -0.463   2.982  0.00  0.00    -0.076 A 
ATOM      2  C3  UNL d   1      -1.888  -0.911   2.547  0.00  0.00     0.004 A 
ATOM      3  C4  UNL d   1      -0.827  -0.022   2.386  0.00  0.00    -0.003 A 
ATOM      4  C5  UNL d   1      -1.007   1.329   2.659  0.00  0.00     0.000 A 
ATOM      5  C6  UNL d   1      -2.244   1.789   3.108  0.00  0.00     0.000 A 
ATOM      6  C7  UNL d   1      -3.321   0.903   3.291  0.00  0.00    -0.073 A 
ATOM      7  C8  UNL d   1      -4.635   1.455   3.772  0.00  0.00     0.078 C 
ENDROOT
BRANCH   1   8
ATOM      8  C1  UNL d   1      -4.269  -1.468   3.111  0.00  0.00     0.053 C 
ATOM      9  C   UNL d   1      -4.659  -2.082   1.775  0.00  0.00     0.018 C 
ENDBRANCH   1   8
TORSDOF 1
ENDMDL
