MODEL 1
REMARK minimizedAffinity -4.19904423
REMARK minimizedRMSD -1
REMARK  1 active torsions:
REMARK  status: ('A' for Active; 'I' for Inactive)
REMARK    1  A    between atoms: C1_2  and  C2_3 
ROOT
ATOM      1  C2  UNL d   1      -1.089   0.463  -0.891  0.00  0.00    -0.077 A 
ATOM      2  C3  UNL d   1      -0.145   1.480  -0.690  0.00  0.00     0.002 A 
ATOM      3  C4  UNL d   1       1.010   1.233   0.054  0.00  0.00     0.002 A 
ATOM      4  C5  UNL d   1       1.234  -0.030   0.599  0.00  0.00    -0.004 A 
ATOM      5  C6  UNL d   1       0.299  -1.046   0.407  0.00  0.00     0.002 A 
ATOM      6  C7  UNL d   1      -0.857  -0.801  -0.336  0.00  0.00     0.002 A 
ENDROOT
BRANCH   1   7
ATOM      7  C1  UNL d   1      -2.312   0.713  -1.735  0.00  0.00     0.055 C 
ATOM      8  C   UNL d   1      -2.336  -0.193  -2.957  0.00  0.00     0.019 C 
ENDBRANCH   1   7
TORSDOF 1
ENDMDL
