MODEL 1
REMARK minimizedAffinity -4.17343235
REMARK minimizedRMSD -1
REMARK  1 active torsions:
REMARK  status: ('A' for Active; 'I' for Inactive)
REMARK    1  A    between atoms: C1_2  and  C2_3 
ROOT
ATOM      1  C2  UNL d   1      -0.551   0.286  -0.252  0.00  0.00    -0.077 A 
ATOM      2  C3  UNL d   1       0.455   1.252  -0.396  0.00  0.00     0.002 A 
ATOM      3  C4  UNL d   1       1.706   1.062   0.194  0.00  0.00     0.002 A 
ATOM      4  C5  UNL d   1       1.963  -0.094   0.928  0.00  0.00    -0.004 A 
ATOM      5  C6  UNL d   1       0.969  -1.060   1.078  0.00  0.00     0.002 A 
ATOM      6  C7  UNL d   1      -0.283  -0.871   0.490  0.00  0.00     0.002 A 
ENDROOT
BRANCH   1   7
ATOM      7  C1  UNL d   1      -1.885   0.467  -0.929  0.00  0.00     0.055 C 
ATOM      8  C   UNL d   1      -1.957  -0.320  -2.229  0.00  0.00     0.019 C 
ENDBRANCH   1   7
TORSDOF 1
ENDMDL
