MODEL 1
REMARK minimizedAffinity -5.56509638
REMARK minimizedRMSD -1
REMARK  1 active torsions:
REMARK  status: ('A' for Active; 'I' for Inactive)
REMARK    1  A    between atoms: C1_2  and  C2_3 
ROOT
ATOM      1  C2  UNL d   1      -0.091   0.201   0.063  0.00  0.00    -0.077 A 
ATOM      2  C3  UNL d   1       0.691   1.360   0.162  0.00  0.00     0.002 A 
ATOM      3  C4  UNL d   1       2.075   1.267   0.316  0.00  0.00     0.002 A 
ATOM      4  C5  UNL d   1       2.690   0.018   0.368  0.00  0.00    -0.004 A 
ATOM      5  C6  UNL d   1       1.921  -1.141   0.272  0.00  0.00     0.002 A 
ATOM      6  C7  UNL d   1       0.536  -1.050   0.119  0.00  0.00     0.002 A 
ENDROOT
BRANCH   1   7
ATOM      7  C1  UNL d   1      -1.579   0.299  -0.153  0.00  0.00     0.055 C 
ATOM      8  C   UNL d   1      -2.316  -0.833   0.547  0.00  0.00     0.019 C 
ENDBRANCH   1   7
TORSDOF 1
ENDMDL
