MODEL 1
REMARK minimizedAffinity -5.46496201
REMARK minimizedRMSD -1
REMARK  1 active torsions:
REMARK  status: ('A' for Active; 'I' for Inactive)
REMARK    1  A    between atoms: C1_2  and  C2_3 
ROOT
ATOM      1  C2  UNL d   1       0.817  -0.118   0.305  0.00  0.00    -0.077 A 
ATOM      2  C3  UNL d   1       0.820  -1.212   1.182  0.00  0.00     0.002 A 
ATOM      3  C4  UNL d   1       2.018  -1.676   1.728  0.00  0.00     0.002 A 
ATOM      4  C5  UNL d   1       3.221  -1.050   1.407  0.00  0.00    -0.004 A 
ATOM      5  C6  UNL d   1       3.228   0.037   0.534  0.00  0.00     0.002 A 
ATOM      6  C7  UNL d   1       2.032   0.502  -0.013  0.00  0.00     0.002 A 
ENDROOT
BRANCH   1   7
ATOM      7  C1  UNL d   1      -0.480   0.415  -0.246  0.00  0.00     0.055 C 
ATOM      8  C   UNL d   1      -1.660  -0.444   0.186  0.00  0.00     0.019 C 
ENDBRANCH   1   7
TORSDOF 1
ENDMDL
