MODEL 1
REMARK minimizedAffinity 1.75477064
REMARK minimizedRMSD -1
REMARK  1 active torsions:
REMARK  status: ('A' for Active; 'I' for Inactive)
REMARK    1  A    between atoms: C1_2  and  C2_3 
ROOT
ATOM      1  C2  UNL d   1       1.504   0.555   0.893  0.00  0.00    -0.077 A 
ATOM      2  C3  UNL d   1       0.804   1.756   1.074  0.00  0.00     0.002 A 
ATOM      3  C4  UNL d   1      -0.532   1.861   0.683  0.00  0.00     0.002 A 
ATOM      4  C5  UNL d   1      -1.180   0.768   0.112  0.00  0.00    -0.004 A 
ATOM      5  C6  UNL d   1      -0.492  -0.430  -0.075  0.00  0.00     0.002 A 
ATOM      6  C7  UNL d   1       0.844  -0.537   0.315  0.00  0.00     0.002 A 
ENDROOT
BRANCH   1   7
ATOM      7  C1  UNL d   1       2.930   0.425   1.360  0.00  0.00     0.055 C 
ATOM      8  C   UNL d   1       3.065   0.778   2.834  0.00  0.00     0.019 C 
ENDBRANCH   1   7
TORSDOF 1
ENDMDL
