MODEL 1
REMARK minimizedAffinity -5.67589903
REMARK minimizedRMSD -1
REMARK  1 active torsions:
REMARK  status: ('A' for Active; 'I' for Inactive)
REMARK    1  A    between atoms: C1_2  and  C2_3 
ROOT
ATOM      1  C2  UNL d   1       0.213  -0.043  -0.016  0.00  0.00    -0.077 A 
ATOM      2  C3  UNL d   1       1.098   1.041   0.056  0.00  0.00     0.002 A 
ATOM      3  C4  UNL d   1       2.437   0.839   0.395  0.00  0.00     0.002 A 
ATOM      4  C5  UNL d   1       2.904  -0.447   0.660  0.00  0.00    -0.004 A 
ATOM      5  C6  UNL d   1       2.031  -1.532   0.594  0.00  0.00     0.002 A 
ATOM      6  C7  UNL d   1       0.692  -1.331   0.256  0.00  0.00     0.002 A 
ENDROOT
BRANCH   1   7
ATOM      7  C1  UNL d   1      -1.220   0.167  -0.429  0.00  0.00     0.055 C 
ATOM      8  C   UNL d   1      -1.393   0.002  -1.932  0.00  0.00     0.019 C 
ENDBRANCH   1   7
TORSDOF 1
ENDMDL
