MODEL 1
REMARK minimizedAffinity -5.31086969
REMARK minimizedRMSD -1
REMARK  1 active torsions:
REMARK  status: ('A' for Active; 'I' for Inactive)
REMARK    1  A    between atoms: C1_2  and  C2_3 
ROOT
ATOM      1  C2  UNL d   1       0.702   0.212   0.831  0.00  0.00    -0.077 A 
ATOM      2  C3  UNL d   1       0.885  -0.927   1.627  0.00  0.00     0.002 A 
ATOM      3  C4  UNL d   1       2.166  -1.433   1.852  0.00  0.00     0.002 A 
ATOM      4  C5  UNL d   1       3.275  -0.804   1.289  0.00  0.00    -0.004 A 
ATOM      5  C6  UNL d   1       3.103   0.329   0.494  0.00  0.00     0.002 A 
ATOM      6  C7  UNL d   1       1.823   0.835   0.267  0.00  0.00     0.002 A 
ENDROOT
BRANCH   1   7
ATOM      7  C1  UNL d   1      -0.675   0.788   0.626  0.00  0.00     0.055 C 
ATOM      8  C   UNL d   1      -1.431   0.042  -0.463  0.00  0.00     0.019 C 
ENDBRANCH   1   7
TORSDOF 1
ENDMDL
