MODEL 1
REMARK minimizedAffinity -3.70615435
REMARK minimizedRMSD -1
REMARK  1 active torsions:
REMARK  status: ('A' for Active; 'I' for Inactive)
REMARK    1  A    between atoms: C1_2  and  C2_3 
ROOT
ATOM      1  C2  UNL d   1       0.414  -0.353   0.086  0.00  0.00    -0.077 A 
ATOM      2  C3  UNL d   1       1.135  -1.425  -0.456  0.00  0.00     0.002 A 
ATOM      3  C4  UNL d   1       2.512  -1.529  -0.246  0.00  0.00     0.002 A 
ATOM      4  C5  UNL d   1       3.177  -0.567   0.510  0.00  0.00    -0.004 A 
ATOM      5  C6  UNL d   1       2.469   0.505   1.052  0.00  0.00     0.002 A 
ATOM      6  C7  UNL d   1       1.093   0.611   0.842  0.00  0.00     0.002 A 
ENDROOT
BRANCH   1   7
ATOM      7  C1  UNL d   1      -1.079  -0.265  -0.098  0.00  0.00     0.055 C 
ATOM      8  C   UNL d   1      -1.468  -0.441  -1.558  0.00  0.00     0.019 C 
ENDBRANCH   1   7
TORSDOF 1
ENDMDL
