MODEL 1
REMARK minimizedAffinity 2.44042873
REMARK minimizedRMSD -1
REMARK  1 active torsions:
REMARK  status: ('A' for Active; 'I' for Inactive)
REMARK    1  A    between atoms: C1_2  and  C2_3 
ROOT
ATOM      1  C2  UNL d   1       3.185   0.294  -0.547  0.00  0.00    -0.076 A 
ATOM      2  C3  UNL d   1       3.925   1.486  -0.642  0.00  0.00     0.004 A 
ATOM      3  C4  UNL d   1       5.318   1.470  -0.607  0.00  0.00    -0.003 A 
ATOM      4  C5  UNL d   1       5.995   0.262  -0.477  0.00  0.00     0.000 A 
ATOM      5  C6  UNL d   1       5.277  -0.931  -0.400  0.00  0.00     0.000 A 
ATOM      6  C7  UNL d   1       3.873  -0.934  -0.450  0.00  0.00    -0.073 A 
ATOM      7  C8  UNL d   1       3.150  -2.250  -0.356  0.00  0.00     0.078 C 
ENDROOT
BRANCH   1   8
ATOM      8  C1  UNL d   1       1.676   0.376  -0.563  0.00  0.00     0.053 C 
ATOM      9  C   UNL d   1       1.114   1.030   0.690  0.00  0.00     0.018 C 
ENDBRANCH   1   8
TORSDOF 1
ENDMDL
