MODEL 1
REMARK minimizedAffinity 9.74853516
REMARK minimizedRMSD -1
REMARK  1 active torsions:
REMARK  status: ('A' for Active; 'I' for Inactive)
REMARK    1  A    between atoms: C1_2  and  C2_3 
ROOT
ATOM      1  C2  UNL d   1       4.332   0.719  -0.474  0.00  0.00    -0.076 A 
ATOM      2  C3  UNL d   1       3.074   0.815  -1.095  0.00  0.00     0.004 A 
ATOM      3  C4  UNL d   1       2.182  -0.256  -1.079  0.00  0.00    -0.003 A 
ATOM      4  C5  UNL d   1       2.533  -1.441  -0.442  0.00  0.00     0.000 A 
ATOM      5  C6  UNL d   1       3.770  -1.548   0.194  0.00  0.00     0.000 A 
ATOM      6  C7  UNL d   1       4.674  -0.472   0.201  0.00  0.00    -0.073 A 
ATOM      7  C8  UNL d   1       5.996  -0.645   0.897  0.00  0.00     0.078 C 
ENDROOT
BRANCH   1   8
ATOM      8  C1  UNL d   1       5.268   1.904  -0.547  0.00  0.00     0.053 C 
ATOM      9  C   UNL d   1       5.963   2.015  -1.895  0.00  0.00     0.018 C 
ENDBRANCH   1   8
TORSDOF 1
ENDMDL
