MODEL 1
REMARK minimizedAffinity 1.75300002
REMARK minimizedRMSD -1
REMARK  1 active torsions:
REMARK  status: ('A' for Active; 'I' for Inactive)
REMARK    1  A    between atoms: C1_2  and  C2_3 
ROOT
ATOM      1  C2  UNL d   1       4.042  -1.083  -0.086  0.00  0.00    -0.076 A 
ATOM      2  C3  UNL d   1       3.481  -0.090  -0.907  0.00  0.00     0.004 A 
ATOM      3  C4  UNL d   1       4.161   1.100  -1.161  0.00  0.00    -0.003 A 
ATOM      4  C5  UNL d   1       5.415   1.315  -0.598  0.00  0.00     0.000 A 
ATOM      5  C6  UNL d   1       5.994   0.333   0.204  0.00  0.00     0.000 A 
ATOM      6  C7  UNL d   1       5.329  -0.879   0.457  0.00  0.00    -0.073 A 
ATOM      7  C8  UNL d   1       5.998  -1.901   1.335  0.00  0.00     0.078 C 
ENDROOT
BRANCH   1   8
ATOM      8  C1  UNL d   1       3.246  -2.342   0.176  0.00  0.00     0.053 C 
ATOM      9  C   UNL d   1       2.742  -2.989  -1.105  0.00  0.00     0.018 C 
ENDBRANCH   1   8
TORSDOF 1
ENDMDL
