MODEL 1
REMARK minimizedAffinity 9.66480446
REMARK minimizedRMSD -1
REMARK  1 active torsions:
REMARK  status: ('A' for Active; 'I' for Inactive)
REMARK    1  A    between atoms: C1_2  and  C2_3 
ROOT
ATOM      1  C2  UNL d   1       3.954  -0.700  -0.361  0.00  0.00    -0.076 A 
ATOM      2  C3  UNL d   1       5.353  -0.597  -0.266  0.00  0.00     0.004 A 
ATOM      3  C4  UNL d   1       5.997   0.625  -0.453  0.00  0.00    -0.003 A 
ATOM      4  C5  UNL d   1       5.252   1.764  -0.738  0.00  0.00     0.000 A 
ATOM      5  C6  UNL d   1       3.862   1.684  -0.818  0.00  0.00     0.000 A 
ATOM      6  C7  UNL d   1       3.196   0.463  -0.616  0.00  0.00    -0.073 A 
ATOM      7  C8  UNL d   1       1.696   0.433  -0.720  0.00  0.00     0.078 C 
ENDROOT
BRANCH   1   8
ATOM      8  C1  UNL d   1       3.314  -2.057  -0.175  0.00  0.00     0.053 C 
ATOM      9  C   UNL d   1       2.885  -2.684  -1.492  0.00  0.00     0.018 C 
ENDBRANCH   1   8
TORSDOF 1
ENDMDL
