MODEL 1
REMARK minimizedAffinity 17.7391682
REMARK minimizedRMSD -1
REMARK  1 active torsions:
REMARK  status: ('A' for Active; 'I' for Inactive)
REMARK    1  A    between atoms: C1_2  and  C2_3 
ROOT
ATOM      1  C2  UNL d   1       3.952  -0.856  -0.242  0.00  0.00    -0.076 A 
ATOM      2  C3  UNL d   1       5.350  -0.815  -0.389  0.00  0.00     0.004 A 
ATOM      3  C4  UNL d   1       6.000   0.364  -0.748  0.00  0.00    -0.003 A 
ATOM      4  C5  UNL d   1       5.262   1.523  -0.967  0.00  0.00     0.000 A 
ATOM      5  C6  UNL d   1       3.877   1.505  -0.809  0.00  0.00     0.000 A 
ATOM      6  C7  UNL d   1       3.208   0.329  -0.431  0.00  0.00    -0.073 A 
ATOM      7  C8  UNL d   1       1.712   0.365  -0.281  0.00  0.00     0.078 C 
ENDROOT
BRANCH   1   8
ATOM      8  C1  UNL d   1       3.300  -2.170   0.123  0.00  0.00     0.053 C 
ATOM      9  C   UNL d   1       2.744  -2.901  -1.089  0.00  0.00     0.018 C 
ENDBRANCH   1   8
TORSDOF 1
ENDMDL
