MODEL 1
REMARK minimizedAffinity 8.27987003
REMARK minimizedRMSD -1
REMARK  1 active torsions:
REMARK  status: ('A' for Active; 'I' for Inactive)
REMARK    1  A    between atoms: C1_2  and  C2_3 
ROOT
ATOM      1  C2  UNL d   1       5.574   3.000  -1.176  0.00  0.00    -0.076 A 
ATOM      2  C3  UNL d   1       5.714   3.984  -2.170  0.00  0.00     0.004 A 
ATOM      3  C4  UNL d   1       5.925   5.320  -1.833  0.00  0.00    -0.003 A 
ATOM      4  C5  UNL d   1       6.000   5.693  -0.495  0.00  0.00     0.000 A 
ATOM      5  C6  UNL d   1       5.880   4.727   0.504  0.00  0.00     0.000 A 
ATOM      6  C7  UNL d   1       5.683   3.374   0.180  0.00  0.00    -0.073 A 
ATOM      7  C8  UNL d   1       5.555   2.376   1.298  0.00  0.00     0.078 C 
ENDROOT
BRANCH   1   8
ATOM      8  C1  UNL d   1       5.319   1.572  -1.602  0.00  0.00     0.053 C 
ATOM      9  C   UNL d   1       4.116   0.960  -0.902  0.00  0.00     0.018 C 
ENDBRANCH   1   8
TORSDOF 1
ENDMDL
