MODEL 1
REMARK minimizedAffinity -2.97209048
REMARK minimizedRMSD -1
REMARK  0 active torsions:
REMARK  status: ('A' for Active; 'I' for Inactive)
ROOT
ATOM      1  C4' PXY d   1      -4.005  -2.082   0.237  0.00  0.00     0.077 C 
ATOM      2  C1' PXY d   1       1.085   0.637  -0.105  0.00  0.00     0.077 C 
ATOM      3  C1  PXY d   1      -0.255  -0.069  -0.025  0.00  0.00    -0.082 A 
ATOM      4  C2  PXY d   1      -0.594  -0.704   1.085  0.00  0.00     0.003 A 
ATOM      5  C3  PXY d   1      -1.788  -1.374   1.164  0.00  0.00     0.003 A 
ATOM      6  C4  PXY d   1      -2.667  -1.349   0.114  0.00  0.00    -0.082 A 
ATOM      7  C5  PXY d   1      -2.333  -0.694  -1.018  0.00  0.00     0.003 A 
ATOM      8  C6  PXY d   1      -1.098  -0.055  -1.092  0.00  0.00     0.003 A 
ENDROOT
TORSDOF 0
ENDMDL
