MODEL 1
REMARK minimizedAffinity -0.832307875
REMARK minimizedRMSD -1
REMARK  0 active torsions:
REMARK  status: ('A' for Active; 'I' for Inactive)
ROOT
ATOM      1  C4' PXY d   1       1.683   0.764   0.388  0.00  0.00     0.077 C 
ATOM      2  C1' PXY d   1      -3.694  -1.353   0.284  0.00  0.00     0.077 C 
ATOM      3  C1  PXY d   1      -2.283  -0.802   0.324  0.00  0.00    -0.082 A 
ATOM      4  C2  PXY d   1      -1.925   0.142  -0.532  0.00  0.00     0.003 A 
ATOM      5  C3  PXY d   1      -0.643   0.630  -0.531  0.00  0.00     0.003 A 
ATOM      6  C4  PXY d   1       0.266   0.185   0.390  0.00  0.00    -0.082 A 
ATOM      7  C5  PXY d   1      -0.094  -0.770   1.274  0.00  0.00     0.003 A 
ATOM      8  C6  PXY d   1      -1.388  -1.282   1.229  0.00  0.00     0.003 A 
ENDROOT
TORSDOF 0
ENDMDL
