MODEL 1
REMARK minimizedAffinity -0.990048349
REMARK minimizedRMSD -1
REMARK  0 active torsions:
REMARK  status: ('A' for Active; 'I' for Inactive)
ROOT
ATOM      1  C4' PXY d   1       2.030   0.161  -0.726  0.00  0.00     0.077 C 
ATOM      2  C1' PXY d   1      -3.660  -0.597  -0.052  0.00  0.00     0.077 C 
ATOM      3  C1  PXY d   1      -2.167  -0.397  -0.215  0.00  0.00    -0.082 A 
ATOM      4  C2  PXY d   1      -1.690   0.059  -1.362  0.00  0.00     0.003 A 
ATOM      5  C3  PXY d   1      -0.339   0.216  -1.538  0.00  0.00     0.003 A 
ATOM      6  C4  PXY d   1       0.529  -0.047  -0.512  0.00  0.00    -0.082 A 
ATOM      7  C5  PXY d   1       0.049  -0.502   0.665  0.00  0.00     0.003 A 
ATOM      8  C6  PXY d   1      -1.322  -0.693   0.809  0.00  0.00     0.003 A 
ENDROOT
TORSDOF 0
ENDMDL
