MODEL 1
REMARK minimizedAffinity -3.20645213
REMARK minimizedRMSD -1
REMARK  0 active torsions:
REMARK  status: ('A' for Active; 'I' for Inactive)
ROOT
ATOM      1  C4' PXY d   1       1.852   0.239   0.516  0.00  0.00     0.077 C 
ATOM      2  C1' PXY d   1      -3.699  -1.291   0.011  0.00  0.00     0.077 C 
ATOM      3  C1  PXY d   1      -2.244  -0.891   0.157  0.00  0.00    -0.082 A 
ATOM      4  C2  PXY d   1      -1.673  -0.149  -0.778  0.00  0.00     0.003 A 
ATOM      5  C3  PXY d   1      -0.350   0.195  -0.678  0.00  0.00     0.003 A 
ATOM      6  C4  PXY d   1       0.383  -0.180   0.416  0.00  0.00    -0.082 A 
ATOM      7  C5  PXY d   1      -0.195  -0.929   1.379  0.00  0.00     0.003 A 
ATOM      8  C6  PXY d   1      -1.529  -1.302   1.239  0.00  0.00     0.003 A 
ENDROOT
TORSDOF 0
ENDMDL
