MODEL 1
REMARK minimizedAffinity -1.45171869
REMARK minimizedRMSD -1
REMARK  0 active torsions:
REMARK  status: ('A' for Active; 'I' for Inactive)
ROOT
ATOM      1  C4' PXY d   1      -1.575  -2.113   3.873  0.00  0.00     0.077 C 
ATOM      2  C1' PXY d   1       0.305   0.088  -1.131  0.00  0.00     0.077 C 
ATOM      3  C1  PXY d   1      -0.194  -0.478   0.184  0.00  0.00    -0.082 A 
ATOM      4  C2  PXY d   1       0.469  -1.464   0.765  0.00  0.00     0.003 A 
ATOM      5  C3  PXY d   1       0.013  -2.009   1.938  0.00  0.00     0.003 A 
ATOM      6  C4  PXY d   1      -1.102  -1.504   2.550  0.00  0.00    -0.082 A 
ATOM      7  C5  PXY d   1      -1.778  -0.490   1.969  0.00  0.00     0.003 A 
ATOM      8  C6  PXY d   1      -1.323   0.021   0.757  0.00  0.00     0.003 A 
ENDROOT
TORSDOF 0
ENDMDL
