MODEL 1
REMARK minimizedAffinity -3.32934189
REMARK minimizedRMSD -1
REMARK  0 active torsions:
REMARK  status: ('A' for Active; 'I' for Inactive)
ROOT
ATOM      1  C4' PXY d   1       2.308   3.678   1.629  0.00  0.00     0.077 C 
ATOM      2  C1' PXY d   1      -0.574  -1.201   0.488  0.00  0.00     0.077 C 
ATOM      3  C1  PXY d   1       0.191   0.072   0.793  0.00  0.00    -0.082 A 
ATOM      4  C2  PXY d   1      -0.455   1.225   0.849  0.00  0.00     0.003 A 
ATOM      5  C3  PXY d   1       0.227   2.390   1.092  0.00  0.00     0.003 A 
ATOM      6  C4  PXY d   1       1.574   2.367   1.334  0.00  0.00    -0.082 A 
ATOM      7  C5  PXY d   1       2.238   1.192   1.289  0.00  0.00     0.003 A 
ATOM      8  C6  PXY d   1       1.535   0.027   1.000  0.00  0.00     0.003 A 
ENDROOT
TORSDOF 0
ENDMDL
