MODEL 1
REMARK minimizedAffinity -5.59064674
REMARK minimizedRMSD -1
REMARK  0 active torsions:
REMARK  status: ('A' for Active; 'I' for Inactive)
ROOT
ATOM      1  C4' PXY d   1       2.818   0.035  -2.116  0.00  0.00     0.077 C 
ATOM      2  C1' PXY d   1      -2.369  -0.213   0.423  0.00  0.00     0.077 C 
ATOM      3  C1  PXY d   1      -1.014  -0.151  -0.254  0.00  0.00    -0.082 A 
ATOM      4  C2  PXY d   1       0.083  -0.347   0.459  0.00  0.00     0.003 A 
ATOM      5  C3  PXY d   1       1.318  -0.263  -0.131  0.00  0.00     0.003 A 
ATOM      6  C4  PXY d   1       1.429  -0.028  -1.476  0.00  0.00    -0.082 A 
ATOM      7  C5  PXY d   1       0.313   0.162  -2.212  0.00  0.00     0.003 A 
ATOM      8  C6  PXY d   1      -0.929   0.113  -1.586  0.00  0.00     0.003 A 
ENDROOT
TORSDOF 0
ENDMDL
