MODEL 1
REMARK minimizedAffinity -1.10279298
REMARK minimizedRMSD -1
REMARK  0 active torsions:
REMARK  status: ('A' for Active; 'I' for Inactive)
ROOT
ATOM      1  C4' PXY d   1      -2.810  -0.573   0.541  0.00  0.00     0.077 C 
ATOM      2  C1' PXY d   1       2.673  -0.094  -1.226  0.00  0.00     0.077 C 
ATOM      3  C1  PXY d   1       1.239  -0.229  -0.754  0.00  0.00    -0.082 A 
ATOM      4  C2  PXY d   1       0.250   0.141  -1.552  0.00  0.00     0.003 A 
ATOM      5  C3  PXY d   1      -1.051   0.056  -1.129  0.00  0.00     0.003 A 
ATOM      6  C4  PXY d   1      -1.347  -0.464   0.103  0.00  0.00    -0.082 A 
ATOM      7  C5  PXY d   1      -0.344  -0.854   0.919  0.00  0.00     0.003 A 
ATOM      8  C6  PXY d   1       0.972  -0.721   0.487  0.00  0.00     0.003 A 
ENDROOT
TORSDOF 0
ENDMDL
