MODEL 1
REMARK minimizedAffinity 0.0789885521
REMARK minimizedRMSD -1
REMARK  0 active torsions:
REMARK  status: ('A' for Active; 'I' for Inactive)
ROOT
ATOM      1  C4' PXY d   1       0.492  -0.041   0.865  0.00  0.00     0.077 C 
ATOM      2  C1' PXY d   1       3.386   4.820   2.054  0.00  0.00     0.077 C 
ATOM      3  C1  PXY d   1       2.623   3.551   1.731  0.00  0.00    -0.082 A 
ATOM      4  C2  PXY d   1       2.255   2.742   2.711  0.00  0.00     0.003 A 
ATOM      5  C3  PXY d   1       1.592   1.574   2.434  0.00  0.00     0.003 A 
ATOM      6  C4  PXY d   1       1.256   1.256   1.145  0.00  0.00    -0.082 A 
ATOM      7  C5  PXY d   1       1.619   2.082   0.141  0.00  0.00     0.003 A 
ATOM      8  C6  PXY d   1       2.327   3.243   0.439  0.00  0.00     0.003 A 
ENDROOT
TORSDOF 0
ENDMDL
