MODEL 1
REMARK minimizedAffinity -3.7588985
REMARK minimizedRMSD -1
REMARK  0 active torsions:
REMARK  status: ('A' for Active; 'I' for Inactive)
ROOT
ATOM      1  C4' PXY d   1       3.004  -0.521  -2.569  0.00  0.00     0.077 C 
ATOM      2  C1' PXY d   1       2.572   2.960   2.026  0.00  0.00     0.077 C 
ATOM      3  C1  PXY d   1       2.680   2.037   0.828  0.00  0.00    -0.082 A 
ATOM      4  C2  PXY d   1       3.568   2.295  -0.118  0.00  0.00     0.003 A 
ATOM      5  C3  PXY d   1       3.657   1.490  -1.224  0.00  0.00     0.003 A 
ATOM      6  C4  PXY d   1       2.866   0.378  -1.337  0.00  0.00    -0.082 A 
ATOM      7  C5  PXY d   1       1.965   0.102  -0.370  0.00  0.00     0.003 A 
ATOM      8  C6  PXY d   1       1.862   0.955   0.724  0.00  0.00     0.003 A 
ENDROOT
TORSDOF 0
ENDMDL
