MODEL 1
REMARK minimizedAffinity -3.74034691
REMARK minimizedRMSD -1
REMARK  0 active torsions:
REMARK  status: ('A' for Active; 'I' for Inactive)
ROOT
ATOM      1  C4' PXY d   1       1.759   0.397   0.358  0.00  0.00     0.077 C 
ATOM      2  C1' PXY d   1      -3.646  -1.020  -1.125  0.00  0.00     0.077 C 
ATOM      3  C1  PXY d   1      -2.232  -0.649  -0.724  0.00  0.00    -0.082 A 
ATOM      4  C2  PXY d   1      -1.451  -0.019  -1.587  0.00  0.00     0.003 A 
ATOM      5  C3  PXY d   1      -0.159   0.296  -1.251  0.00  0.00     0.003 A 
ATOM      6  C4  PXY d   1       0.321   0.011  -0.001  0.00  0.00    -0.082 A 
ATOM      7  C5  PXY d   1      -0.473  -0.622   0.889  0.00  0.00     0.003 A 
ATOM      8  C6  PXY d   1      -1.767  -0.970   0.515  0.00  0.00     0.003 A 
ENDROOT
TORSDOF 0
ENDMDL
