MODEL 1
REMARK minimizedAffinity -6.04614878
REMARK minimizedRMSD -1
REMARK  0 active torsions:
REMARK  status: ('A' for Active; 'I' for Inactive)
ROOT
ATOM      1  C4' PXY d   1      -1.536   2.278  -5.040  0.00  0.00     0.077 C 
ATOM      2  C1' PXY d   1       2.626  -1.377  -3.387  0.00  0.00     0.077 C 
ATOM      3  C1  PXY d   1       1.542  -0.415  -3.831  0.00  0.00    -0.082 A 
ATOM      4  C2  PXY d   1       0.679   0.053  -2.943  0.00  0.00     0.003 A 
ATOM      5  C3  PXY d   1      -0.327   0.898  -3.333  0.00  0.00     0.003 A 
ATOM      6  C4  PXY d   1      -0.419   1.312  -4.635  0.00  0.00    -0.082 A 
ATOM      7  C5  PXY d   1       0.464   0.848  -5.545  0.00  0.00     0.003 A 
ATOM      8  C6  PXY d   1       1.453  -0.042  -5.137  0.00  0.00     0.003 A 
ENDROOT
TORSDOF 0
ENDMDL
