MODEL 1
REMARK minimizedAffinity -4.541646
REMARK minimizedRMSD -1
REMARK  0 active torsions:
REMARK  status: ('A' for Active; 'I' for Inactive)
ROOT
ATOM      1  C4' PXY d   1       2.093  -0.316  -1.642  0.00  0.00     0.077 C 
ATOM      2  C1' PXY d   1      -3.436  -0.550   0.027  0.00  0.00     0.077 C 
ATOM      3  C1  PXY d   1      -1.983  -0.485  -0.399  0.00  0.00    -0.082 A 
ATOM      4  C2  PXY d   1      -1.682  -0.330  -1.678  0.00  0.00     0.003 A 
ATOM      5  C3  PXY d   1      -0.373  -0.302  -2.084  0.00  0.00     0.003 A 
ATOM      6  C4  PXY d   1       0.639  -0.378  -1.166  0.00  0.00    -0.082 A 
ATOM      7  C5  PXY d   1       0.341  -0.525   0.143  0.00  0.00     0.003 A 
ATOM      8  C6  PXY d   1      -0.994  -0.593   0.530  0.00  0.00     0.003 A 
ENDROOT
TORSDOF 0
ENDMDL
