MODEL 1
REMARK minimizedAffinity -3.91042066
REMARK minimizedRMSD -1
REMARK  0 active torsions:
REMARK  status: ('A' for Active; 'I' for Inactive)
ROOT
ATOM      1  C4' PXY d   1       0.338   0.316  -3.198  0.00  0.00     0.077 C 
ATOM      2  C1' PXY d   1      -1.614  -1.269   2.008  0.00  0.00     0.077 C 
ATOM      3  C1  PXY d   1      -1.092  -0.847   0.648  0.00  0.00    -0.082 A 
ATOM      4  C2  PXY d   1      -1.927  -0.758  -0.374  0.00  0.00     0.003 A 
ATOM      5  C3  PXY d   1      -1.467  -0.409  -1.618  0.00  0.00     0.003 A 
ATOM      6  C4  PXY d   1      -0.147  -0.097  -1.805  0.00  0.00    -0.082 A 
ATOM      7  C5  PXY d   1       0.709  -0.175  -0.764  0.00  0.00     0.003 A 
ATOM      8  C6  PXY d   1       0.229  -0.571   0.481  0.00  0.00     0.003 A 
ENDROOT
TORSDOF 0
ENDMDL
