MODEL 1
REMARK minimizedAffinity -4.41827297
REMARK minimizedRMSD -1
REMARK  0 active torsions:
REMARK  status: ('A' for Active; 'I' for Inactive)
ROOT
ATOM      1  C4' PXY d   1       2.137   1.338   0.960  0.00  0.00     0.077 C 
ATOM      2  C1' PXY d   1      -3.055  -1.045   0.073  0.00  0.00     0.077 C 
ATOM      3  C1  PXY d   1      -1.690  -0.430   0.312  0.00  0.00    -0.082 A 
ATOM      4  C2  PXY d   1      -1.552   0.886   0.296  0.00  0.00     0.003 A 
ATOM      5  C3  PXY d   1      -0.319   1.457   0.479  0.00  0.00     0.003 A 
ATOM      6  C4  PXY d   1       0.776   0.675   0.733  0.00  0.00    -0.082 A 
ATOM      7  C5  PXY d   1       0.642  -0.668   0.762  0.00  0.00     0.003 A 
ATOM      8  C6  PXY d   1      -0.611  -1.230   0.533  0.00  0.00     0.003 A 
ENDROOT
TORSDOF 0
ENDMDL
