MODEL 1
REMARK minimizedAffinity -2.44677019
REMARK minimizedRMSD -1
REMARK  0 active torsions:
REMARK  status: ('A' for Active; 'I' for Inactive)
ROOT
ATOM      1  C4' PXY d   1       2.176  -0.569  -2.751  0.00  0.00     0.077 C 
ATOM      2  C1' PXY d   1      -2.399   0.038   0.730  0.00  0.00     0.077 C 
ATOM      3  C1  PXY d   1      -1.207  -0.121  -0.194  0.00  0.00    -0.082 A 
ATOM      4  C2  PXY d   1      -0.100  -0.688   0.258  0.00  0.00     0.003 A 
ATOM      5  C3  PXY d   1       0.998  -0.811  -0.554  0.00  0.00     0.003 A 
ATOM      6  C4  PXY d   1       0.945  -0.397  -1.858  0.00  0.00    -0.082 A 
ATOM      7  C5  PXY d   1      -0.184   0.173  -2.329  0.00  0.00     0.003 A 
ATOM      8  C6  PXY d   1      -1.274   0.326  -1.477  0.00  0.00     0.003 A 
ENDROOT
TORSDOF 0
ENDMDL
