MODEL 1
REMARK minimizedAffinity -3.73388147
REMARK minimizedRMSD -1
REMARK  0 active torsions:
REMARK  status: ('A' for Active; 'I' for Inactive)
ROOT
ATOM      1  C4' PXY d   1       1.599   0.728   0.902  0.00  0.00     0.077 C 
ATOM      2  C1' PXY d   1      -3.281  -2.293   0.211  0.00  0.00     0.077 C 
ATOM      3  C1  PXY d   1      -2.000  -1.505   0.405  0.00  0.00    -0.082 A 
ATOM      4  C2  PXY d   1      -1.756  -0.455  -0.363  0.00  0.00     0.003 A 
ATOM      5  C3  PXY d   1      -0.588   0.250  -0.223  0.00  0.00     0.003 A 
ATOM      6  C4  PXY d   1       0.314  -0.091   0.749  0.00  0.00    -0.082 A 
ATOM      7  C5  PXY d   1       0.067  -1.154   1.543  0.00  0.00     0.003 A 
ATOM      8  C6  PXY d   1      -1.105  -1.882   1.357  0.00  0.00     0.003 A 
ENDROOT
TORSDOF 0
ENDMDL
