MODEL 1
REMARK minimizedAffinity -5.05413103
REMARK minimizedRMSD -1
REMARK  0 active torsions:
REMARK  status: ('A' for Active; 'I' for Inactive)
ROOT
ATOM      1  C4' PXY d   1      -1.424   0.459  -2.606  0.00  0.00     0.077 C 
ATOM      2  C1' PXY d   1      -1.942  -2.063   2.570  0.00  0.00     0.077 C 
ATOM      3  C1  PXY d   1      -1.796  -1.394   1.217  0.00  0.00    -0.082 A 
ATOM      4  C2  PXY d   1      -2.824  -1.374   0.383  0.00  0.00     0.003 A 
ATOM      5  C3  PXY d   1      -2.700  -0.802  -0.856  0.00  0.00     0.003 A 
ATOM      6  C4  PXY d   1      -1.528  -0.196  -1.226  0.00  0.00    -0.082 A 
ATOM      7  C5  PXY d   1      -0.479  -0.203  -0.376  0.00  0.00     0.003 A 
ATOM      8  C6  PXY d   1      -0.613  -0.825   0.861  0.00  0.00     0.003 A 
ENDROOT
TORSDOF 0
ENDMDL
