MODEL 1
REMARK minimizedAffinity 0.0778843313
REMARK minimizedRMSD -1
REMARK  0 active torsions:
REMARK  status: ('A' for Active; 'I' for Inactive)
ROOT
ATOM      1  C4' PXY d   1      -3.439  -1.099   0.401  0.00  0.00     0.077 C 
ATOM      2  C1' PXY d   1       2.165   0.311   0.545  0.00  0.00     0.077 C 
ATOM      3  C1  PXY d   1       0.698  -0.069   0.515  0.00  0.00    -0.082 A 
ATOM      4  C2  PXY d   1      -0.060   0.328  -0.494  0.00  0.00     0.003 A 
ATOM      5  C3  PXY d   1      -1.396   0.020  -0.521  0.00  0.00     0.003 A 
ATOM      6  C4  PXY d   1      -1.951  -0.747   0.469  0.00  0.00    -0.082 A 
ATOM      7  C5  PXY d   1      -1.181  -1.165   1.496  0.00  0.00     0.003 A 
ATOM      8  C6  PXY d   1       0.163  -0.807   1.526  0.00  0.00     0.003 A 
ENDROOT
TORSDOF 0
ENDMDL
