MODEL 1
REMARK minimizedAffinity -3.88165665
REMARK minimizedRMSD -1
REMARK  0 active torsions:
REMARK  status: ('A' for Active; 'I' for Inactive)
ROOT
ATOM      1  C4' PXY d   1       2.204  -0.332  -2.859  0.00  0.00     0.077 C 
ATOM      2  C1' PXY d   1      -1.984  -0.346   1.126  0.00  0.00     0.077 C 
ATOM      3  C1  PXY d   1      -0.894  -0.345   0.072  0.00  0.00    -0.082 A 
ATOM      4  C2  PXY d   1       0.365  -0.530   0.433  0.00  0.00     0.003 A 
ATOM      5  C3  PXY d   1       1.366  -0.501  -0.503  0.00  0.00     0.003 A 
ATOM      6  C4  PXY d   1       1.070  -0.334  -1.830  0.00  0.00    -0.082 A 
ATOM      7  C5  PXY d   1      -0.214  -0.156  -2.207  0.00  0.00     0.003 A 
ATOM      8  C6  PXY d   1      -1.211  -0.147  -1.236  0.00  0.00     0.003 A 
ENDROOT
TORSDOF 0
ENDMDL
