MODEL 1
REMARK minimizedAffinity -0.820088267
REMARK minimizedRMSD -1
REMARK  1 active torsions:
REMARK  status: ('A' for Active; 'I' for Inactive)
REMARK    1  A    between atoms: C1_2  and  C2_3 
ROOT
ATOM      1  C2  UNL d   1       5.252   5.835   3.539  0.00  0.00    -0.077 A 
ATOM      2  C3  UNL d   1       5.980   5.794   4.737  0.00  0.00     0.002 A 
ATOM      3  C4  UNL d   1       5.322   5.633   5.958  0.00  0.00     0.002 A 
ATOM      4  C5  UNL d   1       3.935   5.509   5.993  0.00  0.00    -0.004 A 
ATOM      5  C6  UNL d   1       3.202   5.551   4.807  0.00  0.00     0.002 A 
ATOM      6  C7  UNL d   1       3.858   5.713   3.586  0.00  0.00     0.002 A 
ENDROOT
BRANCH   1   7
ATOM      7  C1  UNL d   1       5.964   5.959   2.217  0.00  0.00     0.055 C 
ATOM      8  C   UNL d   1       4.992   5.840   1.052  0.00  0.00     0.019 C 
ENDBRANCH   1   7
TORSDOF 1
ENDMDL
