MODEL 1
REMARK minimizedAffinity 3.81120467
REMARK minimizedRMSD -1
REMARK  1 active torsions:
REMARK  status: ('A' for Active; 'I' for Inactive)
REMARK    1  A    between atoms: C1_2  and  C2_3 
ROOT
ATOM      1  C2  UNL d   1       2.725   4.869   4.207  0.00  0.00    -0.077 A 
ATOM      2  C3  UNL d   1       3.703   5.245   3.275  0.00  0.00     0.002 A 
ATOM      3  C4  UNL d   1       4.907   5.808   3.704  0.00  0.00     0.002 A 
ATOM      4  C5  UNL d   1       5.145   5.994   5.063  0.00  0.00    -0.004 A 
ATOM      5  C6  UNL d   1       4.178   5.625   5.997  0.00  0.00     0.002 A 
ATOM      6  C7  UNL d   1       2.974   5.064   5.571  0.00  0.00     0.002 A 
ENDROOT
BRANCH   1   7
ATOM      7  C1  UNL d   1       1.446   4.217   3.749  0.00  0.00     0.055 C 
ATOM      8  C   UNL d   1       1.654   3.433   2.462  0.00  0.00     0.019 C 
ENDBRANCH   1   7
TORSDOF 1
ENDMDL
