MODEL 1
REMARK minimizedAffinity 5.9375844
REMARK minimizedRMSD -1
REMARK  1 active torsions:
REMARK  status: ('A' for Active; 'I' for Inactive)
REMARK    1  A    between atoms: C1_2  and  C2_3 
ROOT
ATOM      1  C2  UNL d   1      -3.611   3.551  -5.261  0.00  0.00    -0.077 A 
ATOM      2  C3  UNL d   1      -2.510   4.041  -5.977  0.00  0.00     0.002 A 
ATOM      3  C4  UNL d   1      -1.917   5.253  -5.619  0.00  0.00     0.002 A 
ATOM      4  C5  UNL d   1      -2.414   5.982  -4.541  0.00  0.00    -0.004 A 
ATOM      5  C6  UNL d   1      -3.511   5.504  -3.824  0.00  0.00     0.002 A 
ATOM      6  C7  UNL d   1      -4.106   4.294  -4.182  0.00  0.00     0.002 A 
ENDROOT
BRANCH   1   7
ATOM      7  C1  UNL d   1      -4.222   2.220  -5.616  0.00  0.00     0.055 C 
ATOM      8  C   UNL d   1      -5.726   2.337  -5.816  0.00  0.00     0.019 C 
ENDBRANCH   1   7
TORSDOF 1
ENDMDL
