MODEL 1
REMARK minimizedAffinity 7.50728083
REMARK minimizedRMSD -1
REMARK  1 active torsions:
REMARK  status: ('A' for Active; 'I' for Inactive)
REMARK    1  A    between atoms: C1_2  and  C2_3 
ROOT
ATOM      1  C2  UNL d   1       0.770   2.994  -4.843  0.00  0.00    -0.077 A 
ATOM      2  C3  UNL d   1       0.164   2.048  -5.682  0.00  0.00     0.002 A 
ATOM      3  C4  UNL d   1      -1.063   1.481  -5.335  0.00  0.00     0.002 A 
ATOM      4  C5  UNL d   1      -1.697   1.856  -4.153  0.00  0.00    -0.004 A 
ATOM      5  C6  UNL d   1      -1.102   2.795  -3.311  0.00  0.00     0.002 A 
ATOM      6  C7  UNL d   1       0.126   3.363  -3.655  0.00  0.00     0.002 A 
ENDROOT
BRANCH   1   7
ATOM      7  C1  UNL d   1       2.071   3.644  -5.239  0.00  0.00     0.055 C 
ATOM      8  C   UNL d   1       1.833   4.951  -5.981  0.00  0.00     0.019 C 
ENDBRANCH   1   7
TORSDOF 1
ENDMDL
