MODEL 1
REMARK minimizedAffinity 11.4712563
REMARK minimizedRMSD -1
REMARK  1 active torsions:
REMARK  status: ('A' for Active; 'I' for Inactive)
REMARK    1  A    between atoms: C1_2  and  C2_3 
ROOT
ATOM      1  C2  UNL d   1       1.403  -1.447   3.129  0.00  0.00    -0.077 A 
ATOM      2  C3  UNL d   1       0.097  -1.918   3.326  0.00  0.00     0.002 A 
ATOM      3  C4  UNL d   1      -0.565  -2.608   2.309  0.00  0.00     0.002 A 
ATOM      4  C5  UNL d   1       0.071  -2.837   1.091  0.00  0.00    -0.004 A 
ATOM      5  C6  UNL d   1       1.369  -2.371   0.885  0.00  0.00     0.002 A 
ATOM      6  C7  UNL d   1       2.032  -1.680   1.900  0.00  0.00     0.002 A 
ENDROOT
BRANCH   1   7
ATOM      7  C1  UNL d   1       2.137  -0.745   4.242  0.00  0.00     0.055 C 
ATOM      8  C   UNL d   1       3.160  -1.663   4.895  0.00  0.00     0.019 C 
ENDBRANCH   1   7
TORSDOF 1
ENDMDL
