MODEL 1
REMARK minimizedAffinity 0.666887581
REMARK minimizedRMSD -1
REMARK  1 active torsions:
REMARK  status: ('A' for Active; 'I' for Inactive)
REMARK    1  A    between atoms: C1_2  and  C2_3 
ROOT
ATOM      1  C2  UNL d   1       3.222   5.501   4.716  0.00  0.00    -0.077 A 
ATOM      2  C3  UNL d   1       3.896   5.490   5.946  0.00  0.00     0.002 A 
ATOM      3  C4  UNL d   1       5.270   5.730   6.000  0.00  0.00     0.002 A 
ATOM      4  C5  UNL d   1       5.981   5.986   4.829  0.00  0.00    -0.004 A 
ATOM      5  C6  UNL d   1       5.320   5.997   3.601  0.00  0.00     0.002 A 
ATOM      6  C7  UNL d   1       3.947   5.756   3.545  0.00  0.00     0.002 A 
ENDROOT
BRANCH   1   7
ATOM      7  C1  UNL d   1       1.731   5.291   4.661  0.00  0.00     0.055 C 
ATOM      8  C   UNL d   1       1.373   4.086   3.804  0.00  0.00     0.019 C 
ENDBRANCH   1   7
TORSDOF 1
ENDMDL
