MODEL 1
REMARK minimizedAffinity 3.96892405
REMARK minimizedRMSD -1
REMARK  1 active torsions:
REMARK  status: ('A' for Active; 'I' for Inactive)
REMARK    1  A    between atoms: C1_2  and  C2_3 
ROOT
ATOM      1  C2  UNL d   1       2.672   4.834   4.078  0.00  0.00    -0.077 A 
ATOM      2  C3  UNL d   1       2.679   5.211   5.428  0.00  0.00     0.002 A 
ATOM      3  C4  UNL d   1       3.821   5.777   5.998  0.00  0.00     0.002 A 
ATOM      4  C5  UNL d   1       4.963   5.973   5.224  0.00  0.00    -0.004 A 
ATOM      5  C6  UNL d   1       4.967   5.599   3.881  0.00  0.00     0.002 A 
ATOM      6  C7  UNL d   1       3.827   5.033   3.310  0.00  0.00     0.002 A 
ENDROOT
BRANCH   1   7
ATOM      7  C1  UNL d   1       1.425   4.269   3.449  0.00  0.00     0.055 C 
ATOM      8  C   UNL d   1       1.691   2.912   2.815  0.00  0.00     0.019 C 
ENDBRANCH   1   7
TORSDOF 1
ENDMDL
