MODEL 1
REMARK minimizedAffinity 11.961215
REMARK minimizedRMSD -1
REMARK  1 active torsions:
REMARK  status: ('A' for Active; 'I' for Inactive)
REMARK    1  A    between atoms: C1_2  and  C2_3 
ROOT
ATOM      1  C2  UNL d   1      -3.747   2.785   4.983  0.00  0.00    -0.077 A 
ATOM      2  C3  UNL d   1      -2.657   2.568   4.128  0.00  0.00     0.002 A 
ATOM      3  C4  UNL d   1      -2.709   1.566   3.158  0.00  0.00     0.002 A 
ATOM      4  C5  UNL d   1      -3.849   0.775   3.030  0.00  0.00    -0.004 A 
ATOM      5  C6  UNL d   1      -4.937   0.981   3.877  0.00  0.00     0.002 A 
ATOM      6  C7  UNL d   1      -4.887   1.981   4.848  0.00  0.00     0.002 A 
ENDROOT
BRANCH   1   7
ATOM      7  C1  UNL d   1      -3.713   3.898   5.997  0.00  0.00     0.055 C 
ATOM      8  C   UNL d   1      -3.315   5.219   5.356  0.00  0.00     0.019 C 
ENDBRANCH   1   7
TORSDOF 1
ENDMDL
