MODEL 1
REMARK minimizedAffinity 5.61214304
REMARK minimizedRMSD -1
REMARK  1 active torsions:
REMARK  status: ('A' for Active; 'I' for Inactive)
REMARK    1  A    between atoms: C1_2  and  C2_3 
ROOT
ATOM      1  C2  UNL d   1       0.595   5.731   5.329  0.00  0.00    -0.077 A 
ATOM      2  C3  UNL d   1      -0.607   5.999   6.000  0.00  0.00     0.002 A 
ATOM      3  C4  UNL d   1      -1.832   5.708   5.397  0.00  0.00     0.002 A 
ATOM      4  C5  UNL d   1      -1.867   5.144   4.123  0.00  0.00    -0.004 A 
ATOM      5  C6  UNL d   1      -0.677   4.875   3.448  0.00  0.00     0.002 A 
ATOM      6  C7  UNL d   1       0.549   5.167   4.048  0.00  0.00     0.002 A 
ENDROOT
BRANCH   1   7
ATOM      7  C1  UNL d   1       1.918   5.999   5.998  0.00  0.00     0.055 C 
ATOM      8  C   UNL d   1       3.018   5.119   5.422  0.00  0.00     0.019 C 
ENDBRANCH   1   7
TORSDOF 1
ENDMDL
