MODEL 1
REMARK minimizedAffinity 8.80482674
REMARK minimizedRMSD -1
REMARK  1 active torsions:
REMARK  status: ('A' for Active; 'I' for Inactive)
REMARK    1  A    between atoms: C1_2  and  C2_3 
ROOT
ATOM      1  C2  UNL d   1       1.924  -3.446  -0.675  0.00  0.00    -0.077 A 
ATOM      2  C3  UNL d   1       2.772  -2.792   0.229  0.00  0.00     0.002 A 
ATOM      3  C4  UNL d   1       2.430  -1.537   0.737  0.00  0.00     0.002 A 
ATOM      4  C5  UNL d   1       1.238  -0.928   0.350  0.00  0.00    -0.004 A 
ATOM      5  C6  UNL d   1       0.389  -1.570  -0.551  0.00  0.00     0.002 A 
ATOM      6  C7  UNL d   1       0.729  -2.824  -1.060  0.00  0.00     0.002 A 
ENDROOT
BRANCH   1   7
ATOM      7  C1  UNL d   1       2.267  -4.821  -1.186  0.00  0.00     0.055 C 
ATOM      8  C   UNL d   1       1.966  -5.889  -0.144  0.00  0.00     0.019 C 
ENDBRANCH   1   7
TORSDOF 1
ENDMDL
