MODEL 1
REMARK minimizedAffinity 7.57944441
REMARK minimizedRMSD -1
REMARK  1 active torsions:
REMARK  status: ('A' for Active; 'I' for Inactive)
REMARK    1  A    between atoms: C1_2  and  C2_3 
ROOT
ATOM      1  C2  UNL d   1       0.415  -1.441   2.230  0.00  0.00    -0.077 A 
ATOM      2  C3  UNL d   1       0.901  -2.354   1.283  0.00  0.00     0.002 A 
ATOM      3  C4  UNL d   1       2.245  -2.332   0.905  0.00  0.00     0.002 A 
ATOM      4  C5  UNL d   1       3.115  -1.403   1.472  0.00  0.00    -0.004 A 
ATOM      5  C6  UNL d   1       2.641  -0.489   2.413  0.00  0.00     0.002 A 
ATOM      6  C7  UNL d   1       1.297  -0.509   2.791  0.00  0.00     0.002 A 
ENDROOT
BRANCH   1   7
ATOM      7  C1  UNL d   1      -1.023  -1.495   2.675  0.00  0.00     0.055 C 
ATOM      8  C   UNL d   1      -1.446  -0.192   3.338  0.00  0.00     0.019 C 
ENDBRANCH   1   7
TORSDOF 1
ENDMDL
