MODEL 1
REMARK minimizedAffinity -0.298168153
REMARK minimizedRMSD -1
REMARK  1 active torsions:
REMARK  status: ('A' for Active; 'I' for Inactive)
REMARK    1  A    between atoms: C1_2  and  C2_3 
ROOT
ATOM      1  C2  UNL d   1       1.516  -1.517   2.121  0.00  0.00    -0.077 A 
ATOM      2  C3  UNL d   1       1.996  -2.769   2.530  0.00  0.00     0.002 A 
ATOM      3  C4  UNL d   1       2.782  -3.540   1.671  0.00  0.00     0.002 A 
ATOM      4  C5  UNL d   1       3.099  -3.065   0.400  0.00  0.00    -0.004 A 
ATOM      5  C6  UNL d   1       2.625  -1.822  -0.017  0.00  0.00     0.002 A 
ATOM      6  C7  UNL d   1       1.838  -1.051   0.840  0.00  0.00     0.002 A 
ENDROOT
BRANCH   1   7
ATOM      7  C1  UNL d   1       0.710  -0.663   3.064  0.00  0.00     0.055 C 
ATOM      8  C   UNL d   1      -0.775  -0.980   2.964  0.00  0.00     0.019 C 
ENDBRANCH   1   7
TORSDOF 1
ENDMDL
