MODEL 1
REMARK minimizedAffinity -1.68515134
REMARK minimizedRMSD -1
REMARK  2 active torsions:
REMARK  status: ('A' for Active; 'I' for Inactive)
REMARK    1  A    between atoms: C2'_3  and  C1'_4 
REMARK    2  A    between atoms: C1'_4  and  C1_5 
ROOT
ATOM      1  C1  I4B d   1      -2.530   3.727  -2.155  0.00  0.00    -0.075 A 
ATOM      2  C2  I4B d   1      -2.904   3.943  -0.852  0.00  0.00     0.003 A 
ATOM      3  C3  I4B d   1      -1.966   3.777   0.195  0.00  0.00     0.002 A 
ATOM      4  C4  I4B d   1      -0.688   3.348  -0.099  0.00  0.00    -0.004 A 
ATOM      5  C5  I4B d   1      -0.304   3.152  -1.422  0.00  0.00     0.002 A 
ATOM      6  C6  I4B d   1      -1.227   3.355  -2.458  0.00  0.00     0.003 A 
ENDROOT
BRANCH   1   7
ATOM      7  C1' I4B d   1      -3.555   3.880  -3.234  0.00  0.00     0.060 C 
BRANCH   7   8
ATOM      8  C2' I4B d   1      -3.893   5.353  -3.352  0.00  0.00    -0.013 C 
ATOM      9  C4' I4B d   1      -3.132   5.998  -4.480  0.00  0.00     0.013 C 
ATOM     10  C3' I4B d   1      -5.373   5.473  -3.558  0.00  0.00     0.013 C 
ENDBRANCH   7   8
ENDBRANCH   1   7
TORSDOF 2
ENDMDL
