MODEL 1
REMARK minimizedAffinity 8.02975178
REMARK minimizedRMSD -1
REMARK  2 active torsions:
REMARK  status: ('A' for Active; 'I' for Inactive)
REMARK    1  A    between atoms: C2'_3  and  C1'_4 
REMARK    2  A    between atoms: C1'_4  and  C1_5 
ROOT
ATOM      1  C1  I4B d   1       0.147   1.750   1.499  0.00  0.00    -0.075 A 
ATOM      2  C2  I4B d   1      -0.740   2.034   2.506  0.00  0.00     0.003 A 
ATOM      3  C3  I4B d   1      -0.665   1.341   3.739  0.00  0.00     0.002 A 
ATOM      4  C4  I4B d   1       0.274   0.343   3.901  0.00  0.00    -0.004 A 
ATOM      5  C5  I4B d   1       1.188   0.072   2.887  0.00  0.00     0.002 A 
ATOM      6  C6  I4B d   1       1.132   0.788   1.682  0.00  0.00     0.003 A 
ENDROOT
BRANCH   1   7
ATOM      7  C1' I4B d   1       0.019   2.478   0.198  0.00  0.00     0.060 C 
BRANCH   7   8
ATOM      8  C2' I4B d   1      -0.729   1.581  -0.767  0.00  0.00    -0.013 C 
ATOM      9  C4' I4B d   1      -1.986   2.244  -1.265  0.00  0.00     0.013 C 
ATOM     10  C3' I4B d   1       0.194   1.249  -1.901  0.00  0.00     0.013 C 
ENDBRANCH   7   8
ENDBRANCH   1   7
TORSDOF 2
ENDMDL
