MODEL 1
REMARK minimizedAffinity -3.91679645
REMARK minimizedRMSD -1
REMARK  2 active torsions:
REMARK  status: ('A' for Active; 'I' for Inactive)
REMARK    1  A    between atoms: C2'_3  and  C1'_4 
REMARK    2  A    between atoms: C1'_4  and  C1_5 
ROOT
ATOM      1  C1  I4B d   1      -5.029  -2.005   3.397  0.00  0.00    -0.075 A 
ATOM      2  C2  I4B d   1      -3.703  -1.995   3.751  0.00  0.00     0.003 A 
ATOM      3  C3  I4B d   1      -3.314  -2.352   5.065  0.00  0.00     0.002 A 
ATOM      4  C4  I4B d   1      -4.281  -2.663   6.000  0.00  0.00    -0.004 A 
ATOM      5  C5  I4B d   1      -5.623  -2.695   5.632  0.00  0.00     0.002 A 
ATOM      6  C6  I4B d   1      -5.999  -2.376   4.319  0.00  0.00     0.003 A 
ENDROOT
BRANCH   1   7
ATOM      7  C1' I4B d   1      -5.407  -1.590   2.010  0.00  0.00     0.060 C 
BRANCH   7   8
ATOM      8  C2' I4B d   1      -5.904  -0.160   2.071  0.00  0.00    -0.013 C 
ATOM      9  C4' I4B d   1      -5.057   0.673   2.997  0.00  0.00     0.013 C 
ATOM     10  C3' I4B d   1      -5.888   0.395   0.677  0.00  0.00     0.013 C 
ENDBRANCH   7   8
ENDBRANCH   1   7
TORSDOF 2
ENDMDL
