MODEL 1
REMARK minimizedAffinity -5.56363344
REMARK minimizedRMSD -1
REMARK  1 active torsions:
REMARK  status: ('A' for Active; 'I' for Inactive)
REMARK    1  A    between atoms: C1_2  and  C2_3 
ROOT
ATOM      1  C2  UNL d   1       1.415   0.542   0.559  0.00  0.00    -0.076 A 
ATOM      2  C3  UNL d   1       0.096   0.876   0.205  0.00  0.00     0.004 A 
ATOM      3  C4  UNL d   1      -0.732  -0.048  -0.430  0.00  0.00    -0.003 A 
ATOM      4  C5  UNL d   1      -0.255  -1.321  -0.721  0.00  0.00     0.000 A 
ATOM      5  C6  UNL d   1       1.045  -1.675  -0.361  0.00  0.00     0.000 A 
ATOM      6  C7  UNL d   1       1.888  -0.761   0.294  0.00  0.00    -0.073 A 
ATOM      7  C8  UNL d   1       3.282  -1.194   0.653  0.00  0.00     0.078 C 
ENDROOT
BRANCH   1   8
ATOM      8  C1  UNL d   1       2.275   1.594   1.221  0.00  0.00     0.053 C 
ATOM      9  C   UNL d   1       1.972   2.997   0.718  0.00  0.00     0.018 C 
ENDBRANCH   1   8
TORSDOF 1
ENDMDL
