MODEL 1
REMARK minimizedAffinity -1.58607781
REMARK minimizedRMSD -1
REMARK  1 active torsions:
REMARK  status: ('A' for Active; 'I' for Inactive)
REMARK    1  A    between atoms: C1_2  and  C2_3 
ROOT
ATOM      1  C2  UNL d   1       2.900  -0.139  -0.313  0.00  0.00    -0.076 A 
ATOM      2  C3  UNL d   1       3.911  -0.019  -1.282  0.00  0.00     0.004 A 
ATOM      3  C4  UNL d   1       4.336  -1.126  -2.016  0.00  0.00    -0.003 A 
ATOM      4  C5  UNL d   1       3.756  -2.370  -1.792  0.00  0.00     0.000 A 
ATOM      5  C6  UNL d   1       2.740  -2.503  -0.847  0.00  0.00     0.000 A 
ATOM      6  C7  UNL d   1       2.288  -1.394  -0.110  0.00  0.00    -0.073 A 
ATOM      7  C8  UNL d   1       1.193  -1.597   0.901  0.00  0.00     0.078 C 
ENDROOT
BRANCH   1   8
ATOM      8  C1  UNL d   1       2.499   1.091   0.471  0.00  0.00     0.053 C 
ATOM      9  C   UNL d   1       3.675   2.016   0.744  0.00  0.00     0.018 C 
ENDBRANCH   1   8
TORSDOF 1
ENDMDL
