MODEL 1
REMARK minimizedAffinity 4.22583628
REMARK minimizedRMSD -1
REMARK  1 active torsions:
REMARK  status: ('A' for Active; 'I' for Inactive)
REMARK    1  A    between atoms: C1_2  and  C2_3 
ROOT
ATOM      1  C2  UNL d   1       2.373  -0.094  -0.352  0.00  0.00    -0.076 A 
ATOM      2  C3  UNL d   1       3.567  -0.197  -1.087  0.00  0.00     0.004 A 
ATOM      3  C4  UNL d   1       4.539   0.801  -1.020  0.00  0.00    -0.003 A 
ATOM      4  C5  UNL d   1       4.332   1.917  -0.217  0.00  0.00     0.000 A 
ATOM      5  C6  UNL d   1       3.161   2.027   0.532  0.00  0.00     0.000 A 
ATOM      6  C7  UNL d   1       2.179   1.023   0.489  0.00  0.00    -0.073 A 
ATOM      7  C8  UNL d   1       0.933   1.197   1.313  0.00  0.00     0.078 C 
ENDROOT
BRANCH   1   8
ATOM      8  C1  UNL d   1       1.344  -1.193  -0.485  0.00  0.00     0.053 C 
ATOM      9  C   UNL d   1       1.948  -2.580  -0.323  0.00  0.00     0.018 C 
ENDBRANCH   1   8
TORSDOF 1
ENDMDL
