MODEL 1
REMARK minimizedAffinity 3.06917167
REMARK minimizedRMSD -1
REMARK  1 active torsions:
REMARK  status: ('A' for Active; 'I' for Inactive)
REMARK    1  A    between atoms: C1_2  and  C2_3 
ROOT
ATOM      1  C2  UNL d   1      -1.604   1.548   0.219  0.00  0.00    -0.076 A 
ATOM      2  C3  UNL d   1      -1.378   2.020   1.524  0.00  0.00     0.004 A 
ATOM      3  C4  UNL d   1      -2.410   2.062   2.460  0.00  0.00    -0.003 A 
ATOM      4  C5  UNL d   1      -3.685   1.633   2.107  0.00  0.00     0.000 A 
ATOM      5  C6  UNL d   1      -3.922   1.146   0.822  0.00  0.00     0.000 A 
ATOM      6  C7  UNL d   1      -2.889   1.081  -0.129  0.00  0.00    -0.073 A 
ATOM      7  C8  UNL d   1      -3.204   0.552  -1.501  0.00  0.00     0.078 C 
ENDROOT
BRANCH   1   8
ATOM      8  C1  UNL d   1      -0.453   1.551  -0.761  0.00  0.00     0.053 C 
ATOM      9  C   UNL d   1       0.716   2.400  -0.285  0.00  0.00     0.018 C 
ENDBRANCH   1   8
TORSDOF 1
ENDMDL
