MODEL 1
REMARK minimizedAffinity 1.66023493
REMARK minimizedRMSD -1
REMARK  1 active torsions:
REMARK  status: ('A' for Active; 'I' for Inactive)
REMARK    1  A    between atoms: C1_2  and  C2_3 
ROOT
ATOM      1  C2  UNL d   1       2.227  -2.042  -1.120  0.00  0.00    -0.076 A 
ATOM      2  C3  UNL d   1       1.288  -1.404  -0.291  0.00  0.00     0.004 A 
ATOM      3  C4  UNL d   1      -0.074  -1.441  -0.589  0.00  0.00    -0.003 A 
ATOM      4  C5  UNL d   1      -0.518  -2.118  -1.719  0.00  0.00     0.000 A 
ATOM      5  C6  UNL d   1       0.398  -2.772  -2.542  0.00  0.00     0.000 A 
ATOM      6  C7  UNL d   1       1.772  -2.758  -2.248  0.00  0.00    -0.073 A 
ATOM      7  C8  UNL d   1       2.717  -3.475  -3.174  0.00  0.00     0.078 C 
ENDROOT
BRANCH   1   8
ATOM      8  C1  UNL d   1       3.693  -1.945  -0.761  0.00  0.00     0.053 C 
ATOM      9  C   UNL d   1       4.467  -1.047  -1.714  0.00  0.00     0.018 C 
ENDBRANCH   1   8
TORSDOF 1
ENDMDL
