MODEL 1
REMARK minimizedAffinity -4.98351431
REMARK minimizedRMSD -1
REMARK  3 active torsions:
REMARK  status: ('A' for Active; 'I' for Inactive)
REMARK    1  A    between atoms: C3'_2  and  C2'_3 
REMARK    2  A    between atoms: C2'_3  and  C1'_4 
REMARK    3  A    between atoms: C1'_4  and  C1_5 
ROOT
ATOM      1  C1  N4B d   1      -0.320   0.696   0.501  0.00  0.00    -0.075 A 
ATOM      2  C2  N4B d   1      -0.634   1.597   1.542  0.00  0.00     0.002 A 
ATOM      3  C3  N4B d   1      -1.087   2.859   1.244  0.00  0.00     0.002 A 
ATOM      4  C4  N4B d   1      -1.217   3.246  -0.081  0.00  0.00    -0.004 A 
ATOM      5  C5  N4B d   1      -0.937   2.361  -1.081  0.00  0.00     0.002 A 
ATOM      6  C6  N4B d   1      -0.484   1.089  -0.796  0.00  0.00     0.002 A 
ENDROOT
BRANCH   1   7
ATOM      7  C1' N4B d   1       0.260  -0.664   0.776  0.00  0.00     0.057 C 
BRANCH   7   8
ATOM      8  C2' N4B d   1       1.426  -0.523   1.751  0.00  0.00     0.009 C 
BRANCH   8   9
ATOM      9  C3' N4B d   1       1.100  -1.110   3.114  0.00  0.00     0.004 C 
ATOM     10  C4' N4B d   1       2.314  -1.622   3.830  0.00  0.00     0.003 C 
ENDBRANCH   8   9
ENDBRANCH   7   8
ENDBRANCH   1   7
TORSDOF 3
ENDMDL
