MODEL 1
REMARK minimizedAffinity -3.17411661
REMARK minimizedRMSD -1
REMARK  3 active torsions:
REMARK  status: ('A' for Active; 'I' for Inactive)
REMARK    1  A    between atoms: C3'_2  and  C2'_3 
REMARK    2  A    between atoms: C2'_3  and  C1'_4 
REMARK    3  A    between atoms: C1'_4  and  C1_5 
ROOT
ATOM      1  C1  N4B d   1      -1.368   2.117   0.600  0.00  0.00    -0.075 A 
ATOM      2  C2  N4B d   1      -1.553   3.404   0.050  0.00  0.00     0.002 A 
ATOM      3  C3  N4B d   1      -1.389   3.604  -1.299  0.00  0.00     0.002 A 
ATOM      4  C4  N4B d   1      -1.023   2.541  -2.111  0.00  0.00    -0.004 A 
ATOM      5  C5  N4B d   1      -0.872   1.295  -1.575  0.00  0.00     0.002 A 
ATOM      6  C6  N4B d   1      -1.038   1.079  -0.222  0.00  0.00     0.002 A 
ENDROOT
BRANCH   1   7
ATOM      7  C1' N4B d   1      -1.452   1.867   2.081  0.00  0.00     0.057 C 
BRANCH   7   8
ATOM      8  C2' N4B d   1      -0.049   1.624   2.628  0.00  0.00     0.009 C 
BRANCH   8   9
ATOM      9  C3' N4B d   1       0.290   0.145   2.688  0.00  0.00     0.004 C 
ATOM     10  C4' N4B d   1       1.398  -0.235   1.752  0.00  0.00     0.003 C 
ENDBRANCH   8   9
ENDBRANCH   7   8
ENDBRANCH   1   7
TORSDOF 3
ENDMDL
