MODEL 1
REMARK minimizedAffinity 6.48603916
REMARK minimizedRMSD -1
REMARK  3 active torsions:
REMARK  status: ('A' for Active; 'I' for Inactive)
REMARK    1  A    between atoms: C3'_2  and  C2'_3 
REMARK    2  A    between atoms: C2'_3  and  C1'_4 
REMARK    3  A    between atoms: C1'_4  and  C1_5 
ROOT
ATOM      1  C1  N4B d   1       0.492   0.623   1.034  0.00  0.00    -0.075 A 
ATOM      2  C2  N4B d   1       0.108   0.712   2.390  0.00  0.00     0.002 A 
ATOM      3  C3  N4B d   1       0.559  -0.218   3.294  0.00  0.00     0.002 A 
ATOM      4  C4  N4B d   1       1.378  -1.252   2.864  0.00  0.00    -0.004 A 
ATOM      5  C5  N4B d   1       1.765  -1.316   1.557  0.00  0.00     0.002 A 
ATOM      6  C6  N4B d   1       1.322  -0.386   0.638  0.00  0.00     0.002 A 
ENDROOT
BRANCH   1   7
ATOM      7  C1' N4B d   1      -0.045   1.566  -0.008  0.00  0.00     0.057 C 
BRANCH   7   8
ATOM      8  C2' N4B d   1      -0.123   0.841  -1.348  0.00  0.00     0.009 C 
BRANCH   8   9
ATOM      9  C3' N4B d   1      -1.527   0.866  -1.926  0.00  0.00     0.004 C 
ATOM     10  C4' N4B d   1      -2.572   1.197  -0.902  0.00  0.00     0.003 C 
ENDBRANCH   8   9
ENDBRANCH   7   8
ENDBRANCH   1   7
TORSDOF 3
ENDMDL
