MODEL 1
REMARK minimizedAffinity 0.732851565
REMARK minimizedRMSD -1
REMARK  3 active torsions:
REMARK  status: ('A' for Active; 'I' for Inactive)
REMARK    1  A    between atoms: C3'_2  and  C2'_3 
REMARK    2  A    between atoms: C2'_3  and  C1'_4 
REMARK    3  A    between atoms: C1'_4  and  C1_5 
ROOT
ATOM      1  C1  N4B d   1       0.126   1.584  -0.034  0.00  0.00    -0.075 A 
ATOM      2  C2  N4B d   1       0.398   0.375  -0.711  0.00  0.00     0.002 A 
ATOM      3  C3  N4B d   1       0.708  -0.757   0.003  0.00  0.00     0.002 A 
ATOM      4  C4  N4B d   1       0.770  -0.699   1.387  0.00  0.00    -0.004 A 
ATOM      5  C5  N4B d   1       0.482   0.466   2.035  0.00  0.00     0.002 A 
ATOM      6  C6  N4B d   1       0.165   1.611   1.331  0.00  0.00     0.002 A 
ENDROOT
BRANCH   1   7
ATOM      7  C1' N4B d   1      -0.133   2.868  -0.774  0.00  0.00     0.057 C 
BRANCH   7   8
ATOM      8  C2' N4B d   1       0.551   4.017  -0.039  0.00  0.00     0.009 C 
BRANCH   8   9
ATOM      9  C3' N4B d   1       0.423   5.329  -0.792  0.00  0.00     0.004 C 
ATOM     10  C4' N4B d   1      -0.098   5.150  -2.187  0.00  0.00     0.003 C 
ENDBRANCH   8   9
ENDBRANCH   7   8
ENDBRANCH   1   7
TORSDOF 3
ENDMDL
