MODEL 1
REMARK minimizedAffinity 2.74561262
REMARK minimizedRMSD -1
REMARK  0 active torsions:
REMARK  status: ('A' for Active; 'I' for Inactive)
ROOT
ATOM      1  C2' OXE d   1      -3.232   2.093  -1.532  0.00  0.00     0.078 C 
ATOM      2  C1' OXE d   1      -3.024  -0.391  -0.240  0.00  0.00     0.078 C 
ATOM      3  C1  OXE d   1      -1.942  -0.015  -1.221  0.00  0.00    -0.078 A 
ATOM      4  C2  OXE d   1      -2.076   1.182  -1.883  0.00  0.00    -0.078 A 
ATOM      5  C3  OXE d   1      -1.078   1.601  -2.758  0.00  0.00     0.003 A 
ATOM      6  C4  OXE d   1      -0.017   0.747  -3.086  0.00  0.00    -0.002 A 
ATOM      7  C5  OXE d   1       0.117  -0.493  -2.452  0.00  0.00    -0.002 A 
ATOM      8  C6  OXE d   1      -0.811  -0.870  -1.489  0.00  0.00     0.003 A 
ENDROOT
TORSDOF 0
ENDMDL
