MODEL 1
REMARK minimizedAffinity -6.2036624
REMARK minimizedRMSD -1
REMARK  0 active torsions:
REMARK  status: ('A' for Active; 'I' for Inactive)
ROOT
ATOM      1  C2' OXE d   1      -2.113   0.282  -2.894  0.00  0.00     0.078 C 
ATOM      2  C1' OXE d   1      -4.129   1.649  -4.290  0.00  0.00     0.078 C 
ATOM      3  C1  OXE d   1      -3.875   0.207  -4.653  0.00  0.00    -0.078 A 
ATOM      4  C2  OXE d   1      -2.856  -0.440  -3.998  0.00  0.00    -0.078 A 
ATOM      5  C3  OXE d   1      -2.615  -1.786  -4.256  0.00  0.00     0.003 A 
ATOM      6  C4  OXE d   1      -3.300  -2.444  -5.286  0.00  0.00    -0.002 A 
ATOM      7  C5  OXE d   1      -4.315  -1.791  -5.993  0.00  0.00    -0.002 A 
ATOM      8  C6  OXE d   1      -4.644  -0.482  -5.661  0.00  0.00     0.003 A 
ENDROOT
TORSDOF 0
ENDMDL
