MODEL 1
REMARK minimizedAffinity 4.02587128
REMARK minimizedRMSD -1
REMARK  0 active torsions:
REMARK  status: ('A' for Active; 'I' for Inactive)
ROOT
ATOM      1  C2' OXE d   1       2.737   2.155   1.757  0.00  0.00     0.078 C 
ATOM      2  C1' OXE d   1       3.339   0.668  -0.547  0.00  0.00     0.078 C 
ATOM      3  C1  OXE d   1       2.443   0.033   0.486  0.00  0.00    -0.078 A 
ATOM      4  C2  OXE d   1       2.191   0.749   1.632  0.00  0.00    -0.078 A 
ATOM      5  C3  OXE d   1       1.327   0.232   2.592  0.00  0.00     0.003 A 
ATOM      6  C4  OXE d   1       0.834  -1.073   2.474  0.00  0.00    -0.002 A 
ATOM      7  C5  OXE d   1       1.110  -1.835   1.334  0.00  0.00    -0.002 A 
ATOM      8  C6  OXE d   1       1.876  -1.282   0.313  0.00  0.00     0.003 A 
ENDROOT
TORSDOF 0
ENDMDL
