MODEL 1
REMARK minimizedAffinity 3.81476712
REMARK minimizedRMSD -1
REMARK  0 active torsions:
REMARK  status: ('A' for Active; 'I' for Inactive)
ROOT
ATOM      1  C2' OXE d   1      -2.008  -0.890  -4.856  0.00  0.00     0.078 C 
ATOM      2  C1' OXE d   1      -2.851   0.324  -2.469  0.00  0.00     0.078 C 
ATOM      3  C1  OXE d   1      -3.729   0.479  -3.685  0.00  0.00    -0.078 A 
ATOM      4  C2  OXE d   1      -3.286  -0.079  -4.860  0.00  0.00    -0.078 A 
ATOM      5  C3  OXE d   1      -4.084  -0.012  -5.999  0.00  0.00     0.003 A 
ATOM      6  C4  OXE d   1      -5.259   0.749  -5.997  0.00  0.00    -0.002 A 
ATOM      7  C5  OXE d   1      -5.709   1.358  -4.821  0.00  0.00    -0.002 A 
ATOM      8  C6  OXE d   1      -4.979   1.198  -3.648  0.00  0.00     0.003 A 
ENDROOT
TORSDOF 0
ENDMDL
