MODEL 1
REMARK minimizedAffinity 2.82710981
REMARK minimizedRMSD -1
REMARK  0 active torsions:
REMARK  status: ('A' for Active; 'I' for Inactive)
ROOT
ATOM      1  C2' OXE d   1      -2.492  -1.754  -5.268  0.00  0.00     0.078 C 
ATOM      2  C1' OXE d   1      -4.260  -1.878  -3.092  0.00  0.00     0.078 C 
ATOM      3  C1  OXE d   1      -4.121  -0.559  -3.810  0.00  0.00    -0.078 A 
ATOM      4  C2  OXE d   1      -3.219  -0.495  -4.845  0.00  0.00    -0.078 A 
ATOM      5  C3  OXE d   1      -3.091   0.682  -5.576  0.00  0.00     0.003 A 
ATOM      6  C4  OXE d   1      -3.760   1.844  -5.172  0.00  0.00    -0.002 A 
ATOM      7  C5  OXE d   1      -4.654   1.811  -4.096  0.00  0.00    -0.002 A 
ATOM      8  C6  OXE d   1      -4.877   0.609  -3.433  0.00  0.00     0.003 A 
ENDROOT
TORSDOF 0
ENDMDL
