MODEL 1
REMARK minimizedAffinity -4.9119072
REMARK minimizedRMSD -1
REMARK  0 active torsions:
REMARK  status: ('A' for Active; 'I' for Inactive)
ROOT
ATOM      1  C2' OXE d   1      -5.087  -2.025  -3.844  0.00  0.00     0.078 C 
ATOM      2  C1' OXE d   1      -5.222  -0.178  -5.954  0.00  0.00     0.078 C 
ATOM      3  C1  OXE d   1      -4.104  -0.023  -4.954  0.00  0.00    -0.078 A 
ATOM      4  C2  OXE d   1      -4.073  -0.903  -3.899  0.00  0.00    -0.078 A 
ATOM      5  C3  OXE d   1      -3.031  -0.839  -2.978  0.00  0.00     0.003 A 
ATOM      6  C4  OXE d   1      -2.103   0.208  -3.030  0.00  0.00    -0.002 A 
ATOM      7  C5  OXE d   1      -2.140   1.139  -4.074  0.00  0.00    -0.002 A 
ATOM      8  C6  OXE d   1      -3.106   1.012  -5.065  0.00  0.00     0.003 A 
ENDROOT
TORSDOF 0
ENDMDL
