MODEL 1
REMARK minimizedAffinity 8.33398819
REMARK minimizedRMSD -1
REMARK  0 active torsions:
REMARK  status: ('A' for Active; 'I' for Inactive)
ROOT
ATOM      1  C2' OXE d   1       0.615  -1.476   0.372  0.00  0.00     0.078 C 
ATOM      2  C1' OXE d   1       3.189  -0.367   0.513  0.00  0.00     0.078 C 
ATOM      3  C1  OXE d   1       3.042  -1.841   0.795  0.00  0.00    -0.078 A 
ATOM      4  C2  OXE d   1       1.773  -2.366   0.770  0.00  0.00    -0.078 A 
ATOM      5  C3  OXE d   1       1.587  -3.731   0.969  0.00  0.00     0.003 A 
ATOM      6  C4  OXE d   1       2.663  -4.545   1.346  0.00  0.00    -0.002 A 
ATOM      7  C5  OXE d   1       3.958  -4.022   1.416  0.00  0.00    -0.002 A 
ATOM      8  C6  OXE d   1       4.171  -2.684   1.103  0.00  0.00     0.003 A 
ENDROOT
TORSDOF 0
ENDMDL
