MODEL 1
REMARK minimizedAffinity 2.72717977
REMARK minimizedRMSD -1
REMARK  0 active torsions:
REMARK  status: ('A' for Active; 'I' for Inactive)
ROOT
ATOM      1  C2' OXE d   1      -2.137  -1.823  -4.889  0.00  0.00     0.078 C 
ATOM      2  C1' OXE d   1      -4.497  -1.857  -3.369  0.00  0.00     0.078 C 
ATOM      3  C1  OXE d   1      -4.274  -0.688  -4.296  0.00  0.00    -0.078 A 
ATOM      4  C2  OXE d   1      -3.095  -0.656  -5.001  0.00  0.00    -0.078 A 
ATOM      5  C3  OXE d   1      -2.863   0.372  -5.910  0.00  0.00     0.003 A 
ATOM      6  C4  OXE d   1      -3.749   1.452  -6.000  0.00  0.00    -0.002 A 
ATOM      7  C5  OXE d   1      -4.937   1.459  -5.261  0.00  0.00    -0.002 A 
ATOM      8  C6  OXE d   1      -5.234   0.379  -4.438  0.00  0.00     0.003 A 
ENDROOT
TORSDOF 0
ENDMDL
