MODEL 1
REMARK minimizedAffinity -0.521895587
REMARK minimizedRMSD -1
REMARK  0 active torsions:
REMARK  status: ('A' for Active; 'I' for Inactive)
ROOT
ATOM      1  C2' OXE d   1       4.088   5.929   2.309  0.00  0.00     0.078 C 
ATOM      2  C1' OXE d   1       5.373   5.999   4.803  0.00  0.00     0.078 C 
ATOM      3  C1  OXE d   1       3.865   5.973   4.789  0.00  0.00    -0.078 A 
ATOM      4  C2  OXE d   1       3.244   5.986   3.564  0.00  0.00    -0.078 A 
ATOM      5  C3  OXE d   1       1.856   5.908   3.493  0.00  0.00     0.003 A 
ATOM      6  C4  OXE d   1       1.083   5.972   4.659  0.00  0.00    -0.002 A 
ATOM      7  C5  OXE d   1       1.695   5.999   5.916  0.00  0.00    -0.002 A 
ATOM      8  C6  OXE d   1       3.082   5.958   6.000  0.00  0.00     0.003 A 
ENDROOT
TORSDOF 0
ENDMDL
