MODEL 1
REMARK minimizedAffinity -1.89808464
REMARK minimizedRMSD -1
REMARK  0 active torsions:
REMARK  status: ('A' for Active; 'I' for Inactive)
ROOT
ATOM      1  C2' OXE d   1      -1.459  -0.940  -2.153  0.00  0.00     0.078 C 
ATOM      2  C1' OXE d   1       0.943  -1.417  -0.781  0.00  0.00     0.078 C 
ATOM      3  C1  OXE d   1      -0.244  -0.946   0.021  0.00  0.00    -0.078 A 
ATOM      4  C2  OXE d   1      -1.402  -0.670  -0.665  0.00  0.00    -0.078 A 
ATOM      5  C3  OXE d   1      -2.543  -0.286   0.034  0.00  0.00     0.003 A 
ATOM      6  C4  OXE d   1      -2.479  -0.029   1.409  0.00  0.00    -0.002 A 
ATOM      7  C5  OXE d   1      -1.298  -0.265   2.121  0.00  0.00    -0.002 A 
ATOM      8  C6  OXE d   1      -0.186  -0.763   1.450  0.00  0.00     0.003 A 
ENDROOT
TORSDOF 0
ENDMDL
