MODEL 1
REMARK minimizedAffinity 8.13637829
REMARK minimizedRMSD -1
REMARK  0 active torsions:
REMARK  status: ('A' for Active; 'I' for Inactive)
ROOT
ATOM      1  C   UNL d   1      -3.476  -0.640   4.413  0.00  0.00     0.023 A 
ATOM      2  C1  UNL d   1      -4.317  -1.397   3.598  0.00  0.00     0.003 A 
ATOM      3  C2  UNL d   1      -3.956  -1.664   2.276  0.00  0.00     0.048 A 
ATOM      4  C3  UNL d   1      -2.752  -1.171   1.775  0.00  0.00     0.023 A 
ATOM      5  C4  UNL d   1      -1.906  -0.414   2.587  0.00  0.00     0.048 A 
ATOM      6  C5  UNL d   1      -2.272  -0.149   3.909  0.00  0.00     0.003 A 
ATOM      7  I   UNL d   1      -2.212  -1.567  -0.192  0.00  0.00    -0.146 I 
ENDROOT
TORSDOF 0
ENDMDL
