MODEL 1
REMARK minimizedAffinity -2.15834761
REMARK minimizedRMSD -1
REMARK  0 active torsions:
REMARK  status: ('A' for Active; 'I' for Inactive)
ROOT
ATOM      1  C   UNL d   1      -2.570  -1.388   3.268  0.00  0.00     0.023 A 
ATOM      2  C1  UNL d   1      -2.737  -0.074   3.707  0.00  0.00     0.003 A 
ATOM      3  C2  UNL d   1      -2.682   0.981   2.794  0.00  0.00     0.048 A 
ATOM      4  C3  UNL d   1      -2.462   0.715   1.443  0.00  0.00     0.023 A 
ATOM      5  C4  UNL d   1      -2.296  -0.598   0.999  0.00  0.00     0.048 A 
ATOM      6  C5  UNL d   1      -2.350  -1.649   1.916  0.00  0.00     0.003 A 
ATOM      7  I   UNL d   1      -2.381   2.283   0.081  0.00  0.00    -0.146 I 
ENDROOT
TORSDOF 0
ENDMDL
