MODEL 1
REMARK minimizedAffinity 0.884096026
REMARK minimizedRMSD -1
REMARK  0 active torsions:
REMARK  status: ('A' for Active; 'I' for Inactive)
ROOT
ATOM      1  C   UNL d   1      -3.587   3.059  -0.398  0.00  0.00     0.023 A 
ATOM      2  C1  UNL d   1      -2.829   3.372   0.731  0.00  0.00     0.003 A 
ATOM      3  C2  UNL d   1      -2.493   2.374   1.648  0.00  0.00     0.048 A 
ATOM      4  C3  UNL d   1      -2.918   1.064   1.430  0.00  0.00     0.023 A 
ATOM      5  C4  UNL d   1      -3.676   0.745   0.302  0.00  0.00     0.048 A 
ATOM      6  C5  UNL d   1      -4.010   1.747  -0.612  0.00  0.00     0.003 A 
ATOM      7  I   UNL d   1      -2.420  -0.423   2.793  0.00  0.00    -0.146 I 
ENDROOT
TORSDOF 0
ENDMDL
