MODEL 1
REMARK minimizedAffinity 5.28322649
REMARK minimizedRMSD -1
REMARK  0 active torsions:
REMARK  status: ('A' for Active; 'I' for Inactive)
ROOT
ATOM      1  C   UNL d   1       5.976  -0.847   4.873  0.00  0.00     0.023 A 
ATOM      2  C1  UNL d   1       6.000   0.031   5.957  0.00  0.00     0.003 A 
ATOM      3  C2  UNL d   1       5.925   1.409   5.742  0.00  0.00     0.048 A 
ATOM      4  C3  UNL d   1       5.826   1.902   4.442  0.00  0.00     0.023 A 
ATOM      5  C4  UNL d   1       5.800   1.027   3.355  0.00  0.00     0.048 A 
ATOM      6  C5  UNL d   1       5.876  -0.350   3.574  0.00  0.00     0.003 A 
ATOM      7  I   UNL d   1       5.714   3.952   4.120  0.00  0.00    -0.146 I 
ENDROOT
TORSDOF 0
ENDMDL
