MODEL 1
REMARK minimizedAffinity 3.94417691
REMARK minimizedRMSD -1
REMARK  0 active torsions:
REMARK  status: ('A' for Active; 'I' for Inactive)
ROOT
ATOM      1  C   UNL d   1       4.977   1.099   3.844  0.00  0.00     0.023 A 
ATOM      2  C1  UNL d   1       4.332   2.017   3.016  0.00  0.00     0.003 A 
ATOM      3  C2  UNL d   1       4.518   3.387   3.213  0.00  0.00     0.048 A 
ATOM      4  C3  UNL d   1       5.352   3.831   4.239  0.00  0.00     0.023 A 
ATOM      5  C4  UNL d   1       6.000   2.916   5.069  0.00  0.00     0.048 A 
ATOM      6  C5  UNL d   1       5.810   1.547   4.869  0.00  0.00     0.003 A 
ATOM      7  I   UNL d   1       5.630   5.870   4.534  0.00  0.00    -0.146 I 
ENDROOT
TORSDOF 0
ENDMDL
