MODEL 1
REMARK minimizedAffinity 2.45661545
REMARK minimizedRMSD -1
REMARK  0 active torsions:
REMARK  status: ('A' for Active; 'I' for Inactive)
ROOT
ATOM      1  C   UNL d   1       4.053  -2.375   5.227  0.00  0.00     0.023 A 
ATOM      2  C1  UNL d   1       3.225  -1.268   5.044  0.00  0.00     0.003 A 
ATOM      3  C2  UNL d   1       3.782   0.003   4.885  0.00  0.00     0.048 A 
ATOM      4  C3  UNL d   1       5.167   0.159   4.909  0.00  0.00     0.023 A 
ATOM      5  C4  UNL d   1       6.000  -0.947   5.090  0.00  0.00     0.048 A 
ATOM      6  C5  UNL d   1       5.438  -2.215   5.250  0.00  0.00     0.003 A 
ATOM      7  I   UNL d   1       5.998   2.049   4.672  0.00  0.00    -0.146 I 
ENDROOT
TORSDOF 0
ENDMDL
