MODEL 1
REMARK minimizedAffinity -0.956192493
REMARK minimizedRMSD -1
REMARK  0 active torsions:
REMARK  status: ('A' for Active; 'I' for Inactive)
ROOT
ATOM      1  C   UNL d   1       4.898   1.372   4.239  0.00  0.00     0.023 A 
ATOM      2  C1  UNL d   1       4.196   1.702   3.080  0.00  0.00     0.003 A 
ATOM      3  C2  UNL d   1       3.459   0.725   2.407  0.00  0.00     0.048 A 
ATOM      4  C3  UNL d   1       3.427  -0.579   2.899  0.00  0.00     0.023 A 
ATOM      5  C4  UNL d   1       4.128  -0.913   4.059  0.00  0.00     0.048 A 
ATOM      6  C5  UNL d   1       4.864   0.066   4.728  0.00  0.00     0.003 A 
ATOM      7  I   UNL d   1       2.331  -2.034   1.899  0.00  0.00    -0.146 I 
ENDROOT
TORSDOF 0
ENDMDL
