MODEL 1
REMARK minimizedAffinity 0.771881402
REMARK minimizedRMSD -1
REMARK  0 active torsions:
REMARK  status: ('A' for Active; 'I' for Inactive)
ROOT
ATOM      1  C   UNL d   1       5.448   0.122   5.293  0.00  0.00     0.023 A 
ATOM      2  C1  UNL d   1       4.268  -0.623   5.298  0.00  0.00     0.003 A 
ATOM      3  C2  UNL d   1       3.538  -0.785   4.120  0.00  0.00     0.048 A 
ATOM      4  C3  UNL d   1       3.993  -0.200   2.938  0.00  0.00     0.023 A 
ATOM      5  C4  UNL d   1       5.173   0.545   2.927  0.00  0.00     0.048 A 
ATOM      6  C5  UNL d   1       5.900   0.705   4.109  0.00  0.00     0.003 A 
ATOM      7  I   UNL d   1       2.907  -0.440   1.182  0.00  0.00    -0.146 I 
ENDROOT
TORSDOF 0
ENDMDL
