MODEL 1
REMARK minimizedAffinity 9.40053749
REMARK minimizedRMSD -1
REMARK  0 active torsions:
REMARK  status: ('A' for Active; 'I' for Inactive)
ROOT
ATOM      1  C   UNL d   1       4.681   0.755   2.934  0.00  0.00     0.023 A 
ATOM      2  C1  UNL d   1       4.121   1.875   2.318  0.00  0.00     0.003 A 
ATOM      3  C2  UNL d   1       4.498   3.157   2.722  0.00  0.00     0.048 A 
ATOM      4  C3  UNL d   1       5.436   3.313   3.742  0.00  0.00     0.023 A 
ATOM      5  C4  UNL d   1       6.000   2.195   4.360  0.00  0.00     0.048 A 
ATOM      6  C5  UNL d   1       5.619   0.915   3.954  0.00  0.00     0.003 A 
ATOM      7  I   UNL d   1       5.999   5.220   4.345  0.00  0.00    -0.146 I 
ENDROOT
TORSDOF 0
ENDMDL
