MODEL 1
REMARK minimizedAffinity 2.83988523
REMARK minimizedRMSD -1
REMARK  0 active torsions:
REMARK  status: ('A' for Active; 'I' for Inactive)
ROOT
ATOM      1  C   UNL d   1      -2.730   5.517   0.418  0.00  0.00     0.023 A 
ATOM      2  C1  UNL d   1      -1.652   4.670   0.160  0.00  0.00     0.003 A 
ATOM      3  C2  UNL d   1      -1.846   3.288   0.105  0.00  0.00     0.048 A 
ATOM      4  C3  UNL d   1      -3.120   2.760   0.307  0.00  0.00     0.023 A 
ATOM      5  C4  UNL d   1      -4.202   3.603   0.565  0.00  0.00     0.048 A 
ATOM      6  C5  UNL d   1      -4.004   4.984   0.621  0.00  0.00     0.003 A 
ATOM      7  I   UNL d   1      -3.411   0.703   0.225  0.00  0.00    -0.146 I 
ENDROOT
TORSDOF 0
ENDMDL
