MODEL 1
REMARK minimizedAffinity -0.15203397
REMARK minimizedRMSD -1
REMARK  0 active torsions:
REMARK  status: ('A' for Active; 'I' for Inactive)
ROOT
ATOM      1  C   UNL d   1      -3.483  -0.905   1.216  0.00  0.00     0.023 A 
ATOM      2  C1  UNL d   1      -2.928  -0.055   2.173  0.00  0.00     0.003 A 
ATOM      3  C2  UNL d   1      -2.831   1.315   1.919  0.00  0.00     0.048 A 
ATOM      4  C3  UNL d   1      -3.291   1.828   0.707  0.00  0.00     0.023 A 
ATOM      5  C4  UNL d   1      -3.848   0.981  -0.253  0.00  0.00     0.048 A 
ATOM      6  C5  UNL d   1      -3.943  -0.388   0.005  0.00  0.00     0.003 A 
ATOM      7  I   UNL d   1      -3.148   3.866   0.328  0.00  0.00    -0.146 I 
ENDROOT
TORSDOF 0
ENDMDL
