MODEL 1
REMARK minimizedAffinity 9.22482014
REMARK minimizedRMSD -1
REMARK  1 active torsions:
REMARK  status: ('A' for Active; 'I' for Inactive)
REMARK    1  A    between atoms: C1_2  and  C2_3 
ROOT
ATOM      1  C2  UNL d   1       3.753   4.975   4.878  0.00  0.00    -0.073 A 
ATOM      2  C3  UNL d   1       4.601   4.927   5.990  0.00  0.00    -0.002 A 
ATOM      3  C4  UNL d   1       5.715   4.087   5.992  0.00  0.00     0.004 A 
ATOM      4  C5  UNL d   1       5.997   3.292   4.882  0.00  0.00    -0.004 A 
ATOM      5  C6  UNL d   1       5.168   3.334   3.756  0.00  0.00    -0.075 A 
ATOM      6  C7  UNL d   1       5.456   2.483   2.554  0.00  0.00     0.076 C 
ATOM      7  C8  UNL d   1       4.050   4.178   3.762  0.00  0.00     0.001 A 
ENDROOT
BRANCH   1   8
ATOM      8  C1  UNL d   1       2.553   5.885   4.868  0.00  0.00     0.053 C 
ATOM      9  C   UNL d   1       1.553   5.522   5.954  0.00  0.00     0.018 C 
ENDBRANCH   1   8
TORSDOF 1
ENDMDL
