MODEL 1
REMARK minimizedAffinity 8.822299
REMARK minimizedRMSD -1
REMARK  1 active torsions:
REMARK  status: ('A' for Active; 'I' for Inactive)
REMARK    1  A    between atoms: C1_2  and  C2_3 
ROOT
ATOM      1  C2  UNL d   1       5.366   0.613  -2.922  0.00  0.00    -0.073 A 
ATOM      2  C3  UNL d   1       4.206   0.172  -2.275  0.00  0.00    -0.002 A 
ATOM      3  C4  UNL d   1       3.626  -1.048  -2.624  0.00  0.00     0.004 A 
ATOM      4  C5  UNL d   1       4.202  -1.842  -3.616  0.00  0.00    -0.004 A 
ATOM      5  C6  UNL d   1       5.368  -1.423  -4.265  0.00  0.00    -0.075 A 
ATOM      6  C7  UNL d   1       6.000  -2.264  -5.336  0.00  0.00     0.076 C 
ATOM      7  C8  UNL d   1       5.943  -0.195  -3.911  0.00  0.00     0.001 A 
ENDROOT
BRANCH   1   8
ATOM      8  C1  UNL d   1       6.000   1.927  -2.544  0.00  0.00     0.053 C 
ATOM      9  C   UNL d   1       5.183   2.676  -1.503  0.00  0.00     0.018 C 
ENDBRANCH   1   8
TORSDOF 1
ENDMDL
