MODEL 1
REMARK minimizedAffinity 14.4523335
REMARK minimizedRMSD -1
REMARK  1 active torsions:
REMARK  status: ('A' for Active; 'I' for Inactive)
REMARK    1  A    between atoms: C1_2  and  C2_3 
ROOT
ATOM      1  C2  UNL d   1       4.475   2.254  -1.548  0.00  0.00    -0.073 A 
ATOM      2  C3  UNL d   1       5.699   2.184  -2.223  0.00  0.00    -0.002 A 
ATOM      3  C4  UNL d   1       5.993   1.088  -3.036  0.00  0.00     0.004 A 
ATOM      4  C5  UNL d   1       5.067   0.056  -3.187  0.00  0.00    -0.004 A 
ATOM      5  C6  UNL d   1       3.834   0.114  -2.529  0.00  0.00    -0.075 A 
ATOM      6  C7  UNL d   1       2.827  -0.988  -2.679  0.00  0.00     0.076 C 
ATOM      7  C8  UNL d   1       3.546   1.216  -1.713  0.00  0.00     0.001 A 
ENDROOT
BRANCH   1   8
ATOM      8  C1  UNL d   1       4.150   3.438  -0.674  0.00  0.00     0.053 C 
ATOM      9  C   UNL d   1       3.733   3.016   0.726  0.00  0.00     0.018 C 
ENDBRANCH   1   8
TORSDOF 1
ENDMDL
