MODEL 1
REMARK minimizedAffinity 4.2354579
REMARK minimizedRMSD -1
REMARK  1 active torsions:
REMARK  status: ('A' for Active; 'I' for Inactive)
REMARK    1  A    between atoms: C1_2  and  C2_3 
ROOT
ATOM      1  C2  UNL d   1       4.886   3.371   4.201  0.00  0.00    -0.073 A 
ATOM      2  C3  UNL d   1       5.956   3.716   5.035  0.00  0.00    -0.002 A 
ATOM      3  C4  UNL d   1       5.843   4.791   5.917  0.00  0.00     0.004 A 
ATOM      4  C5  UNL d   1       4.661   5.528   5.979  0.00  0.00    -0.004 A 
ATOM      5  C6  UNL d   1       3.577   5.192   5.162  0.00  0.00    -0.075 A 
ATOM      6  C7  UNL d   1       2.298   5.976   5.215  0.00  0.00     0.076 C 
ATOM      7  C8  UNL d   1       3.698   4.112   4.277  0.00  0.00     0.001 A 
ENDROOT
BRANCH   1   8
ATOM      8  C1  UNL d   1       5.000   2.207   3.251  0.00  0.00     0.053 C 
ATOM      9  C   UNL d   1       4.323   2.489   1.919  0.00  0.00     0.018 C 
ENDBRANCH   1   8
TORSDOF 1
ENDMDL
