MODEL 1
REMARK minimizedAffinity -3.46689582
REMARK minimizedRMSD -1
REMARK  1 active torsions:
REMARK  status: ('A' for Active; 'I' for Inactive)
REMARK    1  A    between atoms: C1_2  and  C2_3 
ROOT
ATOM      1  C2  UNL d   1      -1.537  -0.419  -0.569  0.00  0.00    -0.073 A 
ATOM      2  C3  UNL d   1      -0.688   0.559  -1.098  0.00  0.00    -0.002 A 
ATOM      3  C4  UNL d   1       0.602   0.721  -0.591  0.00  0.00     0.004 A 
ATOM      4  C5  UNL d   1       1.059  -0.097   0.443  0.00  0.00    -0.004 A 
ATOM      5  C6  UNL d   1       0.229  -1.088   0.976  0.00  0.00    -0.075 A 
ATOM      6  C7  UNL d   1       0.704  -1.974   2.090  0.00  0.00     0.076 C 
ATOM      7  C8  UNL d   1      -1.066  -1.243   0.464  0.00  0.00     0.001 A 
ENDROOT
BRANCH   1   8
ATOM      8  C1  UNL d   1      -2.929  -0.602  -1.117  0.00  0.00     0.053 C 
ATOM      9  C   UNL d   1      -3.927  -0.964  -0.028  0.00  0.00     0.018 C 
ENDBRANCH   1   8
TORSDOF 1
ENDMDL
