MODEL 1
REMARK minimizedAffinity -3.0710988
REMARK minimizedRMSD -1
REMARK  1 active torsions:
REMARK  status: ('A' for Active; 'I' for Inactive)
REMARK    1  A    between atoms: C1_2  and  C2_3 
ROOT
ATOM      1  C2  UNL d   1      -1.758  -0.149  -0.632  0.00  0.00    -0.073 A 
ATOM      2  C3  UNL d   1      -0.796  -0.167   0.384  0.00  0.00    -0.002 A 
ATOM      3  C4  UNL d   1       0.540   0.116   0.095  0.00  0.00     0.004 A 
ATOM      4  C5  UNL d   1       0.926   0.426  -1.208  0.00  0.00    -0.004 A 
ATOM      5  C6  UNL d   1      -0.023   0.461  -2.235  0.00  0.00    -0.075 A 
ATOM      6  C7  UNL d   1       0.376   0.791  -3.644  0.00  0.00     0.076 C 
ATOM      7  C8  UNL d   1      -1.362   0.173  -1.938  0.00  0.00     0.001 A 
ENDROOT
BRANCH   1   8
ATOM      8  C1  UNL d   1      -3.203  -0.447  -0.324  0.00  0.00     0.053 C 
ATOM      9  C   UNL d   1      -3.601   0.033   1.063  0.00  0.00     0.018 C 
ENDBRANCH   1   8
TORSDOF 1
ENDMDL
