MODEL 1
REMARK minimizedAffinity -0.310749322
REMARK minimizedRMSD -1
REMARK  1 active torsions:
REMARK  status: ('A' for Active; 'I' for Inactive)
REMARK    1  A    between atoms: C1_2  and  C2_3 
ROOT
ATOM      1  C2  UNL d   1      -1.078  -0.526   0.466  0.00  0.00    -0.073 A 
ATOM      2  C3  UNL d   1       0.102  -0.759   1.180  0.00  0.00    -0.002 A 
ATOM      3  C4  UNL d   1       1.343  -0.622   0.556  0.00  0.00     0.004 A 
ATOM      4  C5  UNL d   1       1.416  -0.243  -0.784  0.00  0.00    -0.004 A 
ATOM      5  C6  UNL d   1       0.248   0.006  -1.512  0.00  0.00    -0.075 A 
ATOM      6  C7  UNL d   1       0.310   0.412  -2.955  0.00  0.00     0.076 C 
ATOM      7  C8  UNL d   1      -0.994  -0.137  -0.879  0.00  0.00     0.001 A 
ENDROOT
BRANCH   1   8
ATOM      8  C1  UNL d   1      -2.420  -0.667   1.137  0.00  0.00     0.053 C 
ATOM      9  C   UNL d   1      -3.497  -1.128   0.168  0.00  0.00     0.018 C 
ENDBRANCH   1   8
TORSDOF 1
ENDMDL
