MODEL 1
REMARK minimizedAffinity -3.78360653
REMARK minimizedRMSD -1
REMARK  1 active torsions:
REMARK  status: ('A' for Active; 'I' for Inactive)
REMARK    1  A    between atoms: C1_2  and  C2_3 
ROOT
ATOM      1  C2  UNL d   1       0.030  -0.759   0.996  0.00  0.00    -0.073 A 
ATOM      2  C3  UNL d   1       0.029  -1.890   1.820  0.00  0.00    -0.002 A 
ATOM      3  C4  UNL d   1      -1.098  -2.711   1.889  0.00  0.00     0.004 A 
ATOM      4  C5  UNL d   1      -2.231  -2.413   1.132  0.00  0.00    -0.004 A 
ATOM      5  C6  UNL d   1      -2.245  -1.293   0.294  0.00  0.00    -0.075 A 
ATOM      6  C7  UNL d   1      -3.457  -0.958  -0.525  0.00  0.00     0.076 C 
ATOM      7  C8  UNL d   1      -1.111  -0.473   0.232  0.00  0.00     0.001 A 
ENDROOT
BRANCH   1   8
ATOM      8  C1  UNL d   1       1.246   0.126   0.913  0.00  0.00     0.053 C 
ATOM      9  C   UNL d   1       1.518   0.590  -0.509  0.00  0.00     0.018 C 
ENDBRANCH   1   8
TORSDOF 1
ENDMDL
