MODEL 1
REMARK minimizedAffinity -2.58260179
REMARK minimizedRMSD -1
REMARK  0 active torsions:
REMARK  status: ('A' for Active; 'I' for Inactive)
ROOT
ATOM      1  C1  DEN d   1       1.126   0.354   0.565  0.00  0.00     0.130 A 
ATOM      2  C2  DEN d   1       0.903  -0.380  -0.678  0.00  0.00    -0.031 A 
ATOM      3  C3  DEN d   1      -0.520  -0.771  -0.728  0.00  0.00     0.027 A 
ATOM      4  C4  DEN d   1      -2.391  -0.309   0.987  0.00  0.00     0.027 A 
ATOM      5  C5  DEN d   1      -2.681   0.268   2.204  0.00  0.00    -0.003 A 
ATOM      6  C6  DEN d   1      -1.723   0.878   2.969  0.00  0.00     0.001 A 
ATOM      7  C7  DEN d   1      -0.438   0.967   2.505  0.00  0.00     0.017 A 
ATOM      8  C8  DEN d   1      -0.136   0.381   1.282  0.00  0.00    -0.094 A 
ATOM      9  C9  DEN d   1      -1.121  -0.221   0.517  0.00  0.00    -0.072 A 
ENDROOT
TORSDOF 0
ENDMDL
