MODEL 1
REMARK minimizedAffinity -3.46143246
REMARK minimizedRMSD -1
REMARK  0 active torsions:
REMARK  status: ('A' for Active; 'I' for Inactive)
ROOT
ATOM      1  C1  DEN d   1      -0.650  -0.465  -1.904  0.00  0.00     0.130 A 
ATOM      2  C2  DEN d   1       0.693  -0.806  -2.364  0.00  0.00    -0.031 A 
ATOM      3  C3  DEN d   1       1.635  -0.545  -1.257  0.00  0.00     0.027 A 
ATOM      4  C4  DEN d   1       1.145   0.344   1.114  0.00  0.00     0.027 A 
ATOM      5  C5  DEN d   1       0.156   0.786   1.965  0.00  0.00    -0.003 A 
ATOM      6  C6  DEN d   1      -1.155   0.873   1.578  0.00  0.00     0.001 A 
ATOM      7  C7  DEN d   1      -1.520   0.470   0.321  0.00  0.00     0.017 A 
ATOM      8  C8  DEN d   1      -0.528   0.031  -0.545  0.00  0.00    -0.094 A 
ATOM      9  C9  DEN d   1       0.790  -0.061  -0.131  0.00  0.00    -0.072 A 
ENDROOT
TORSDOF 0
ENDMDL
