MODEL 1
REMARK minimizedAffinity -3.10027385
REMARK minimizedRMSD -1
REMARK  0 active torsions:
REMARK  status: ('A' for Active; 'I' for Inactive)
ROOT
ATOM      1  C1  DEN d   1      -0.739  -0.471  -0.562  0.00  0.00     0.130 A 
ATOM      2  C2  DEN d   1      -2.190  -0.365  -0.439  0.00  0.00    -0.031 A 
ATOM      3  C3  DEN d   1      -2.490   0.394   0.791  0.00  0.00     0.027 A 
ATOM      4  C4  DEN d   1      -0.858   1.416   2.506  0.00  0.00     0.027 A 
ATOM      5  C5  DEN d   1       0.470   1.576   2.835  0.00  0.00    -0.003 A 
ATOM      6  C6  DEN d   1       1.479   1.041   2.079  0.00  0.00     0.001 A 
ATOM      7  C7  DEN d   1       1.177   0.357   0.931  0.00  0.00     0.017 A 
ATOM      8  C8  DEN d   1      -0.160   0.185   0.597  0.00  0.00    -0.094 A 
ATOM      9  C9  DEN d   1      -1.165   0.745   1.367  0.00  0.00    -0.072 A 
ENDROOT
TORSDOF 0
ENDMDL
