MODEL 1
REMARK minimizedAffinity 0.652331173
REMARK minimizedRMSD -1
REMARK  0 active torsions:
REMARK  status: ('A' for Active; 'I' for Inactive)
ROOT
ATOM      1  C1  DEN d   1       0.013  -1.295  -0.596  0.00  0.00     0.130 A 
ATOM      2  C2  DEN d   1       0.532  -0.476   0.496  0.00  0.00    -0.031 A 
ATOM      3  C3  DEN d   1       1.211   0.695  -0.095  0.00  0.00     0.027 A 
ATOM      4  C4  DEN d   1       1.503   1.318  -2.580  0.00  0.00     0.027 A 
ATOM      5  C5  DEN d   1       1.244   0.923  -3.874  0.00  0.00    -0.003 A 
ATOM      6  C6  DEN d   1       0.592  -0.246  -4.165  0.00  0.00     0.001 A 
ATOM      7  C7  DEN d   1       0.136  -1.040  -3.146  0.00  0.00     0.017 A 
ATOM      8  C8  DEN d   1       0.400  -0.652  -1.838  0.00  0.00    -0.094 A 
ATOM      9  C9  DEN d   1       1.050   0.539  -1.565  0.00  0.00    -0.072 A 
ENDROOT
TORSDOF 0
ENDMDL
