MODEL 1
REMARK minimizedAffinity -5.4053731
REMARK minimizedRMSD -1
REMARK  0 active torsions:
REMARK  status: ('A' for Active; 'I' for Inactive)
ROOT
ATOM      1  C1  DEN d   1       1.147  -0.379  -0.360  0.00  0.00     0.130 A 
ATOM      2  C2  DEN d   1       0.190  -0.712  -1.412  0.00  0.00    -0.031 A 
ATOM      3  C3  DEN d   1      -1.169  -0.478  -0.884  0.00  0.00     0.027 A 
ATOM      4  C4  DEN d   1      -1.881   0.369   1.446  0.00  0.00     0.027 A 
ATOM      5  C5  DEN d   1      -1.425   0.773   2.682  0.00  0.00    -0.003 A 
ATOM      6  C6  DEN d   1      -0.092   0.789   2.998  0.00  0.00     0.001 A 
ATOM      7  C7  DEN d   1       0.834   0.436   2.053  0.00  0.00     0.017 A 
ATOM      8  C8  DEN d   1       0.382   0.020   0.808  0.00  0.00    -0.094 A 
ATOM      9  C9  DEN d   1      -0.969   0.023   0.503  0.00  0.00    -0.072 A 
ENDROOT
TORSDOF 0
ENDMDL
