MODEL 1
REMARK minimizedAffinity -1.95173681
REMARK minimizedRMSD -1
REMARK  0 active torsions:
REMARK  status: ('A' for Active; 'I' for Inactive)
ROOT
ATOM      1  C1  DEN d   1       1.079  -0.189   0.189  0.00  0.00     0.130 A 
ATOM      2  C2  DEN d   1       0.831  -0.864  -1.082  0.00  0.00    -0.031 A 
ATOM      3  C3  DEN d   1      -0.628  -0.894  -1.307  0.00  0.00     0.027 A 
ATOM      4  C4  DEN d   1      -2.518   0.040   0.179  0.00  0.00     0.027 A 
ATOM      5  C5  DEN d   1      -2.800   0.688   1.361  0.00  0.00    -0.003 A 
ATOM      6  C6  DEN d   1      -1.820   1.056   2.244  0.00  0.00     0.001 A 
ATOM      7  C7  DEN d   1      -0.506   0.818   1.937  0.00  0.00     0.017 A 
ATOM      8  C8  DEN d   1      -0.214   0.159   0.751  0.00  0.00    -0.094 A 
ATOM      9  C9  DEN d   1      -1.218  -0.194  -0.135  0.00  0.00    -0.072 A 
ENDROOT
TORSDOF 0
ENDMDL
