MODEL 1
REMARK minimizedAffinity -3.7575562
REMARK minimizedRMSD -1
REMARK  1 active torsions:
REMARK  status: ('A' for Active; 'I' for Inactive)
REMARK    1  A    between atoms: N_2  and  C1_3 
ROOT
ATOM      1  C1  UNL d   1      -1.387   2.132  -3.780  0.00  0.00     0.143 A 
ATOM      2  C2  UNL d   1      -1.080   0.831  -3.368  0.00  0.00    -0.057 A 
ATOM      3  C3  UNL d   1      -2.086  -0.071  -3.003  0.00  0.00     0.033 A 
ATOM      4  C4  UNL d   1      -3.420   0.323  -3.016  0.00  0.00    -0.042 A 
ATOM      5  C5  UNL d   1      -3.747   1.619  -3.398  0.00  0.00     0.033 A 
ATOM      6  C6  UNL d   1      -2.738   2.513  -3.768  0.00  0.00    -0.057 A 
ENDROOT
BRANCH   1   7
ATOM      7  N   UNL d   1      -0.426   3.106  -4.061  0.00  0.00    -0.732 N 
ATOM      8  C   UNL d   1       0.275   3.781  -2.990  0.00  0.00     0.284 C 
ATOM      9  H3  UNL d   1       0.165   2.852  -4.850  0.00  0.00     0.395 HD
ENDBRANCH   1   7
TORSDOF 1
ENDMDL
