MODEL 1
REMARK minimizedAffinity -3.05530334
REMARK minimizedRMSD -1
REMARK  1 active torsions:
REMARK  status: ('A' for Active; 'I' for Inactive)
REMARK    1  A    between atoms: N_2  and  C1_3 
ROOT
ATOM      1  C1  UNL d   1      -1.922   1.461  -1.866  0.00  0.00     0.143 A 
ATOM      2  C2  UNL d   1      -1.564   2.463  -2.774  0.00  0.00    -0.057 A 
ATOM      3  C3  UNL d   1      -1.937   2.389  -4.122  0.00  0.00     0.033 A 
ATOM      4  C4  UNL d   1      -2.652   1.293  -4.592  0.00  0.00    -0.042 A 
ATOM      5  C5  UNL d   1      -2.997   0.272  -3.713  0.00  0.00     0.033 A 
ATOM      6  C6  UNL d   1      -2.628   0.356  -2.367  0.00  0.00    -0.057 A 
ENDROOT
BRANCH   1   7
ATOM      7  N   UNL d   1      -1.497   1.429  -0.536  0.00  0.00    -0.732 N 
ATOM      8  C   UNL d   1      -0.796   0.276  -0.013  0.00  0.00     0.284 C 
ATOM      9  H3  UNL d   1      -1.117   2.321  -0.228  0.00  0.00     0.395 HD
ENDBRANCH   1   7
TORSDOF 1
ENDMDL
