MODEL 1
REMARK minimizedAffinity -0.88465488
REMARK minimizedRMSD -1
REMARK  1 active torsions:
REMARK  status: ('A' for Active; 'I' for Inactive)
REMARK    1  A    between atoms: N_2  and  C1_3 
ROOT
ATOM      1  C1  UNL d   1      -1.508   0.116  -1.828  0.00  0.00     0.143 A 
ATOM      2  C2  UNL d   1      -1.702   0.005  -0.447  0.00  0.00    -0.057 A 
ATOM      3  C3  UNL d   1      -0.643  -0.319   0.411  0.00  0.00     0.033 A 
ATOM      4  C4  UNL d   1       0.625  -0.568  -0.103  0.00  0.00    -0.042 A 
ATOM      5  C5  UNL d   1       0.835  -0.488  -1.475  0.00  0.00     0.033 A 
ATOM      6  C6  UNL d   1      -0.224  -0.157  -2.326  0.00  0.00    -0.057 A 
ENDROOT
BRANCH   1   7
ATOM      7  N   UNL d   1      -2.541   0.338  -2.743  0.00  0.00    -0.732 N 
ATOM      8  C   UNL d   1      -3.447   1.454  -2.575  0.00  0.00     0.284 C 
ATOM      9  H3  UNL d   1      -2.248   0.181  -3.704  0.00  0.00     0.395 HD
ENDBRANCH   1   7
TORSDOF 1
ENDMDL
