MODEL 1
REMARK minimizedAffinity -2.82811975
REMARK minimizedRMSD -1
REMARK  1 active torsions:
REMARK  status: ('A' for Active; 'I' for Inactive)
REMARK    1  A    between atoms: N_2  and  C1_3 
ROOT
ATOM      1  C1  UNL d   1       0.440   2.301   0.102  0.00  0.00     0.143 A 
ATOM      2  C2  UNL d   1       0.163   3.581   0.593  0.00  0.00    -0.057 A 
ATOM      3  C3  UNL d   1       1.182   4.519   0.792  0.00  0.00     0.033 A 
ATOM      4  C4  UNL d   1       2.506   4.183   0.530  0.00  0.00    -0.042 A 
ATOM      5  C5  UNL d   1       2.809   2.908   0.064  0.00  0.00     0.033 A 
ATOM      6  C6  UNL d   1       1.785   1.977  -0.139  0.00  0.00    -0.057 A 
ENDROOT
BRANCH   1   7
ATOM      7  N   UNL d   1      -0.517   1.291  -0.024  0.00  0.00    -0.732 N 
ATOM      8  C   UNL d   1      -0.116  -0.083  -0.237  0.00  0.00     0.284 C 
ATOM      9  H3  UNL d   1      -1.288   1.403   0.631  0.00  0.00     0.395 HD
ENDBRANCH   1   7
TORSDOF 1
ENDMDL
