MODEL 1
REMARK minimizedAffinity -4.11290455
REMARK minimizedRMSD -1
REMARK  1 active torsions:
REMARK  status: ('A' for Active; 'I' for Inactive)
REMARK    1  A    between atoms: N_2  and  C1_3 
ROOT
ATOM      1  C1  UNL d   1      -1.080   1.716  -1.560  0.00  0.00     0.143 A 
ATOM      2  C2  UNL d   1      -0.342   2.885  -1.776  0.00  0.00    -0.057 A 
ATOM      3  C3  UNL d   1      -0.364   3.539  -3.014  0.00  0.00     0.033 A 
ATOM      4  C4  UNL d   1      -1.104   3.018  -4.070  0.00  0.00    -0.042 A 
ATOM      5  C5  UNL d   1      -1.825   1.843  -3.885  0.00  0.00     0.033 A 
ATOM      6  C6  UNL d   1      -1.804   1.198  -2.645  0.00  0.00    -0.057 A 
ENDROOT
BRANCH   1   7
ATOM      7  N   UNL d   1      -1.021   0.966  -0.383  0.00  0.00    -0.732 N 
ATOM      8  C   UNL d   1       0.048   0.015  -0.168  0.00  0.00     0.284 C 
ATOM      9  H3  UNL d   1      -1.261   1.514   0.440  0.00  0.00     0.395 HD
ENDBRANCH   1   7
TORSDOF 1
ENDMDL
