MODEL 1
REMARK minimizedAffinity -3.50282264
REMARK minimizedRMSD -1
REMARK  1 active torsions:
REMARK  status: ('A' for Active; 'I' for Inactive)
REMARK    1  A    between atoms: N_2  and  C1_3 
ROOT
ATOM      1  C1  UNL d   1       0.791  -0.757   0.256  0.00  0.00     0.143 A 
ATOM      2  C2  UNL d   1      -0.381  -0.410   0.938  0.00  0.00    -0.057 A 
ATOM      3  C3  UNL d   1      -1.185   0.652   0.505  0.00  0.00     0.033 A 
ATOM      4  C4  UNL d   1      -0.815   1.405  -0.604  0.00  0.00    -0.042 A 
ATOM      5  C5  UNL d   1       0.358   1.094  -1.282  0.00  0.00     0.033 A 
ATOM      6  C6  UNL d   1       1.154   0.029  -0.849  0.00  0.00    -0.057 A 
ENDROOT
BRANCH   1   7
ATOM      7  N   UNL d   1       1.684  -1.738   0.694  0.00  0.00    -0.732 N 
ATOM      8  C   UNL d   1       2.905  -1.371   1.378  0.00  0.00     0.284 C 
ATOM      9  H3  UNL d   1       1.209  -2.544   1.094  0.00  0.00     0.395 HD
ENDBRANCH   1   7
TORSDOF 1
ENDMDL
