MODEL 1
REMARK minimizedAffinity -4.02535868
REMARK minimizedRMSD -1
REMARK  1 active torsions:
REMARK  status: ('A' for Active; 'I' for Inactive)
REMARK    1  A    between atoms: N_2  and  C1_3 
ROOT
ATOM      1  C1  UNL d   1       2.089   1.856  -0.078  0.00  0.00     0.143 A 
ATOM      2  C2  UNL d   1       3.362   2.291  -0.461  0.00  0.00    -0.057 A 
ATOM      3  C3  UNL d   1       3.716   3.645  -0.397  0.00  0.00     0.033 A 
ATOM      4  C4  UNL d   1       2.790   4.593   0.023  0.00  0.00    -0.042 A 
ATOM      5  C5  UNL d   1       1.510   4.186   0.385  0.00  0.00     0.033 A 
ATOM      6  C6  UNL d   1       1.165   2.833   0.326  0.00  0.00    -0.057 A 
ENDROOT
BRANCH   1   7
ATOM      7  N   UNL d   1       1.645   0.538  -0.211  0.00  0.00    -0.732 N 
ATOM      8  C   UNL d   1       0.238   0.219  -0.097  0.00  0.00     0.284 C 
ATOM      9  H3  UNL d   1       2.125   0.040  -0.958  0.00  0.00     0.395 HD
ENDBRANCH   1   7
TORSDOF 1
ENDMDL
