MODEL 1
REMARK minimizedAffinity -4.12806749
REMARK minimizedRMSD -1
REMARK  1 active torsions:
REMARK  status: ('A' for Active; 'I' for Inactive)
REMARK    1  A    between atoms: N_2  and  C1_3 
ROOT
ATOM      1  C1  UNL d   1       0.592  -0.815  -0.157  0.00  0.00     0.143 A 
ATOM      2  C2  UNL d   1       0.124  -1.587   0.912  0.00  0.00    -0.057 A 
ATOM      3  C3  UNL d   1       0.859  -2.674   1.400  0.00  0.00     0.033 A 
ATOM      4  C4  UNL d   1       2.065  -3.029   0.805  0.00  0.00    -0.042 A 
ATOM      5  C5  UNL d   1       2.538  -2.292  -0.275  0.00  0.00     0.033 A 
ATOM      6  C6  UNL d   1       1.803  -1.203  -0.753  0.00  0.00    -0.057 A 
ENDROOT
BRANCH   1   7
ATOM      7  N   UNL d   1      -0.139   0.217  -0.750  0.00  0.00    -0.732 N 
ATOM      8  C   UNL d   1      -0.496   1.397   0.008  0.00  0.00     0.284 C 
ATOM      9  H3  UNL d   1       0.164   0.410  -1.702  0.00  0.00     0.395 HD
ENDBRANCH   1   7
TORSDOF 1
ENDMDL
