MODEL 1
REMARK minimizedAffinity -3.52797651
REMARK minimizedRMSD -1
REMARK  1 active torsions:
REMARK  status: ('A' for Active; 'I' for Inactive)
REMARK    1  A    between atoms: N_2  and  C1_3 
ROOT
ATOM      1  C1  UNL d   1       1.805  -0.031  -0.360  0.00  0.00     0.143 A 
ATOM      2  C2  UNL d   1       2.344  -1.201   0.187  0.00  0.00    -0.057 A 
ATOM      3  C3  UNL d   1       1.519  -2.224   0.668  0.00  0.00     0.033 A 
ATOM      4  C4  UNL d   1       0.136  -2.083   0.637  0.00  0.00    -0.042 A 
ATOM      5  C5  UNL d   1      -0.422  -0.919   0.121  0.00  0.00     0.033 A 
ATOM      6  C6  UNL d   1       0.407   0.097  -0.364  0.00  0.00    -0.057 A 
ENDROOT
BRANCH   1   7
ATOM      7  N   UNL d   1       2.573   1.064  -0.765  0.00  0.00    -0.732 N 
ATOM      8  C   UNL d   1       2.480   2.327  -0.066  0.00  0.00     0.284 C 
ATOM      9  H3  UNL d   1       3.521   0.800  -1.022  0.00  0.00     0.395 HD
ENDBRANCH   1   7
TORSDOF 1
ENDMDL
