MODEL 1
REMARK minimizedAffinity -2.32852364
REMARK minimizedRMSD -1
REMARK  1 active torsions:
REMARK  status: ('A' for Active; 'I' for Inactive)
REMARK    1  A    between atoms: N_2  and  C1_3 
ROOT
ATOM      1  C1  UNL d   1       0.158  -1.476   0.855  0.00  0.00     0.143 A 
ATOM      2  C2  UNL d   1      -0.829  -1.431   1.845  0.00  0.00    -0.057 A 
ATOM      3  C3  UNL d   1      -1.677  -0.325   1.976  0.00  0.00     0.033 A 
ATOM      4  C4  UNL d   1      -1.532   0.773   1.134  0.00  0.00    -0.042 A 
ATOM      5  C5  UNL d   1      -0.541   0.761   0.159  0.00  0.00     0.033 A 
ATOM      6  C6  UNL d   1       0.298  -0.350   0.029  0.00  0.00    -0.057 A 
ENDROOT
BRANCH   1   7
ATOM      7  N   UNL d   1       1.096  -2.505   0.737  0.00  0.00    -0.732 N 
ATOM      8  C   UNL d   1       2.335  -2.462   1.483  0.00  0.00     0.284 C 
ATOM      9  H3  UNL d   1       0.661  -3.424   0.705  0.00  0.00     0.395 HD
ENDBRANCH   1   7
TORSDOF 1
ENDMDL
