MODEL 1
REMARK minimizedAffinity -3.29232097
REMARK minimizedRMSD -1
REMARK  1 active torsions:
REMARK  status: ('A' for Active; 'I' for Inactive)
REMARK    1  A    between atoms: N_2  and  C1_3 
ROOT
ATOM      1  C1  UNL d   1       0.708   1.106  -0.359  0.00  0.00     0.143 A 
ATOM      2  C2  UNL d   1       0.393   2.411   0.033  0.00  0.00    -0.057 A 
ATOM      3  C3  UNL d   1       1.362   3.421   0.038  0.00  0.00     0.033 A 
ATOM      4  C4  UNL d   1       2.675   3.136  -0.322  0.00  0.00    -0.042 A 
ATOM      5  C5  UNL d   1       3.016   1.840  -0.691  0.00  0.00     0.033 A 
ATOM      6  C6  UNL d   1       2.042   0.836  -0.701  0.00  0.00    -0.057 A 
ENDROOT
BRANCH   1   7
ATOM      7  N   UNL d   1      -0.188   0.036  -0.291  0.00  0.00    -0.732 N 
ATOM      8  C   UNL d   1      -0.115  -0.919   0.794  0.00  0.00     0.284 C 
ATOM      9  H3  UNL d   1      -1.136   0.306  -0.544  0.00  0.00     0.395 HD
ENDBRANCH   1   7
TORSDOF 1
ENDMDL
