MODEL 1
REMARK minimizedAffinity 1.2888968
REMARK minimizedRMSD -1
REMARK  0 active torsions:
REMARK  status: ('A' for Active; 'I' for Inactive)
ROOT
ATOM      1  C   UNL d   1       3.478  -1.618  -4.152  0.00  0.00     0.172 C 
ATOM      2  N   UNL d   1       2.968  -0.280  -4.338  0.00  0.00    -0.070 N 
ATOM      3  C1  UNL d   1       3.722   0.833  -4.597  0.00  0.00    -0.004 A 
ATOM      4  C2  UNL d   1       2.866   1.907  -4.708  0.00  0.00    -0.047 A 
ATOM      5  C3  UNL d   1       1.551   1.423  -4.508  0.00  0.00    -0.047 A 
ATOM      6  C4  UNL d   1       1.643   0.066  -4.282  0.00  0.00    -0.004 A 
ENDROOT
TORSDOF 0
ENDMDL
