MODEL 1
REMARK minimizedAffinity -2.77055097
REMARK minimizedRMSD -1
REMARK  0 active torsions:
REMARK  status: ('A' for Active; 'I' for Inactive)
ROOT
ATOM      1  C   UNL d   1       1.550   0.092  -1.417  0.00  0.00     0.172 C 
ATOM      2  N   UNL d   1       1.721   0.676  -2.727  0.00  0.00    -0.070 N 
ATOM      3  C1  UNL d   1       0.780   0.696  -3.721  0.00  0.00    -0.004 A 
ATOM      4  C2  UNL d   1       1.328   1.341  -4.809  0.00  0.00    -0.047 A 
ATOM      5  C3  UNL d   1       2.645   1.720  -4.456  0.00  0.00    -0.047 A 
ATOM      6  C4  UNL d   1       2.862   1.296  -3.162  0.00  0.00    -0.004 A 
ENDROOT
TORSDOF 0
ENDMDL
