MODEL 1
REMARK minimizedAffinity 2.94885135
REMARK minimizedRMSD -1
REMARK  0 active torsions:
REMARK  status: ('A' for Active; 'I' for Inactive)
ROOT
ATOM      1  C   UNL d   1      -0.411  -2.859  -1.497  0.00  0.00     0.172 C 
ATOM      2  N   UNL d   1      -1.005  -3.952  -2.230  0.00  0.00    -0.070 N 
ATOM      3  C1  UNL d   1      -0.739  -5.281  -2.035  0.00  0.00    -0.004 A 
ATOM      4  C2  UNL d   1      -1.504  -5.999  -2.929  0.00  0.00    -0.047 A 
ATOM      5  C3  UNL d   1      -2.255  -5.070  -3.686  0.00  0.00    -0.047 A 
ATOM      6  C4  UNL d   1      -1.927  -3.810  -3.233  0.00  0.00    -0.004 A 
ENDROOT
TORSDOF 0
ENDMDL
