MODEL 1
REMARK minimizedAffinity -0.00338001689
REMARK minimizedRMSD -1
REMARK  0 active torsions:
REMARK  status: ('A' for Active; 'I' for Inactive)
ROOT
ATOM      1  C   UNL d   1       0.711  -0.838   0.362  0.00  0.00     0.172 C 
ATOM      2  N   UNL d   1       1.356   0.170   1.171  0.00  0.00    -0.070 N 
ATOM      3  C1  UNL d   1       1.018   0.499   2.456  0.00  0.00    -0.004 A 
ATOM      4  C2  UNL d   1       1.869   1.501   2.873  0.00  0.00    -0.047 A 
ATOM      5  C3  UNL d   1       2.747   1.784   1.800  0.00  0.00    -0.047 A 
ATOM      6  C4  UNL d   1       2.408   0.945   0.759  0.00  0.00    -0.004 A 
ENDROOT
TORSDOF 0
ENDMDL
