MODEL 1
REMARK minimizedAffinity 0.206613496
REMARK minimizedRMSD -1
REMARK  0 active torsions:
REMARK  status: ('A' for Active; 'I' for Inactive)
ROOT
ATOM      1  C   UNL d   1      -0.911  -0.607  -0.654  0.00  0.00     0.172 C 
ATOM      2  N   UNL d   1       0.369  -0.285  -0.067  0.00  0.00    -0.070 N 
ATOM      3  C1  UNL d   1       0.580   0.608   0.949  0.00  0.00    -0.004 A 
ATOM      4  C2  UNL d   1       1.931   0.628   1.220  0.00  0.00    -0.047 A 
ATOM      5  C3  UNL d   1       2.554  -0.284   0.336  0.00  0.00    -0.047 A 
ATOM      6  C4  UNL d   1       1.564  -0.836  -0.450  0.00  0.00    -0.004 A 
ENDROOT
TORSDOF 0
ENDMDL
