MODEL 1
REMARK minimizedAffinity -0.259644151
REMARK minimizedRMSD -1
REMARK  0 active torsions:
REMARK  status: ('A' for Active; 'I' for Inactive)
ROOT
ATOM      1  C   UNL d   1      -1.245  -1.981  -1.482  0.00  0.00     0.172 C 
ATOM      2  N   UNL d   1      -1.119  -3.273  -2.115  0.00  0.00    -0.070 N 
ATOM      3  C1  UNL d   1      -1.917  -4.360  -1.878  0.00  0.00    -0.004 A 
ATOM      4  C2  UNL d   1      -1.473  -5.392  -2.675  0.00  0.00    -0.047 A 
ATOM      5  C3  UNL d   1      -0.369  -4.909  -3.417  0.00  0.00    -0.047 A 
ATOM      6  C4  UNL d   1      -0.171  -3.595  -3.051  0.00  0.00    -0.004 A 
ENDROOT
TORSDOF 0
ENDMDL
