MODEL 1
REMARK minimizedAffinity -1.31268823
REMARK minimizedRMSD -1
REMARK  0 active torsions:
REMARK  status: ('A' for Active; 'I' for Inactive)
ROOT
ATOM      1  C   UNL d   1       2.219   1.506   2.139  0.00  0.00     0.172 C 
ATOM      2  N   UNL d   1       1.917   0.411   1.247  0.00  0.00    -0.070 N 
ATOM      3  C1  UNL d   1       2.836  -0.325   0.548  0.00  0.00    -0.004 A 
ATOM      4  C2  UNL d   1       2.150  -1.271  -0.183  0.00  0.00    -0.047 A 
ATOM      5  C3  UNL d   1       0.771  -1.096   0.085  0.00  0.00    -0.047 A 
ATOM      6  C4  UNL d   1       0.656  -0.048   0.974  0.00  0.00    -0.004 A 
ENDROOT
TORSDOF 0
ENDMDL
