MODEL 1
REMARK minimizedAffinity -0.654648006
REMARK minimizedRMSD -1
REMARK  0 active torsions:
REMARK  status: ('A' for Active; 'I' for Inactive)
ROOT
ATOM      1  C   UNL d   1      -1.029  -0.821  -0.531  0.00  0.00     0.172 C 
ATOM      2  N   UNL d   1       0.221  -0.427   0.075  0.00  0.00    -0.070 N 
ATOM      3  C1  UNL d   1       1.383  -1.150   0.051  0.00  0.00    -0.004 A 
ATOM      4  C2  UNL d   1       2.340  -0.434   0.738  0.00  0.00    -0.047 A 
ATOM      5  C3  UNL d   1       1.731   0.760   1.192  0.00  0.00    -0.047 A 
ATOM      6  C4  UNL d   1       0.419   0.739   0.768  0.00  0.00    -0.004 A 
ENDROOT
TORSDOF 0
ENDMDL
