MODEL 1
REMARK minimizedAffinity 6.0197525
REMARK minimizedRMSD -1
REMARK  0 active torsions:
REMARK  status: ('A' for Active; 'I' for Inactive)
ROOT
ATOM      1  C   UNL d   1      -1.086  -6.000  -2.821  0.00  0.00     0.172 C 
ATOM      2  N   UNL d   1      -0.787  -5.383  -4.092  0.00  0.00    -0.070 N 
ATOM      3  C1  UNL d   1      -1.536  -4.413  -4.704  0.00  0.00    -0.004 A 
ATOM      4  C2  UNL d   1      -0.918  -4.090  -5.893  0.00  0.00    -0.047 A 
ATOM      5  C3  UNL d   1       0.241  -4.894  -6.000  0.00  0.00    -0.047 A 
ATOM      6  C4  UNL d   1       0.298  -5.685  -4.872  0.00  0.00    -0.004 A 
ENDROOT
TORSDOF 0
ENDMDL
