MODEL 1
REMARK minimizedAffinity -4.79876471
REMARK minimizedRMSD -1
REMARK  0 active torsions:
REMARK  status: ('A' for Active; 'I' for Inactive)
ROOT
ATOM      1  C2' OXE d   1      -0.602   1.447   2.253  0.00  0.00     0.078 C 
ATOM      2  C1' OXE d   1      -2.189   0.423   0.176  0.00  0.00     0.078 C 
ATOM      3  C1  OXE d   1      -0.767  -0.069   0.282  0.00  0.00    -0.078 A 
ATOM      4  C2  OXE d   1       0.017   0.473   1.273  0.00  0.00    -0.078 A 
ATOM      5  C3  OXE d   1       1.319   0.014   1.450  0.00  0.00     0.003 A 
ATOM      6  C4  OXE d   1       1.886  -0.879   0.533  0.00  0.00    -0.002 A 
ATOM      7  C5  OXE d   1       1.118  -1.413  -0.507  0.00  0.00    -0.002 A 
ATOM      8  C6  OXE d   1      -0.220  -1.051  -0.621  0.00  0.00     0.003 A 
ENDROOT
TORSDOF 0
ENDMDL
