MODEL 1
REMARK minimizedAffinity -3.66492176
REMARK minimizedRMSD -1
REMARK  0 active torsions:
REMARK  status: ('A' for Active; 'I' for Inactive)
ROOT
ATOM      1  C2' OXE d   1      -0.067  -1.340  -3.235  0.00  0.00     0.078 C 
ATOM      2  C1' OXE d   1       2.049   0.437  -2.742  0.00  0.00     0.078 C 
ATOM      3  C1  OXE d   1       1.056   0.200  -1.632  0.00  0.00    -0.078 A 
ATOM      4  C2  OXE d   1      -0.002  -0.635  -1.898  0.00  0.00    -0.078 A 
ATOM      5  C3  OXE d   1      -0.917  -0.930  -0.891  0.00  0.00     0.003 A 
ATOM      6  C4  OXE d   1      -0.856  -0.266   0.340  0.00  0.00    -0.002 A 
ATOM      7  C5  OXE d   1       0.192   0.619   0.618  0.00  0.00    -0.002 A 
ATOM      8  C6  OXE d   1       1.177   0.830  -0.340  0.00  0.00     0.003 A 
ENDROOT
TORSDOF 0
ENDMDL
