MODEL 1
REMARK minimizedAffinity 0.816947758
REMARK minimizedRMSD -1
REMARK  0 active torsions:
REMARK  status: ('A' for Active; 'I' for Inactive)
ROOT
ATOM      1  C2' OXE d   1       1.875   1.125  -6.000  0.00  0.00     0.078 C 
ATOM      2  C1' OXE d   1      -0.600   0.005  -5.291  0.00  0.00     0.078 C 
ATOM      3  C1  OXE d   1       0.285   0.515  -4.182  0.00  0.00    -0.078 A 
ATOM      4  C2  OXE d   1       1.514   1.019  -4.534  0.00  0.00    -0.078 A 
ATOM      5  C3  OXE d   1       2.347   1.552  -3.554  0.00  0.00     0.003 A 
ATOM      6  C4  OXE d   1       2.010   1.441  -2.200  0.00  0.00    -0.002 A 
ATOM      7  C5  OXE d   1       0.780   0.895  -1.817  0.00  0.00    -0.002 A 
ATOM      8  C6  OXE d   1      -0.110   0.467  -2.795  0.00  0.00     0.003 A 
ENDROOT
TORSDOF 0
ENDMDL
