MODEL 1
REMARK minimizedAffinity 1.05629706
REMARK minimizedRMSD -1
REMARK  0 active torsions:
REMARK  status: ('A' for Active; 'I' for Inactive)
ROOT
ATOM      1  C2' OXE d   1       0.020  -1.032  -1.364  0.00  0.00     0.078 C 
ATOM      2  C1' OXE d   1      -0.971   1.575  -1.046  0.00  0.00     0.078 C 
ATOM      3  C1  OXE d   1       0.089   1.103  -0.082  0.00  0.00    -0.078 A 
ATOM      4  C2  OXE d   1       0.535  -0.190  -0.216  0.00  0.00    -0.078 A 
ATOM      5  C3  OXE d   1       1.551  -0.658   0.611  0.00  0.00     0.003 A 
ATOM      6  C4  OXE d   1       2.015   0.123   1.676  0.00  0.00    -0.002 A 
ATOM      7  C5  OXE d   1       1.546   1.429   1.855  0.00  0.00    -0.002 A 
ATOM      8  C6  OXE d   1       0.616   1.948   0.961  0.00  0.00     0.003 A 
ENDROOT
TORSDOF 0
ENDMDL
