MODEL 1
REMARK minimizedAffinity -2.13836646
REMARK minimizedRMSD -1
REMARK  0 active torsions:
REMARK  status: ('A' for Active; 'I' for Inactive)
ROOT
ATOM      1  C2' OXE d   1       1.985   0.371   1.835  0.00  0.00     0.078 C 
ATOM      2  C1' OXE d   1      -0.408   1.562   2.694  0.00  0.00     0.078 C 
ATOM      3  C1  OXE d   1      -0.434   0.780   1.404  0.00  0.00    -0.078 A 
ATOM      4  C2  OXE d   1       0.751   0.241   0.967  0.00  0.00    -0.078 A 
ATOM      5  C3  OXE d   1       0.771  -0.536  -0.188  0.00  0.00     0.003 A 
ATOM      6  C4  OXE d   1      -0.372  -0.643  -0.990  0.00  0.00    -0.002 A 
ATOM      7  C5  OXE d   1      -1.580  -0.068  -0.584  0.00  0.00    -0.002 A 
ATOM      8  C6  OXE d   1      -1.639   0.610   0.629  0.00  0.00     0.003 A 
ENDROOT
TORSDOF 0
ENDMDL
