MODEL 1
REMARK minimizedAffinity -5.88854122
REMARK minimizedRMSD -1
REMARK  0 active torsions:
REMARK  status: ('A' for Active; 'I' for Inactive)
ROOT
ATOM      1  C2' OXE d   1       2.050  -0.917   1.638  0.00  0.00     0.078 C 
ATOM      2  C1' OXE d   1       0.539  -0.635  -0.711  0.00  0.00     0.078 C 
ATOM      3  C1  OXE d   1      -0.024  -0.055   0.562  0.00  0.00    -0.078 A 
ATOM      4  C2  OXE d   1       0.700  -0.238   1.715  0.00  0.00    -0.078 A 
ATOM      5  C3  OXE d   1       0.252   0.324   2.907  0.00  0.00     0.003 A 
ATOM      6  C4  OXE d   1      -1.003   0.941   2.972  0.00  0.00    -0.002 A 
ATOM      7  C5  OXE d   1      -1.775   1.104   1.817  0.00  0.00    -0.002 A 
ATOM      8  C6  OXE d   1      -1.282   0.650   0.598  0.00  0.00     0.003 A 
ENDROOT
TORSDOF 0
ENDMDL
