MODEL 1
REMARK minimizedAffinity -4.39493322
REMARK minimizedRMSD -1
REMARK  0 active torsions:
REMARK  status: ('A' for Active; 'I' for Inactive)
ROOT
ATOM      1  C2' OXE d   1       0.752  -0.603  -0.699  0.00  0.00     0.078 C 
ATOM      2  C1' OXE d   1       2.129  -0.285   1.726  0.00  0.00     0.078 C 
ATOM      3  C1  OXE d   1       0.689   0.158   1.672  0.00  0.00    -0.078 A 
ATOM      4  C2  OXE d   1       0.036   0.042   0.468  0.00  0.00    -0.078 A 
ATOM      5  C3  OXE d   1      -1.309   0.385   0.377  0.00  0.00     0.003 A 
ATOM      6  C4  OXE d   1      -1.961   0.991   1.459  0.00  0.00    -0.002 A 
ATOM      7  C5  OXE d   1      -1.303   1.155   2.682  0.00  0.00    -0.002 A 
ATOM      8  C6  OXE d   1       0.006   0.706   2.818  0.00  0.00     0.003 A 
ENDROOT
TORSDOF 0
ENDMDL
