MODEL 1
REMARK minimizedAffinity -4.33543444
REMARK minimizedRMSD -1
REMARK  0 active torsions:
REMARK  status: ('A' for Active; 'I' for Inactive)
ROOT
ATOM      1  C2' OXE d   1      -0.356  -1.156  -1.645  0.00  0.00     0.078 C 
ATOM      2  C1' OXE d   1      -3.003  -1.066  -0.716  0.00  0.00     0.078 C 
ATOM      3  C1  OXE d   1      -1.913  -0.602   0.218  0.00  0.00    -0.078 A 
ATOM      4  C2  OXE d   1      -0.617  -0.693  -0.228  0.00  0.00    -0.078 A 
ATOM      5  C3  OXE d   1       0.422  -0.227   0.572  0.00  0.00     0.003 A 
ATOM      6  C4  OXE d   1       0.173   0.190   1.885  0.00  0.00    -0.002 A 
ATOM      7  C5  OXE d   1      -1.136   0.254   2.374  0.00  0.00    -0.002 A 
ATOM      8  C6  OXE d   1      -2.192  -0.098   1.540  0.00  0.00     0.003 A 
ENDROOT
TORSDOF 0
ENDMDL
