MODEL 1
REMARK minimizedAffinity -5.87802029
REMARK minimizedRMSD -1
REMARK  0 active torsions:
REMARK  status: ('A' for Active; 'I' for Inactive)
ROOT
ATOM      1  C2' OXE d   1      -2.119   0.384  -0.117  0.00  0.00     0.078 C 
ATOM      2  C1' OXE d   1       0.301  -0.965  -0.572  0.00  0.00     0.078 C 
ATOM      3  C1  OXE d   1       0.159  -0.189   0.714  0.00  0.00    -0.078 A 
ATOM      4  C2  OXE d   1      -1.011   0.506   0.907  0.00  0.00    -0.078 A 
ATOM      5  C3  OXE d   1      -1.216   1.193   2.100  0.00  0.00     0.003 A 
ATOM      6  C4  OXE d   1      -0.182   1.309   3.037  0.00  0.00    -0.002 A 
ATOM      7  C5  OXE d   1       1.032   0.642   2.842  0.00  0.00    -0.002 A 
ATOM      8  C6  OXE d   1       1.202  -0.145   1.708  0.00  0.00     0.003 A 
ENDROOT
TORSDOF 0
ENDMDL
