MODEL 1
REMARK minimizedAffinity -1.05379677
REMARK minimizedRMSD -1
REMARK  0 active torsions:
REMARK  status: ('A' for Active; 'I' for Inactive)
ROOT
ATOM      1  C   UNL d   1       0.371  -1.227  -0.023  0.00  0.00     0.020 A 
ATOM      2  C1  UNL d   1       0.943  -0.711  -1.185  0.00  0.00     0.020 A 
ATOM      3  C2  UNL d   1       0.762   0.634  -1.515  0.00  0.00     0.034 A 
ATOM      4  C3  UNL d   1       0.006   1.467  -0.682  0.00  0.00     0.017 A 
ATOM      5  C4  UNL d   1      -0.569   0.948   0.484  0.00  0.00     0.017 A 
ATOM      6  C5  UNL d   1      -0.384  -0.400   0.809  0.00  0.00     0.034 A 
ATOM      7 Cl   UNL d   1      -1.515   1.914   1.560  0.00  0.00    -0.070 Cl
ATOM      8 Cl1  UNL d   1      -0.177   3.120  -1.151  0.00  0.00    -0.070 Cl
ENDROOT
TORSDOF 0
ENDMDL
