MODEL 1
REMARK minimizedAffinity -5.50978947
REMARK minimizedRMSD -1
REMARK  0 active torsions:
REMARK  status: ('A' for Active; 'I' for Inactive)
ROOT
ATOM      1  C   UNL d   1      -1.890   2.473   1.419  0.00  0.00     0.020 A 
ATOM      2  C1  UNL d   1      -1.369   2.854   0.182  0.00  0.00     0.020 A 
ATOM      3  C2  UNL d   1      -0.634   1.940  -0.576  0.00  0.00     0.034 A 
ATOM      4  C3  UNL d   1      -0.417   0.642  -0.100  0.00  0.00     0.017 A 
ATOM      5  C4  UNL d   1      -0.940   0.261   1.141  0.00  0.00     0.017 A 
ATOM      6  C5  UNL d   1      -1.676   1.180   1.897  0.00  0.00     0.034 A 
ATOM      7 Cl   UNL d   1      -0.715  -1.322   1.795  0.00  0.00    -0.070 Cl
ATOM      8 Cl1  UNL d   1       0.501  -0.435  -1.091  0.00  0.00    -0.070 Cl
ENDROOT
TORSDOF 0
ENDMDL
