MODEL 1
REMARK minimizedAffinity 0.642255306
REMARK minimizedRMSD -1
REMARK  0 active torsions:
REMARK  status: ('A' for Active; 'I' for Inactive)
ROOT
ATOM      1  C   UNL d   1      -0.206  -3.349  -2.750  0.00  0.00     0.020 A 
ATOM      2  C1  UNL d   1       0.963  -3.870  -2.197  0.00  0.00     0.020 A 
ATOM      3  C2  UNL d   1       1.648  -3.155  -1.212  0.00  0.00     0.034 A 
ATOM      4  C3  UNL d   1       1.164  -1.916  -0.777  0.00  0.00     0.017 A 
ATOM      5  C4  UNL d   1      -0.010  -1.394  -1.332  0.00  0.00     0.017 A 
ATOM      6  C5  UNL d   1      -0.692  -2.114  -2.318  0.00  0.00     0.034 A 
ATOM      7 Cl   UNL d   1      -0.669   0.128  -0.847  0.00  0.00    -0.070 Cl
ATOM      8 Cl1  UNL d   1       2.062  -1.086   0.445  0.00  0.00    -0.070 Cl
ENDROOT
TORSDOF 0
ENDMDL
