MODEL 1
REMARK minimizedAffinity -1.09733355
REMARK minimizedRMSD -1
REMARK  0 active torsions:
REMARK  status: ('A' for Active; 'I' for Inactive)
ROOT
ATOM      1  C   UNL d   1       0.408  -1.433  -3.009  0.00  0.00     0.020 A 
ATOM      2  C1  UNL d   1       0.495  -2.807  -3.226  0.00  0.00     0.020 A 
ATOM      3  C2  UNL d   1       0.953  -3.646  -2.208  0.00  0.00     0.034 A 
ATOM      4  C3  UNL d   1       1.326  -3.112  -0.969  0.00  0.00     0.017 A 
ATOM      5  C4  UNL d   1       1.237  -1.732  -0.753  0.00  0.00     0.017 A 
ATOM      6  C5  UNL d   1       0.778  -0.896  -1.775  0.00  0.00     0.034 A 
ATOM      7 Cl   UNL d   1       1.678  -0.999   0.749  0.00  0.00    -0.070 Cl
ATOM      8 Cl1  UNL d   1       1.883  -4.208   0.245  0.00  0.00    -0.070 Cl
ENDROOT
TORSDOF 0
ENDMDL
