MODEL 1
REMARK minimizedAffinity -4.88598585
REMARK minimizedRMSD -1
REMARK  0 active torsions:
REMARK  status: ('A' for Active; 'I' for Inactive)
ROOT
ATOM      1  C   UNL d   1      -0.688   3.662   0.320  0.00  0.00     0.020 A 
ATOM      2  C1  UNL d   1      -1.389   2.858   1.217  0.00  0.00     0.020 A 
ATOM      3  C2  UNL d   1      -1.121   1.489   1.286  0.00  0.00     0.034 A 
ATOM      4  C3  UNL d   1      -0.148   0.920   0.455  0.00  0.00     0.017 A 
ATOM      5  C4  UNL d   1       0.555   1.728  -0.445  0.00  0.00     0.017 A 
ATOM      6  C5  UNL d   1       0.282   3.098  -0.510  0.00  0.00     0.034 A 
ATOM      7 Cl   UNL d   1       1.769   1.098  -1.502  0.00  0.00    -0.070 Cl
ATOM      8 Cl1  UNL d   1       0.132  -0.779   0.594  0.00  0.00    -0.070 Cl
ENDROOT
TORSDOF 0
ENDMDL
