MODEL 1
REMARK minimizedAffinity -4.12824488
REMARK minimizedRMSD -1
REMARK  0 active torsions:
REMARK  status: ('A' for Active; 'I' for Inactive)
ROOT
ATOM      1  C   UNL d   1      -1.409   2.038  -0.395  0.00  0.00     0.020 A 
ATOM      2  C1  UNL d   1      -2.056   2.093   0.840  0.00  0.00     0.020 A 
ATOM      3  C2  UNL d   1      -1.720   1.182   1.844  0.00  0.00     0.034 A 
ATOM      4  C3  UNL d   1      -0.736   0.214   1.616  0.00  0.00     0.017 A 
ATOM      5  C4  UNL d   1      -0.088   0.160   0.377  0.00  0.00     0.017 A 
ATOM      6  C5  UNL d   1      -0.428   1.074  -0.626  0.00  0.00     0.034 A 
ATOM      7 Cl   UNL d   1       1.137  -1.007   0.021  0.00  0.00    -0.070 Cl
ATOM      8 Cl1  UNL d   1      -0.372  -0.880   2.903  0.00  0.00    -0.070 Cl
ENDROOT
TORSDOF 0
ENDMDL
