MODEL 1
REMARK minimizedAffinity 0.984526873
REMARK minimizedRMSD -1
REMARK  0 active torsions:
REMARK  status: ('A' for Active; 'I' for Inactive)
ROOT
ATOM      1  C   UNL d   1       0.794   1.180  -1.377  0.00  0.00     0.020 A 
ATOM      2  C1  UNL d   1       1.403  -0.064  -1.214  0.00  0.00     0.020 A 
ATOM      3  C2  UNL d   1       1.258  -0.759  -0.012  0.00  0.00     0.034 A 
ATOM      4  C3  UNL d   1       0.504  -0.212   1.032  0.00  0.00     0.017 A 
ATOM      5  C4  UNL d   1      -0.107   1.037   0.867  0.00  0.00     0.017 A 
ATOM      6  C5  UNL d   1       0.041   1.729  -0.339  0.00  0.00     0.034 A 
ATOM      7 Cl   UNL d   1      -1.054   1.777   2.110  0.00  0.00    -0.070 Cl
ATOM      8 Cl1  UNL d   1       0.367  -1.128   2.491  0.00  0.00    -0.070 Cl
ENDROOT
TORSDOF 0
ENDMDL
