MODEL 1
REMARK minimizedAffinity -1.4057765
REMARK minimizedRMSD -1
REMARK  0 active torsions:
REMARK  status: ('A' for Active; 'I' for Inactive)
ROOT
ATOM      1  C   UNL d   1      -0.901   3.049   0.040  0.00  0.00     0.020 A 
ATOM      2  C1  UNL d   1      -1.376   2.770   1.321  0.00  0.00     0.020 A 
ATOM      3  C2  UNL d   1      -1.271   1.477   1.839  0.00  0.00     0.034 A 
ATOM      4  C3  UNL d   1      -0.689   0.458   1.075  0.00  0.00     0.017 A 
ATOM      5  C4  UNL d   1      -0.212   0.739  -0.210  0.00  0.00     0.017 A 
ATOM      6  C5  UNL d   1      -0.320   2.036  -0.724  0.00  0.00     0.034 A 
ATOM      7 Cl   UNL d   1       0.519  -0.465  -1.212  0.00  0.00    -0.070 Cl
ATOM      8 Cl1  UNL d   1      -0.590  -1.117   1.779  0.00  0.00    -0.070 Cl
ENDROOT
TORSDOF 0
ENDMDL
