MODEL 1
REMARK minimizedAffinity -5.89478779
REMARK minimizedRMSD -1
REMARK  0 active torsions:
REMARK  status: ('A' for Active; 'I' for Inactive)
ROOT
ATOM      1  C   UNL d   1      -1.988   1.268   1.957  0.00  0.00     0.020 A 
ATOM      2  C1  UNL d   1      -1.381   0.013   1.999  0.00  0.00     0.020 A 
ATOM      3  C2  UNL d   1      -0.354  -0.296   1.106  0.00  0.00     0.034 A 
ATOM      4  C3  UNL d   1       0.070   0.650   0.165  0.00  0.00     0.017 A 
ATOM      5  C4  UNL d   1      -0.540   1.909   0.123  0.00  0.00     0.017 A 
ATOM      6  C5  UNL d   1      -1.568   2.213   1.021  0.00  0.00     0.034 A 
ATOM      7 Cl   UNL d   1      -0.071   3.128  -1.008  0.00  0.00    -0.070 Cl
ATOM      8 Cl1  UNL d   1       1.346   0.199  -0.909  0.00  0.00    -0.070 Cl
ENDROOT
TORSDOF 0
ENDMDL
