MODEL 1
REMARK minimizedAffinity -3.72036147
REMARK minimizedRMSD -1
REMARK  0 active torsions:
REMARK  status: ('A' for Active; 'I' for Inactive)
ROOT
ATOM      1  C   UNL d   1      -1.535   1.124   2.450  0.00  0.00     0.020 A 
ATOM      2  C1  UNL d   1      -1.103  -0.194   2.588  0.00  0.00     0.020 A 
ATOM      3  C2  UNL d   1      -0.301  -0.772   1.601  0.00  0.00     0.034 A 
ATOM      4  C3  UNL d   1       0.069  -0.032   0.472  0.00  0.00     0.017 A 
ATOM      5  C4  UNL d   1      -0.366   1.291   0.335  0.00  0.00     0.017 A 
ATOM      6  C5  UNL d   1      -1.168   1.865   1.326  0.00  0.00     0.034 A 
ATOM      7 Cl   UNL d   1       0.051   2.267  -1.029  0.00  0.00    -0.070 Cl
ATOM      8 Cl1  UNL d   1       1.062  -0.811  -0.709  0.00  0.00    -0.070 Cl
ENDROOT
TORSDOF 0
ENDMDL
