MODEL 1
REMARK minimizedAffinity 0.621763468
REMARK minimizedRMSD -1
REMARK  0 active torsions:
REMARK  status: ('A' for Active; 'I' for Inactive)
ROOT
ATOM      1  C   UNL d   1       1.018  -3.034  -1.955  0.00  0.00     0.020 A 
ATOM      2  C1  UNL d   1       0.454  -2.208  -2.925  0.00  0.00     0.020 A 
ATOM      3  C2  UNL d   1      -0.153  -1.007  -2.553  0.00  0.00     0.034 A 
ATOM      4  C3  UNL d   1      -0.197  -0.628  -1.206  0.00  0.00     0.017 A 
ATOM      5  C4  UNL d   1       0.370  -1.458  -0.232  0.00  0.00     0.017 A 
ATOM      6  C5  UNL d   1       0.976  -2.660  -0.611  0.00  0.00     0.034 A 
ATOM      7 Cl   UNL d   1       0.355  -1.059   1.449  0.00  0.00    -0.070 Cl
ATOM      8 Cl1  UNL d   1      -0.964   0.871  -0.818  0.00  0.00    -0.070 Cl
ENDROOT
TORSDOF 0
ENDMDL
