MODEL 1
REMARK minimizedAffinity -1.98789442
REMARK minimizedRMSD -1
REMARK  0 active torsions:
REMARK  status: ('A' for Active; 'I' for Inactive)
ROOT
ATOM      1  C   UNL d   1       0.855  -0.770  -0.759  0.00  0.00     0.020 A 
ATOM      2  C1  UNL d   1       0.222  -0.992   0.464  0.00  0.00     0.020 A 
ATOM      3  C2  UNL d   1      -0.704  -0.067   0.949  0.00  0.00     0.034 A 
ATOM      4  C3  UNL d   1      -1.001   1.086   0.212  0.00  0.00     0.017 A 
ATOM      5  C4  UNL d   1      -0.365   1.308  -1.015  0.00  0.00     0.017 A 
ATOM      6  C5  UNL d   1       0.562   0.378  -1.497  0.00  0.00     0.034 A 
ATOM      7 Cl   UNL d   1      -0.679   2.706  -1.982  0.00  0.00    -0.070 Cl
ATOM      8 Cl1  UNL d   1      -2.156   2.187   0.872  0.00  0.00    -0.070 Cl
ENDROOT
TORSDOF 0
ENDMDL
