MODEL 1
REMARK minimizedAffinity -3.63514876
REMARK minimizedRMSD -1
REMARK  0 active torsions:
REMARK  status: ('A' for Active; 'I' for Inactive)
ROOT
ATOM      1  C   UNL d   1      -1.467   2.062   0.237  0.00  0.00     0.020 A 
ATOM      2  C1  UNL d   1      -1.658   1.955   1.614  0.00  0.00     0.020 A 
ATOM      3  C2  UNL d   1      -1.030   0.933   2.328  0.00  0.00     0.034 A 
ATOM      4  C3  UNL d   1      -0.208   0.013   1.666  0.00  0.00     0.017 A 
ATOM      5  C4  UNL d   1      -0.017   0.122   0.284  0.00  0.00     0.017 A 
ATOM      6  C5  UNL d   1      -0.648   1.147  -0.426  0.00  0.00     0.034 A 
ATOM      7 Cl   UNL d   1       0.983  -0.975  -0.602  0.00  0.00    -0.070 Cl
ATOM      8 Cl1  UNL d   1       0.538  -1.225   2.613  0.00  0.00    -0.070 Cl
ENDROOT
TORSDOF 0
ENDMDL
