MODEL 1
REMARK minimizedAffinity -2.38483191
REMARK minimizedRMSD -1
REMARK  0 active torsions:
REMARK  status: ('A' for Active; 'I' for Inactive)
ROOT
ATOM      1  C   UNL d   1      -0.597  -0.416   1.066  0.00  0.00     0.020 A 
ATOM      2  C1  UNL d   1      -1.433   0.156   0.108  0.00  0.00     0.020 A 
ATOM      3  C2  UNL d   1      -1.982   1.421   0.326  0.00  0.00     0.034 A 
ATOM      4  C3  UNL d   1      -1.696   2.119   1.505  0.00  0.00     0.017 A 
ATOM      5  C4  UNL d   1      -0.856   1.544   2.466  0.00  0.00     0.017 A 
ATOM      6  C5  UNL d   1      -0.309   0.277   2.243  0.00  0.00     0.034 A 
ATOM      7 Cl   UNL d   1      -0.457   2.344   3.946  0.00  0.00    -0.070 Cl
ATOM      8 Cl1  UNL d   1      -2.409   3.679   1.709  0.00  0.00    -0.070 Cl
ENDROOT
TORSDOF 0
ENDMDL
