MODEL 1
REMARK minimizedAffinity -2.7922132
REMARK minimizedRMSD -1
REMARK  0 active torsions:
REMARK  status: ('A' for Active; 'I' for Inactive)
ROOT
ATOM      1  C   UNL d   1      -1.478   1.049   2.339  0.00  0.00     0.020 A 
ATOM      2  C1  UNL d   1      -0.909  -0.192   2.623  0.00  0.00     0.020 A 
ATOM      3  C2  UNL d   1      -0.065  -0.802   1.693  0.00  0.00     0.034 A 
ATOM      4  C3  UNL d   1       0.213  -0.172   0.475  0.00  0.00     0.017 A 
ATOM      5  C4  UNL d   1      -0.358   1.073   0.191  0.00  0.00     0.017 A 
ATOM      6  C5  UNL d   1      -1.203   1.681   1.125  0.00  0.00     0.034 A 
ATOM      7 Cl   UNL d   1      -0.062   1.912  -1.291  0.00  0.00    -0.070 Cl
ATOM      8 Cl1  UNL d   1       1.265  -0.985  -0.628  0.00  0.00    -0.070 Cl
ENDROOT
TORSDOF 0
ENDMDL
