MODEL 1
REMARK minimizedAffinity -2.78911281
REMARK minimizedRMSD -1
REMARK  0 active torsions:
REMARK  status: ('A' for Active; 'I' for Inactive)
ROOT
ATOM      1  C   UNL d   1       0.723  -1.185  -0.742  0.00  0.00     0.020 A 
ATOM      2  C1  UNL d   1       0.000  -1.385   0.433  0.00  0.00     0.020 A 
ATOM      3  C2  UNL d   1      -0.744  -0.339   0.982  0.00  0.00     0.034 A 
ATOM      4  C3  UNL d   1      -0.767   0.913   0.356  0.00  0.00     0.017 A 
ATOM      5  C4  UNL d   1      -0.042   1.113  -0.824  0.00  0.00     0.017 A 
ATOM      6  C5  UNL d   1       0.702   0.062  -1.369  0.00  0.00     0.034 A 
ATOM      7 Cl   UNL d   1      -0.022   2.629  -1.654  0.00  0.00    -0.070 Cl
ATOM      8 Cl1  UNL d   1      -1.710   2.161   1.090  0.00  0.00    -0.070 Cl
ENDROOT
TORSDOF 0
ENDMDL
