MODEL 1
REMARK minimizedAffinity -4.26295996
REMARK minimizedRMSD -1
REMARK  0 active torsions:
REMARK  status: ('A' for Active; 'I' for Inactive)
ROOT
ATOM      1  C   UNL d   1      -0.866   3.335  -0.388  0.00  0.00     0.020 A 
ATOM      2  C1  UNL d   1      -1.603   3.276   0.794  0.00  0.00     0.020 A 
ATOM      3  C2  UNL d   1      -1.676   2.081   1.513  0.00  0.00     0.034 A 
ATOM      4  C3  UNL d   1      -1.011   0.940   1.051  0.00  0.00     0.017 A 
ATOM      5  C4  UNL d   1      -0.272   1.000  -0.136  0.00  0.00     0.017 A 
ATOM      6  C5  UNL d   1      -0.202   2.199  -0.852  0.00  0.00     0.034 A 
ATOM      7 Cl   UNL d   1       0.576  -0.367  -0.770  0.00  0.00    -0.070 Cl
ATOM      8 Cl1  UNL d   1      -1.145  -0.504   1.990  0.00  0.00    -0.070 Cl
ENDROOT
TORSDOF 0
ENDMDL
