MODEL 1
REMARK minimizedAffinity -4.5835762
REMARK minimizedRMSD -1
REMARK  0 active torsions:
REMARK  status: ('A' for Active; 'I' for Inactive)
ROOT
ATOM      1  C   UNL d   1      -1.648   1.942   1.544  0.00  0.00     0.020 A 
ATOM      2  C1  UNL d   1      -1.148   3.069   0.893  0.00  0.00     0.020 A 
ATOM      3  C2  UNL d   1      -0.261   2.922  -0.176  0.00  0.00     0.034 A 
ATOM      4  C3  UNL d   1       0.129   1.645  -0.596  0.00  0.00     0.017 A 
ATOM      5  C4  UNL d   1      -0.373   0.515   0.058  0.00  0.00     0.017 A 
ATOM      6  C5  UNL d   1      -1.261   0.668   1.128  0.00  0.00     0.034 A 
ATOM      7 Cl   UNL d   1       0.063  -1.093  -0.403  0.00  0.00    -0.070 Cl
ATOM      8 Cl1  UNL d   1       1.229   1.538  -1.924  0.00  0.00    -0.070 Cl
ENDROOT
TORSDOF 0
ENDMDL
