MODEL 1
REMARK minimizedAffinity 1.75355518
REMARK minimizedRMSD -1
REMARK  0 active torsions:
REMARK  status: ('A' for Active; 'I' for Inactive)
ROOT
ATOM      1  C   UNL d   1       1.136  -1.814  -2.966  0.00  0.00     0.078 C 
ATOM      2  C1  UNL d   1      -0.084  -1.974  -2.109  0.00  0.00    -0.077 A 
ATOM      3  C2  UNL d   1      -1.277  -2.478  -2.641  0.00  0.00    -0.001 A 
ATOM      4  C3  UNL d   1      -2.408  -2.613  -1.834  0.00  0.00     0.003 A 
ATOM      5  C4  UNL d   1      -2.357  -2.244  -0.491  0.00  0.00    -0.005 A 
ATOM      6  C5  UNL d   1      -1.175  -1.739   0.047  0.00  0.00     0.003 A 
ATOM      7  C6  UNL d   1      -0.043  -1.604  -0.759  0.00  0.00    -0.001 A 
ENDROOT
TORSDOF 0
ENDMDL
