MODEL 1
REMARK minimizedAffinity -1.75325274
REMARK minimizedRMSD -1
REMARK  0 active torsions:
REMARK  status: ('A' for Active; 'I' for Inactive)
ROOT
ATOM      1  C   UNL d   1       3.079  -1.489  -1.223  0.00  0.00     0.078 C 
ATOM      2  C1  UNL d   1       1.753  -1.857  -1.819  0.00  0.00    -0.077 A 
ATOM      3  C2  UNL d   1       1.664  -2.375  -3.117  0.00  0.00    -0.001 A 
ATOM      4  C3  UNL d   1       0.422  -2.704  -3.662  0.00  0.00     0.003 A 
ATOM      5  C4  UNL d   1      -0.741  -2.518  -2.916  0.00  0.00    -0.005 A 
ATOM      6  C5  UNL d   1      -0.662  -2.002  -1.625  0.00  0.00     0.003 A 
ATOM      7  C6  UNL d   1       0.579  -1.673  -1.078  0.00  0.00    -0.001 A 
ENDROOT
TORSDOF 0
ENDMDL
