MODEL 1
REMARK minimizedAffinity -2.63415384
REMARK minimizedRMSD -1
REMARK  0 active torsions:
REMARK  status: ('A' for Active; 'I' for Inactive)
ROOT
ATOM      1  C   UNL d   1       5.907   5.998  -0.954  0.00  0.00     0.078 C 
ATOM      2  C1  UNL d   1       5.413   5.390  -2.233  0.00  0.00    -0.077 A 
ATOM      3  C2  UNL d   1       4.361   5.973  -2.949  0.00  0.00    -0.001 A 
ATOM      4  C3  UNL d   1       3.906   5.391  -4.133  0.00  0.00     0.003 A 
ATOM      5  C4  UNL d   1       4.496   4.222  -4.611  0.00  0.00    -0.005 A 
ATOM      6  C5  UNL d   1       5.542   3.633  -3.903  0.00  0.00     0.003 A 
ATOM      7  C6  UNL d   1       5.998   4.214  -2.719  0.00  0.00    -0.001 A 
ENDROOT
TORSDOF 0
ENDMDL
