MODEL 1
REMARK minimizedAffinity -2.0296874
REMARK minimizedRMSD -1
REMARK  0 active torsions:
REMARK  status: ('A' for Active; 'I' for Inactive)
ROOT
ATOM      1  C   UNL d   1       4.711   3.138  -5.157  0.00  0.00     0.078 C 
ATOM      2  C1  UNL d   1       5.165   3.925  -3.964  0.00  0.00    -0.077 A 
ATOM      3  C2  UNL d   1       5.170   3.356  -2.685  0.00  0.00    -0.001 A 
ATOM      4  C3  UNL d   1       5.587   4.104  -1.582  0.00  0.00     0.003 A 
ATOM      5  C4  UNL d   1       6.000   5.424  -1.747  0.00  0.00    -0.005 A 
ATOM      6  C5  UNL d   1       5.996   5.999  -3.016  0.00  0.00     0.003 A 
ATOM      7  C6  UNL d   1       5.580   5.254  -4.120  0.00  0.00    -0.001 A 
ENDROOT
TORSDOF 0
ENDMDL
