MODEL 1
REMARK minimizedAffinity -1.02302456
REMARK minimizedRMSD -1
REMARK  0 active torsions:
REMARK  status: ('A' for Active; 'I' for Inactive)
ROOT
ATOM      1  C   UNL d   1       5.300   2.785  -5.679  0.00  0.00     0.078 C 
ATOM      2  C1  UNL d   1       5.282   3.835  -4.608  0.00  0.00    -0.077 A 
ATOM      3  C2  UNL d   1       4.567   5.027  -4.779  0.00  0.00    -0.001 A 
ATOM      4  C3  UNL d   1       4.567   6.000  -3.779  0.00  0.00     0.003 A 
ATOM      5  C4  UNL d   1       5.281   5.791  -2.600  0.00  0.00    -0.005 A 
ATOM      6  C5  UNL d   1       5.997   4.609  -2.422  0.00  0.00     0.003 A 
ATOM      7  C6  UNL d   1       5.998   3.635  -3.421  0.00  0.00    -0.001 A 
ENDROOT
TORSDOF 0
ENDMDL
