MODEL 1
REMARK minimizedAffinity -2.4778564
REMARK minimizedRMSD -1
REMARK  0 active torsions:
REMARK  status: ('A' for Active; 'I' for Inactive)
ROOT
ATOM      1  C   UNL d   1       0.565  -1.367  -3.048  0.00  0.00     0.078 C 
ATOM      2  C1  UNL d   1      -0.597  -1.949  -2.300  0.00  0.00    -0.077 A 
ATOM      3  C2  UNL d   1      -1.728  -2.420  -2.979  0.00  0.00    -0.001 A 
ATOM      4  C3  UNL d   1      -2.807  -2.950  -2.269  0.00  0.00     0.003 A 
ATOM      5  C4  UNL d   1      -2.767  -3.012  -0.878  0.00  0.00    -0.005 A 
ATOM      6  C5  UNL d   1      -1.647  -2.544  -0.194  0.00  0.00     0.003 A 
ATOM      7  C6  UNL d   1      -0.567  -2.014  -0.902  0.00  0.00    -0.001 A 
ENDROOT
TORSDOF 0
ENDMDL
