MODEL 1
REMARK minimizedAffinity -3.22941184
REMARK minimizedRMSD -1
REMARK  0 active torsions:
REMARK  status: ('A' for Active; 'I' for Inactive)
ROOT
ATOM      1  C   UNL d   1       4.869   4.344  -5.628  0.00  0.00     0.078 C 
ATOM      2  C1  UNL d   1       5.267   4.534  -4.195  0.00  0.00    -0.077 A 
ATOM      3  C2  UNL d   1       5.262   3.461  -3.296  0.00  0.00    -0.001 A 
ATOM      4  C3  UNL d   1       5.626   3.655  -1.963  0.00  0.00     0.003 A 
ATOM      5  C4  UNL d   1       5.994   4.922  -1.515  0.00  0.00    -0.005 A 
ATOM      6  C5  UNL d   1       5.999   5.997  -2.402  0.00  0.00     0.003 A 
ATOM      7  C6  UNL d   1       5.637   5.805  -3.736  0.00  0.00    -0.001 A 
ENDROOT
TORSDOF 0
ENDMDL
