MODEL 1
REMARK minimizedAffinity -2.20397735
REMARK minimizedRMSD -1
REMARK  0 active torsions:
REMARK  status: ('A' for Active; 'I' for Inactive)
ROOT
ATOM      1  C   UNL d   1       6.000   5.043  -1.128  0.00  0.00     0.078 C 
ATOM      2  C1  UNL d   1       5.567   4.836  -2.549  0.00  0.00    -0.077 A 
ATOM      3  C2  UNL d   1       6.000   3.723  -3.280  0.00  0.00    -0.001 A 
ATOM      4  C3  UNL d   1       5.597   3.549  -4.605  0.00  0.00     0.003 A 
ATOM      5  C4  UNL d   1       4.760   4.483  -5.210  0.00  0.00    -0.005 A 
ATOM      6  C5  UNL d   1       4.325   5.595  -4.492  0.00  0.00     0.003 A 
ATOM      7  C6  UNL d   1       4.727   5.772  -3.167  0.00  0.00    -0.001 A 
ENDROOT
TORSDOF 0
ENDMDL
