MODEL 1
REMARK minimizedAffinity 1.00965369
REMARK minimizedRMSD -1
REMARK  0 active torsions:
REMARK  status: ('A' for Active; 'I' for Inactive)
ROOT
ATOM      1  C   UNL d   1       5.995   5.223  -1.977  0.00  0.00     0.078 C 
ATOM      2  C1  UNL d   1       5.399   5.235  -3.353  0.00  0.00    -0.077 A 
ATOM      3  C2  UNL d   1       6.000   4.535  -4.406  0.00  0.00    -0.001 A 
ATOM      4  C3  UNL d   1       5.438   4.563  -5.683  0.00  0.00     0.003 A 
ATOM      5  C4  UNL d   1       4.274   5.291  -5.920  0.00  0.00    -0.005 A 
ATOM      6  C5  UNL d   1       3.670   5.992  -4.879  0.00  0.00     0.003 A 
ATOM      7  C6  UNL d   1       4.230   5.965  -3.601  0.00  0.00    -0.001 A 
ENDROOT
TORSDOF 0
ENDMDL
