MODEL 1
REMARK minimizedAffinity 0.492104053
REMARK minimizedRMSD -1
REMARK  0 active torsions:
REMARK  status: ('A' for Active; 'I' for Inactive)
ROOT
ATOM      1  C   UNL d   1      -1.118  -3.462   1.133  0.00  0.00     0.078 C 
ATOM      2  C1  UNL d   1      -1.566  -3.264  -0.284  0.00  0.00    -0.077 A 
ATOM      3  C2  UNL d   1      -2.896  -3.493  -0.658  0.00  0.00    -0.001 A 
ATOM      4  C3  UNL d   1      -3.298  -3.314  -1.983  0.00  0.00     0.003 A 
ATOM      5  C4  UNL d   1      -2.375  -2.907  -2.945  0.00  0.00    -0.005 A 
ATOM      6  C5  UNL d   1      -1.049  -2.680  -2.583  0.00  0.00     0.003 A 
ATOM      7  C6  UNL d   1      -0.646  -2.858  -1.258  0.00  0.00    -0.001 A 
ENDROOT
TORSDOF 0
ENDMDL
