MODEL 1
REMARK minimizedAffinity -2.69290566
REMARK minimizedRMSD -1
REMARK  0 active torsions:
REMARK  status: ('A' for Active; 'I' for Inactive)
ROOT
ATOM      1  C   UNL d   1       4.783   5.253  -5.201  0.00  0.00     0.078 C 
ATOM      2  C1  UNL d   1       4.952   5.162  -3.714  0.00  0.00    -0.077 A 
ATOM      3  C2  UNL d   1       5.846   6.000  -3.037  0.00  0.00    -0.001 A 
ATOM      4  C3  UNL d   1       6.000   5.898  -1.654  0.00  0.00     0.003 A 
ATOM      5  C4  UNL d   1       5.263   4.958  -0.935  0.00  0.00    -0.005 A 
ATOM      6  C5  UNL d   1       4.372   4.119  -1.601  0.00  0.00     0.003 A 
ATOM      7  C6  UNL d   1       4.217   4.219  -2.984  0.00  0.00    -0.001 A 
ENDROOT
TORSDOF 0
ENDMDL
