MODEL 1
REMARK minimizedAffinity 1.6052829
REMARK minimizedRMSD -1
REMARK  0 active torsions:
REMARK  status: ('A' for Active; 'I' for Inactive)
ROOT
ATOM      1  C   UNL d   1       4.332   4.756  -5.440  0.00  0.00     0.078 C 
ATOM      2  C1  UNL d   1       4.903   4.793  -4.054  0.00  0.00    -0.077 A 
ATOM      3  C2  UNL d   1       4.907   5.978  -3.307  0.00  0.00    -0.001 A 
ATOM      4  C3  UNL d   1       5.451   6.000  -2.022  0.00  0.00     0.003 A 
ATOM      5  C4  UNL d   1       5.997   4.841  -1.473  0.00  0.00    -0.005 A 
ATOM      6  C5  UNL d   1       6.000   3.658  -2.210  0.00  0.00     0.003 A 
ATOM      7  C6  UNL d   1       5.456   3.634  -3.495  0.00  0.00    -0.001 A 
ENDROOT
TORSDOF 0
ENDMDL
