MODEL 1
REMARK minimizedAffinity -3.81729627
REMARK minimizedRMSD -1
REMARK  0 active torsions:
REMARK  status: ('A' for Active; 'I' for Inactive)
ROOT
ATOM      1  C   UNL d   1       6.000   5.167  -1.832  0.00  0.00     0.078 C 
ATOM      2  C1  UNL d   1       5.407   5.214  -3.209  0.00  0.00    -0.077 A 
ATOM      3  C2  UNL d   1       4.256   5.966  -3.473  0.00  0.00    -0.001 A 
ATOM      4  C3  UNL d   1       3.709   5.993  -4.757  0.00  0.00     0.003 A 
ATOM      5  C4  UNL d   1       4.307   5.270  -5.787  0.00  0.00    -0.005 A 
ATOM      6  C5  UNL d   1       5.452   4.517  -5.534  0.00  0.00     0.003 A 
ATOM      7  C6  UNL d   1       6.000   4.489  -4.250  0.00  0.00    -0.001 A 
ENDROOT
TORSDOF 0
ENDMDL
