MODEL 1
REMARK minimizedAffinity -2.32733083
REMARK minimizedRMSD -1
REMARK  0 active torsions:
REMARK  status: ('A' for Active; 'I' for Inactive)
ROOT
ATOM      1  C   UNL d   1       5.266   5.726  -1.817  0.00  0.00     0.078 C 
ATOM      2  C1  UNL d   1       5.211   5.323  -3.260  0.00  0.00    -0.077 A 
ATOM      3  C2  UNL d   1       4.391   4.270  -3.684  0.00  0.00    -0.001 A 
ATOM      4  C3  UNL d   1       4.358   3.899  -5.029  0.00  0.00     0.003 A 
ATOM      5  C4  UNL d   1       5.143   4.575  -5.961  0.00  0.00    -0.005 A 
ATOM      6  C5  UNL d   1       5.963   5.623  -5.548  0.00  0.00     0.003 A 
ATOM      7  C6  UNL d   1       5.998   5.995  -4.203  0.00  0.00    -0.001 A 
ENDROOT
TORSDOF 0
ENDMDL
