MODEL 1
REMARK minimizedAffinity -0.444458663
REMARK minimizedRMSD -1
REMARK  0 active torsions:
REMARK  status: ('A' for Active; 'I' for Inactive)
ROOT
ATOM      1  C   UNL d   1       2.225   5.991  -3.375  0.00  0.00     0.078 C 
ATOM      2  C1  UNL d   1       3.545   5.391  -3.758  0.00  0.00    -0.077 A 
ATOM      3  C2  UNL d   1       4.749   5.999  -3.384  0.00  0.00    -0.001 A 
ATOM      4  C3  UNL d   1       5.971   5.435  -3.756  0.00  0.00     0.003 A 
ATOM      5  C4  UNL d   1       5.999   4.259  -4.504  0.00  0.00    -0.005 A 
ATOM      6  C5  UNL d   1       4.806   3.648  -4.882  0.00  0.00     0.003 A 
ATOM      7  C6  UNL d   1       3.584   4.211  -4.511  0.00  0.00    -0.001 A 
ENDROOT
TORSDOF 0
ENDMDL
