MODEL 1
REMARK minimizedAffinity -2.77837181
REMARK minimizedRMSD -1
REMARK  0 active torsions:
REMARK  status: ('A' for Active; 'I' for Inactive)
ROOT
ATOM      1  C   UNL d   1      -1.867  -1.864   2.283  0.00  0.00     0.078 C 
ATOM      2  C1  UNL d   1      -2.058  -1.132   3.577  0.00  0.00    -0.077 A 
ATOM      3  C2  UNL d   1      -2.626  -1.767   4.688  0.00  0.00    -0.001 A 
ATOM      4  C3  UNL d   1      -2.807  -1.070   5.884  0.00  0.00     0.003 A 
ATOM      5  C4  UNL d   1      -2.423   0.266   5.980  0.00  0.00    -0.005 A 
ATOM      6  C5  UNL d   1      -1.858   0.907   4.879  0.00  0.00     0.003 A 
ATOM      7  C6  UNL d   1      -1.677   0.212   3.682  0.00  0.00    -0.001 A 
ENDROOT
TORSDOF 0
ENDMDL
