MODEL 1
REMARK minimizedAffinity 12.293786
REMARK minimizedRMSD -1
REMARK  2 active torsions:
REMARK  status: ('A' for Active; 'I' for Inactive)
REMARK    1  A    between atoms: C2'_3  and  C1'_4 
REMARK    2  A    between atoms: C1'_4  and  C1_5 
ROOT
ATOM      1  C1  I4B d   1      -3.243  -3.719  -4.461  0.00  0.00    -0.075 A 
ATOM      2  C2  I4B d   1      -3.645  -4.807  -5.196  0.00  0.00     0.003 A 
ATOM      3  C3  I4B d   1      -4.809  -4.734  -5.999  0.00  0.00     0.002 A 
ATOM      4  C4  I4B d   1      -5.564  -3.579  -5.997  0.00  0.00    -0.004 A 
ATOM      5  C5  I4B d   1      -5.143  -2.470  -5.269  0.00  0.00     0.002 A 
ATOM      6  C6  I4B d   1      -3.968  -2.536  -4.506  0.00  0.00     0.003 A 
ENDROOT
BRANCH   1   7
ATOM      7  C1' I4B d   1      -2.027  -3.842  -3.599  0.00  0.00     0.060 C 
BRANCH   7   8
ATOM      8  C2' I4B d   1      -1.963  -5.264  -3.081  0.00  0.00    -0.013 C 
ATOM      9  C4' I4B d   1      -0.581  -5.605  -2.590  0.00  0.00     0.013 C 
ATOM     10  C3' I4B d   1      -2.976  -5.403  -1.984  0.00  0.00     0.013 C 
ENDBRANCH   7   8
ENDBRANCH   1   7
TORSDOF 2
ENDMDL
