MODEL 1
REMARK minimizedAffinity 16.1783409
REMARK minimizedRMSD -1
REMARK  2 active torsions:
REMARK  status: ('A' for Active; 'I' for Inactive)
REMARK    1  A    between atoms: C2'_3  and  C1'_4 
REMARK    2  A    between atoms: C1'_4  and  C1_5 
ROOT
ATOM      1  C1  I4B d   1      -0.421   2.077   3.852  0.00  0.00    -0.075 A 
ATOM      2  C2  I4B d   1      -0.526   2.937   4.916  0.00  0.00     0.003 A 
ATOM      3  C3  I4B d   1       0.386   2.850   5.996  0.00  0.00     0.002 A 
ATOM      4  C4  I4B d   1       1.350   1.862   5.993  0.00  0.00    -0.004 A 
ATOM      5  C5  I4B d   1       1.470   1.006   4.902  0.00  0.00     0.002 A 
ATOM      6  C6  I4B d   1       0.586   1.122   3.819  0.00  0.00     0.003 A 
ENDROOT
BRANCH   1   7
ATOM      7  C1' I4B d   1      -1.422   2.175   2.744  0.00  0.00     0.060 C 
BRANCH   7   8
ATOM      8  C2' I4B d   1      -2.413   1.041   2.909  0.00  0.00    -0.013 C 
ATOM      9  C4' I4B d   1      -3.521   1.419   3.856  0.00  0.00     0.013 C 
ATOM     10  C3' I4B d   1      -2.954   0.698   1.553  0.00  0.00     0.013 C 
ENDBRANCH   7   8
ENDBRANCH   1   7
TORSDOF 2
ENDMDL
