MODEL 1
REMARK minimizedAffinity 12.4244947
REMARK minimizedRMSD -1
REMARK  2 active torsions:
REMARK  status: ('A' for Active; 'I' for Inactive)
REMARK    1  A    between atoms: C2'_3  and  C1'_4 
REMARK    2  A    between atoms: C1'_4  and  C1_5 
ROOT
ATOM      1  C1  I4B d   1      -1.109  -1.803  -3.061  0.00  0.00    -0.075 A 
ATOM      2  C2  I4B d   1      -0.384  -2.909  -2.694  0.00  0.00     0.003 A 
ATOM      3  C3  I4B d   1      -0.961  -4.199  -2.778  0.00  0.00     0.002 A 
ATOM      4  C4  I4B d   1      -2.274  -4.332  -3.183  0.00  0.00    -0.004 A 
ATOM      5  C5  I4B d   1      -3.000  -3.211  -3.575  0.00  0.00     0.002 A 
ATOM      6  C6  I4B d   1      -2.410  -1.940  -3.526  0.00  0.00     0.003 A 
ENDROOT
BRANCH   1   7
ATOM      7  C1' I4B d   1      -0.480  -0.452  -2.928  0.00  0.00     0.060 C 
BRANCH   7   8
ATOM      8  C2' I4B d   1       0.993  -0.589  -3.260  0.00  0.00    -0.013 C 
ATOM      9  C4' I4B d   1       1.420   0.437  -4.276  0.00  0.00     0.013 C 
ATOM     10  C3' I4B d   1       1.769  -0.446  -1.985  0.00  0.00     0.013 C 
ENDBRANCH   7   8
ENDBRANCH   1   7
TORSDOF 2
ENDMDL
