MODEL 1
REMARK minimizedAffinity 15.9049263
REMARK minimizedRMSD -1
REMARK  2 active torsions:
REMARK  status: ('A' for Active; 'I' for Inactive)
REMARK    1  A    between atoms: C2'_3  and  C1'_4 
REMARK    2  A    between atoms: C1'_4  and  C1_5 
ROOT
ATOM      1  C1  I4B d   1       2.878  -0.086  -1.923  0.00  0.00    -0.075 A 
ATOM      2  C2  I4B d   1       3.221  -0.971  -0.931  0.00  0.00     0.003 A 
ATOM      3  C3  I4B d   1       4.146  -0.593   0.072  0.00  0.00     0.002 A 
ATOM      4  C4  I4B d   1       4.738   0.652   0.017  0.00  0.00    -0.004 A 
ATOM      5  C5  I4B d   1       4.372   1.556  -0.976  0.00  0.00     0.002 A 
ATOM      6  C6  I4B d   1       3.427   1.190  -1.945  0.00  0.00     0.003 A 
ENDROOT
BRANCH   1   7
ATOM      7  C1' I4B d   1       1.923  -0.529  -2.986  0.00  0.00     0.060 C 
BRANCH   7   8
ATOM      8  C2' I4B d   1       2.282   0.195  -4.267  0.00  0.00    -0.013 C 
ATOM      9  C4' I4B d   1       2.326  -0.754  -5.436  0.00  0.00     0.013 C 
ATOM     10  C3' I4B d   1       1.268   1.278  -4.486  0.00  0.00     0.013 C 
ENDBRANCH   7   8
ENDBRANCH   1   7
TORSDOF 2
ENDMDL
