MODEL 1
REMARK minimizedAffinity 20.3674927
REMARK minimizedRMSD -1
REMARK  2 active torsions:
REMARK  status: ('A' for Active; 'I' for Inactive)
REMARK    1  A    between atoms: C2'_3  and  C1'_4 
REMARK    2  A    between atoms: C1'_4  and  C1_5 
ROOT
ATOM      1  C1  I4B d   1      -4.560   0.692   3.832  0.00  0.00    -0.075 A 
ATOM      2  C2  I4B d   1      -5.642   1.440   3.441  0.00  0.00     0.003 A 
ATOM      3  C3  I4B d   1      -5.956   2.646   4.115  0.00  0.00     0.002 A 
ATOM      4  C4  I4B d   1      -5.196   3.036   5.198  0.00  0.00    -0.004 A 
ATOM      5  C5  I4B d   1      -4.086   2.288   5.579  0.00  0.00     0.002 A 
ATOM      6  C6  I4B d   1      -3.758   1.115   4.884  0.00  0.00     0.003 A 
ENDROOT
BRANCH   1   7
ATOM      7  C1' I4B d   1      -4.276  -0.592   3.120  0.00  0.00     0.060 C 
BRANCH   7   8
ATOM      8  C2' I4B d   1      -5.268  -1.627   3.611  0.00  0.00    -0.013 C 
ATOM      9  C4' I4B d   1      -6.000  -2.270   2.462  0.00  0.00     0.013 C 
ATOM     10  C3' I4B d   1      -4.514  -2.647   4.411  0.00  0.00     0.013 C 
ENDBRANCH   7   8
ENDBRANCH   1   7
TORSDOF 2
ENDMDL
