MODEL 1
REMARK minimizedAffinity 15.9202375
REMARK minimizedRMSD -1
REMARK  2 active torsions:
REMARK  status: ('A' for Active; 'I' for Inactive)
REMARK    1  A    between atoms: C2'_3  and  C1'_4 
REMARK    2  A    between atoms: C1'_4  and  C1_5 
ROOT
ATOM      1  C1  I4B d   1      -2.575   0.933   3.265  0.00  0.00    -0.075 A 
ATOM      2  C2  I4B d   1      -1.535   0.500   4.049  0.00  0.00     0.003 A 
ATOM      3  C3  I4B d   1      -0.199   0.639   3.600  0.00  0.00     0.002 A 
ATOM      4  C4  I4B d   1       0.047   1.166   2.349  0.00  0.00    -0.004 A 
ATOM      5  C5  I4B d   1      -1.008   1.625   1.565  0.00  0.00     0.002 A 
ATOM      6  C6  I4B d   1      -2.327   1.520   2.031  0.00  0.00     0.003 A 
ENDROOT
BRANCH   1   7
ATOM      7  C1' I4B d   1      -3.975   0.741   3.756  0.00  0.00     0.060 C 
BRANCH   7   8
ATOM      8  C2' I4B d   1      -4.559   2.109   4.046  0.00  0.00    -0.013 C 
ATOM      9  C4' I4B d   1      -6.000   2.190   3.613  0.00  0.00     0.013 C 
ATOM     10  C3' I4B d   1      -4.420   2.369   5.516  0.00  0.00     0.013 C 
ENDBRANCH   7   8
ENDBRANCH   1   7
TORSDOF 2
ENDMDL
