MODEL 1
REMARK minimizedAffinity 19.3494205
REMARK minimizedRMSD -1
REMARK  2 active torsions:
REMARK  status: ('A' for Active; 'I' for Inactive)
REMARK    1  A    between atoms: C2'_3  and  C1'_4 
REMARK    2  A    between atoms: C1'_4  and  C1_5 
ROOT
ATOM      1  C1  I4B d   1       0.384  -1.507  -3.605  0.00  0.00    -0.075 A 
ATOM      2  C2  I4B d   1       1.171  -0.404  -3.385  0.00  0.00     0.003 A 
ATOM      3  C3  I4B d   1       2.092   0.021  -4.372  0.00  0.00     0.002 A 
ATOM      4  C4  I4B d   1       2.229  -0.709  -5.535  0.00  0.00    -0.004 A 
ATOM      5  C5  I4B d   1       1.414  -1.813  -5.766  0.00  0.00     0.002 A 
ATOM      6  C6  I4B d   1       0.476  -2.208  -4.800  0.00  0.00     0.003 A 
ENDROOT
BRANCH   1   7
ATOM      7  C1' I4B d   1      -0.555  -1.948  -2.527  0.00  0.00     0.060 C 
BRANCH   7   8
ATOM      8  C2' I4B d   1      -1.294  -3.174  -3.025  0.00  0.00    -0.013 C 
ATOM      9  C4' I4B d   1      -1.223  -4.297  -2.023  0.00  0.00     0.013 C 
ATOM     10  C3' I4B d   1      -2.715  -2.780  -3.297  0.00  0.00     0.013 C 
ENDBRANCH   7   8
ENDBRANCH   1   7
TORSDOF 2
ENDMDL
