MODEL 1
REMARK minimizedAffinity 21.8592701
REMARK minimizedRMSD -1
REMARK  2 active torsions:
REMARK  status: ('A' for Active; 'I' for Inactive)
REMARK    1  A    between atoms: C2'_3  and  C1'_4 
REMARK    2  A    between atoms: C1'_4  and  C1_5 
ROOT
ATOM      1  C1  I4B d   1      -0.736  -4.230  -2.354  0.00  0.00    -0.075 A 
ATOM      2  C2  I4B d   1      -0.882  -3.128  -3.159  0.00  0.00     0.003 A 
ATOM      3  C3  I4B d   1      -2.110  -2.887  -3.822  0.00  0.00     0.002 A 
ATOM      4  C4  I4B d   1      -3.141  -3.796  -3.694  0.00  0.00    -0.004 A 
ATOM      5  C5  I4B d   1      -2.999  -4.901  -2.859  0.00  0.00     0.002 A 
ATOM      6  C6  I4B d   1      -1.793  -5.113  -2.175  0.00  0.00     0.003 A 
ENDROOT
BRANCH   1   7
ATOM      7  C1' I4B d   1       0.585  -4.471  -1.695  0.00  0.00     0.060 C 
BRANCH   7   8
ATOM      8  C2' I4B d   1       1.078  -5.838  -2.123  0.00  0.00    -0.013 C 
ATOM      9  C4' I4B d   1       1.009  -5.999  -3.618  0.00  0.00     0.013 C 
ATOM     10  C3' I4B d   1       2.483  -6.000  -1.625  0.00  0.00     0.013 C 
ENDBRANCH   7   8
ENDBRANCH   1   7
TORSDOF 2
ENDMDL
