MODEL 1
REMARK minimizedAffinity 23.1484261
REMARK minimizedRMSD -1
REMARK  2 active torsions:
REMARK  status: ('A' for Active; 'I' for Inactive)
REMARK    1  A    between atoms: C2'_3  and  C1'_4 
REMARK    2  A    between atoms: C1'_4  and  C1_5 
ROOT
ATOM      1  C1  I4B d   1       2.656   3.351  -1.033  0.00  0.00    -0.075 A 
ATOM      2  C2  I4B d   1       2.507   4.288  -2.026  0.00  0.00     0.003 A 
ATOM      3  C3  I4B d   1       1.911   5.540  -1.741  0.00  0.00     0.002 A 
ATOM      4  C4  I4B d   1       1.436   5.793  -0.470  0.00  0.00    -0.004 A 
ATOM      5  C5  I4B d   1       1.608   4.851   0.540  0.00  0.00     0.002 A 
ATOM      6  C6  I4B d   1       2.233   3.628   0.261  0.00  0.00     0.003 A 
ENDROOT
BRANCH   1   7
ATOM      7  C1' I4B d   1       3.260   2.027  -1.376  0.00  0.00     0.060 C 
BRANCH   7   8
ATOM      8  C2' I4B d   1       3.212   1.157  -0.137  0.00  0.00    -0.013 C 
ATOM      9  C4' I4B d   1       2.715  -0.227  -0.460  0.00  0.00     0.013 C 
ATOM     10  C3' I4B d   1       4.592   1.113   0.451  0.00  0.00     0.013 C 
ENDBRANCH   7   8
ENDBRANCH   1   7
TORSDOF 2
ENDMDL
