MODEL 1
REMARK minimizedAffinity 14.8381681
REMARK minimizedRMSD -1
REMARK  2 active torsions:
REMARK  status: ('A' for Active; 'I' for Inactive)
REMARK    1  A    between atoms: C2'_3  and  C1'_4 
REMARK    2  A    between atoms: C1'_4  and  C1_5 
ROOT
ATOM      1  C1  I4B d   1      -2.447   0.268   2.923  0.00  0.00    -0.075 A 
ATOM      2  C2  I4B d   1      -2.124   1.512   2.443  0.00  0.00     0.003 A 
ATOM      3  C3  I4B d   1      -0.768   1.909   2.346  0.00  0.00     0.002 A 
ATOM      4  C4  I4B d   1       0.223   1.055   2.784  0.00  0.00    -0.004 A 
ATOM      5  C5  I4B d   1      -0.105  -0.216   3.249  0.00  0.00     0.002 A 
ATOM      6  C6  I4B d   1      -1.448  -0.617   3.307  0.00  0.00     0.003 A 
ENDROOT
BRANCH   1   7
ATOM      7  C1' I4B d   1      -3.890  -0.106   3.043  0.00  0.00     0.060 C 
BRANCH   7   8
ATOM      8  C2' I4B d   1      -4.004  -1.602   2.835  0.00  0.00    -0.013 C 
ATOM      9  C4' I4B d   1      -3.808  -2.349   4.129  0.00  0.00     0.013 C 
ATOM     10  C3' I4B d   1      -5.353  -1.887   2.245  0.00  0.00     0.013 C 
ENDBRANCH   7   8
ENDBRANCH   1   7
TORSDOF 2
ENDMDL
