MODEL 1
REMARK minimizedAffinity 14.3371744
REMARK minimizedRMSD -1
REMARK  2 active torsions:
REMARK  status: ('A' for Active; 'I' for Inactive)
REMARK    1  A    between atoms: C2'_3  and  C1'_4 
REMARK    2  A    between atoms: C1'_4  and  C1_5 
ROOT
ATOM      1  C1  I4B d   1      -2.612   1.364   5.319  0.00  0.00    -0.075 A 
ATOM      2  C2  I4B d   1      -2.873   1.042   4.010  0.00  0.00     0.003 A 
ATOM      3  C3  I4B d   1      -3.991   1.603   3.347  0.00  0.00     0.002 A 
ATOM      4  C4  I4B d   1      -4.844   2.437   4.040  0.00  0.00    -0.004 A 
ATOM      5  C5  I4B d   1      -4.566   2.780   5.359  0.00  0.00     0.002 A 
ATOM      6  C6  I4B d   1      -3.436   2.251   6.000  0.00  0.00     0.003 A 
ENDROOT
BRANCH   1   7
ATOM      7  C1' I4B d   1      -1.442   0.727   5.999  0.00  0.00     0.060 C 
BRANCH   7   8
ATOM      8  C2' I4B d   1      -0.300   1.723   5.992  0.00  0.00    -0.013 C 
ATOM      9  C4' I4B d   1       1.034   1.023   5.991  0.00  0.00     0.013 C 
ATOM     10  C3' I4B d   1      -0.454   2.597   4.783  0.00  0.00     0.013 C 
ENDBRANCH   7   8
ENDBRANCH   1   7
TORSDOF 2
ENDMDL
