MODEL 1
REMARK minimizedAffinity 14.1469879
REMARK minimizedRMSD -1
REMARK  2 active torsions:
REMARK  status: ('A' for Active; 'I' for Inactive)
REMARK    1  A    between atoms: C2'_3  and  C1'_4 
REMARK    2  A    between atoms: C1'_4  and  C1_5 
ROOT
ATOM      1  C1  I4B d   1      -1.122   1.326   3.057  0.00  0.00    -0.075 A 
ATOM      2  C2  I4B d   1      -2.421   1.606   3.400  0.00  0.00     0.003 A 
ATOM      3  C3  I4B d   1      -3.473   0.768   2.954  0.00  0.00     0.002 A 
ATOM      4  C4  I4B d   1      -3.186  -0.302   2.132  0.00  0.00    -0.004 A 
ATOM      5  C5  I4B d   1      -1.866  -0.598   1.804  0.00  0.00     0.002 A 
ATOM      6  C6  I4B d   1      -0.826   0.213   2.279  0.00  0.00     0.003 A 
ENDROOT
BRANCH   1   7
ATOM      7  C1' I4B d   1      -0.040   2.250   3.517  0.00  0.00     0.060 C 
BRANCH   7   8
ATOM      8  C2' I4B d   1       0.632   1.620   4.721  0.00  0.00    -0.013 C 
ATOM      9  C4' I4B d   1       2.131   1.650   4.586  0.00  0.00     0.013 C 
ATOM     10  C3' I4B d   1       0.183   2.363   5.943  0.00  0.00     0.013 C 
ENDBRANCH   7   8
ENDBRANCH   1   7
TORSDOF 2
ENDMDL
