MODEL 1
REMARK minimizedAffinity 7.29103613
REMARK minimizedRMSD -1
REMARK  2 active torsions:
REMARK  status: ('A' for Active; 'I' for Inactive)
REMARK    1  A    between atoms: C2'_3  and  C1'_4 
REMARK    2  A    between atoms: C1'_4  and  C1_5 
ROOT
ATOM      1  C1  I4B d   1       1.016   3.451  -1.727  0.00  0.00    -0.075 A 
ATOM      2  C2  I4B d   1       1.272   4.726  -1.288  0.00  0.00     0.003 A 
ATOM      3  C3  I4B d   1       1.508   4.974   0.086  0.00  0.00     0.002 A 
ATOM      4  C4  I4B d   1       1.429   3.932   0.987  0.00  0.00    -0.004 A 
ATOM      5  C5  I4B d   1       1.192   2.636   0.538  0.00  0.00     0.002 A 
ATOM      6  C6  I4B d   1       0.997   2.392  -0.829  0.00  0.00     0.003 A 
ENDROOT
BRANCH   1   7
ATOM      7  C1' I4B d   1       0.740   3.230  -3.180  0.00  0.00     0.060 C 
BRANCH   7   8
ATOM      8  C2' I4B d   1      -0.761   3.278  -3.382  0.00  0.00    -0.013 C 
ATOM      9  C4' I4B d   1      -1.467   2.324  -2.454  0.00  0.00     0.013 C 
ATOM     10  C3' I4B d   1      -1.214   4.689  -3.155  0.00  0.00     0.013 C 
ENDBRANCH   7   8
ENDBRANCH   1   7
TORSDOF 2
ENDMDL
