MODEL 1
REMARK minimizedAffinity 3.47327185
REMARK minimizedRMSD -1
REMARK  0 active torsions:
REMARK  status: ('A' for Active; 'I' for Inactive)
ROOT
ATOM      1  C   UNL d   1      -1.808  -1.832   3.066  0.00  0.00     0.078 C 
ATOM      2  C1  UNL d   1      -1.622  -2.033   1.592  0.00  0.00    -0.077 A 
ATOM      3  C2  UNL d   1      -2.372  -1.299   0.664  0.00  0.00    -0.001 A 
ATOM      4  C3  UNL d   1      -2.195  -1.504  -0.705  0.00  0.00     0.003 A 
ATOM      5  C4  UNL d   1      -1.270  -2.442  -1.159  0.00  0.00    -0.005 A 
ATOM      6  C5  UNL d   1      -0.521  -3.178  -0.243  0.00  0.00     0.003 A 
ATOM      7  C6  UNL d   1      -0.696  -2.975   1.126  0.00  0.00    -0.001 A 
ENDROOT
TORSDOF 0
ENDMDL
