MODEL 1
REMARK minimizedAffinity 4.60591459
REMARK minimizedRMSD -1
REMARK  0 active torsions:
REMARK  status: ('A' for Active; 'I' for Inactive)
ROOT
ATOM      1  C   UNL d   1      -3.252   2.431  -5.005  0.00  0.00     0.078 C 
ATOM      2  C1  UNL d   1      -4.074   3.681  -5.102  0.00  0.00    -0.077 A 
ATOM      3  C2  UNL d   1      -3.722   4.833  -4.388  0.00  0.00    -0.001 A 
ATOM      4  C3  UNL d   1      -4.502   5.987  -4.481  0.00  0.00     0.003 A 
ATOM      5  C4  UNL d   1      -5.640   6.000  -5.286  0.00  0.00    -0.005 A 
ATOM      6  C5  UNL d   1      -5.999   4.858  -5.999  0.00  0.00     0.003 A 
ATOM      7  C6  UNL d   1      -5.220   3.703  -5.907  0.00  0.00    -0.001 A 
ENDROOT
TORSDOF 0
ENDMDL
