MODEL 1
REMARK minimizedAffinity 12.6646128
REMARK minimizedRMSD -1
REMARK  0 active torsions:
REMARK  status: ('A' for Active; 'I' for Inactive)
ROOT
ATOM      1  C   UNL d   1       1.990   0.163  -1.451  0.00  0.00     0.078 C 
ATOM      2  C1  UNL d   1       2.711   0.633  -0.223  0.00  0.00    -0.077 A 
ATOM      3  C2  UNL d   1       2.782   1.995   0.095  0.00  0.00    -0.001 A 
ATOM      4  C3  UNL d   1       3.465   2.418   1.237  0.00  0.00     0.003 A 
ATOM      5  C4  UNL d   1       4.084   1.487   2.068  0.00  0.00    -0.005 A 
ATOM      6  C5  UNL d   1       4.021   0.130   1.758  0.00  0.00     0.003 A 
ATOM      7  C6  UNL d   1       3.338  -0.296   0.617  0.00  0.00    -0.001 A 
ENDROOT
TORSDOF 0
ENDMDL
