MODEL 1
REMARK minimizedAffinity 11.0348978
REMARK minimizedRMSD -1
REMARK  0 active torsions:
REMARK  status: ('A' for Active; 'I' for Inactive)
ROOT
ATOM      1  C   UNL d   1      -5.929   5.998  -5.908  0.00  0.00     0.078 C 
ATOM      2  C1  UNL d   1      -5.020   4.936  -5.365  0.00  0.00    -0.077 A 
ATOM      3  C2  UNL d   1      -4.228   5.173  -4.236  0.00  0.00    -0.001 A 
ATOM      4  C3  UNL d   1      -3.380   4.178  -3.747  0.00  0.00     0.003 A 
ATOM      5  C4  UNL d   1      -3.314   2.940  -4.383  0.00  0.00    -0.005 A 
ATOM      6  C5  UNL d   1      -4.097   2.695  -5.509  0.00  0.00     0.003 A 
ATOM      7  C6  UNL d   1      -4.946   3.689  -5.999  0.00  0.00    -0.001 A 
ENDROOT
TORSDOF 0
ENDMDL
