MODEL 1
REMARK minimizedAffinity 10.457593
REMARK minimizedRMSD -1
REMARK  0 active torsions:
REMARK  status: ('A' for Active; 'I' for Inactive)
ROOT
ATOM      1  C   UNL d   1      -0.007  -3.513   0.736  0.00  0.00     0.078 C 
ATOM      2  C1  UNL d   1      -0.810  -2.616  -0.158  0.00  0.00    -0.077 A 
ATOM      3  C2  UNL d   1      -1.967  -1.979   0.310  0.00  0.00    -0.001 A 
ATOM      4  C3  UNL d   1      -2.710  -1.155  -0.536  0.00  0.00     0.003 A 
ATOM      5  C4  UNL d   1      -2.307  -0.961  -1.856  0.00  0.00    -0.005 A 
ATOM      6  C5  UNL d   1      -1.159  -1.592  -2.331  0.00  0.00     0.003 A 
ATOM      7  C6  UNL d   1      -0.414  -2.417  -1.486  0.00  0.00    -0.001 A 
ENDROOT
TORSDOF 0
ENDMDL
