MODEL 1
REMARK minimizedAffinity 8.54227829
REMARK minimizedRMSD -1
REMARK  0 active torsions:
REMARK  status: ('A' for Active; 'I' for Inactive)
ROOT
ATOM      1  C   UNL d   1      -2.269  -2.810   2.643  0.00  0.00     0.078 C 
ATOM      2  C1  UNL d   1      -1.715  -2.602   1.265  0.00  0.00    -0.077 A 
ATOM      3  C2  UNL d   1      -0.649  -3.377   0.792  0.00  0.00    -0.001 A 
ATOM      4  C3  UNL d   1      -0.137  -3.166  -0.490  0.00  0.00     0.003 A 
ATOM      5  C4  UNL d   1      -0.684  -2.179  -1.307  0.00  0.00    -0.005 A 
ATOM      6  C5  UNL d   1      -1.743  -1.401  -0.844  0.00  0.00     0.003 A 
ATOM      7  C6  UNL d   1      -2.256  -1.611   0.437  0.00  0.00    -0.001 A 
ENDROOT
TORSDOF 0
ENDMDL
