MODEL 1
REMARK minimizedAffinity 0.936348796
REMARK minimizedRMSD -1
REMARK  0 active torsions:
REMARK  status: ('A' for Active; 'I' for Inactive)
ROOT
ATOM      1  C   UNL d   1      -4.487   5.986  -2.635  0.00  0.00     0.078 C 
ATOM      2  C1  UNL d   1      -4.783   5.400  -1.287  0.00  0.00    -0.077 A 
ATOM      3  C2  UNL d   1      -5.713   6.000  -0.429  0.00  0.00    -0.001 A 
ATOM      4  C3  UNL d   1      -5.972   5.449   0.827  0.00  0.00     0.003 A 
ATOM      5  C4  UNL d   1      -5.305   4.296   1.237  0.00  0.00    -0.005 A 
ATOM      6  C5  UNL d   1      -4.376   3.694   0.391  0.00  0.00     0.003 A 
ATOM      7  C6  UNL d   1      -4.116   4.244  -0.866  0.00  0.00    -0.001 A 
ENDROOT
TORSDOF 0
ENDMDL
