MODEL 1
REMARK minimizedAffinity 12.7614803
REMARK minimizedRMSD -1
REMARK  0 active torsions:
REMARK  status: ('A' for Active; 'I' for Inactive)
ROOT
ATOM      1  C   UNL d   1       4.967   5.991   0.746  0.00  0.00     0.078 C 
ATOM      2  C1  UNL d   1       4.958   4.689   0.001  0.00  0.00    -0.077 A 
ATOM      3  C2  UNL d   1       3.936   3.753   0.198  0.00  0.00    -0.001 A 
ATOM      4  C3  UNL d   1       3.946   2.541  -0.495  0.00  0.00     0.003 A 
ATOM      5  C4  UNL d   1       4.977   2.254  -1.388  0.00  0.00    -0.005 A 
ATOM      6  C5  UNL d   1       5.999   3.179  -1.589  0.00  0.00     0.003 A 
ATOM      7  C6  UNL d   1       5.991   4.391  -0.897  0.00  0.00    -0.001 A 
ENDROOT
TORSDOF 0
ENDMDL
