MODEL 1
REMARK minimizedAffinity 17.2635651
REMARK minimizedRMSD -1
REMARK  0 active torsions:
REMARK  status: ('A' for Active; 'I' for Inactive)
ROOT
ATOM      1  C   UNL d   1       1.300   5.861   5.999  0.00  0.00     0.078 C 
ATOM      2  C1  UNL d   1       2.465   4.916   5.986  0.00  0.00    -0.077 A 
ATOM      3  C2  UNL d   1       2.269   3.530   5.975  0.00  0.00    -0.001 A 
ATOM      4  C3  UNL d   1       3.363   2.663   5.974  0.00  0.00     0.003 A 
ATOM      5  C4  UNL d   1       4.660   3.172   5.984  0.00  0.00    -0.005 A 
ATOM      6  C5  UNL d   1       4.864   4.550   5.997  0.00  0.00     0.003 A 
ATOM      7  C6  UNL d   1       3.772   5.419   5.999  0.00  0.00    -0.001 A 
ENDROOT
TORSDOF 0
ENDMDL
