MODEL 1
REMARK minimizedAffinity 15.2611008
REMARK minimizedRMSD -1
REMARK  0 active torsions:
REMARK  status: ('A' for Active; 'I' for Inactive)
ROOT
ATOM      1  C   UNL d   1       0.335  -0.533  -4.163  0.00  0.00     0.078 C 
ATOM      2  C1  UNL d   1      -0.477   0.722  -4.284  0.00  0.00    -0.077 A 
ATOM      3  C2  UNL d   1      -1.864   0.705  -4.096  0.00  0.00    -0.001 A 
ATOM      4  C3  UNL d   1      -2.608   1.879  -4.221  0.00  0.00     0.003 A 
ATOM      5  C4  UNL d   1      -1.974   3.079  -4.536  0.00  0.00    -0.005 A 
ATOM      6  C5  UNL d   1      -0.594   3.106  -4.727  0.00  0.00     0.003 A 
ATOM      7  C6  UNL d   1       0.152   1.933  -4.602  0.00  0.00    -0.001 A 
ENDROOT
TORSDOF 0
ENDMDL
