MODEL 1
REMARK minimizedAffinity 11.5837746
REMARK minimizedRMSD -1
REMARK  0 active torsions:
REMARK  status: ('A' for Active; 'I' for Inactive)
ROOT
ATOM      1  C   UNL d   1       3.130   2.400   0.986  0.00  0.00     0.078 C 
ATOM      2  C1  UNL d   1       2.637   1.712  -0.251  0.00  0.00    -0.077 A 
ATOM      3  C2  UNL d   1       2.360   0.339  -0.251  0.00  0.00    -0.001 A 
ATOM      4  C3  UNL d   1       1.911  -0.290  -1.413  0.00  0.00     0.003 A 
ATOM      5  C4  UNL d   1       1.736   0.444  -2.584  0.00  0.00    -0.005 A 
ATOM      6  C5  UNL d   1       2.012   1.810  -2.594  0.00  0.00     0.003 A 
ATOM      7  C6  UNL d   1       2.461   2.442  -1.433  0.00  0.00    -0.001 A 
ENDROOT
TORSDOF 0
ENDMDL
