MODEL 1
REMARK minimizedAffinity 9.59329033
REMARK minimizedRMSD -1
REMARK  0 active torsions:
REMARK  status: ('A' for Active; 'I' for Inactive)
ROOT
ATOM      1  C   UNL d   1      -0.275  -3.699   0.561  0.00  0.00     0.078 C 
ATOM      2  C1  UNL d   1      -0.928  -2.666  -0.309  0.00  0.00    -0.077 A 
ATOM      3  C2  UNL d   1      -1.964  -1.861   0.181  0.00  0.00    -0.001 A 
ATOM      4  C3  UNL d   1      -2.569  -0.911  -0.643  0.00  0.00     0.003 A 
ATOM      5  C4  UNL d   1      -2.147  -0.757  -1.962  0.00  0.00    -0.005 A 
ATOM      6  C5  UNL d   1      -1.118  -1.555  -2.459  0.00  0.00     0.003 A 
ATOM      7  C6  UNL d   1      -0.512  -2.506  -1.637  0.00  0.00    -0.001 A 
ENDROOT
TORSDOF 0
ENDMDL
