MODEL 1
REMARK minimizedAffinity 4.49395132
REMARK minimizedRMSD -1
REMARK  0 active torsions:
REMARK  status: ('A' for Active; 'I' for Inactive)
ROOT
ATOM      1  C   UNL d   1      -3.355   2.364  -4.833  0.00  0.00     0.078 C 
ATOM      2  C1  UNL d   1      -4.148   3.624  -5.007  0.00  0.00    -0.077 A 
ATOM      3  C2  UNL d   1      -5.276   3.657  -5.836  0.00  0.00    -0.001 A 
ATOM      4  C3  UNL d   1      -5.999   4.840  -5.997  0.00  0.00     0.003 A 
ATOM      5  C4  UNL d   1      -5.602   5.999  -5.333  0.00  0.00    -0.005 A 
ATOM      6  C5  UNL d   1      -4.479   5.976  -4.508  0.00  0.00     0.003 A 
ATOM      7  C6  UNL d   1      -3.755   4.795  -4.346  0.00  0.00    -0.001 A 
ENDROOT
TORSDOF 0
ENDMDL
