MODEL 1
REMARK minimizedAffinity 15.1681366
REMARK minimizedRMSD -1
REMARK  0 active torsions:
REMARK  status: ('A' for Active; 'I' for Inactive)
ROOT
ATOM      1  C   UNL d   1      -1.462  -1.191  -0.889  0.00  0.00     0.078 C 
ATOM      2  C1  UNL d   1      -0.220  -0.746  -1.603  0.00  0.00    -0.077 A 
ATOM      3  C2  UNL d   1       0.701   0.108  -0.984  0.00  0.00    -0.001 A 
ATOM      4  C3  UNL d   1       1.848   0.522  -1.663  0.00  0.00     0.003 A 
ATOM      5  C4  UNL d   1       2.084   0.087  -2.966  0.00  0.00    -0.005 A 
ATOM      6  C5  UNL d   1       1.172  -0.762  -3.591  0.00  0.00     0.003 A 
ATOM      7  C6  UNL d   1       0.025  -1.176  -2.913  0.00  0.00    -0.001 A 
ENDROOT
TORSDOF 0
ENDMDL
