MODEL 1
REMARK minimizedAffinity 9.51187515
REMARK minimizedRMSD -1
REMARK  0 active torsions:
REMARK  status: ('A' for Active; 'I' for Inactive)
ROOT
ATOM      1  C   UNL d   1      -3.138   2.544  -4.617  0.00  0.00     0.078 C 
ATOM      2  C1  UNL d   1      -4.090   3.686  -4.812  0.00  0.00    -0.077 A 
ATOM      3  C2  UNL d   1      -5.087   3.634  -5.794  0.00  0.00    -0.001 A 
ATOM      4  C3  UNL d   1      -5.960   4.708  -5.971  0.00  0.00     0.003 A 
ATOM      5  C4  UNL d   1      -5.844   5.843  -5.171  0.00  0.00    -0.005 A 
ATOM      6  C5  UNL d   1      -4.853   5.906  -4.194  0.00  0.00     0.003 A 
ATOM      7  C6  UNL d   1      -3.979   4.832  -4.015  0.00  0.00    -0.001 A 
ENDROOT
TORSDOF 0
ENDMDL
