MODEL 1
REMARK minimizedAffinity 3.4963913
REMARK minimizedRMSD -1
REMARK  0 active torsions:
REMARK  status: ('A' for Active; 'I' for Inactive)
ROOT
ATOM      1  C   UNL d   1      -5.115   0.754  -5.999  0.00  0.00     0.023 A 
ATOM      2  C1  UNL d   1      -5.983   0.392  -4.969  0.00  0.00     0.003 A 
ATOM      3  C2  UNL d   1      -5.473  -0.101  -3.766  0.00  0.00     0.048 A 
ATOM      4  C3  UNL d   1      -4.095  -0.229  -3.600  0.00  0.00     0.023 A 
ATOM      5  C4  UNL d   1      -3.222   0.132  -4.628  0.00  0.00     0.048 A 
ATOM      6  C5  UNL d   1      -3.737   0.624  -5.829  0.00  0.00     0.003 A 
ATOM      7  I   UNL d   1      -3.334  -0.963  -1.810  0.00  0.00    -0.146 I 
ENDROOT
TORSDOF 0
ENDMDL
