MODEL 1
REMARK minimizedAffinity 10.1946802
REMARK minimizedRMSD -1
REMARK  0 active torsions:
REMARK  status: ('A' for Active; 'I' for Inactive)
ROOT
ATOM      1  C   UNL d   1       1.949   0.142  -0.309  0.00  0.00     0.023 A 
ATOM      2  C1  UNL d   1       3.189   0.780  -0.327  0.00  0.00     0.003 A 
ATOM      3  C2  UNL d   1       4.353   0.055  -0.063  0.00  0.00     0.048 A 
ATOM      4  C3  UNL d   1       4.269  -1.309   0.217  0.00  0.00     0.023 A 
ATOM      5  C4  UNL d   1       3.030  -1.952   0.235  0.00  0.00     0.048 A 
ATOM      6  C5  UNL d   1       1.869  -1.222  -0.029  0.00  0.00     0.003 A 
ATOM      7  I   UNL d   1       5.999  -2.391   0.610  0.00  0.00    -0.146 I 
ENDROOT
TORSDOF 0
ENDMDL
