MODEL 1
REMARK minimizedAffinity -1.18403721
REMARK minimizedRMSD -1
REMARK  0 active torsions:
REMARK  status: ('A' for Active; 'I' for Inactive)
ROOT
ATOM      1  C   UNL d   1      -4.372   0.129  -6.000  0.00  0.00     0.023 A 
ATOM      2  C1  UNL d   1      -3.046   0.382  -5.649  0.00  0.00     0.003 A 
ATOM      3  C2  UNL d   1      -2.606   0.129  -4.348  0.00  0.00     0.048 A 
ATOM      4  C3  UNL d   1      -3.497  -0.377  -3.403  0.00  0.00     0.023 A 
ATOM      5  C4  UNL d   1      -4.825  -0.633  -3.750  0.00  0.00     0.048 A 
ATOM      6  C5  UNL d   1      -5.260  -0.378  -5.051  0.00  0.00     0.003 A 
ATOM      7  I   UNL d   1      -2.844  -0.754  -1.466  0.00  0.00    -0.146 I 
ENDROOT
TORSDOF 0
ENDMDL
