MODEL 1
REMARK minimizedAffinity -0.551386058
REMARK minimizedRMSD -1
REMARK  0 active torsions:
REMARK  status: ('A' for Active; 'I' for Inactive)
ROOT
ATOM      1  C   UNL d   1      -3.283   3.251  -5.187  0.00  0.00     0.023 A 
ATOM      2  C1  UNL d   1      -3.443   3.185  -3.803  0.00  0.00     0.003 A 
ATOM      3  C2  UNL d   1      -3.664   1.954  -3.182  0.00  0.00     0.048 A 
ATOM      4  C3  UNL d   1      -3.722   0.792  -3.951  0.00  0.00     0.023 A 
ATOM      5  C4  UNL d   1      -3.562   0.853  -5.337  0.00  0.00     0.048 A 
ATOM      6  C5  UNL d   1      -3.342   2.087  -5.953  0.00  0.00     0.003 A 
ATOM      7  I   UNL d   1      -4.051  -1.041  -3.029  0.00  0.00    -0.146 I 
ENDROOT
TORSDOF 0
ENDMDL
