MODEL 1
REMARK minimizedAffinity 1.47099578
REMARK minimizedRMSD -1
REMARK  0 active torsions:
REMARK  status: ('A' for Active; 'I' for Inactive)
ROOT
ATOM      1  C   UNL d   1       1.988  -0.803  -0.126  0.00  0.00     0.023 A 
ATOM      2  C1  UNL d   1       1.841  -2.133   0.268  0.00  0.00     0.003 A 
ATOM      3  C2  UNL d   1       2.964  -2.889   0.611  0.00  0.00     0.048 A 
ATOM      4  C3  UNL d   1       4.231  -2.308   0.558  0.00  0.00     0.023 A 
ATOM      5  C4  UNL d   1       4.383  -0.978   0.165  0.00  0.00     0.048 A 
ATOM      6  C5  UNL d   1       3.257  -0.226  -0.178  0.00  0.00     0.003 A 
ATOM      7  I   UNL d   1       5.904  -3.432   1.068  0.00  0.00    -0.146 I 
ENDROOT
TORSDOF 0
ENDMDL
