MODEL 1
REMARK minimizedAffinity -0.743614376
REMARK minimizedRMSD -1
REMARK  0 active torsions:
REMARK  status: ('A' for Active; 'I' for Inactive)
ROOT
ATOM      1  C   UNL d   1      -4.666   1.116  -6.000  0.00  0.00     0.023 A 
ATOM      2  C1  UNL d   1      -5.621   0.852  -5.018  0.00  0.00     0.003 A 
ATOM      3  C2  UNL d   1      -5.250   0.206  -3.837  0.00  0.00     0.048 A 
ATOM      4  C3  UNL d   1      -3.921  -0.171  -3.644  0.00  0.00     0.023 A 
ATOM      5  C4  UNL d   1      -2.962   0.093  -4.623  0.00  0.00     0.048 A 
ATOM      6  C5  UNL d   1      -3.338   0.737  -5.802  0.00  0.00     0.003 A 
ATOM      7  I   UNL d   1      -3.366  -1.132  -1.886  0.00  0.00    -0.146 I 
ENDROOT
TORSDOF 0
ENDMDL
