MODEL 1
REMARK minimizedAffinity 4.35556126
REMARK minimizedRMSD -1
REMARK  0 active torsions:
REMARK  status: ('A' for Active; 'I' for Inactive)
ROOT
ATOM      1  C   UNL d   1      -4.629  -1.872  -3.607  0.00  0.00     0.023 A 
ATOM      2  C1  UNL d   1      -5.323  -0.761  -4.087  0.00  0.00     0.003 A 
ATOM      3  C2  UNL d   1      -4.642   0.248  -4.770  0.00  0.00     0.048 A 
ATOM      4  C3  UNL d   1      -3.267   0.139  -4.972  0.00  0.00     0.023 A 
ATOM      5  C4  UNL d   1      -2.568  -0.971  -4.495  0.00  0.00     0.048 A 
ATOM      6  C5  UNL d   1      -3.253  -1.977  -3.811  0.00  0.00     0.003 A 
ATOM      7  I   UNL d   1      -2.250   1.640  -5.990  0.00  0.00    -0.146 I 
ENDROOT
TORSDOF 0
ENDMDL
