MODEL 1
REMARK minimizedAffinity 0.381916285
REMARK minimizedRMSD -1
REMARK  0 active torsions:
REMARK  status: ('A' for Active; 'I' for Inactive)
ROOT
ATOM      1  C   UNL d   1      -2.253  -1.534  -4.390  0.00  0.00     0.023 A 
ATOM      2  C1  UNL d   1      -3.282  -1.228  -3.498  0.00  0.00     0.003 A 
ATOM      3  C2  UNL d   1      -4.197  -0.220  -3.805  0.00  0.00     0.048 A 
ATOM      4  C3  UNL d   1      -4.079   0.479  -5.006  0.00  0.00     0.023 A 
ATOM      5  C4  UNL d   1      -3.052   0.176  -5.902  0.00  0.00     0.048 A 
ATOM      6  C5  UNL d   1      -2.139  -0.833  -5.590  0.00  0.00     0.003 A 
ATOM      7  I   UNL d   1      -5.441   1.981  -5.466  0.00  0.00    -0.146 I 
ENDROOT
TORSDOF 0
ENDMDL
