MODEL 1
REMARK minimizedAffinity 2.43218279
REMARK minimizedRMSD -1
REMARK  0 active torsions:
REMARK  status: ('A' for Active; 'I' for Inactive)
ROOT
ATOM      1  C   UNL d   1      -5.664   1.152  -5.148  0.00  0.00     0.023 A 
ATOM      2  C1  UNL d   1      -5.864  -0.169  -4.747  0.00  0.00     0.003 A 
ATOM      3  C2  UNL d   1      -4.770  -1.016  -4.555  0.00  0.00     0.048 A 
ATOM      4  C3  UNL d   1      -3.478  -0.534  -4.766  0.00  0.00     0.023 A 
ATOM      5  C4  UNL d   1      -3.273   0.787  -5.167  0.00  0.00     0.048 A 
ATOM      6  C5  UNL d   1      -4.370   1.629  -5.358  0.00  0.00     0.003 A 
ATOM      7  I   UNL d   1      -1.848  -1.792  -4.482  0.00  0.00    -0.146 I 
ENDROOT
TORSDOF 0
ENDMDL
