MODEL 1
REMARK minimizedAffinity -3.47886443
REMARK minimizedRMSD -1
REMARK  1 active torsions:
REMARK  status: ('A' for Active; 'I' for Inactive)
REMARK    1  A    between atoms: C1_2  and  C2_3 
ROOT
ATOM      1  C2  UNL d   1      -0.747   0.218  -0.641  0.00  0.00    -0.073 A 
ATOM      2  C3  UNL d   1      -0.263  -1.079  -0.847  0.00  0.00    -0.002 A 
ATOM      3  C4  UNL d   1      -0.842  -1.902  -1.814  0.00  0.00     0.004 A 
ATOM      4  C5  UNL d   1      -1.904  -1.437  -2.588  0.00  0.00    -0.004 A 
ATOM      5  C6  UNL d   1      -2.395  -0.140  -2.405  0.00  0.00    -0.075 A 
ATOM      6  C7  UNL d   1      -3.539   0.376  -3.227  0.00  0.00     0.076 C 
ATOM      7  C8  UNL d   1      -1.810   0.680  -1.430  0.00  0.00     0.001 A 
ENDROOT
BRANCH   1   8
ATOM      8  C1  UNL d   1      -0.121   1.113   0.397  0.00  0.00     0.053 C 
ATOM      9  C   UNL d   1       1.086   1.860  -0.148  0.00  0.00     0.018 C 
ENDBRANCH   1   8
TORSDOF 1
ENDMDL
