MODEL 1
REMARK minimizedAffinity 1.21132851
REMARK minimizedRMSD -1
REMARK  1 active torsions:
REMARK  status: ('A' for Active; 'I' for Inactive)
REMARK    1  A    between atoms: C1_2  and  C2_3 
ROOT
ATOM      1  C2  UNL d   1      -0.586   0.774  -0.575  0.00  0.00    -0.073 A 
ATOM      2  C3  UNL d   1       0.542   1.601  -0.504  0.00  0.00    -0.002 A 
ATOM      3  C4  UNL d   1       1.683   1.179   0.178  0.00  0.00     0.004 A 
ATOM      4  C5  UNL d   1       1.712  -0.075   0.790  0.00  0.00    -0.004 A 
ATOM      5  C6  UNL d   1       0.600  -0.920   0.720  0.00  0.00    -0.075 A 
ATOM      6  C7  UNL d   1       0.615  -2.270   1.375  0.00  0.00     0.076 C 
ATOM      7  C8  UNL d   1      -0.544  -0.488   0.035  0.00  0.00     0.001 A 
ENDROOT
BRANCH   1   8
ATOM      8  C1  UNL d   1      -1.818   1.223  -1.316  0.00  0.00     0.053 C 
ATOM      9  C   UNL d   1      -2.080   0.376  -2.552  0.00  0.00     0.018 C 
ENDBRANCH   1   8
TORSDOF 1
ENDMDL
