MODEL 1
REMARK minimizedAffinity -5.01230001
REMARK minimizedRMSD -1
REMARK  1 active torsions:
REMARK  status: ('A' for Active; 'I' for Inactive)
REMARK    1  A    between atoms: C1_2  and  C2_3 
ROOT
ATOM      1  C2  UNL d   1      -0.241  -0.451   0.032  0.00  0.00    -0.073 A 
ATOM      2  C3  UNL d   1      -0.669  -1.591   0.721  0.00  0.00    -0.002 A 
ATOM      3  C4  UNL d   1       0.235  -2.337   1.479  0.00  0.00     0.004 A 
ATOM      4  C5  UNL d   1       1.572  -1.947   1.561  0.00  0.00    -0.004 A 
ATOM      5  C6  UNL d   1       2.016  -0.804   0.889  0.00  0.00    -0.075 A 
ATOM      6  C7  UNL d   1       3.451  -0.372   0.965  0.00  0.00     0.076 C 
ATOM      7  C8  UNL d   1       1.103  -0.061   0.128  0.00  0.00     0.001 A 
ENDROOT
BRANCH   1   8
ATOM      8  C1  UNL d   1      -1.215   0.362  -0.783  0.00  0.00     0.053 C 
ATOM      9  C   UNL d   1      -1.656  -0.371  -2.040  0.00  0.00     0.018 C 
ENDBRANCH   1   8
TORSDOF 1
ENDMDL
