MODEL 1
REMARK minimizedAffinity -6.2483058
REMARK minimizedRMSD -1
REMARK  1 active torsions:
REMARK  status: ('A' for Active; 'I' for Inactive)
REMARK    1  A    between atoms: C1_2  and  C2_3 
ROOT
ATOM      1  C2  UNL d   1       1.507  -1.271   1.694  0.00  0.00    -0.073 A 
ATOM      2  C3  UNL d   1       0.143  -1.581   1.644  0.00  0.00    -0.002 A 
ATOM      3  C4  UNL d   1      -0.760  -0.698   1.050  0.00  0.00     0.004 A 
ATOM      4  C5  UNL d   1      -0.308   0.499   0.495  0.00  0.00    -0.004 A 
ATOM      5  C6  UNL d   1       1.053   0.821   0.524  0.00  0.00    -0.075 A 
ATOM      6  C7  UNL d   1       1.554   2.106  -0.067  0.00  0.00     0.076 C 
ATOM      7  C8  UNL d   1       1.952  -0.070   1.125  0.00  0.00     0.001 A 
ENDROOT
BRANCH   1   8
ATOM      8  C1  UNL d   1       2.486  -2.225   2.329  0.00  0.00     0.053 C 
ATOM      9  C   UNL d   1       3.926  -1.869   1.994  0.00  0.00     0.018 C 
ENDBRANCH   1   8
TORSDOF 1
ENDMDL
