MODEL 1
REMARK minimizedAffinity -6.7202034
REMARK minimizedRMSD -1
REMARK  1 active torsions:
REMARK  status: ('A' for Active; 'I' for Inactive)
REMARK    1  A    between atoms: C1_2  and  C2_3 
ROOT
ATOM      1  C2  UNL d   1       2.044  -1.593   1.738  0.00  0.00    -0.073 A 
ATOM      2  C3  UNL d   1       3.306  -1.122   1.359  0.00  0.00    -0.002 A 
ATOM      3  C4  UNL d   1       3.421  -0.016   0.517  0.00  0.00     0.004 A 
ATOM      4  C5  UNL d   1       2.279   0.635   0.052  0.00  0.00    -0.004 A 
ATOM      5  C6  UNL d   1       1.009   0.187   0.429  0.00  0.00    -0.075 A 
ATOM      6  C7  UNL d   1      -0.230   0.874  -0.065  0.00  0.00     0.076 C 
ATOM      7  C8  UNL d   1       0.901  -0.927   1.273  0.00  0.00     0.001 A 
ENDROOT
BRANCH   1   8
ATOM      8  C1  UNL d   1       1.914  -2.784   2.652  0.00  0.00     0.053 C 
ATOM      9  C   UNL d   1       1.499  -2.381   4.058  0.00  0.00     0.018 C 
ENDBRANCH   1   8
TORSDOF 1
ENDMDL
