MODEL 1
REMARK minimizedAffinity -3.02844787
REMARK minimizedRMSD -1
REMARK  1 active torsions:
REMARK  status: ('A' for Active; 'I' for Inactive)
REMARK    1  A    between atoms: C1_2  and  C2_3 
ROOT
ATOM      1  C2  UNL d   1      -1.040   0.569  -0.233  0.00  0.00    -0.073 A 
ATOM      2  C3  UNL d   1      -0.108   1.606  -0.114  0.00  0.00    -0.002 A 
ATOM      3  C4  UNL d   1       1.073   1.414   0.604  0.00  0.00     0.004 A 
ATOM      4  C5  UNL d   1       1.337   0.182   1.204  0.00  0.00    -0.004 A 
ATOM      5  C6  UNL d   1       0.424  -0.870   1.086  0.00  0.00    -0.075 A 
ATOM      6  C7  UNL d   1       0.692  -2.200   1.727  0.00  0.00     0.076 C 
ATOM      7  C8  UNL d   1      -0.761  -0.668   0.365  0.00  0.00     0.001 A 
ENDROOT
BRANCH   1   8
ATOM      8  C1  UNL d   1      -2.314   0.769  -1.013  0.00  0.00     0.053 C 
ATOM      9  C   UNL d   1      -2.317  -0.020  -2.313  0.00  0.00     0.018 C 
ENDBRANCH   1   8
TORSDOF 1
ENDMDL
