MODEL 1
REMARK minimizedAffinity -6.71282148
REMARK minimizedRMSD -1
REMARK  1 active torsions:
REMARK  status: ('A' for Active; 'I' for Inactive)
REMARK    1  A    between atoms: C1_2  and  C2_3 
ROOT
ATOM      1  C2  UNL d   1      -0.502   0.077   0.101  0.00  0.00    -0.073 A 
ATOM      2  C3  UNL d   1      -0.116   1.365  -0.289  0.00  0.00    -0.002 A 
ATOM      3  C4  UNL d   1       1.196   1.796  -0.094  0.00  0.00     0.004 A 
ATOM      4  C5  UNL d   1       2.137   0.944   0.484  0.00  0.00    -0.004 A 
ATOM      5  C6  UNL d   1       1.774  -0.350   0.869  0.00  0.00    -0.075 A 
ATOM      6  C7  UNL d   1       2.773  -1.278   1.494  0.00  0.00     0.076 C 
ATOM      7  C8  UNL d   1       0.453  -0.775   0.673  0.00  0.00     0.001 A 
ENDROOT
BRANCH   1   8
ATOM      8  C1  UNL d   1      -1.917  -0.396  -0.113  0.00  0.00     0.053 C 
ATOM      9  C   UNL d   1      -2.420  -0.074  -1.511  0.00  0.00     0.018 C 
ENDBRANCH   1   8
TORSDOF 1
ENDMDL
