MODEL 1
REMARK minimizedAffinity -5.98557901
REMARK minimizedRMSD -1
REMARK  2 active torsions:
REMARK  status: ('A' for Active; 'I' for Inactive)
REMARK    1  A    between atoms: C2'_3  and  C1'_4 
REMARK    2  A    between atoms: C1'_4  and  C1_5 
ROOT
ATOM      1  C1  I4B d   1       0.120   0.541  -0.245  0.00  0.00    -0.075 A 
ATOM      2  C2  I4B d   1      -0.568   0.043   0.833  0.00  0.00     0.003 A 
ATOM      3  C3  I4B d   1      -1.895  -0.427   0.676  0.00  0.00     0.002 A 
ATOM      4  C4  I4B d   1      -2.508  -0.333  -0.556  0.00  0.00    -0.004 A 
ATOM      5  C5  I4B d   1      -1.801   0.152  -1.653  0.00  0.00     0.002 A 
ATOM      6  C6  I4B d   1      -0.475   0.580  -1.500  0.00  0.00     0.003 A 
ENDROOT
BRANCH   1   7
ATOM      7  C1' I4B d   1       1.508   1.059  -0.038  0.00  0.00     0.060 C 
BRANCH   7   8
ATOM      8  C2' I4B d   1       1.469   2.055   1.103  0.00  0.00    -0.013 C 
ATOM      9  C4' I4B d   1       2.465   1.697   2.174  0.00  0.00     0.013 C 
ATOM     10  C3' I4B d   1       1.747   3.416   0.538  0.00  0.00     0.013 C 
ENDBRANCH   7   8
ENDBRANCH   1   7
TORSDOF 2
ENDMDL
