MODEL 1
REMARK minimizedAffinity -2.14676523
REMARK minimizedRMSD -1
REMARK  2 active torsions:
REMARK  status: ('A' for Active; 'I' for Inactive)
REMARK    1  A    between atoms: C2'_3  and  C1'_4 
REMARK    2  A    between atoms: C1'_4  and  C1_5 
ROOT
ATOM      1  C1  I4B d   1       0.526   0.370   0.828  0.00  0.00    -0.075 A 
ATOM      2  C2  I4B d   1       1.580   0.133  -0.020  0.00  0.00     0.003 A 
ATOM      3  C3  I4B d   1       2.769   0.893   0.091  0.00  0.00     0.002 A 
ATOM      4  C4  I4B d   1       2.843   1.907   1.024  0.00  0.00    -0.004 A 
ATOM      5  C5  I4B d   1       1.783   2.131   1.897  0.00  0.00     0.002 A 
ATOM      6  C6  I4B d   1       0.621   1.350   1.807  0.00  0.00     0.003 A 
ENDROOT
BRANCH   1   7
ATOM      7  C1' I4B d   1      -0.727  -0.430   0.661  0.00  0.00     0.060 C 
BRANCH   7   8
ATOM      8  C2' I4B d   1      -1.228  -0.222  -0.754  0.00  0.00    -0.013 C 
ATOM      9  C4' I4B d   1      -2.433  -1.081  -1.036  0.00  0.00     0.013 C 
ATOM     10  C3' I4B d   1      -1.548   1.233  -0.923  0.00  0.00     0.013 C 
ENDBRANCH   7   8
ENDBRANCH   1   7
TORSDOF 2
ENDMDL
