MODEL 1
REMARK minimizedAffinity -1.91167259
REMARK minimizedRMSD -1
REMARK  2 active torsions:
REMARK  status: ('A' for Active; 'I' for Inactive)
REMARK    1  A    between atoms: C2'_3  and  C1'_4 
REMARK    2  A    between atoms: C1'_4  and  C1_5 
ROOT
ATOM      1  C1  I4B d   1       1.910   1.532   0.738  0.00  0.00    -0.075 A 
ATOM      2  C2  I4B d   1       1.755   1.697   2.091  0.00  0.00     0.003 A 
ATOM      3  C3  I4B d   1       2.287   2.841   2.736  0.00  0.00     0.002 A 
ATOM      4  C4  I4B d   1       3.005   3.762   2.001  0.00  0.00    -0.004 A 
ATOM      5  C5  I4B d   1       3.143   3.604   0.625  0.00  0.00     0.002 A 
ATOM      6  C6  I4B d   1       2.581   2.489  -0.013  0.00  0.00     0.003 A 
ENDROOT
BRANCH   1   7
ATOM      7  C1' I4B d   1       1.365   0.296   0.095  0.00  0.00     0.060 C 
BRANCH   7   8
ATOM      8  C2' I4B d   1      -0.096   0.177   0.480  0.00  0.00    -0.013 C 
ATOM      9  C4' I4B d   1      -0.994   0.438  -0.701  0.00  0.00     0.013 C 
ATOM     10  C3' I4B d   1      -0.317  -1.199   1.034  0.00  0.00     0.013 C 
ENDBRANCH   7   8
ENDBRANCH   1   7
TORSDOF 2
ENDMDL
