MODEL 1
REMARK minimizedAffinity 2.57515788
REMARK minimizedRMSD -1
REMARK  2 active torsions:
REMARK  status: ('A' for Active; 'I' for Inactive)
REMARK    1  A    between atoms: C2'_3  and  C1'_4 
REMARK    2  A    between atoms: C1'_4  and  C1_5 
ROOT
ATOM      1  C1  I4B d   1       0.424   0.884   0.381  0.00  0.00    -0.075 A 
ATOM      2  C2  I4B d   1       1.305   1.657   1.096  0.00  0.00     0.003 A 
ATOM      3  C3  I4B d   1       2.514   2.093   0.502  0.00  0.00     0.002 A 
ATOM      4  C4  I4B d   1       2.823   1.695  -0.782  0.00  0.00    -0.004 A 
ATOM      5  C5  I4B d   1       1.918   0.931  -1.513  0.00  0.00     0.002 A 
ATOM      6  C6  I4B d   1       0.705   0.533  -0.932  0.00  0.00     0.003 A 
ENDROOT
BRANCH   1   7
ATOM      7  C1' I4B d   1      -0.828   0.414   1.051  0.00  0.00     0.060 C 
BRANCH   7   8
ATOM      8  C2' I4B d   1      -0.946  -1.080   0.822  0.00  0.00    -0.013 C 
ATOM      9  C4' I4B d   1      -1.259  -1.388  -0.618  0.00  0.00     0.013 C 
ATOM     10  C3' I4B d   1       0.344  -1.716   1.244  0.00  0.00     0.013 C 
ENDBRANCH   7   8
ENDBRANCH   1   7
TORSDOF 2
ENDMDL
