MODEL 1
REMARK minimizedAffinity -4.44279957
REMARK minimizedRMSD -1
REMARK  2 active torsions:
REMARK  status: ('A' for Active; 'I' for Inactive)
REMARK    1  A    between atoms: C2'_3  and  C1'_4 
REMARK    2  A    between atoms: C1'_4  and  C1_5 
ROOT
ATOM      1  C1  I4B d   1       0.432   0.489   0.049  0.00  0.00    -0.075 A 
ATOM      2  C2  I4B d   1      -0.491   0.206   1.024  0.00  0.00     0.003 A 
ATOM      3  C3  I4B d   1      -1.773  -0.282   0.673  0.00  0.00     0.002 A 
ATOM      4  C4  I4B d   1      -2.104  -0.424  -0.659  0.00  0.00    -0.004 A 
ATOM      5  C5  I4B d   1      -1.159  -0.159  -1.646  0.00  0.00     0.002 A 
ATOM      6  C6  I4B d   1       0.122   0.288  -1.290  0.00  0.00     0.003 A 
ENDROOT
BRANCH   1   7
ATOM      7  C1' I4B d   1       1.765   1.034   0.454  0.00  0.00     0.060 C 
BRANCH   7   8
ATOM      8  C2' I4B d   1       1.526   2.246   1.331  0.00  0.00    -0.013 C 
ATOM      9  C4' I4B d   1       2.214   2.100   2.663  0.00  0.00     0.013 C 
ATOM     10  C3' I4B d   1       2.022   3.455   0.596  0.00  0.00     0.013 C 
ENDBRANCH   7   8
ENDBRANCH   1   7
TORSDOF 2
ENDMDL
