MODEL 1
REMARK minimizedAffinity -3.66233349
REMARK minimizedRMSD -1
REMARK  2 active torsions:
REMARK  status: ('A' for Active; 'I' for Inactive)
REMARK    1  A    between atoms: C2'_3  and  C1'_4 
REMARK    2  A    between atoms: C1'_4  and  C1_5 
ROOT
ATOM      1  C1  I4B d   1       0.630   0.020   0.129  0.00  0.00    -0.075 A 
ATOM      2  C2  I4B d   1      -0.183  -0.603   1.043  0.00  0.00     0.003 A 
ATOM      3  C3  I4B d   1      -1.534  -0.881   0.722  0.00  0.00     0.002 A 
ATOM      4  C4  I4B d   1      -2.041  -0.476  -0.496  0.00  0.00    -0.004 A 
ATOM      5  C5  I4B d   1      -1.209   0.135  -1.430  0.00  0.00     0.002 A 
ATOM      6  C6  I4B d   1       0.138   0.374  -1.120  0.00  0.00     0.003 A 
ENDROOT
BRANCH   1   7
ATOM      7  C1' I4B d   1       2.042   0.328   0.513  0.00  0.00     0.060 C 
BRANCH   7   8
ATOM      8  C2' I4B d   1       2.194   1.835   0.564  0.00  0.00    -0.013 C 
ATOM      9  C4' I4B d   1       2.046   2.351   1.970  0.00  0.00     0.013 C 
ATOM     10  C3' I4B d   1       3.539   2.183  -0.002  0.00  0.00     0.013 C 
ENDBRANCH   7   8
ENDBRANCH   1   7
TORSDOF 2
ENDMDL
