MODEL 1
REMARK minimizedAffinity -5.05798721
REMARK minimizedRMSD -1
REMARK  2 active torsions:
REMARK  status: ('A' for Active; 'I' for Inactive)
REMARK    1  A    between atoms: C2'_3  and  C1'_4 
REMARK    2  A    between atoms: C1'_4  and  C1_5 
ROOT
ATOM      1  C1  I4B d   1       0.263   0.233   0.523  0.00  0.00    -0.075 A 
ATOM      2  C2  I4B d   1      -0.701  -0.267   1.363  0.00  0.00     0.003 A 
ATOM      3  C3  I4B d   1      -1.982  -0.597   0.860  0.00  0.00     0.002 A 
ATOM      4  C4  I4B d   1      -2.271  -0.366  -0.470  0.00  0.00    -0.004 A 
ATOM      5  C5  I4B d   1      -1.285   0.119  -1.324  0.00  0.00     0.002 A 
ATOM      6  C6  I4B d   1      -0.006   0.409  -0.828  0.00  0.00     0.003 A 
ENDROOT
BRANCH   1   7
ATOM      7  C1' I4B d   1       1.596   0.602   1.094  0.00  0.00     0.060 C 
BRANCH   7   8
ATOM      8  C2' I4B d   1       1.604   2.098   1.331  0.00  0.00    -0.013 C 
ATOM      9  C4' I4B d   1       1.254   2.427   2.758  0.00  0.00     0.013 C 
ATOM     10  C3' I4B d   1       2.965   2.616   0.974  0.00  0.00     0.013 C 
ENDBRANCH   7   8
ENDBRANCH   1   7
TORSDOF 2
ENDMDL
