MODEL 1
REMARK minimizedAffinity -5.18567371
REMARK minimizedRMSD -1
REMARK  2 active torsions:
REMARK  status: ('A' for Active; 'I' for Inactive)
REMARK    1  A    between atoms: C2'_3  and  C1'_4 
REMARK    2  A    between atoms: C1'_4  and  C1_5 
ROOT
ATOM      1  C1  I4B d   1      -0.852   0.132  -0.407  0.00  0.00    -0.075 A 
ATOM      2  C2  I4B d   1      -1.306  -0.518  -1.528  0.00  0.00     0.003 A 
ATOM      3  C3  I4B d   1      -2.477  -1.312  -1.467  0.00  0.00     0.002 A 
ATOM      4  C4  I4B d   1      -3.130  -1.468  -0.262  0.00  0.00    -0.004 A 
ATOM      5  C5  I4B d   1      -2.681  -0.790   0.869  0.00  0.00     0.002 A 
ATOM      6  C6  I4B d   1      -1.543   0.025   0.793  0.00  0.00     0.003 A 
ENDROOT
BRANCH   1   7
ATOM      7  C1' I4B d   1       0.406   0.935  -0.500  0.00  0.00     0.060 C 
BRANCH   7   8
ATOM      8  C2' I4B d   1       1.274   0.582   0.691  0.00  0.00    -0.013 C 
ATOM      9  C4' I4B d   1       1.903  -0.777   0.523  0.00  0.00     0.013 C 
ATOM     10  C3' I4B d   1       2.319   1.648   0.835  0.00  0.00     0.013 C 
ENDBRANCH   7   8
ENDBRANCH   1   7
TORSDOF 2
ENDMDL
