MODEL 1
REMARK minimizedAffinity -4.45984459
REMARK minimizedRMSD -1
REMARK  2 active torsions:
REMARK  status: ('A' for Active; 'I' for Inactive)
REMARK    1  A    between atoms: C2'_3  and  C1'_4 
REMARK    2  A    between atoms: C1'_4  and  C1_5 
ROOT
ATOM      1  C1  I4B d   1       0.375  -0.100   0.029  0.00  0.00    -0.075 A 
ATOM      2  C2  I4B d   1      -0.072  -0.968   0.993  0.00  0.00     0.003 A 
ATOM      3  C3  I4B d   1      -1.431  -1.366   1.020  0.00  0.00     0.002 A 
ATOM      4  C4  I4B d   1      -2.313  -0.835   0.101  0.00  0.00    -0.004 A 
ATOM      5  C5  I4B d   1      -1.854   0.028  -0.890  0.00  0.00     0.002 A 
ATOM      6  C6  I4B d   1      -0.499   0.388  -0.934  0.00  0.00     0.003 A 
ENDROOT
BRANCH   1   7
ATOM      7  C1' I4B d   1       1.809   0.325   0.049  0.00  0.00     0.060 C 
BRANCH   7   8
ATOM      8  C2' I4B d   1       1.850   1.816   0.312  0.00  0.00    -0.013 C 
ATOM      9  C4' I4B d   1       2.175   2.107   1.753  0.00  0.00     0.013 C 
ATOM     10  C3' I4B d   1       2.872   2.419  -0.606  0.00  0.00     0.013 C 
ENDBRANCH   7   8
ENDBRANCH   1   7
TORSDOF 2
ENDMDL
