MODEL 1
REMARK minimizedAffinity -2.37499356
REMARK minimizedRMSD -1
REMARK  2 active torsions:
REMARK  status: ('A' for Active; 'I' for Inactive)
REMARK    1  A    between atoms: C2'_3  and  C1'_4 
REMARK    2  A    between atoms: C1'_4  and  C1_5 
ROOT
ATOM      1  C1  I4B d   1       0.650  -0.092   0.115  0.00  0.00    -0.075 A 
ATOM      2  C2  I4B d   1      -0.223  -0.780   0.920  0.00  0.00     0.003 A 
ATOM      3  C3  I4B d   1      -1.505  -1.139   0.437  0.00  0.00     0.002 A 
ATOM      4  C4  I4B d   1      -1.889  -0.748  -0.829  0.00  0.00    -0.004 A 
ATOM      5  C5  I4B d   1      -0.994  -0.070  -1.652  0.00  0.00     0.002 A 
ATOM      6  C6  I4B d   1       0.288   0.250  -1.182  0.00  0.00     0.003 A 
ENDROOT
BRANCH   1   7
ATOM      7  C1' I4B d   1       1.983   0.300   0.668  0.00  0.00     0.060 C 
BRANCH   7   8
ATOM      8  C2' I4B d   1       1.893   1.740   1.129  0.00  0.00    -0.013 C 
ATOM      9  C4' I4B d   1       1.868   1.831   2.632  0.00  0.00     0.013 C 
ATOM     10  C3' I4B d   1       3.065   2.483   0.561  0.00  0.00     0.013 C 
ENDBRANCH   7   8
ENDBRANCH   1   7
TORSDOF 2
ENDMDL
