MODEL 1
REMARK minimizedAffinity 2.47261548
REMARK minimizedRMSD -1
REMARK  2 active torsions:
REMARK  status: ('A' for Active; 'I' for Inactive)
REMARK    1  A    between atoms: C2'_3  and  C1'_4 
REMARK    2  A    between atoms: C1'_4  and  C1_5 
ROOT
ATOM      1  C1  I4B d   1       0.739   0.354   0.735  0.00  0.00    -0.075 A 
ATOM      2  C2  I4B d   1       0.736  -0.797   1.482  0.00  0.00     0.003 A 
ATOM      3  C3  I4B d   1      -0.418  -1.617   1.526  0.00  0.00     0.002 A 
ATOM      4  C4  I4B d   1      -1.556  -1.223   0.852  0.00  0.00    -0.004 A 
ATOM      5  C5  I4B d   1      -1.544  -0.067   0.076  0.00  0.00     0.002 A 
ATOM      6  C6  I4B d   1      -0.386   0.720   0.007  0.00  0.00     0.003 A 
ENDROOT
BRANCH   1   7
ATOM      7  C1' I4B d   1       1.964   1.213   0.738  0.00  0.00     0.060 C 
BRANCH   7   8
ATOM      8  C2' I4B d   1       1.666   2.448   1.564  0.00  0.00    -0.013 C 
ATOM      9  C4' I4B d   1       1.995   2.225   3.017  0.00  0.00     0.013 C 
ATOM     10  C3' I4B d   1       2.460   3.586   0.997  0.00  0.00     0.013 C 
ENDBRANCH   7   8
ENDBRANCH   1   7
TORSDOF 2
ENDMDL
