MODEL 1
REMARK minimizedAffinity -4.28608513
REMARK minimizedRMSD -1
REMARK  1 active torsions:
REMARK  status: ('A' for Active; 'I' for Inactive)
REMARK    1  A    between atoms: C1_2  and  C2_3 
ROOT
ATOM      1  C2  UNL d   1       4.275   3.646   5.337  0.00  0.00    -0.073 A 
ATOM      2  C3  UNL d   1       3.436   4.087   4.308  0.00  0.00    -0.002 A 
ATOM      3  C4  UNL d   1       2.421   3.261   3.823  0.00  0.00     0.004 A 
ATOM      4  C5  UNL d   1       2.230   1.991   4.367  0.00  0.00    -0.004 A 
ATOM      5  C6  UNL d   1       3.050   1.537   5.405  0.00  0.00    -0.075 A 
ATOM      6  C7  UNL d   1       2.859   0.172   5.999  0.00  0.00     0.076 C 
ATOM      7  C8  UNL d   1       4.069   2.371   5.884  0.00  0.00     0.001 A 
ENDROOT
BRANCH   1   8
ATOM      8  C1  UNL d   1       5.369   4.536   5.868  0.00  0.00     0.053 C 
ATOM      9  C   UNL d   1       4.920   5.984   5.982  0.00  0.00     0.018 C 
ENDBRANCH   1   8
TORSDOF 1
ENDMDL
