MODEL 1
REMARK minimizedAffinity -1.24634993
REMARK minimizedRMSD -1
REMARK  1 active torsions:
REMARK  status: ('A' for Active; 'I' for Inactive)
REMARK    1  A    between atoms: C1_2  and  C2_3 
ROOT
ATOM      1  C2  UNL d   1       3.105   2.598   5.503  0.00  0.00    -0.073 A 
ATOM      2  C3  UNL d   1       3.993   1.998   4.602  0.00  0.00    -0.002 A 
ATOM      3  C4  UNL d   1       5.116   2.693   4.151  0.00  0.00     0.004 A 
ATOM      4  C5  UNL d   1       5.366   3.989   4.599  0.00  0.00    -0.004 A 
ATOM      5  C6  UNL d   1       4.498   4.602   5.508  0.00  0.00    -0.075 A 
ATOM      6  C7  UNL d   1       4.752   5.997   5.999  0.00  0.00     0.076 C 
ATOM      7  C8  UNL d   1       3.371   3.899   5.955  0.00  0.00     0.001 A 
ENDROOT
BRANCH   1   8
ATOM      8  C1  UNL d   1       1.895   1.850   5.998  0.00  0.00     0.053 C 
ATOM      9  C   UNL d   1       1.930   0.382   5.601  0.00  0.00     0.018 C 
ENDBRANCH   1   8
TORSDOF 1
ENDMDL
