MODEL 1
REMARK minimizedAffinity -1.28748798
REMARK minimizedRMSD -1
REMARK  1 active torsions:
REMARK  status: ('A' for Active; 'I' for Inactive)
REMARK    1  A    between atoms: C1_2  and  C2_3 
ROOT
ATOM      1  C2  UNL d   1       3.645   2.881   5.352  0.00  0.00    -0.073 A 
ATOM      2  C3  UNL d   1       2.987   3.239   4.170  0.00  0.00    -0.002 A 
ATOM      3  C4  UNL d   1       3.212   4.487   3.589  0.00  0.00     0.004 A 
ATOM      4  C5  UNL d   1       4.101   5.386   4.178  0.00  0.00    -0.004 A 
ATOM      5  C6  UNL d   1       4.777   5.042   5.353  0.00  0.00    -0.075 A 
ATOM      6  C7  UNL d   1       5.735   5.999   6.000  0.00  0.00     0.076 C 
ATOM      7  C8  UNL d   1       4.544   3.788   5.932  0.00  0.00     0.001 A 
ENDROOT
BRANCH   1   8
ATOM      8  C1  UNL d   1       3.411   1.531   5.981  0.00  0.00     0.053 C 
ATOM      9  C   UNL d   1       2.294   0.766   5.288  0.00  0.00     0.018 C 
ENDBRANCH   1   8
TORSDOF 1
ENDMDL
