MODEL 1
REMARK minimizedAffinity -2.25530195
REMARK minimizedRMSD -1
REMARK  1 active torsions:
REMARK  status: ('A' for Active; 'I' for Inactive)
REMARK    1  A    between atoms: C1_2  and  C2_3 
ROOT
ATOM      1  C2  UNL d   1       3.582   2.565   5.030  0.00  0.00    -0.073 A 
ATOM      2  C3  UNL d   1       4.471   3.041   6.000  0.00  0.00    -0.002 A 
ATOM      3  C4  UNL d   1       4.874   4.377   5.992  0.00  0.00     0.004 A 
ATOM      4  C5  UNL d   1       4.388   5.251   5.020  0.00  0.00    -0.004 A 
ATOM      5  C6  UNL d   1       3.489   4.797   4.049  0.00  0.00    -0.075 A 
ATOM      6  C7  UNL d   1       2.959   5.725   2.996  0.00  0.00     0.076 C 
ATOM      7  C8  UNL d   1       3.091   3.454   4.062  0.00  0.00     0.001 A 
ENDROOT
BRANCH   1   8
ATOM      8  C1  UNL d   1       3.138   1.125   5.038  0.00  0.00     0.053 C 
ATOM      9  C   UNL d   1       3.960   0.281   6.000  0.00  0.00     0.018 C 
ENDBRANCH   1   8
TORSDOF 1
ENDMDL
