MODEL 1
REMARK minimizedAffinity 4.36155319
REMARK minimizedRMSD -1
REMARK  1 active torsions:
REMARK  status: ('A' for Active; 'I' for Inactive)
REMARK    1  A    between atoms: C1_2  and  C2_3 
ROOT
ATOM      1  C2  UNL d   1       5.276   5.204  -2.273  0.00  0.00    -0.077 A 
ATOM      2  C3  UNL d   1       5.992   4.354  -3.127  0.00  0.00     0.002 A 
ATOM      3  C4  UNL d   1       5.340   3.678  -4.160  0.00  0.00     0.002 A 
ATOM      4  C5  UNL d   1       3.970   3.847  -4.350  0.00  0.00    -0.004 A 
ATOM      5  C6  UNL d   1       3.248   4.688  -3.504  0.00  0.00     0.002 A 
ATOM      6  C7  UNL d   1       3.898   5.364  -2.470  0.00  0.00     0.002 A 
ENDROOT
BRANCH   1   7
ATOM      7  C1  UNL d   1       5.986   5.972  -1.189  0.00  0.00     0.055 C 
ATOM      8  C   UNL d   1       5.991   5.202   0.124  0.00  0.00     0.019 C 
ENDBRANCH   1   7
TORSDOF 1
ENDMDL
