MODEL 1
REMARK minimizedAffinity -2.47520161
REMARK minimizedRMSD -1
REMARK  1 active torsions:
REMARK  status: ('A' for Active; 'I' for Inactive)
REMARK    1  A    between atoms: C1_2  and  C2_3 
ROOT
ATOM      1  C2  UNL d   1       5.315   4.852  -3.157  0.00  0.00    -0.077 A 
ATOM      2  C3  UNL d   1       5.999   4.110  -4.129  0.00  0.00     0.002 A 
ATOM      3  C4  UNL d   1       5.738   4.312  -5.485  0.00  0.00     0.002 A 
ATOM      4  C5  UNL d   1       4.795   5.258  -5.882  0.00  0.00    -0.004 A 
ATOM      5  C6  UNL d   1       4.107   6.000  -4.922  0.00  0.00     0.002 A 
ATOM      6  C7  UNL d   1       4.367   5.799  -3.566  0.00  0.00     0.002 A 
ENDROOT
BRANCH   1   7
ATOM      7  C1  UNL d   1       5.631   4.671  -1.695  0.00  0.00     0.055 C 
ATOM      8  C   UNL d   1       5.979   5.998  -1.035  0.00  0.00     0.019 C 
ENDBRANCH   1   7
TORSDOF 1
ENDMDL
