MODEL 1
REMARK minimizedAffinity 5.89071321
REMARK minimizedRMSD -1
REMARK  1 active torsions:
REMARK  status: ('A' for Active; 'I' for Inactive)
REMARK    1  A    between atoms: C1_2  and  C2_3 
ROOT
ATOM      1  C2  UNL d   1       5.159   4.823  -2.530  0.00  0.00    -0.077 A 
ATOM      2  C3  UNL d   1       3.758   4.822  -2.508  0.00  0.00     0.002 A 
ATOM      3  C4  UNL d   1       3.034   5.406  -3.549  0.00  0.00     0.002 A 
ATOM      4  C5  UNL d   1       3.702   5.992  -4.622  0.00  0.00    -0.004 A 
ATOM      5  C6  UNL d   1       5.096   6.000  -4.653  0.00  0.00     0.002 A 
ATOM      6  C7  UNL d   1       5.822   5.417  -3.612  0.00  0.00     0.002 A 
ENDROOT
BRANCH   1   7
ATOM      7  C1  UNL d   1       5.941   4.150  -1.433  0.00  0.00     0.055 C 
ATOM      8  C   UNL d   1       5.995   5.015  -0.181  0.00  0.00     0.019 C 
ENDBRANCH   1   7
TORSDOF 1
ENDMDL
