MODEL 1
REMARK minimizedAffinity 5.92424202
REMARK minimizedRMSD -1
REMARK  1 active torsions:
REMARK  status: ('A' for Active; 'I' for Inactive)
REMARK    1  A    between atoms: C1_2  and  C2_3 
ROOT
ATOM      1  C2  UNL d   1       2.077  -2.280  -3.485  0.00  0.00    -0.077 A 
ATOM      2  C3  UNL d   1       1.384  -2.939  -4.510  0.00  0.00     0.002 A 
ATOM      3  C4  UNL d   1      -0.007  -3.052  -4.464  0.00  0.00     0.002 A 
ATOM      4  C5  UNL d   1      -0.717  -2.505  -3.397  0.00  0.00    -0.004 A 
ATOM      5  C6  UNL d   1      -0.037  -1.849  -2.371  0.00  0.00     0.002 A 
ATOM      6  C7  UNL d   1       1.354  -1.737  -2.415  0.00  0.00     0.002 A 
ENDROOT
BRANCH   1   7
ATOM      7  C1  UNL d   1       3.572  -2.114  -3.558  0.00  0.00     0.055 C 
ATOM      8  C   UNL d   1       4.147  -1.679  -2.218  0.00  0.00     0.019 C 
ENDBRANCH   1   7
TORSDOF 1
ENDMDL
