MODEL 1
REMARK minimizedAffinity -1.87437868
REMARK minimizedRMSD -1
REMARK  1 active torsions:
REMARK  status: ('A' for Active; 'I' for Inactive)
REMARK    1  A    between atoms: C1_2  and  C2_3 
ROOT
ATOM      1  C2  UNL d   1      -0.754  -3.689  -3.837  0.00  0.00    -0.077 A 
ATOM      2  C3  UNL d   1      -0.039  -4.173  -2.732  0.00  0.00     0.002 A 
ATOM      3  C4  UNL d   1      -0.065  -3.484  -1.518  0.00  0.00     0.002 A 
ATOM      4  C5  UNL d   1      -0.806  -2.311  -1.396  0.00  0.00    -0.004 A 
ATOM      5  C6  UNL d   1      -1.518  -1.820  -2.490  0.00  0.00     0.002 A 
ATOM      6  C7  UNL d   1      -1.493  -2.506  -3.704  0.00  0.00     0.002 A 
ENDROOT
BRANCH   1   7
ATOM      7  C1  UNL d   1      -0.768  -4.457  -5.133  0.00  0.00     0.055 C 
ATOM      8  C   UNL d   1      -1.518  -5.773  -4.989  0.00  0.00     0.019 C 
ENDBRANCH   1   7
TORSDOF 1
ENDMDL
