MODEL 1
REMARK minimizedAffinity 5.02222061
REMARK minimizedRMSD -1
REMARK  1 active torsions:
REMARK  status: ('A' for Active; 'I' for Inactive)
REMARK    1  A    between atoms: C1_2  and  C2_3 
ROOT
ATOM      1  C2  UNL d   1       3.601   4.962  -2.324  0.00  0.00    -0.077 A 
ATOM      2  C3  UNL d   1       4.794   4.889  -1.590  0.00  0.00     0.002 A 
ATOM      3  C4  UNL d   1       5.988   5.368  -2.134  0.00  0.00     0.002 A 
ATOM      4  C5  UNL d   1       6.000   5.925  -3.411  0.00  0.00    -0.004 A 
ATOM      5  C6  UNL d   1       4.819   6.000  -4.149  0.00  0.00     0.002 A 
ATOM      6  C7  UNL d   1       3.626   5.521  -3.608  0.00  0.00     0.002 A 
ENDROOT
BRANCH   1   7
ATOM      7  C1  UNL d   1       2.304   4.491  -1.720  0.00  0.00     0.055 C 
ATOM      8  C   UNL d   1       2.364   4.504  -0.200  0.00  0.00     0.019 C 
ENDBRANCH   1   7
TORSDOF 1
ENDMDL
