MODEL 1
REMARK minimizedAffinity -3.50283861
REMARK minimizedRMSD -1
REMARK  1 active torsions:
REMARK  status: ('A' for Active; 'I' for Inactive)
REMARK    1  A    between atoms: C1_2  and  C2_3 
ROOT
ATOM      1  C2  UNL d   1       5.076   3.793  -5.243  0.00  0.00    -0.077 A 
ATOM      2  C3  UNL d   1       4.239   3.639  -4.129  0.00  0.00     0.002 A 
ATOM      3  C4  UNL d   1       3.359   4.659  -3.761  0.00  0.00     0.002 A 
ATOM      4  C5  UNL d   1       3.305   5.837  -4.503  0.00  0.00    -0.004 A 
ATOM      5  C6  UNL d   1       4.136   6.000  -5.611  0.00  0.00     0.002 A 
ATOM      6  C7  UNL d   1       5.017   4.982  -5.980  0.00  0.00     0.002 A 
ENDROOT
BRANCH   1   7
ATOM      7  C1  UNL d   1       5.991   2.675  -5.670  0.00  0.00     0.055 C 
ATOM      8  C   UNL d   1       5.624   1.367  -4.985  0.00  0.00     0.019 C 
ENDBRANCH   1   7
TORSDOF 1
ENDMDL
