MODEL 1
REMARK minimizedAffinity -4.56665945
REMARK minimizedRMSD -1
REMARK  1 active torsions:
REMARK  status: ('A' for Active; 'I' for Inactive)
REMARK    1  A    between atoms: C1_2  and  C2_3 
ROOT
ATOM      1  C2  UNL d   1       4.840   3.810  -4.648  0.00  0.00    -0.077 A 
ATOM      2  C3  UNL d   1       6.000   4.170  -3.947  0.00  0.00     0.002 A 
ATOM      3  C4  UNL d   1       5.908   4.878  -2.747  0.00  0.00     0.002 A 
ATOM      4  C5  UNL d   1       4.660   5.227  -2.235  0.00  0.00    -0.004 A 
ATOM      5  C6  UNL d   1       3.501   4.876  -2.926  0.00  0.00     0.002 A 
ATOM      6  C7  UNL d   1       3.591   4.169  -4.126  0.00  0.00     0.002 A 
ENDROOT
BRANCH   1   7
ATOM      7  C1  UNL d   1       4.935   3.004  -5.917  0.00  0.00     0.055 C 
ATOM      8  C   UNL d   1       5.253   1.546  -5.624  0.00  0.00     0.019 C 
ENDBRANCH   1   7
TORSDOF 1
ENDMDL
