MODEL 1
REMARK minimizedAffinity 1.48467302
REMARK minimizedRMSD -1
REMARK  1 active torsions:
REMARK  status: ('A' for Active; 'I' for Inactive)
REMARK    1  A    between atoms: C1_2  and  C2_3 
ROOT
ATOM      1  C2  UNL d   1       5.331   3.558  -4.564  0.00  0.00    -0.077 A 
ATOM      2  C3  UNL d   1       4.053   4.013  -4.919  0.00  0.00     0.002 A 
ATOM      3  C4  UNL d   1       3.456   5.061  -4.215  0.00  0.00     0.002 A 
ATOM      4  C5  UNL d   1       4.131   5.665  -3.157  0.00  0.00    -0.004 A 
ATOM      5  C6  UNL d   1       5.401   5.219  -2.796  0.00  0.00     0.002 A 
ATOM      6  C7  UNL d   1       5.999   4.171  -3.497  0.00  0.00     0.002 A 
ENDROOT
BRANCH   1   7
ATOM      7  C1  UNL d   1       5.997   2.461  -5.353  0.00  0.00     0.055 C 
ATOM      8  C   UNL d   1       5.920   1.129  -4.622  0.00  0.00     0.019 C 
ENDBRANCH   1   7
TORSDOF 1
ENDMDL
