MODEL 1
REMARK minimizedAffinity -2.56001663
REMARK minimizedRMSD -1
REMARK  1 active torsions:
REMARK  status: ('A' for Active; 'I' for Inactive)
REMARK    1  A    between atoms: C1_2  and  C2_3 
ROOT
ATOM      1  C2  UNL d   1       4.460   5.885  -2.984  0.00  0.00    -0.077 A 
ATOM      2  C3  UNL d   1       5.767   5.785  -3.482  0.00  0.00     0.002 A 
ATOM      3  C4  UNL d   1       6.000   5.788  -4.859  0.00  0.00     0.002 A 
ATOM      4  C5  UNL d   1       4.933   5.895  -5.748  0.00  0.00    -0.004 A 
ATOM      5  C6  UNL d   1       3.629   5.993  -5.262  0.00  0.00     0.002 A 
ATOM      6  C7  UNL d   1       3.394   5.989  -3.887  0.00  0.00     0.002 A 
ENDROOT
BRANCH   1   7
ATOM      7  C1  UNL d   1       4.210   5.932  -1.499  0.00  0.00     0.055 C 
ATOM      8  C   UNL d   1       3.034   5.049  -1.107  0.00  0.00     0.019 C 
ENDBRANCH   1   7
TORSDOF 1
ENDMDL
