MODEL 1
REMARK minimizedAffinity -1.78063571
REMARK minimizedRMSD -1
REMARK  1 active torsions:
REMARK  status: ('A' for Active; 'I' for Inactive)
REMARK    1  A    between atoms: C1_2  and  C2_3 
ROOT
ATOM      1  C2  UNL d   1       5.856   5.248  -3.550  0.00  0.00    -0.077 A 
ATOM      2  C3  UNL d   1       5.997   3.854  -3.603  0.00  0.00     0.002 A 
ATOM      3  C4  UNL d   1       5.911   3.181  -4.823  0.00  0.00     0.002 A 
ATOM      4  C5  UNL d   1       5.687   3.894  -5.999  0.00  0.00    -0.004 A 
ATOM      5  C6  UNL d   1       5.543   5.280  -5.957  0.00  0.00     0.002 A 
ATOM      6  C7  UNL d   1       5.628   5.954  -4.738  0.00  0.00     0.002 A 
ENDROOT
BRANCH   1   7
ATOM      7  C1  UNL d   1       5.998   5.981  -2.241  0.00  0.00     0.055 C 
ATOM      8  C   UNL d   1       5.992   5.017  -1.064  0.00  0.00     0.019 C 
ENDBRANCH   1   7
TORSDOF 1
ENDMDL
