MODEL 1
REMARK minimizedAffinity 0.138267785
REMARK minimizedRMSD -1
REMARK  1 active torsions:
REMARK  status: ('A' for Active; 'I' for Inactive)
REMARK    1  A    between atoms: C1_2  and  C2_3 
ROOT
ATOM      1  C2  UNL d   1       5.543   3.328  -4.119  0.00  0.00    -0.077 A 
ATOM      2  C3  UNL d   1       6.000   4.065  -3.017  0.00  0.00     0.002 A 
ATOM      3  C4  UNL d   1       5.547   5.368  -2.802  0.00  0.00     0.002 A 
ATOM      4  C5  UNL d   1       4.632   5.944  -3.682  0.00  0.00    -0.004 A 
ATOM      5  C6  UNL d   1       4.173   5.220  -4.782  0.00  0.00     0.002 A 
ATOM      6  C7  UNL d   1       4.626   3.918  -4.999  0.00  0.00     0.002 A 
ENDROOT
BRANCH   1   7
ATOM      7  C1  UNL d   1       5.992   1.905  -4.325  0.00  0.00     0.055 C 
ATOM      8  C   UNL d   1       5.929   1.512  -5.794  0.00  0.00     0.019 C 
ENDBRANCH   1   7
TORSDOF 1
ENDMDL
