MODEL 1
REMARK minimizedAffinity -3.1641202
REMARK minimizedRMSD -1
REMARK  1 active torsions:
REMARK  status: ('A' for Active; 'I' for Inactive)
REMARK    1  A    between atoms: C1_2  and  C2_3 
ROOT
ATOM      1  C2  UNL d   1       5.500   4.758  -3.305  0.00  0.00    -0.077 A 
ATOM      2  C3  UNL d   1       4.628   5.790  -3.681  0.00  0.00     0.002 A 
ATOM      3  C4  UNL d   1       4.260   5.951  -5.018  0.00  0.00     0.002 A 
ATOM      4  C5  UNL d   1       4.756   5.083  -5.989  0.00  0.00    -0.004 A 
ATOM      5  C6  UNL d   1       5.626   4.056  -5.625  0.00  0.00     0.002 A 
ATOM      6  C7  UNL d   1       5.996   3.894  -4.289  0.00  0.00     0.002 A 
ENDROOT
BRANCH   1   7
ATOM      7  C1  UNL d   1       5.859   4.552  -1.856  0.00  0.00     0.055 C 
ATOM      8  C   UNL d   1       6.000   5.880  -1.127  0.00  0.00     0.019 C 
ENDBRANCH   1   7
TORSDOF 1
ENDMDL
