MODEL 1
REMARK minimizedAffinity -3.3399477
REMARK minimizedRMSD -1
REMARK  1 active torsions:
REMARK  status: ('A' for Active; 'I' for Inactive)
REMARK    1  A    between atoms: C1_2  and  C2_3 
ROOT
ATOM      1  C2  UNL d   1       4.865   4.533  -4.723  0.00  0.00    -0.077 A 
ATOM      2  C3  UNL d   1       5.998   5.263  -4.336  0.00  0.00     0.002 A 
ATOM      3  C4  UNL d   1       6.000   5.982  -3.140  0.00  0.00     0.002 A 
ATOM      4  C5  UNL d   1       4.874   5.975  -2.318  0.00  0.00    -0.004 A 
ATOM      5  C6  UNL d   1       3.742   5.254  -2.695  0.00  0.00     0.002 A 
ATOM      6  C7  UNL d   1       3.738   4.535  -3.891  0.00  0.00     0.002 A 
ENDROOT
BRANCH   1   7
ATOM      7  C1  UNL d   1       4.878   3.716  -5.988  0.00  0.00     0.055 C 
ATOM      8  C   UNL d   1       5.994   2.682  -5.968  0.00  0.00     0.019 C 
ENDBRANCH   1   7
TORSDOF 1
ENDMDL
