MODEL 1
REMARK minimizedAffinity -2.56546688
REMARK minimizedRMSD -1
REMARK  1 active torsions:
REMARK  status: ('A' for Active; 'I' for Inactive)
REMARK    1  A    between atoms: C1_2  and  C2_3 
ROOT
ATOM      1  C2  UNL d   1       5.582   3.929  -5.073  0.00  0.00    -0.077 A 
ATOM      2  C3  UNL d   1       6.000   3.938  -3.734  0.00  0.00     0.002 A 
ATOM      3  C4  UNL d   1       5.574   4.949  -2.869  0.00  0.00     0.002 A 
ATOM      4  C5  UNL d   1       4.727   5.953  -3.332  0.00  0.00    -0.004 A 
ATOM      5  C6  UNL d   1       4.308   5.953  -4.662  0.00  0.00     0.002 A 
ATOM      6  C7  UNL d   1       4.733   4.945  -5.528  0.00  0.00     0.002 A 
ENDROOT
BRANCH   1   7
ATOM      7  C1  UNL d   1       6.000   2.813  -5.994  0.00  0.00     0.055 C 
ATOM      8  C   UNL d   1       5.673   1.451  -5.399  0.00  0.00     0.019 C 
ENDBRANCH   1   7
TORSDOF 1
ENDMDL
