MODEL 1
REMARK minimizedAffinity -4.5278182
REMARK minimizedRMSD -1
REMARK  1 active torsions:
REMARK  status: ('A' for Active; 'I' for Inactive)
REMARK    1  A    between atoms: C1_2  and  C2_3 
ROOT
ATOM      1  C2  UNL d   1       5.162   4.108  -4.697  0.00  0.00    -0.077 A 
ATOM      2  C3  UNL d   1       5.999   4.509  -3.647  0.00  0.00     0.002 A 
ATOM      3  C4  UNL d   1       5.457   4.918  -2.427  0.00  0.00     0.002 A 
ATOM      4  C5  UNL d   1       4.076   4.926  -2.244  0.00  0.00    -0.004 A 
ATOM      5  C6  UNL d   1       3.234   4.530  -3.283  0.00  0.00     0.002 A 
ATOM      6  C7  UNL d   1       3.774   4.122  -4.503  0.00  0.00     0.002 A 
ENDROOT
BRANCH   1   7
ATOM      7  C1  UNL d   1       5.746   3.620  -5.996  0.00  0.00     0.055 C 
ATOM      8  C   UNL d   1       5.958   2.113  -5.977  0.00  0.00     0.019 C 
ENDBRANCH   1   7
TORSDOF 1
ENDMDL
