MODEL 1
REMARK minimizedAffinity 0.823809624
REMARK minimizedRMSD -1
REMARK  1 active torsions:
REMARK  status: ('A' for Active; 'I' for Inactive)
REMARK    1  A    between atoms: C1_2  and  C2_3 
ROOT
ATOM      1  C2  UNL d   1      -1.069  -3.748  -3.762  0.00  0.00    -0.077 A 
ATOM      2  C3  UNL d   1      -0.316  -4.340  -2.739  0.00  0.00     0.002 A 
ATOM      3  C4  UNL d   1       0.263  -3.552  -1.742  0.00  0.00     0.002 A 
ATOM      4  C5  UNL d   1       0.090  -2.170  -1.756  0.00  0.00    -0.004 A 
ATOM      5  C6  UNL d   1      -0.656  -1.572  -2.771  0.00  0.00     0.002 A 
ATOM      6  C7  UNL d   1      -1.234  -2.357  -3.769  0.00  0.00     0.002 A 
ENDROOT
BRANCH   1   7
ATOM      7  C1  UNL d   1      -1.735  -4.601  -4.811  0.00  0.00     0.055 C 
ATOM      8  C   UNL d   1      -1.137  -6.000  -4.849  0.00  0.00     0.019 C 
ENDBRANCH   1   7
TORSDOF 1
ENDMDL
