MODEL 1
REMARK minimizedAffinity -0.0802368671
REMARK minimizedRMSD -1
REMARK  0 active torsions:
REMARK  status: ('A' for Active; 'I' for Inactive)
ROOT
ATOM      1  C2' OXE d   1      -3.373   5.994   5.117  0.00  0.00     0.078 C 
ATOM      2  C1' OXE d   1      -4.831   5.999   2.718  0.00  0.00     0.078 C 
ATOM      3  C1  OXE d   1      -4.033   4.764   3.054  0.00  0.00    -0.078 A 
ATOM      4  C2  OXE d   1      -3.285   4.788   4.206  0.00  0.00    -0.078 A 
ATOM      5  C3  OXE d   1      -2.575   3.654   4.591  0.00  0.00     0.003 A 
ATOM      6  C4  OXE d   1      -2.491   2.547   3.738  0.00  0.00    -0.002 A 
ATOM      7  C5  OXE d   1      -3.213   2.517   2.541  0.00  0.00    -0.002 A 
ATOM      8  C6  OXE d   1      -4.021   3.598   2.205  0.00  0.00     0.003 A 
ENDROOT
TORSDOF 0
ENDMDL
