MODEL 1
REMARK minimizedAffinity 0.733938336
REMARK minimizedRMSD -1
REMARK  0 active torsions:
REMARK  status: ('A' for Active; 'I' for Inactive)
ROOT
ATOM      1  C2' OXE d   1      -4.541   6.000   2.840  0.00  0.00     0.078 C 
ATOM      2  C1' OXE d   1      -4.105   6.000   5.613  0.00  0.00     0.078 C 
ATOM      3  C1  OXE d   1      -3.784   4.739   4.851  0.00  0.00    -0.078 A 
ATOM      4  C2  OXE d   1      -4.044   4.732   3.502  0.00  0.00    -0.078 A 
ATOM      5  C3  OXE d   1      -3.715   3.614   2.742  0.00  0.00     0.003 A 
ATOM      6  C4  OXE d   1      -3.265   2.442   3.362  0.00  0.00    -0.002 A 
ATOM      7  C5  OXE d   1      -3.031   2.414   4.741  0.00  0.00    -0.002 A 
ATOM      8  C6  OXE d   1      -3.244   3.565   5.492  0.00  0.00     0.003 A 
ENDROOT
TORSDOF 0
ENDMDL
