MODEL 1
REMARK minimizedAffinity -0.362159461
REMARK minimizedRMSD -1
REMARK  0 active torsions:
REMARK  status: ('A' for Active; 'I' for Inactive)
ROOT
ATOM      1  C2' OXE d   1      -3.001   5.993   1.114  0.00  0.00     0.078 C 
ATOM      2  C1' OXE d   1      -5.668   5.973   1.989  0.00  0.00     0.078 C 
ATOM      3  C1  OXE d   1      -4.584   5.978   3.037  0.00  0.00    -0.078 A 
ATOM      4  C2  OXE d   1      -3.281   5.941   2.600  0.00  0.00    -0.078 A 
ATOM      5  C3  OXE d   1      -2.242   6.000   3.524  0.00  0.00     0.003 A 
ATOM      6  C4  OXE d   1      -2.510   5.941   4.897  0.00  0.00    -0.002 A 
ATOM      7  C5  OXE d   1      -3.829   5.938   5.363  0.00  0.00    -0.002 A 
ATOM      8  C6  OXE d   1      -4.875   5.999   4.449  0.00  0.00     0.003 A 
ENDROOT
TORSDOF 0
ENDMDL
