MODEL 1
REMARK minimizedAffinity -2.03787947
REMARK minimizedRMSD -1
REMARK  0 active torsions:
REMARK  status: ('A' for Active; 'I' for Inactive)
ROOT
ATOM      1  C2' OXE d   1      -3.232   6.000   2.016  0.00  0.00     0.078 C 
ATOM      2  C1' OXE d   1      -5.611   4.544   2.334  0.00  0.00     0.078 C 
ATOM      3  C1  OXE d   1      -4.841   4.914   3.577  0.00  0.00    -0.078 A 
ATOM      4  C2  OXE d   1      -3.654   5.586   3.409  0.00  0.00    -0.078 A 
ATOM      5  C3  OXE d   1      -2.933   6.000   4.525  0.00  0.00     0.003 A 
ATOM      6  C4  OXE d   1      -3.325   5.605   5.809  0.00  0.00    -0.002 A 
ATOM      7  C5  OXE d   1      -4.510   4.886   6.000  0.00  0.00    -0.002 A 
ATOM      8  C6  OXE d   1      -5.300   4.570   4.900  0.00  0.00     0.003 A 
ENDROOT
TORSDOF 0
ENDMDL
