MODEL 1
REMARK minimizedAffinity -0.844810367
REMARK minimizedRMSD -1
REMARK  0 active torsions:
REMARK  status: ('A' for Active; 'I' for Inactive)
ROOT
ATOM      1  C2' OXE d   1      -2.847   5.996   1.564  0.00  0.00     0.078 C 
ATOM      2  C1' OXE d   1      -5.619   5.976   2.008  0.00  0.00     0.078 C 
ATOM      3  C1  OXE d   1      -4.713   5.980   3.214  0.00  0.00    -0.078 A 
ATOM      4  C2  OXE d   1      -3.359   5.942   2.987  0.00  0.00    -0.078 A 
ATOM      5  C3  OXE d   1      -2.478   5.999   4.064  0.00  0.00     0.003 A 
ATOM      6  C4  OXE d   1      -2.959   5.939   5.377  0.00  0.00    -0.002 A 
ATOM      7  C5  OXE d   1      -4.335   5.937   5.630  0.00  0.00    -0.002 A 
ATOM      8  C6  OXE d   1      -5.224   6.000   4.562  0.00  0.00     0.003 A 
ENDROOT
TORSDOF 0
ENDMDL
