MODEL 1
REMARK minimizedAffinity -0.51783669
REMARK minimizedRMSD -1
REMARK  0 active torsions:
REMARK  status: ('A' for Active; 'I' for Inactive)
ROOT
ATOM      1  C2' OXE d   1      -2.980   6.000   1.556  0.00  0.00     0.078 C 
ATOM      2  C1' OXE d   1      -5.701   5.982   2.246  0.00  0.00     0.078 C 
ATOM      3  C1  OXE d   1      -4.691   5.982   3.366  0.00  0.00    -0.078 A 
ATOM      4  C2  OXE d   1      -3.362   5.944   3.020  0.00  0.00    -0.078 A 
ATOM      5  C3  OXE d   1      -2.388   5.998   4.013  0.00  0.00     0.003 A 
ATOM      6  C4  OXE d   1      -2.750   5.936   5.364  0.00  0.00    -0.002 A 
ATOM      7  C5  OXE d   1      -4.098   5.934   5.739  0.00  0.00    -0.002 A 
ATOM      8  C6  OXE d   1      -5.079   6.000   4.755  0.00  0.00     0.003 A 
ENDROOT
TORSDOF 0
ENDMDL
