MODEL 1
REMARK minimizedAffinity -2.83993006
REMARK minimizedRMSD -1
REMARK  0 active torsions:
REMARK  status: ('A' for Active; 'I' for Inactive)
ROOT
ATOM      1  C2' OXE d   1      -2.220   5.999   1.592  0.00  0.00     0.078 C 
ATOM      2  C1' OXE d   1      -5.025   5.997   1.478  0.00  0.00     0.078 C 
ATOM      3  C1  OXE d   1      -4.376   5.985   2.840  0.00  0.00    -0.078 A 
ATOM      4  C2  OXE d   1      -3.003   5.939   2.886  0.00  0.00    -0.078 A 
ATOM      5  C3  OXE d   1      -2.353   5.981   4.116  0.00  0.00     0.003 A 
ATOM      6  C4  OXE d   1      -3.085   5.916   5.307  0.00  0.00    -0.002 A 
ATOM      7  C5  OXE d   1      -4.483   5.922   5.283  0.00  0.00    -0.002 A 
ATOM      8  C6  OXE d   1      -5.143   6.000   4.061  0.00  0.00     0.003 A 
ENDROOT
TORSDOF 0
ENDMDL
