MODEL 1
REMARK minimizedAffinity -1.45396948
REMARK minimizedRMSD -1
REMARK  0 active torsions:
REMARK  status: ('A' for Active; 'I' for Inactive)
ROOT
ATOM      1  C2' OXE d   1      -5.999   5.281   1.877  0.00  0.00     0.078 C 
ATOM      2  C1' OXE d   1      -3.393   5.999   1.119  0.00  0.00     0.078 C 
ATOM      3  C1  OXE d   1      -3.676   5.831   2.591  0.00  0.00    -0.078 A 
ATOM      4  C2  OXE d   1      -4.966   5.525   2.955  0.00  0.00    -0.078 A 
ATOM      5  C3  OXE d   1      -5.269   5.305   4.296  0.00  0.00     0.003 A 
ATOM      6  C4  OXE d   1      -4.310   5.543   5.288  0.00  0.00    -0.002 A 
ATOM      7  C5  OXE d   1      -3.001   5.894   4.941  0.00  0.00    -0.002 A 
ATOM      8  C6  OXE d   1      -2.658   6.000   3.597  0.00  0.00     0.003 A 
ENDROOT
TORSDOF 0
ENDMDL
