MODEL 1
REMARK minimizedAffinity -2.2894938
REMARK minimizedRMSD -1
REMARK  0 active torsions:
REMARK  status: ('A' for Active; 'I' for Inactive)
ROOT
ATOM      1  C2' OXE d   1      -2.904   6.000   1.417  0.00  0.00     0.078 C 
ATOM      2  C1' OXE d   1      -5.605   5.768   2.144  0.00  0.00     0.078 C 
ATOM      3  C1  OXE d   1      -4.581   5.824   3.250  0.00  0.00    -0.078 A 
ATOM      4  C2  OXE d   1      -3.259   5.891   2.885  0.00  0.00    -0.078 A 
ATOM      5  C3  OXE d   1      -2.277   6.000   3.865  0.00  0.00     0.003 A 
ATOM      6  C4  OXE d   1      -2.613   5.888   5.220  0.00  0.00    -0.002 A 
ATOM      7  C5  OXE d   1      -3.951   5.780   5.613  0.00  0.00    -0.002 A 
ATOM      8  C6  OXE d   1      -4.949   5.790   4.644  0.00  0.00     0.003 A 
ENDROOT
TORSDOF 0
ENDMDL
