MODEL 1
REMARK minimizedAffinity 1.66341102
REMARK minimizedRMSD -1
REMARK  0 active torsions:
REMARK  status: ('A' for Active; 'I' for Inactive)
ROOT
ATOM      1  C2' OXE d   1      -5.283   5.629   2.241  0.00  0.00     0.078 C 
ATOM      2  C1' OXE d   1      -2.630   5.999   1.402  0.00  0.00     0.078 C 
ATOM      3  C1  OXE d   1      -2.894   5.919   2.885  0.00  0.00    -0.078 A 
ATOM      4  C2  OXE d   1      -4.201   5.785   3.288  0.00  0.00    -0.078 A 
ATOM      5  C3  OXE d   1      -4.495   5.652   4.642  0.00  0.00     0.003 A 
ATOM      6  C4  OXE d   1      -3.490   5.808   5.604  0.00  0.00    -0.002 A 
ATOM      7  C5  OXE d   1      -2.157   5.985   5.217  0.00  0.00    -0.002 A 
ATOM      8  C6  OXE d   1      -1.838   6.000   3.863  0.00  0.00     0.003 A 
ENDROOT
TORSDOF 0
ENDMDL
