MODEL 1
REMARK minimizedAffinity -1.16793883
REMARK minimizedRMSD -1
REMARK  0 active torsions:
REMARK  status: ('A' for Active; 'I' for Inactive)
ROOT
ATOM      1  C2' OXE d   1      -5.340   5.688   1.996  0.00  0.00     0.078 C 
ATOM      2  C1' OXE d   1      -2.590   5.998   1.525  0.00  0.00     0.078 C 
ATOM      3  C1  OXE d   1      -3.056   5.934   2.958  0.00  0.00    -0.078 A 
ATOM      4  C2  OXE d   1      -4.408   5.829   3.180  0.00  0.00    -0.078 A 
ATOM      5  C3  OXE d   1      -4.886   5.711   4.482  0.00  0.00     0.003 A 
ATOM      6  C4  OXE d   1      -4.018   5.852   5.571  0.00  0.00    -0.002 A 
ATOM      7  C5  OXE d   1      -2.642   6.000   5.368  0.00  0.00    -0.002 A 
ATOM      8  C6  OXE d   1      -2.141   6.000   4.071  0.00  0.00     0.003 A 
ENDROOT
TORSDOF 0
ENDMDL
