MODEL 1
REMARK minimizedAffinity 3.68429232
REMARK minimizedRMSD -1
REMARK  0 active torsions:
REMARK  status: ('A' for Active; 'I' for Inactive)
ROOT
ATOM      1  C2' OXE d   1      -2.992   4.785   5.370  0.00  0.00     0.078 C 
ATOM      2  C1' OXE d   1      -2.991   2.350   3.974  0.00  0.00     0.078 C 
ATOM      3  C1  OXE d   1      -3.213   3.614   3.183  0.00  0.00    -0.078 A 
ATOM      4  C2  OXE d   1      -3.259   4.797   3.880  0.00  0.00    -0.078 A 
ATOM      5  C3  OXE d   1      -3.407   5.998   3.192  0.00  0.00     0.003 A 
ATOM      6  C4  OXE d   1      -3.663   6.000   1.816  0.00  0.00    -0.002 A 
ATOM      7  C5  OXE d   1      -3.660   4.802   1.092  0.00  0.00    -0.002 A 
ATOM      8  C6  OXE d   1      -3.395   3.608   1.752  0.00  0.00     0.003 A 
ENDROOT
TORSDOF 0
ENDMDL
