MODEL 1
REMARK minimizedAffinity -1.39637589
REMARK minimizedRMSD -1
REMARK  0 active torsions:
REMARK  status: ('A' for Active; 'I' for Inactive)
ROOT
ATOM      1  C2' OXE d   1      -5.812   5.549   1.875  0.00  0.00     0.078 C 
ATOM      2  C1' OXE d   1      -3.098   5.998   1.314  0.00  0.00     0.078 C 
ATOM      3  C1  OXE d   1      -3.510   5.898   2.761  0.00  0.00    -0.078 A 
ATOM      4  C2  OXE d   1      -4.847   5.725   3.028  0.00  0.00    -0.078 A 
ATOM      5  C3  OXE d   1      -5.273   5.571   4.344  0.00  0.00     0.003 A 
ATOM      6  C4  OXE d   1      -4.375   5.745   5.405  0.00  0.00    -0.002 A 
ATOM      7  C5  OXE d   1      -3.016   5.962   5.156  0.00  0.00    -0.002 A 
ATOM      8  C6  OXE d   1      -2.561   5.999   3.842  0.00  0.00     0.003 A 
ENDROOT
TORSDOF 0
ENDMDL
