MODEL 1
REMARK minimizedAffinity 1.13063157
REMARK minimizedRMSD -1
REMARK  0 active torsions:
REMARK  status: ('A' for Active; 'I' for Inactive)
ROOT
ATOM      1  C2' OXE d   1      -4.341   5.996   5.919  0.00  0.00     0.078 C 
ATOM      2  C1' OXE d   1      -1.534   5.975   5.878  0.00  0.00     0.078 C 
ATOM      3  C1  OXE d   1      -2.258   5.980   4.554  0.00  0.00    -0.078 A 
ATOM      4  C2  OXE d   1      -3.631   5.942   4.584  0.00  0.00    -0.078 A 
ATOM      5  C3  OXE d   1      -4.348   6.000   3.392  0.00  0.00     0.003 A 
ATOM      6  C4  OXE d   1      -3.684   5.940   2.161  0.00  0.00    -0.002 A 
ATOM      7  C5  OXE d   1      -2.286   5.938   2.109  0.00  0.00    -0.002 A 
ATOM      8  C6  OXE d   1      -1.559   6.000   3.293  0.00  0.00     0.003 A 
ENDROOT
TORSDOF 0
ENDMDL
