MODEL 1
REMARK minimizedAffinity 1.59660161
REMARK minimizedRMSD -1
REMARK  0 active torsions:
REMARK  status: ('A' for Active; 'I' for Inactive)
ROOT
ATOM      1  C2' OXE d   1      -4.825   5.729   2.293  0.00  0.00     0.078 C 
ATOM      2  C1' OXE d   1      -2.034   5.998   2.143  0.00  0.00     0.078 C 
ATOM      3  C1  OXE d   1      -2.663   5.940   3.512  0.00  0.00    -0.078 A 
ATOM      4  C2  OXE d   1      -4.033   5.855   3.576  0.00  0.00    -0.078 A 
ATOM      5  C3  OXE d   1      -4.660   5.743   4.814  0.00  0.00     0.003 A 
ATOM      6  C4  OXE d   1      -3.921   5.871   5.997  0.00  0.00    -0.002 A 
ATOM      7  C5  OXE d   1      -2.528   5.998   5.954  0.00  0.00    -0.002 A 
ATOM      8  C6  OXE d   1      -1.881   5.991   4.723  0.00  0.00     0.003 A 
ENDROOT
TORSDOF 0
ENDMDL
