MODEL 1
REMARK minimizedAffinity 3.17222428
REMARK minimizedRMSD -1
REMARK  0 active torsions:
REMARK  status: ('A' for Active; 'I' for Inactive)
ROOT
ATOM      1  C2' OXE d   1       2.641   5.290  -3.391  0.00  0.00     0.078 C 
ATOM      2  C1' OXE d   1       2.138   4.370  -5.995  0.00  0.00     0.078 C 
ATOM      3  C1  OXE d   1       1.933   3.403  -4.856  0.00  0.00    -0.078 A 
ATOM      4  C2  OXE d   1       2.226   3.847  -3.589  0.00  0.00    -0.078 A 
ATOM      5  C3  OXE d   1       2.002   3.014  -2.497  0.00  0.00     0.003 A 
ATOM      6  C4  OXE d   1       1.629   1.678  -2.690  0.00  0.00    -0.002 A 
ATOM      7  C5  OXE d   1       1.363   1.194  -3.975  0.00  0.00    -0.002 A 
ATOM      8  C6  OXE d   1       1.469   2.053  -5.063  0.00  0.00     0.003 A 
ENDROOT
TORSDOF 0
ENDMDL
