MODEL 1
REMARK minimizedAffinity 3.06493163
REMARK minimizedRMSD -1
REMARK  0 active torsions:
REMARK  status: ('A' for Active; 'I' for Inactive)
ROOT
ATOM      1  C2' OXE d   1      -5.988   5.933   4.039  0.00  0.00     0.078 C 
ATOM      2  C1' OXE d   1      -4.372   5.952   1.744  0.00  0.00     0.078 C 
ATOM      3  C1  OXE d   1      -3.686   5.950   3.087  0.00  0.00    -0.078 A 
ATOM      4  C2  OXE d   1      -4.485   5.988   4.205  0.00  0.00    -0.078 A 
ATOM      5  C3  OXE d   1      -3.905   5.932   5.469  0.00  0.00     0.003 A 
ATOM      6  C4  OXE d   1      -2.513   5.993   5.614  0.00  0.00    -0.002 A 
ATOM      7  C5  OXE d   1      -1.682   5.995   4.488  0.00  0.00    -0.002 A 
ATOM      8  C6  OXE d   1      -2.250   5.931   3.221  0.00  0.00     0.003 A 
ENDROOT
TORSDOF 0
ENDMDL
