MODEL 1
REMARK minimizedAffinity 3.13164234
REMARK minimizedRMSD -1
REMARK  0 active torsions:
REMARK  status: ('A' for Active; 'I' for Inactive)
ROOT
ATOM      1  C2' OXE d   1      -3.002   5.494   1.675  0.00  0.00     0.078 C 
ATOM      2  C1' OXE d   1      -5.716   5.807   2.322  0.00  0.00     0.078 C 
ATOM      3  C1  OXE d   1      -4.718   5.813   3.453  0.00  0.00    -0.078 A 
ATOM      4  C2  OXE d   1      -3.397   5.613   3.132  0.00  0.00    -0.078 A 
ATOM      5  C3  OXE d   1      -2.429   5.664   4.131  0.00  0.00     0.003 A 
ATOM      6  C4  OXE d   1      -2.804   5.765   5.476  0.00  0.00    -0.002 A 
ATOM      7  C5  OXE d   1      -4.147   5.930   5.828  0.00  0.00    -0.002 A 
ATOM      8  C6  OXE d   1      -5.111   5.999   4.828  0.00  0.00     0.003 A 
ENDROOT
TORSDOF 0
ENDMDL
