MODEL 1
REMARK minimizedAffinity -0.0884070471
REMARK minimizedRMSD -1
REMARK  0 active torsions:
REMARK  status: ('A' for Active; 'I' for Inactive)
ROOT
ATOM      1  C2' OXE d   1       4.841   5.999  -1.182  0.00  0.00     0.078 C 
ATOM      2  C1' OXE d   1       2.790   4.318  -0.261  0.00  0.00     0.078 C 
ATOM      3  C1  OXE d   1       3.893   4.676   0.704  0.00  0.00    -0.078 A 
ATOM      4  C2  OXE d   1       4.917   5.461   0.231  0.00  0.00    -0.078 A 
ATOM      5  C3  OXE d   1       5.931   5.865   1.094  0.00  0.00     0.003 A 
ATOM      6  C4  OXE d   1       5.999   5.354   2.396  0.00  0.00    -0.002 A 
ATOM      7  C5  OXE d   1       4.987   4.521   2.886  0.00  0.00    -0.002 A 
ATOM      8  C6  OXE d   1       3.908   4.207   2.068  0.00  0.00     0.003 A 
ENDROOT
TORSDOF 0
ENDMDL
