MODEL 1
REMARK minimizedAffinity 0.54937923
REMARK minimizedRMSD -1
REMARK  0 active torsions:
REMARK  status: ('A' for Active; 'I' for Inactive)
ROOT
ATOM      1  C2' OXE d   1      -4.512   5.991   5.309  0.00  0.00     0.078 C 
ATOM      2  C1' OXE d   1      -1.839   5.971   4.453  0.00  0.00     0.078 C 
ATOM      3  C1  OXE d   1      -2.915   5.977   3.397  0.00  0.00    -0.078 A 
ATOM      4  C2  OXE d   1      -4.221   5.939   3.824  0.00  0.00    -0.078 A 
ATOM      5  C3  OXE d   1      -5.253   5.999   2.893  0.00  0.00     0.003 A 
ATOM      6  C4  OXE d   1      -4.976   5.941   1.522  0.00  0.00    -0.002 A 
ATOM      7  C5  OXE d   1      -3.653   5.939   1.065  0.00  0.00    -0.002 A 
ATOM      8  C6  OXE d   1      -2.614   6.000   1.987  0.00  0.00     0.003 A 
ENDROOT
TORSDOF 0
ENDMDL
