MODEL 1
REMARK minimizedAffinity -2.44872832
REMARK minimizedRMSD -1
REMARK  1 active torsions:
REMARK  status: ('A' for Active; 'I' for Inactive)
REMARK    1  A    between atoms: C1_2  and  C2_3 
ROOT
ATOM      1  C2  UNL d   1       0.604   2.059   0.735  0.00  0.00    -0.081 A 
ATOM      2  C3  UNL d   1      -0.028   1.494  -0.379  0.00  0.00     0.006 A 
ATOM      3  C4  UNL d   1      -0.672   0.258  -0.276  0.00  0.00     0.002 A 
ATOM      4  C5  UNL d   1      -0.700  -0.428   0.942  0.00  0.00    -0.080 A 
ATOM      5  C6  UNL d   1      -1.414  -1.741   1.073  0.00  0.00     0.076 C 
ATOM      6  C7  UNL d   1      -0.053   0.128   2.051  0.00  0.00     0.002 A 
ATOM      7  C8  UNL d   1       0.591   1.363   1.949  0.00  0.00     0.006 A 
ENDROOT
BRANCH   1   8
ATOM      8  C1  UNL d   1       1.243   3.422   0.644  0.00  0.00     0.054 C 
ATOM      9  C   UNL d   1       2.558   3.468   1.410  0.00  0.00     0.018 C 
ENDBRANCH   1   8
TORSDOF 1
ENDMDL
