MODEL 1
REMARK minimizedAffinity 4.38322067
REMARK minimizedRMSD -1
REMARK  1 active torsions:
REMARK  status: ('A' for Active; 'I' for Inactive)
REMARK    1  A    between atoms: C1_2  and  C2_3 
ROOT
ATOM      1  C2  UNL d   1       0.441   0.134  -0.443  0.00  0.00    -0.081 A 
ATOM      2  C3  UNL d   1       0.206  -0.941   0.424  0.00  0.00     0.006 A 
ATOM      3  C4  UNL d   1      -0.913  -0.944   1.260  0.00  0.00     0.002 A 
ATOM      4  C5  UNL d   1      -1.818   0.123   1.239  0.00  0.00    -0.080 A 
ATOM      5  C6  UNL d   1      -3.039   0.117   2.110  0.00  0.00     0.076 C 
ATOM      6  C7  UNL d   1      -1.573   1.204   0.386  0.00  0.00     0.002 A 
ATOM      7  C8  UNL d   1      -0.455   1.208  -0.450  0.00  0.00     0.006 A 
ENDROOT
BRANCH   1   8
ATOM      8  C1  UNL d   1       1.612   0.110  -1.392  0.00  0.00     0.054 C 
ATOM      9  C   UNL d   1       1.193  -0.368  -2.775  0.00  0.00     0.018 C 
ENDBRANCH   1   8
TORSDOF 1
ENDMDL
