MODEL 1
REMARK minimizedAffinity -0.53199172
REMARK minimizedRMSD -1
REMARK  1 active torsions:
REMARK  status: ('A' for Active; 'I' for Inactive)
REMARK    1  A    between atoms: C1_2  and  C2_3 
ROOT
ATOM      1  C2  UNL d   1       0.219   1.703   0.517  0.00  0.00    -0.081 A 
ATOM      2  C3  UNL d   1      -1.117   1.437   0.195  0.00  0.00     0.006 A 
ATOM      3  C4  UNL d   1      -1.656   0.165   0.403  0.00  0.00     0.002 A 
ATOM      4  C5  UNL d   1      -0.871  -0.859   0.944  0.00  0.00    -0.080 A 
ATOM      5  C6  UNL d   1      -1.445  -2.220   1.201  0.00  0.00     0.076 C 
ATOM      6  C7  UNL d   1       0.469  -0.598   1.250  0.00  0.00     0.002 A 
ATOM      7  C8  UNL d   1       1.009   0.674   1.041  0.00  0.00     0.006 A 
ENDROOT
BRANCH   1   8
ATOM      8  C1  UNL d   1       0.785   3.091   0.354  0.00  0.00     0.054 C 
ATOM      9  C   UNL d   1       2.307   3.073   0.365  0.00  0.00     0.018 C 
ENDBRANCH   1   8
TORSDOF 1
ENDMDL
