MODEL 1
REMARK minimizedAffinity -1.98524821
REMARK minimizedRMSD -1
REMARK  1 active torsions:
REMARK  status: ('A' for Active; 'I' for Inactive)
REMARK    1  A    between atoms: C1_2  and  C2_3 
ROOT
ATOM      1  C2  UNL d   1      -0.443  -1.437  -1.155  0.00  0.00    -0.081 A 
ATOM      2  C3  UNL d   1      -0.109  -0.204  -0.582  0.00  0.00     0.006 A 
ATOM      3  C4  UNL d   1      -0.411   0.061   0.756  0.00  0.00     0.002 A 
ATOM      4  C5  UNL d   1      -1.045  -0.905   1.545  0.00  0.00    -0.080 A 
ATOM      5  C6  UNL d   1      -1.348  -0.645   2.990  0.00  0.00     0.076 C 
ATOM      6  C7  UNL d   1      -1.395  -2.131   0.967  0.00  0.00     0.002 A 
ATOM      7  C8  UNL d   1      -1.094  -2.395  -0.370  0.00  0.00     0.006 A 
ENDROOT
BRANCH   1   8
ATOM      8  C1  UNL d   1      -0.061  -1.749  -2.579  0.00  0.00     0.054 C 
ATOM      9  C   UNL d   1      -0.647  -3.079  -3.031  0.00  0.00     0.018 C 
ENDBRANCH   1   8
TORSDOF 1
ENDMDL
