MODEL 1
REMARK minimizedAffinity 6.03132486
REMARK minimizedRMSD -1
REMARK  1 active torsions:
REMARK  status: ('A' for Active; 'I' for Inactive)
REMARK    1  A    between atoms: C1_2  and  C2_3 
ROOT
ATOM      1  C2  UNL d   1      -0.478  -0.229  -0.566  0.00  0.00    -0.081 A 
ATOM      2  C3  UNL d   1      -0.347   0.890   0.266  0.00  0.00     0.006 A 
ATOM      3  C4  UNL d   1      -0.739   0.826   1.605  0.00  0.00     0.002 A 
ATOM      4  C5  UNL d   1      -1.259  -0.359   2.137  0.00  0.00    -0.080 A 
ATOM      5  C6  UNL d   1      -1.655  -0.450   3.580  0.00  0.00     0.076 C 
ATOM      6  C7  UNL d   1      -1.406  -1.471   1.301  0.00  0.00     0.002 A 
ATOM      7  C8  UNL d   1      -1.015  -1.408  -0.038  0.00  0.00     0.006 A 
ENDROOT
BRANCH   1   8
ATOM      8  C1  UNL d   1       0.004  -0.182  -1.994  0.00  0.00     0.054 C 
ATOM      9  C   UNL d   1       1.519  -0.303  -2.071  0.00  0.00     0.018 C 
ENDBRANCH   1   8
TORSDOF 1
ENDMDL
