MODEL 1
REMARK minimizedAffinity -1.78439534
REMARK minimizedRMSD -1
REMARK  1 active torsions:
REMARK  status: ('A' for Active; 'I' for Inactive)
REMARK    1  A    between atoms: C1_2  and  C2_3 
ROOT
ATOM      1  C2  UNL d   1       0.460   1.897   0.550  0.00  0.00    -0.081 A 
ATOM      2  C3  UNL d   1      -0.075   1.167   1.619  0.00  0.00     0.006 A 
ATOM      3  C4  UNL d   1      -0.652  -0.086   1.402  0.00  0.00     0.002 A 
ATOM      4  C5  UNL d   1      -0.696  -0.634   0.115  0.00  0.00    -0.080 A 
ATOM      5  C6  UNL d   1      -1.286  -1.992  -0.127  0.00  0.00     0.076 C 
ATOM      6  C7  UNL d   1      -0.178   0.103  -0.955  0.00  0.00     0.002 A 
ATOM      7  C8  UNL d   1       0.399   1.356  -0.739  0.00  0.00     0.006 A 
ENDROOT
BRANCH   1   8
ATOM      8  C1  UNL d   1       1.141   3.220   0.791  0.00  0.00     0.054 C 
ATOM      9  C   UNL d   1       2.634   3.133   0.510  0.00  0.00     0.018 C 
ENDBRANCH   1   8
TORSDOF 1
ENDMDL
