MODEL 1
REMARK minimizedAffinity -5.29866934
REMARK minimizedRMSD -1
REMARK  1 active torsions:
REMARK  status: ('A' for Active; 'I' for Inactive)
REMARK    1  A    between atoms: C1_2  and  C2_3 
ROOT
ATOM      1  C2  UNL d   1      -0.100   2.145   0.171  0.00  0.00    -0.081 A 
ATOM      2  C3  UNL d   1      -1.206   1.827   0.969  0.00  0.00     0.006 A 
ATOM      3  C4  UNL d   1      -1.548   0.493   1.205  0.00  0.00     0.002 A 
ATOM      4  C5  UNL d   1      -0.787  -0.543   0.654  0.00  0.00    -0.080 A 
ATOM      5  C6  UNL d   1      -1.126  -1.979   0.924  0.00  0.00     0.076 C 
ATOM      6  C7  UNL d   1       0.308  -0.225  -0.157  0.00  0.00     0.002 A 
ATOM      7  C8  UNL d   1       0.650   1.108  -0.394  0.00  0.00     0.006 A 
ENDROOT
BRANCH   1   8
ATOM      8  C1  UNL d   1       0.310   3.582  -0.032  0.00  0.00     0.054 C 
ATOM      9  C   UNL d   1       1.819   3.710  -0.185  0.00  0.00     0.018 C 
ENDBRANCH   1   8
TORSDOF 1
ENDMDL
