MODEL 1
REMARK minimizedAffinity -3.43535423
REMARK minimizedRMSD -1
REMARK  1 active torsions:
REMARK  status: ('A' for Active; 'I' for Inactive)
REMARK    1  A    between atoms: C1_2  and  C2_3 
ROOT
ATOM      1  C2  UNL d   1       0.547   1.283  -0.075  0.00  0.00    -0.081 A 
ATOM      2  C3  UNL d   1       0.118   0.861   1.189  0.00  0.00     0.006 A 
ATOM      3  C4  UNL d   1      -0.322  -0.450   1.387  0.00  0.00     0.002 A 
ATOM      4  C5  UNL d   1      -0.334  -1.362   0.327  0.00  0.00    -0.080 A 
ATOM      5  C6  UNL d   1      -0.775  -2.781   0.533  0.00  0.00     0.076 C 
ATOM      6  C7  UNL d   1       0.078  -0.936  -0.940  0.00  0.00     0.002 A 
ATOM      7  C8  UNL d   1       0.517   0.375  -1.139  0.00  0.00     0.006 A 
ENDROOT
BRANCH   1   8
ATOM      8  C1  UNL d   1       1.083   2.677  -0.277  0.00  0.00     0.054 C 
ATOM      9  C   UNL d   1       0.284   3.698   0.520  0.00  0.00     0.018 C 
ENDBRANCH   1   8
TORSDOF 1
ENDMDL
