MODEL 1
REMARK minimizedAffinity 0.872482061
REMARK minimizedRMSD -1
REMARK  1 active torsions:
REMARK  status: ('A' for Active; 'I' for Inactive)
REMARK    1  A    between atoms: C1_2  and  C2_3 
ROOT
ATOM      1  C2  UNL d   1       0.832   2.098   0.381  0.00  0.00    -0.081 A 
ATOM      2  C3  UNL d   1       1.992   1.642  -0.256  0.00  0.00     0.006 A 
ATOM      3  C4  UNL d   1       1.918   0.653  -1.241  0.00  0.00     0.002 A 
ATOM      4  C5  UNL d   1       0.683   0.110  -1.609  0.00  0.00    -0.080 A 
ATOM      5  C6  UNL d   1       0.586  -0.930  -2.686  0.00  0.00     0.076 C 
ATOM      6  C7  UNL d   1      -0.475   0.553  -0.960  0.00  0.00     0.002 A 
ATOM      7  C8  UNL d   1      -0.401   1.541   0.025  0.00  0.00     0.006 A 
ENDROOT
BRANCH   1   8
ATOM      8  C1  UNL d   1       0.902   3.209   1.397  0.00  0.00     0.054 C 
ATOM      9  C   UNL d   1       2.322   3.737   1.543  0.00  0.00     0.018 C 
ENDBRANCH   1   8
TORSDOF 1
ENDMDL
