MODEL 1
REMARK minimizedAffinity -3.05349374
REMARK minimizedRMSD -1
REMARK  1 active torsions:
REMARK  status: ('A' for Active; 'I' for Inactive)
REMARK    1  A    between atoms: C1_2  and  C2_3 
ROOT
ATOM      1  C2  UNL d   1       0.224   1.196   0.050  0.00  0.00    -0.081 A 
ATOM      2  C3  UNL d   1       0.706   0.376  -0.978  0.00  0.00     0.006 A 
ATOM      3  C4  UNL d   1       0.546  -1.010  -0.913  0.00  0.00     0.002 A 
ATOM      4  C5  UNL d   1      -0.104  -1.598   0.177  0.00  0.00    -0.080 A 
ATOM      5  C6  UNL d   1      -0.309  -3.083   0.245  0.00  0.00     0.076 C 
ATOM      6  C7  UNL d   1      -0.570  -0.781   1.213  0.00  0.00     0.002 A 
ATOM      7  C8  UNL d   1      -0.410   0.605   1.148  0.00  0.00     0.006 A 
ENDROOT
BRANCH   1   8
ATOM      8  C1  UNL d   1       0.338   2.696  -0.049  0.00  0.00     0.054 C 
ATOM      9  C   UNL d   1       1.733   3.171   0.329  0.00  0.00     0.018 C 
ENDBRANCH   1   8
TORSDOF 1
ENDMDL
