MODEL 1
REMARK minimizedAffinity -5.913692
REMARK minimizedRMSD -1
REMARK  1 active torsions:
REMARK  status: ('A' for Active; 'I' for Inactive)
REMARK    1  A    between atoms: C1_2  and  C2_3 
ROOT
ATOM      1  C2  UNL d   1      -0.067   0.312  -0.315  0.00  0.00    -0.081 A 
ATOM      2  C3  UNL d   1       0.360  -0.348  -1.474  0.00  0.00     0.006 A 
ATOM      3  C4  UNL d   1       0.376  -1.744  -1.529  0.00  0.00     0.002 A 
ATOM      4  C5  UNL d   1      -0.041  -2.502  -0.429  0.00  0.00    -0.080 A 
ATOM      5  C6  UNL d   1      -0.056  -4.001  -0.486  0.00  0.00     0.076 C 
ATOM      6  C7  UNL d   1      -0.450  -1.843   0.734  0.00  0.00     0.002 A 
ATOM      7  C8  UNL d   1      -0.466  -0.447   0.790  0.00  0.00     0.006 A 
ENDROOT
BRANCH   1   8
ATOM      8  C1  UNL d   1      -0.147   1.817  -0.276  0.00  0.00     0.054 C 
ATOM      9  C   UNL d   1       1.155   2.428   0.222  0.00  0.00     0.018 C 
ENDBRANCH   1   8
TORSDOF 1
ENDMDL
