MODEL 1
REMARK minimizedAffinity -2.53668284
REMARK minimizedRMSD -1
REMARK  1 active torsions:
REMARK  status: ('A' for Active; 'I' for Inactive)
REMARK    1  A    between atoms: C1_2  and  C2_3 
ROOT
ATOM      1  C2  UNL d   1      -0.009   1.840   0.411  0.00  0.00    -0.081 A 
ATOM      2  C3  UNL d   1      -1.147   1.435   1.120  0.00  0.00     0.006 A 
ATOM      3  C4  UNL d   1      -1.547   0.096   1.112  0.00  0.00     0.002 A 
ATOM      4  C5  UNL d   1      -0.813  -0.860   0.402  0.00  0.00    -0.080 A 
ATOM      5  C6  UNL d   1      -1.215  -2.305   0.409  0.00  0.00     0.076 C 
ATOM      6  C7  UNL d   1       0.313  -0.452  -0.321  0.00  0.00     0.002 A 
ATOM      7  C8  UNL d   1       0.714   0.886  -0.313  0.00  0.00     0.006 A 
ENDROOT
BRANCH   1   8
ATOM      8  C1  UNL d   1       0.462   3.270   0.471  0.00  0.00     0.054 C 
ATOM      9  C   UNL d   1       1.825   3.376   1.141  0.00  0.00     0.018 C 
ENDBRANCH   1   8
TORSDOF 1
ENDMDL
