MODEL 1
REMARK minimizedAffinity -5.53136587
REMARK minimizedRMSD -1
REMARK  1 active torsions:
REMARK  status: ('A' for Active; 'I' for Inactive)
REMARK    1  A    between atoms: C1_2  and  C2_3 
ROOT
ATOM      1  C2  UNL d   1       0.289   0.497  -0.198  0.00  0.00    -0.081 A 
ATOM      2  C3  UNL d   1       0.179  -0.241   0.987  0.00  0.00     0.006 A 
ATOM      3  C4  UNL d   1       0.109  -1.636   0.948  0.00  0.00     0.002 A 
ATOM      4  C5  UNL d   1       0.158  -2.315  -0.274  0.00  0.00    -0.080 A 
ATOM      5  C6  UNL d   1       0.115  -3.814  -0.327  0.00  0.00     0.076 C 
ATOM      6  C7  UNL d   1       0.251  -1.577  -1.458  0.00  0.00     0.002 A 
ATOM      7  C8  UNL d   1       0.319  -0.182  -1.420  0.00  0.00     0.006 A 
ENDROOT
BRANCH   1   8
ATOM      8  C1  UNL d   1       0.429   1.997  -0.155  0.00  0.00     0.054 C 
ATOM      9  C   UNL d   1       1.892   2.418  -0.177  0.00  0.00     0.018 C 
ENDBRANCH   1   8
TORSDOF 1
ENDMDL
