MODEL 1
REMARK minimizedAffinity -3.69789338
REMARK minimizedRMSD -1
REMARK  1 active torsions:
REMARK  status: ('A' for Active; 'I' for Inactive)
REMARK    1  A    between atoms: C1_2  and  C2_3 
ROOT
ATOM      1  C2  UNL d   1       0.279  -0.559   0.462  0.00  0.00    -0.077 A 
ATOM      2  C3  UNL d   1      -0.481  -1.508   1.160  0.00  0.00     0.002 A 
ATOM      3  C4  UNL d   1      -0.666  -1.388   2.539  0.00  0.00     0.002 A 
ATOM      4  C5  UNL d   1      -0.098  -0.320   3.230  0.00  0.00    -0.004 A 
ATOM      5  C6  UNL d   1       0.662   0.627   2.545  0.00  0.00     0.002 A 
ATOM      6  C7  UNL d   1       0.849   0.509   1.167  0.00  0.00     0.002 A 
ENDROOT
BRANCH   1   7
ATOM      7  C1  UNL d   1       0.439  -0.659  -1.032  0.00  0.00     0.055 C 
ATOM      8  C   UNL d   1      -0.444   0.350  -1.752  0.00  0.00     0.019 C 
ENDBRANCH   1   7
TORSDOF 1
ENDMDL
