MODEL 1
REMARK minimizedAffinity -4.66890144
REMARK minimizedRMSD -1
REMARK  1 active torsions:
REMARK  status: ('A' for Active; 'I' for Inactive)
REMARK    1  A    between atoms: C1_2  and  C2_3 
ROOT
ATOM      1  C2  UNL d   1      -0.284   0.196   0.276  0.00  0.00    -0.077 A 
ATOM      2  C3  UNL d   1      -1.400  -0.611   0.537  0.00  0.00     0.002 A 
ATOM      3  C4  UNL d   1      -1.600  -1.149   1.810  0.00  0.00     0.002 A 
ATOM      4  C5  UNL d   1      -0.690  -0.883   2.832  0.00  0.00    -0.004 A 
ATOM      5  C6  UNL d   1       0.424  -0.083   2.581  0.00  0.00     0.002 A 
ATOM      6  C7  UNL d   1       0.625   0.455   1.309  0.00  0.00     0.002 A 
ENDROOT
BRANCH   1   7
ATOM      7  C1  UNL d   1      -0.093   0.817  -1.083  0.00  0.00     0.055 C 
ATOM      8  C   UNL d   1       0.544  -0.164  -2.056  0.00  0.00     0.019 C 
ENDBRANCH   1   7
TORSDOF 1
ENDMDL
