MODEL 1
REMARK minimizedAffinity -5.08070421
REMARK minimizedRMSD -1
REMARK  1 active torsions:
REMARK  status: ('A' for Active; 'I' for Inactive)
REMARK    1  A    between atoms: C1_2  and  C2_3 
ROOT
ATOM      1  C2  UNL d   1       0.876   0.427  -0.449  0.00  0.00    -0.077 A 
ATOM      2  C3  UNL d   1      -0.203  -0.451  -0.278  0.00  0.00     0.002 A 
ATOM      3  C4  UNL d   1      -0.710  -0.706   0.997  0.00  0.00     0.002 A 
ATOM      4  C5  UNL d   1      -0.148  -0.084   2.110  0.00  0.00    -0.004 A 
ATOM      5  C6  UNL d   1       0.927   0.790   1.950  0.00  0.00     0.002 A 
ATOM      6  C7  UNL d   1       1.436   1.045   0.677  0.00  0.00     0.002 A 
ENDROOT
BRANCH   1   7
ATOM      7  C1  UNL d   1       1.394   0.742  -1.829  0.00  0.00     0.055 C 
ATOM      8  C   UNL d   1       0.792  -0.190  -2.871  0.00  0.00     0.019 C 
ENDBRANCH   1   7
TORSDOF 1
ENDMDL
