MODEL 1
REMARK minimizedAffinity -4.16616774
REMARK minimizedRMSD -1
REMARK  1 active torsions:
REMARK  status: ('A' for Active; 'I' for Inactive)
REMARK    1  A    between atoms: C1_2  and  C2_3 
ROOT
ATOM      1  C2  UNL d   1       1.155  -0.253  -1.812  0.00  0.00    -0.077 A 
ATOM      2  C3  UNL d   1       0.953  -1.491  -2.437  0.00  0.00     0.002 A 
ATOM      3  C4  UNL d   1       1.858  -1.956  -3.394  0.00  0.00     0.002 A 
ATOM      4  C5  UNL d   1       2.972  -1.191  -3.731  0.00  0.00    -0.004 A 
ATOM      5  C6  UNL d   1       3.181   0.043  -3.116  0.00  0.00     0.002 A 
ATOM      6  C7  UNL d   1       2.278   0.510  -2.161  0.00  0.00     0.002 A 
ENDROOT
BRANCH   1   7
ATOM      7  C1  UNL d   1       0.207   0.228  -0.745  0.00  0.00     0.055 C 
ATOM      8  C   UNL d   1       0.936   1.036   0.319  0.00  0.00     0.019 C 
ENDBRANCH   1   7
TORSDOF 1
ENDMDL
