MODEL 1
REMARK minimizedAffinity -4.8250618
REMARK minimizedRMSD -1
REMARK  1 active torsions:
REMARK  status: ('A' for Active; 'I' for Inactive)
REMARK    1  A    between atoms: C1_2  and  C2_3 
ROOT
ATOM      1  C2  UNL d   1       0.500   0.578  -1.474  0.00  0.00    -0.077 A 
ATOM      2  C3  UNL d   1       1.202   1.420  -0.600  0.00  0.00     0.002 A 
ATOM      3  C4  UNL d   1       0.905   1.428   0.764  0.00  0.00     0.002 A 
ATOM      4  C5  UNL d   1      -0.091   0.594   1.267  0.00  0.00    -0.004 A 
ATOM      5  C6  UNL d   1      -0.796  -0.246   0.405  0.00  0.00     0.002 A 
ATOM      6  C7  UNL d   1      -0.502  -0.255  -0.959  0.00  0.00     0.002 A 
ENDROOT
BRANCH   1   7
ATOM      7  C1  UNL d   1       0.853   0.531  -2.938  0.00  0.00     0.055 C 
ATOM      8  C   UNL d   1       2.292   0.965  -3.175  0.00  0.00     0.019 C 
ENDBRANCH   1   7
TORSDOF 1
ENDMDL
