MODEL 1
REMARK minimizedAffinity -2.50501657
REMARK minimizedRMSD -1
REMARK  1 active torsions:
REMARK  status: ('A' for Active; 'I' for Inactive)
REMARK    1  A    between atoms: C1_2  and  C2_3 
ROOT
ATOM      1  C2  UNL d   1       0.397   0.543   1.720  0.00  0.00    -0.077 A 
ATOM      2  C3  UNL d   1       1.461   1.150   1.038  0.00  0.00     0.002 A 
ATOM      3  C4  UNL d   1       1.436   1.263  -0.353  0.00  0.00     0.002 A 
ATOM      4  C5  UNL d   1       0.349   0.774  -1.074  0.00  0.00    -0.004 A 
ATOM      5  C6  UNL d   1      -0.713   0.166  -0.406  0.00  0.00     0.002 A 
ATOM      6  C7  UNL d   1      -0.690   0.052   0.985  0.00  0.00     0.002 A 
ENDROOT
BRANCH   1   7
ATOM      7  C1  UNL d   1       0.399   0.465   3.224  0.00  0.00     0.055 C 
ATOM      8  C   UNL d   1      -0.455  -0.693   3.720  0.00  0.00     0.019 C 
ENDBRANCH   1   7
TORSDOF 1
ENDMDL
