MODEL 1
REMARK minimizedAffinity 2.83729482
REMARK minimizedRMSD -1
REMARK  1 active torsions:
REMARK  status: ('A' for Active; 'I' for Inactive)
REMARK    1  A    between atoms: C1_2  and  C2_3 
ROOT
ATOM      1  C2  UNL d   1       1.580  -0.141   2.957  0.00  0.00    -0.077 A 
ATOM      2  C3  UNL d   1       0.714  -1.108   3.487  0.00  0.00     0.002 A 
ATOM      3  C4  UNL d   1      -0.666  -0.893   3.491  0.00  0.00     0.002 A 
ATOM      4  C5  UNL d   1      -1.191   0.284   2.962  0.00  0.00    -0.004 A 
ATOM      5  C6  UNL d   1      -0.338   1.252   2.434  0.00  0.00     0.002 A 
ATOM      6  C7  UNL d   1       1.042   1.040   2.431  0.00  0.00     0.002 A 
ENDROOT
BRANCH   1   7
ATOM      7  C1  UNL d   1       3.065  -0.392   2.907  0.00  0.00     0.055 C 
ATOM      8  C   UNL d   1       3.676   0.155   1.625  0.00  0.00     0.019 C 
ENDBRANCH   1   7
TORSDOF 1
ENDMDL
