MODEL 1
REMARK minimizedAffinity -4.41590309
REMARK minimizedRMSD -1
REMARK  1 active torsions:
REMARK  status: ('A' for Active; 'I' for Inactive)
REMARK    1  A    between atoms: C1_2  and  C2_3 
ROOT
ATOM      1  C2  UNL d   1      -0.170   0.128   0.120  0.00  0.00    -0.077 A 
ATOM      2  C3  UNL d   1      -1.262  -0.465   0.768  0.00  0.00     0.002 A 
ATOM      3  C4  UNL d   1      -1.236  -0.675   2.149  0.00  0.00     0.002 A 
ATOM      4  C5  UNL d   1      -0.123  -0.290   2.892  0.00  0.00    -0.004 A 
ATOM      5  C6  UNL d   1       0.969   0.299   2.257  0.00  0.00     0.002 A 
ATOM      6  C7  UNL d   1       0.945   0.509   0.877  0.00  0.00     0.002 A 
ENDROOT
BRANCH   1   7
ATOM      7  C1  UNL d   1      -0.217   0.400  -1.361  0.00  0.00     0.055 C 
ATOM      8  C   UNL d   1       0.488  -0.696  -2.147  0.00  0.00     0.019 C 
ENDBRANCH   1   7
TORSDOF 1
ENDMDL
