MODEL 1
REMARK minimizedAffinity -5.37711048
REMARK minimizedRMSD -1
REMARK  1 active torsions:
REMARK  status: ('A' for Active; 'I' for Inactive)
REMARK    1  A    between atoms: C1_2  and  C2_3 
ROOT
ATOM      1  C2  UNL d   1      -0.909  -0.045   1.015  0.00  0.00    -0.077 A 
ATOM      2  C3  UNL d   1      -0.843   0.491   2.308  0.00  0.00     0.002 A 
ATOM      3  C4  UNL d   1       0.349   0.443   3.033  0.00  0.00     0.002 A 
ATOM      4  C5  UNL d   1       1.485  -0.135   2.472  0.00  0.00    -0.004 A 
ATOM      5  C6  UNL d   1       1.430  -0.673   1.186  0.00  0.00     0.002 A 
ATOM      6  C7  UNL d   1       0.239  -0.627   0.461  0.00  0.00     0.002 A 
ENDROOT
BRANCH   1   7
ATOM      7  C1  UNL d   1      -2.180   0.049   0.212  0.00  0.00     0.055 C 
ATOM      8  C   UNL d   1      -2.077   1.119  -0.865  0.00  0.00     0.019 C 
ENDBRANCH   1   7
TORSDOF 1
ENDMDL
