MODEL 1
REMARK minimizedAffinity -5.00624752
REMARK minimizedRMSD -1
REMARK  1 active torsions:
REMARK  status: ('A' for Active; 'I' for Inactive)
REMARK    1  A    between atoms: C1_2  and  C2_3 
ROOT
ATOM      1  C2  UNL d   1       0.438  -0.011  -0.047  0.00  0.00    -0.077 A 
ATOM      2  C3  UNL d   1       1.755   0.138   0.410  0.00  0.00     0.002 A 
ATOM      3  C4  UNL d   1       2.071  -0.107   1.747  0.00  0.00     0.002 A 
ATOM      4  C5  UNL d   1       1.078  -0.508   2.638  0.00  0.00    -0.004 A 
ATOM      5  C6  UNL d   1      -0.236  -0.658   2.194  0.00  0.00     0.002 A 
ATOM      6  C7  UNL d   1      -0.554  -0.411   0.858  0.00  0.00     0.002 A 
ENDROOT
BRANCH   1   7
ATOM      7  C1  UNL d   1       0.104   0.206  -1.499  0.00  0.00     0.055 C 
ATOM      8  C   UNL d   1       0.507  -0.993  -2.345  0.00  0.00     0.019 C 
ENDBRANCH   1   7
TORSDOF 1
ENDMDL
