MODEL 1
REMARK minimizedAffinity -2.68949151
REMARK minimizedRMSD -1
REMARK  1 active torsions:
REMARK  status: ('A' for Active; 'I' for Inactive)
REMARK    1  A    between atoms: C1_2  and  C2_3 
ROOT
ATOM      1  C2  UNL d   1       0.342  -0.571  -1.141  0.00  0.00    -0.077 A 
ATOM      2  C3  UNL d   1       0.659  -1.415  -0.068  0.00  0.00     0.002 A 
ATOM      3  C4  UNL d   1       0.041  -1.244   1.172  0.00  0.00     0.002 A 
ATOM      4  C5  UNL d   1      -0.901  -0.232   1.349  0.00  0.00    -0.004 A 
ATOM      5  C6  UNL d   1      -1.221   0.614   0.289  0.00  0.00     0.002 A 
ATOM      6  C7  UNL d   1      -0.604   0.445  -0.951  0.00  0.00     0.002 A 
ENDROOT
BRANCH   1   7
ATOM      7  C1  UNL d   1       0.971  -0.785  -2.493  0.00  0.00     0.055 C 
ATOM      8  C   UNL d   1       1.015  -2.262  -2.856  0.00  0.00     0.019 C 
ENDBRANCH   1   7
TORSDOF 1
ENDMDL
