MODEL 1
REMARK minimizedAffinity 15.5237274
REMARK minimizedRMSD -1
REMARK  1 active torsions:
REMARK  status: ('A' for Active; 'I' for Inactive)
REMARK    1  A    between atoms: N_2  and  C1_3 
ROOT
ATOM      1  C1  UNL d   1      -0.039  -0.415   2.301  0.00  0.00     0.143 A 
ATOM      2  C2  UNL d   1      -0.712   0.812   2.296  0.00  0.00    -0.057 A 
ATOM      3  C3  UNL d   1      -0.308   1.865   3.126  0.00  0.00     0.033 A 
ATOM      4  C4  UNL d   1       0.761   1.699   4.000  0.00  0.00    -0.042 A 
ATOM      5  C5  UNL d   1       1.428   0.480   4.040  0.00  0.00     0.033 A 
ATOM      6  C6  UNL d   1       1.025  -0.566   3.204  0.00  0.00    -0.057 A 
ENDROOT
BRANCH   1   7
ATOM      7  N   UNL d   1      -0.453  -1.531   1.571  0.00  0.00    -0.732 N 
ATOM      8  C   UNL d   1       0.173  -1.861   0.308  0.00  0.00     0.284 C 
ATOM      9  H3  UNL d   1      -0.640  -2.336   2.164  0.00  0.00     0.395 HD
ENDBRANCH   1   7
TORSDOF 1
ENDMDL
