MODEL 1
REMARK minimizedAffinity 10.2796059
REMARK minimizedRMSD -1
REMARK  1 active torsions:
REMARK  status: ('A' for Active; 'I' for Inactive)
REMARK    1  A    between atoms: N_2  and  C1_3 
ROOT
ATOM      1  C1  UNL d   1      -0.067  -1.049  -3.763  0.00  0.00     0.143 A 
ATOM      2  C2  UNL d   1      -0.454  -2.317  -4.211  0.00  0.00    -0.057 A 
ATOM      3  C3  UNL d   1      -0.856  -3.313  -3.313  0.00  0.00     0.033 A 
ATOM      4  C4  UNL d   1      -0.851  -3.067  -1.944  0.00  0.00    -0.042 A 
ATOM      5  C5  UNL d   1      -0.447  -1.823  -1.474  0.00  0.00     0.033 A 
ATOM      6  C6  UNL d   1      -0.052  -0.830  -2.376  0.00  0.00    -0.057 A 
ENDROOT
BRANCH   1   7
ATOM      7  N   UNL d   1       0.437  -0.050  -4.598  0.00  0.00    -0.732 N 
ATOM      8  C   UNL d   1       0.690  -0.317  -5.997  0.00  0.00     0.284 C 
ATOM      9  H3  UNL d   1       0.012   0.857  -4.418  0.00  0.00     0.395 HD
ENDBRANCH   1   7
TORSDOF 1
ENDMDL
