MODEL 1
REMARK minimizedAffinity 7.76599216
REMARK minimizedRMSD -1
REMARK  1 active torsions:
REMARK  status: ('A' for Active; 'I' for Inactive)
REMARK    1  A    between atoms: N_2  and  C1_3 
ROOT
ATOM      1  C1  UNL d   1      -3.376  -0.599   0.242  0.00  0.00     0.143 A 
ATOM      2  C2  UNL d   1      -3.813  -0.914  -1.049  0.00  0.00    -0.057 A 
ATOM      3  C3  UNL d   1      -4.592  -0.018  -1.791  0.00  0.00     0.033 A 
ATOM      4  C4  UNL d   1      -4.974   1.201  -1.242  0.00  0.00    -0.042 A 
ATOM      5  C5  UNL d   1      -4.573   1.525   0.050  0.00  0.00     0.033 A 
ATOM      6  C6  UNL d   1      -3.789   0.629   0.783  0.00  0.00    -0.057 A 
ENDROOT
BRANCH   1   7
ATOM      7  N   UNL d   1      -2.683  -1.488   1.067  0.00  0.00    -0.732 N 
ATOM      8  C   UNL d   1      -3.384  -2.538   1.774  0.00  0.00     0.284 C 
ATOM      9  H3  UNL d   1      -1.795  -1.778   0.665  0.00  0.00     0.395 HD
ENDBRANCH   1   7
TORSDOF 1
ENDMDL
