MODEL 1
REMARK minimizedAffinity 8.90105915
REMARK minimizedRMSD -1
REMARK  1 active torsions:
REMARK  status: ('A' for Active; 'I' for Inactive)
REMARK    1  A    between atoms: N_2  and  C1_3 
ROOT
ATOM      1  C1  UNL d   1       3.030   0.216  -4.852  0.00  0.00     0.143 A 
ATOM      2  C2  UNL d   1       3.254  -1.165  -4.837  0.00  0.00    -0.057 A 
ATOM      3  C3  UNL d   1       2.251  -2.059  -4.443  0.00  0.00     0.033 A 
ATOM      4  C4  UNL d   1       1.011  -1.583  -4.027  0.00  0.00    -0.042 A 
ATOM      5  C5  UNL d   1       0.775  -0.213  -4.011  0.00  0.00     0.033 A 
ATOM      6  C6  UNL d   1       1.778   0.674  -4.412  0.00  0.00    -0.057 A 
ENDROOT
BRANCH   1   7
ATOM      7  N   UNL d   1       4.018   1.161  -5.140  0.00  0.00    -0.732 N 
ATOM      8  C   UNL d   1       5.133   0.824  -5.998  0.00  0.00     0.284 C 
ATOM      9  H3  UNL d   1       3.632   2.088  -5.305  0.00  0.00     0.395 HD
ENDBRANCH   1   7
TORSDOF 1
ENDMDL
