MODEL 1
REMARK minimizedAffinity 7.89638233
REMARK minimizedRMSD -1
REMARK  1 active torsions:
REMARK  status: ('A' for Active; 'I' for Inactive)
REMARK    1  A    between atoms: N_2  and  C1_3 
ROOT
ATOM      1  C1  UNL d   1       0.171  -1.258   2.882  0.00  0.00     0.143 A 
ATOM      2  C2  UNL d   1      -1.096  -1.515   2.348  0.00  0.00    -0.057 A 
ATOM      3  C3  UNL d   1      -2.011  -0.480   2.120  0.00  0.00     0.033 A 
ATOM      4  C4  UNL d   1      -1.684   0.831   2.451  0.00  0.00    -0.042 A 
ATOM      5  C5  UNL d   1      -0.439   1.106   3.007  0.00  0.00     0.033 A 
ATOM      6  C6  UNL d   1       0.473   0.069   3.225  0.00  0.00    -0.057 A 
ENDROOT
BRANCH   1   7
ATOM      7  N   UNL d   1       1.088  -2.256   3.223  0.00  0.00    -0.732 N 
ATOM      8  C   UNL d   1       0.965  -2.974   4.473  0.00  0.00     0.284 C 
ATOM      9  H3  UNL d   1       1.337  -2.842   2.430  0.00  0.00     0.395 HD
ENDBRANCH   1   7
TORSDOF 1
ENDMDL
