MODEL 1
REMARK minimizedAffinity 3.070189
REMARK minimizedRMSD -1
REMARK  0 active torsions:
REMARK  status: ('A' for Active; 'I' for Inactive)
ROOT
ATOM      1  C4' PXY d   1       5.626  -5.961   4.367  0.00  0.00     0.077 C 
ATOM      2  C1' PXY d   1       0.113  -5.999   2.630  0.00  0.00     0.077 C 
ATOM      3  C1  PXY d   1       1.562  -5.994   3.074  0.00  0.00    -0.082 A 
ATOM      4  C2  PXY d   1       1.851  -5.985   4.366  0.00  0.00     0.003 A 
ATOM      5  C3  PXY d   1       3.156  -5.948   4.784  0.00  0.00     0.003 A 
ATOM      6  C4  PXY d   1       4.177  -5.975   3.873  0.00  0.00    -0.082 A 
ATOM      7  C5  PXY d   1       3.891  -5.996   2.554  0.00  0.00     0.003 A 
ATOM      8  C6  PXY d   1       2.560  -5.991   2.148  0.00  0.00     0.003 A 
ENDROOT
TORSDOF 0
ENDMDL
