MODEL 1
REMARK minimizedAffinity 2.35172796
REMARK minimizedRMSD -1
REMARK  0 active torsions:
REMARK  status: ('A' for Active; 'I' for Inactive)
ROOT
ATOM      1  C4' PXY d   1      -0.152  -5.349   1.920  0.00  0.00     0.077 C 
ATOM      2  C1' PXY d   1       1.303  -1.011  -1.613  0.00  0.00     0.077 C 
ATOM      3  C1  PXY d   1       0.909  -2.145  -0.687  0.00  0.00    -0.082 A 
ATOM      4  C2  PXY d   1       1.819  -2.688   0.106  0.00  0.00     0.003 A 
ATOM      5  C3  PXY d   1       1.487  -3.735   0.927  0.00  0.00     0.003 A 
ATOM      6  C4  PXY d   1       0.199  -4.196   0.975  0.00  0.00    -0.082 A 
ATOM      7  C5  PXY d   1      -0.738  -3.640   0.177  0.00  0.00     0.003 A 
ATOM      8  C6  PXY d   1      -0.371  -2.605  -0.678  0.00  0.00     0.003 A 
ENDROOT
TORSDOF 0
ENDMDL
