MODEL 1
REMARK minimizedAffinity 3.29347491
REMARK minimizedRMSD -1
REMARK  0 active torsions:
REMARK  status: ('A' for Active; 'I' for Inactive)
ROOT
ATOM      1  C4' PXY d   1       6.000   1.133  -5.937  0.00  0.00     0.077 C 
ATOM      2  C1' PXY d   1       1.562  -0.295  -2.519  0.00  0.00     0.077 C 
ATOM      3  C1  PXY d   1       2.733   0.083  -3.405  0.00  0.00    -0.082 A 
ATOM      4  C2  PXY d   1       2.517   0.420  -4.666  0.00  0.00     0.003 A 
ATOM      5  C3  PXY d   1       3.567   0.734  -5.489  0.00  0.00     0.003 A 
ATOM      6  C4  PXY d   1       4.847   0.753  -5.003  0.00  0.00    -0.082 A 
ATOM      7  C5  PXY d   1       5.075   0.420  -3.715  0.00  0.00     0.003 A 
ATOM      8  C6  PXY d   1       3.999   0.065  -2.906  0.00  0.00     0.003 A 
ENDROOT
TORSDOF 0
ENDMDL
