MODEL 1
REMARK minimizedAffinity -0.0572959594
REMARK minimizedRMSD -1
REMARK  0 active torsions:
REMARK  status: ('A' for Active; 'I' for Inactive)
ROOT
ATOM      1  C4' PXY d   1       2.044   4.132  -5.996  0.00  0.00     0.077 C 
ATOM      2  C1' PXY d   1       6.000   0.024  -5.052  0.00  0.00     0.077 C 
ATOM      3  C1  PXY d   1       4.956   1.094  -5.308  0.00  0.00    -0.082 A 
ATOM      4  C2  PXY d   1       5.253   2.364  -5.087  0.00  0.00     0.003 A 
ATOM      5  C3  PXY d   1       4.311   3.341  -5.283  0.00  0.00     0.003 A 
ATOM      6  C4  PXY d   1       3.069   3.019  -5.761  0.00  0.00    -0.082 A 
ATOM      7  C5  PXY d   1       2.762   1.727  -5.999  0.00  0.00     0.003 A 
ATOM      8  C6  PXY d   1       3.719   0.746  -5.755  0.00  0.00     0.003 A 
ENDROOT
TORSDOF 0
ENDMDL
