MODEL 1
REMARK minimizedAffinity 1.53074467
REMARK minimizedRMSD -1
REMARK  0 active torsions:
REMARK  status: ('A' for Active; 'I' for Inactive)
ROOT
ATOM      1  C4' PXY d   1       0.765  -3.292  -2.707  0.00  0.00     0.077 C 
ATOM      2  C1' PXY d   1       1.083   2.205  -0.947  0.00  0.00     0.077 C 
ATOM      3  C1  PXY d   1       0.995   0.768  -1.420  0.00  0.00    -0.082 A 
ATOM      4  C2  PXY d   1       0.913  -0.209  -0.532  0.00  0.00     0.003 A 
ATOM      5  C3  PXY d   1       0.865  -1.517  -0.941  0.00  0.00     0.003 A 
ATOM      6  C4  PXY d   1       0.847  -1.825  -2.275  0.00  0.00    -0.082 A 
ATOM      7  C5  PXY d   1       0.919  -0.833  -3.188  0.00  0.00     0.003 A 
ATOM      8  C6  PXY d   1       1.009   0.485  -2.751  0.00  0.00     0.003 A 
ENDROOT
TORSDOF 0
ENDMDL
