MODEL 1
REMARK minimizedAffinity 0.145015717
REMARK minimizedRMSD -1
REMARK  0 active torsions:
REMARK  status: ('A' for Active; 'I' for Inactive)
ROOT
ATOM      1  C4' PXY d   1      -3.755   0.227   5.169  0.00  0.00     0.077 C 
ATOM      2  C1' PXY d   1      -3.457   6.000   5.242  0.00  0.00     0.077 C 
ATOM      3  C1  PXY d   1      -3.540   4.486   5.234  0.00  0.00    -0.082 A 
ATOM      4  C2  PXY d   1      -2.711   3.788   4.475  0.00  0.00     0.003 A 
ATOM      5  C3  PXY d   1      -2.794   2.420   4.432  0.00  0.00     0.003 A 
ATOM      6  C4  PXY d   1      -3.701   1.757   5.215  0.00  0.00    -0.082 A 
ATOM      7  C5  PXY d   1      -4.543   2.461   6.000  0.00  0.00     0.003 A 
ATOM      8  C6  PXY d   1      -4.470   3.850   5.998  0.00  0.00     0.003 A 
ENDROOT
TORSDOF 0
ENDMDL
