MODEL 1
REMARK minimizedAffinity -2.90044999
REMARK minimizedRMSD -1
REMARK  0 active torsions:
REMARK  status: ('A' for Active; 'I' for Inactive)
ROOT
ATOM      1  C4' PXY d   1      -4.161   0.229   5.207  0.00  0.00     0.077 C 
ATOM      2  C1' PXY d   1      -4.563   5.995   5.282  0.00  0.00     0.077 C 
ATOM      3  C1  PXY d   1      -4.464   4.482   5.274  0.00  0.00    -0.082 A 
ATOM      4  C2  PXY d   1      -3.524   3.892   4.554  0.00  0.00     0.003 A 
ATOM      5  C3  PXY d   1      -3.440   2.525   4.510  0.00  0.00     0.003 A 
ATOM      6  C4  PXY d   1      -4.293   1.754   5.253  0.00  0.00    -0.082 A 
ATOM      7  C5  PXY d   1      -5.248   2.349   5.999  0.00  0.00     0.003 A 
ATOM      8  C6  PXY d   1      -5.343   3.737   5.997  0.00  0.00     0.003 A 
ENDROOT
TORSDOF 0
ENDMDL
