MODEL 1
REMARK minimizedAffinity 3.48980069
REMARK minimizedRMSD -1
REMARK  0 active torsions:
REMARK  status: ('A' for Active; 'I' for Inactive)
ROOT
ATOM      1  C4' PXY d   1       1.104  -2.093   0.393  0.00  0.00     0.077 C 
ATOM      2  C1' PXY d   1       1.175  -0.724  -5.223  0.00  0.00     0.077 C 
ATOM      3  C1  PXY d   1       1.159  -1.071  -3.747  0.00  0.00    -0.082 A 
ATOM      4  C2  PXY d   1       1.469  -2.297  -3.359  0.00  0.00     0.003 A 
ATOM      5  C3  PXY d   1       1.428  -2.636  -2.031  0.00  0.00     0.003 A 
ATOM      6  C4  PXY d   1       1.117  -1.696  -1.085  0.00  0.00    -0.082 A 
ATOM      7  C5  PXY d   1       0.809  -0.440  -1.472  0.00  0.00     0.003 A 
ATOM      8  C6  PXY d   1       0.817  -0.127  -2.828  0.00  0.00     0.003 A 
ENDROOT
TORSDOF 0
ENDMDL
