MODEL 1
REMARK minimizedAffinity 2.54526091
REMARK minimizedRMSD -1
REMARK  0 active torsions:
REMARK  status: ('A' for Active; 'I' for Inactive)
ROOT
ATOM      1  C4' PXY d   1       0.505   1.787  -0.953  0.00  0.00     0.077 C 
ATOM      2  C1' PXY d   1       1.452  -3.213  -3.695  0.00  0.00     0.077 C 
ATOM      3  C1  PXY d   1       1.210  -1.895  -2.985  0.00  0.00    -0.082 A 
ATOM      4  C2  PXY d   1       0.943  -1.890  -1.690  0.00  0.00     0.003 A 
ATOM      5  C3  PXY d   1       0.690  -0.710  -1.038  0.00  0.00     0.003 A 
ATOM      6  C4  PXY d   1       0.765   0.481  -1.709  0.00  0.00    -0.082 A 
ATOM      7  C5  PXY d   1       1.047   0.485  -3.029  0.00  0.00     0.003 A 
ATOM      8  C6  PXY d   1       1.260  -0.727  -3.680  0.00  0.00     0.003 A 
ENDROOT
TORSDOF 0
ENDMDL
