MODEL 1
REMARK minimizedAffinity 3.05418682
REMARK minimizedRMSD -1
REMARK  0 active torsions:
REMARK  status: ('A' for Active; 'I' for Inactive)
ROOT
ATOM      1  C4' PXY d   1       2.297  -0.045  -4.821  0.00  0.00     0.077 C 
ATOM      2  C1' PXY d   1       0.141  -2.405  -0.005  0.00  0.00     0.077 C 
ATOM      3  C1  PXY d   1       0.712  -1.798  -1.271  0.00  0.00    -0.082 A 
ATOM      4  C2  PXY d   1       0.925  -0.493  -1.332  0.00  0.00     0.003 A 
ATOM      5  C3  PXY d   1       1.411   0.077  -2.481  0.00  0.00     0.003 A 
ATOM      6  C4  PXY d   1       1.731  -0.703  -3.560  0.00  0.00    -0.082 A 
ATOM      7  C5  PXY d   1       1.526  -2.036  -3.502  0.00  0.00     0.003 A 
ATOM      8  C6  PXY d   1       0.994  -2.590  -2.341  0.00  0.00     0.003 A 
ENDROOT
TORSDOF 0
ENDMDL
