MODEL 1
REMARK minimizedAffinity 0.820631504
REMARK minimizedRMSD -1
REMARK  0 active torsions:
REMARK  status: ('A' for Active; 'I' for Inactive)
ROOT
ATOM      1  C4' PXY d   1       3.213   4.660  -4.752  0.00  0.00     0.077 C 
ATOM      2  C1' PXY d   1       6.000  -0.248  -6.000  0.00  0.00     0.077 C 
ATOM      3  C1  PXY d   1       5.281   1.046  -5.671  0.00  0.00    -0.082 A 
ATOM      4  C2  PXY d   1       4.057   1.004  -5.169  0.00  0.00     0.003 A 
ATOM      5  C3  PXY d   1       3.380   2.165  -4.896  0.00  0.00     0.003 A 
ATOM      6  C4  PXY d   1       3.981   3.380  -5.090  0.00  0.00    -0.082 A 
ATOM      7  C5  PXY d   1       5.233   3.430  -5.592  0.00  0.00     0.003 A 
ATOM      8  C6  PXY d   1       5.888   2.241  -5.901  0.00  0.00     0.003 A 
ENDROOT
TORSDOF 0
ENDMDL
