MODEL 1
REMARK minimizedAffinity -1.64415789
REMARK minimizedRMSD -1
REMARK  0 active torsions:
REMARK  status: ('A' for Active; 'I' for Inactive)
ROOT
ATOM      1  C4' PXY d   1      -0.013  -2.214   0.756  0.00  0.00     0.077 C 
ATOM      2  C1' PXY d   1       1.458   1.369  -3.536  0.00  0.00     0.077 C 
ATOM      3  C1  PXY d   1       1.070   0.420  -2.419  0.00  0.00    -0.082 A 
ATOM      4  C2  PXY d   1       0.625   0.907  -1.272  0.00  0.00     0.003 A 
ATOM      5  C3  PXY d   1       0.301   0.064  -0.240  0.00  0.00     0.003 A 
ATOM      6  C4  PXY d   1       0.381  -1.293  -0.403  0.00  0.00    -0.082 A 
ATOM      7  C5  PXY d   1       0.823  -1.798  -1.574  0.00  0.00     0.003 A 
ATOM      8  C6  PXY d   1       1.187  -0.924  -2.595  0.00  0.00     0.003 A 
ENDROOT
TORSDOF 0
ENDMDL
