MODEL 1
REMARK minimizedAffinity 3.70866847
REMARK minimizedRMSD -1
REMARK  0 active torsions:
REMARK  status: ('A' for Active; 'I' for Inactive)
ROOT
ATOM      1  C4' PXY d   1       0.662  -1.888   0.367  0.00  0.00     0.077 C 
ATOM      2  C1' PXY d   1       1.260   1.822  -4.025  0.00  0.00     0.077 C 
ATOM      3  C1  PXY d   1       1.108   0.858  -2.865  0.00  0.00    -0.082 A 
ATOM      4  C2  PXY d   1       1.049  -0.443  -3.100  0.00  0.00     0.003 A 
ATOM      5  C3  PXY d   1       0.880  -1.327  -2.065  0.00  0.00     0.003 A 
ATOM      6  C4  PXY d   1       0.824  -0.878  -0.773  0.00  0.00    -0.082 A 
ATOM      7  C5  PXY d   1       0.895   0.447  -0.525  0.00  0.00     0.003 A 
ATOM      8  C6  PXY d   1       1.025   1.331  -1.592  0.00  0.00     0.003 A 
ENDROOT
TORSDOF 0
ENDMDL
