MODEL 1
REMARK minimizedAffinity -1.95693576
REMARK minimizedRMSD -1
REMARK  0 active torsions:
REMARK  status: ('A' for Active; 'I' for Inactive)
ROOT
ATOM      1  C4' PXY d   1       0.333  -1.494   0.715  0.00  0.00     0.077 C 
ATOM      2  C1' PXY d   1       1.945   0.505  -4.464  0.00  0.00     0.077 C 
ATOM      3  C1  PXY d   1       1.525  -0.008  -3.101  0.00  0.00    -0.082 A 
ATOM      4  C2  PXY d   1       1.614  -1.300  -2.832  0.00  0.00     0.003 A 
ATOM      5  C3  PXY d   1       1.207  -1.785  -1.615  0.00  0.00     0.003 A 
ATOM      6  C4  PXY d   1       0.755  -0.931  -0.645  0.00  0.00    -0.082 A 
ATOM      7  C5  PXY d   1       0.672   0.391  -0.908  0.00  0.00     0.003 A 
ATOM      8  C6  PXY d   1       1.050   0.857  -2.164  0.00  0.00     0.003 A 
ENDROOT
TORSDOF 0
ENDMDL
