MODEL 1
REMARK minimizedAffinity 4.24763966
REMARK minimizedRMSD -1
REMARK  0 active torsions:
REMARK  status: ('A' for Active; 'I' for Inactive)
ROOT
ATOM      1  C4' PXY d   1       3.418   4.997  -3.702  0.00  0.00     0.077 C 
ATOM      2  C1' PXY d   1       6.000   0.350  -5.973  0.00  0.00     0.077 C 
ATOM      3  C1  PXY d   1       5.315   1.570  -5.388  0.00  0.00    -0.082 A 
ATOM      4  C2  PXY d   1       5.952   2.314  -4.498  0.00  0.00     0.003 A 
ATOM      5  C3  PXY d   1       5.336   3.402  -3.936  0.00  0.00     0.003 A 
ATOM      6  C4  PXY d   1       4.074   3.762  -4.326  0.00  0.00    -0.082 A 
ATOM      7  C5  PXY d   1       3.422   3.014  -5.241  0.00  0.00     0.003 A 
ATOM      8  C6  PXY d   1       4.049   1.890  -5.770  0.00  0.00     0.003 A 
ENDROOT
TORSDOF 0
ENDMDL
