MODEL 1
REMARK minimizedAffinity 3.4557538
REMARK minimizedRMSD -1
REMARK  0 active torsions:
REMARK  status: ('A' for Active; 'I' for Inactive)
ROOT
ATOM      1  C4' PXY d   1       0.692  -0.667   0.608  0.00  0.00     0.077 C 
ATOM      2  C1' PXY d   1       1.331  -0.689  -5.137  0.00  0.00     0.077 C 
ATOM      3  C1  PXY d   1       1.166  -0.671  -3.630  0.00  0.00    -0.082 A 
ATOM      4  C2  PXY d   1       1.395  -1.772  -2.933  0.00  0.00     0.003 A 
ATOM      5  C3  PXY d   1       1.219  -1.781  -1.574  0.00  0.00     0.003 A 
ATOM      6  C4  PXY d   1       0.856  -0.637  -0.914  0.00  0.00    -0.082 A 
ATOM      7  C5  PXY d   1       0.630   0.493  -1.617  0.00  0.00     0.003 A 
ATOM      8  C6  PXY d   1       0.774   0.471  -3.001  0.00  0.00     0.003 A 
ENDROOT
TORSDOF 0
ENDMDL
