MODEL 1
REMARK minimizedAffinity -0.10884539
REMARK minimizedRMSD -1
REMARK  0 active torsions:
REMARK  status: ('A' for Active; 'I' for Inactive)
ROOT
ATOM      1  C4' PXY d   1       1.157  -2.137  -3.637  0.00  0.00     0.077 C 
ATOM      2  C1' PXY d   1       1.046   2.663  -0.418  0.00  0.00     0.077 C 
ATOM      3  C1  PXY d   1       1.073   1.412  -1.273  0.00  0.00    -0.082 A 
ATOM      4  C2  PXY d   1       0.798   0.239  -0.725  0.00  0.00     0.003 A 
ATOM      5  C3  PXY d   1       0.849  -0.907  -1.476  0.00  0.00     0.003 A 
ATOM      6  C4  PXY d   1       1.132  -0.846  -2.814  0.00  0.00    -0.082 A 
ATOM      7  C5  PXY d   1       1.403   0.348  -3.383  0.00  0.00     0.003 A 
ATOM      8  C6  PXY d   1       1.386   1.495  -2.594  0.00  0.00     0.003 A 
ENDROOT
TORSDOF 0
ENDMDL
