MODEL 1
REMARK minimizedAffinity 0.699901164
REMARK minimizedRMSD -1
REMARK  0 active torsions:
REMARK  status: ('A' for Active; 'I' for Inactive)
ROOT
ATOM      1  C4' PXY d   1       5.587   0.217  -5.977  0.00  0.00     0.077 C 
ATOM      2  C1' PXY d   1       0.969  -0.868  -2.674  0.00  0.00     0.077 C 
ATOM      3  C1  PXY d   1       2.187  -0.579  -3.530  0.00  0.00    -0.082 A 
ATOM      4  C2  PXY d   1       2.037  -0.353  -4.825  0.00  0.00     0.003 A 
ATOM      5  C3  PXY d   1       3.131  -0.122  -5.619  0.00  0.00     0.003 A 
ATOM      6  C4  PXY d   1       4.385  -0.070  -5.073  0.00  0.00    -0.082 A 
ATOM      7  C5  PXY d   1       4.545  -0.288  -3.751  0.00  0.00     0.003 A 
ATOM      8  C6  PXY d   1       3.426  -0.562  -2.969  0.00  0.00     0.003 A 
ENDROOT
TORSDOF 0
ENDMDL
