MODEL 1
REMARK minimizedAffinity 2.62344909
REMARK minimizedRMSD -1
REMARK  0 active torsions:
REMARK  status: ('A' for Active; 'I' for Inactive)
ROOT
ATOM      1  C4' PXY d   1       1.732  -3.210  -3.100  0.00  0.00     0.077 C 
ATOM      2  C1' PXY d   1       0.338   2.226  -1.712  0.00  0.00     0.077 C 
ATOM      3  C1  PXY d   1       0.702   0.803  -2.089  0.00  0.00    -0.082 A 
ATOM      4  C2  PXY d   1       0.606  -0.158  -1.184  0.00  0.00     0.003 A 
ATOM      5  C3  PXY d   1       0.960  -1.444  -1.498  0.00  0.00     0.003 A 
ATOM      6  C4  PXY d   1       1.367  -1.760  -2.767  0.00  0.00    -0.082 A 
ATOM      7  C5  PXY d   1       1.457  -0.788  -3.699  0.00  0.00     0.003 A 
ATOM      8  C6  PXY d   1       1.132   0.519  -3.348  0.00  0.00     0.003 A 
ENDROOT
TORSDOF 0
ENDMDL
