MODEL 1
REMARK minimizedAffinity 3.29128861
REMARK minimizedRMSD -1
REMARK  0 active torsions:
REMARK  status: ('A' for Active; 'I' for Inactive)
ROOT
ATOM      1  C4' PXY d   1      -4.172   6.000   4.664  0.00  0.00     0.077 C 
ATOM      2  C1' PXY d   1      -2.995   0.359   5.123  0.00  0.00     0.077 C 
ATOM      3  C1  PXY d   1      -3.294   1.840   4.993  0.00  0.00    -0.082 A 
ATOM      4  C2  PXY d   1      -3.864   2.482   6.000  0.00  0.00     0.003 A 
ATOM      5  C3  PXY d   1      -4.171   3.814   5.888  0.00  0.00     0.003 A 
ATOM      6  C4  PXY d   1      -3.843   4.507   4.754  0.00  0.00    -0.082 A 
ATOM      7  C5  PXY d   1      -3.252   3.861   3.726  0.00  0.00     0.003 A 
ATOM      8  C6  PXY d   1      -2.986   2.500   3.844  0.00  0.00     0.003 A 
ENDROOT
TORSDOF 0
ENDMDL
