MODEL 1
REMARK minimizedAffinity 5.77135229
REMARK minimizedRMSD -1
REMARK  0 active torsions:
REMARK  status: ('A' for Active; 'I' for Inactive)
ROOT
ATOM      1  C1  DEN d   1       0.265  -0.714   3.735  0.00  0.00     0.130 A 
ATOM      2  C2  DEN d   1       0.262  -2.127   3.366  0.00  0.00    -0.031 A 
ATOM      3  C3  DEN d   1      -1.100  -2.480   2.920  0.00  0.00     0.027 A 
ATOM      4  C4  DEN d   1      -3.194  -0.982   2.760  0.00  0.00     0.027 A 
ATOM      5  C5  DEN d   1      -3.686   0.287   2.974  0.00  0.00    -0.003 A 
ATOM      6  C6  DEN d   1      -2.910   1.294   3.484  0.00  0.00     0.001 A 
ATOM      7  C7  DEN d   1      -1.588   1.061   3.756  0.00  0.00     0.017 A 
ATOM      8  C8  DEN d   1      -1.087  -0.218   3.550  0.00  0.00    -0.094 A 
ATOM      9  C9  DEN d   1      -1.884  -1.219   3.021  0.00  0.00    -0.072 A 
ENDROOT
TORSDOF 0
ENDMDL
