MODEL 1
REMARK minimizedAffinity 16.7559299
REMARK minimizedRMSD -1
REMARK  0 active torsions:
REMARK  status: ('A' for Active; 'I' for Inactive)
ROOT
ATOM      1  C1  DEN d   1      -2.629  -1.424  -1.405  0.00  0.00     0.130 A 
ATOM      2  C2  DEN d   1      -2.492  -0.050  -0.929  0.00  0.00    -0.031 A 
ATOM      3  C3  DEN d   1      -3.495   0.778  -1.629  0.00  0.00     0.027 A 
ATOM      4  C4  DEN d   1      -5.241   0.068  -3.391  0.00  0.00     0.027 A 
ATOM      5  C5  DEN d   1      -5.731  -0.992  -4.122  0.00  0.00    -0.003 A 
ATOM      6  C6  DEN d   1      -5.204  -2.252  -4.024  0.00  0.00     0.001 A 
ATOM      7  C7  DEN d   1      -4.183  -2.495  -3.143  0.00  0.00     0.017 A 
ATOM      8  C8  DEN d   1      -3.679  -1.430  -2.408  0.00  0.00    -0.094 A 
ATOM      9  C9  DEN d   1      -4.233  -0.166  -2.512  0.00  0.00    -0.072 A 
ENDROOT
TORSDOF 0
ENDMDL
