MODEL 1
REMARK minimizedAffinity 7.27970982
REMARK minimizedRMSD -1
REMARK  0 active torsions:
REMARK  status: ('A' for Active; 'I' for Inactive)
ROOT
ATOM      1  C1  DEN d   1       1.971  -4.696   0.676  0.00  0.00     0.130 A 
ATOM      2  C2  DEN d   1       1.573  -3.648   1.612  0.00  0.00    -0.031 A 
ATOM      3  C3  DEN d   1       2.765  -2.831   1.916  0.00  0.00     0.027 A 
ATOM      4  C4  DEN d   1       5.174  -3.082   1.028  0.00  0.00     0.027 A 
ATOM      5  C5  DEN d   1       6.000  -3.832   0.219  0.00  0.00    -0.003 A 
ATOM      6  C6  DEN d   1       5.552  -4.932  -0.462  0.00  0.00     0.001 A 
ATOM      7  C7  DEN d   1       4.232  -5.289  -0.382  0.00  0.00     0.017 A 
ATOM      8  C8  DEN d   1       3.395  -4.543   0.437  0.00  0.00    -0.094 A 
ATOM      9  C9  DEN d   1       3.864  -3.426   1.108  0.00  0.00    -0.072 A 
ENDROOT
TORSDOF 0
ENDMDL
