MODEL 1
REMARK minimizedAffinity 6.51006365
REMARK minimizedRMSD -1
REMARK  0 active torsions:
REMARK  status: ('A' for Active; 'I' for Inactive)
ROOT
ATOM      1  C1  DEN d   1      -0.213  -3.267   3.056  0.00  0.00     0.130 A 
ATOM      2  C2  DEN d   1      -0.480  -1.917   2.567  0.00  0.00    -0.031 A 
ATOM      3  C3  DEN d   1       0.616  -1.538   1.652  0.00  0.00     0.027 A 
ATOM      4  C4  DEN d   1       2.687  -2.904   0.947  0.00  0.00     0.027 A 
ATOM      5  C5  DEN d   1       3.352  -4.099   1.110  0.00  0.00    -0.003 A 
ATOM      6  C6  DEN d   1       2.898  -5.079   1.953  0.00  0.00     0.001 A 
ATOM      7  C7  DEN d   1       1.721  -4.899   2.630  0.00  0.00     0.017 A 
ATOM      8  C8  DEN d   1       1.048  -3.694   2.476  0.00  0.00    -0.094 A 
ATOM      9  C9  DEN d   1       1.517  -2.721   1.611  0.00  0.00    -0.072 A 
ENDROOT
TORSDOF 0
ENDMDL
