MODEL 1
REMARK minimizedAffinity 3.74696088
REMARK minimizedRMSD -1
REMARK  0 active torsions:
REMARK  status: ('A' for Active; 'I' for Inactive)
ROOT
ATOM      1  N1  IND d   1      -4.908  -2.427   5.998  0.00  0.00    -0.196 N 
ATOM      2  C2  IND d   1      -4.081  -1.771   5.129  0.00  0.00     0.054 A 
ATOM      3  C3  IND d   1      -3.778  -2.565   4.078  0.00  0.00    -0.031 A 
ATOM      4  C4  IND d   1      -4.610  -4.938   3.527  0.00  0.00     0.051 A 
ATOM      5  C5  IND d   1      -5.351  -5.965   4.039  0.00  0.00    -0.031 A 
ATOM      6  C6  IND d   1      -5.999  -5.862   5.254  0.00  0.00     0.015 A 
ATOM      7  C7  IND d   1      -5.937  -4.719   5.999  0.00  0.00    -0.016 A 
ATOM      8  C8  IND d   1      -5.179  -3.676   5.485  0.00  0.00    -0.047 A 
ATOM      9  C9  IND d   1      -4.485  -3.790   4.274  0.00  0.00    -0.096 A 
ATOM     10  HN1 IND d   1      -5.208  -2.112   6.739  0.00  0.00     0.298 HD
ENDROOT
TORSDOF 0
ENDMDL
