MODEL 1
REMARK minimizedAffinity 12.6456556
REMARK minimizedRMSD -1
REMARK  0 active torsions:
REMARK  status: ('A' for Active; 'I' for Inactive)
ROOT
ATOM      1  N1  IND d   1       3.408   1.054   2.260  0.00  0.00    -0.196 N 
ATOM      2  C2  IND d   1       2.818   0.568   1.126  0.00  0.00     0.054 A 
ATOM      3  C3  IND d   1       3.319   1.186   0.033  0.00  0.00    -0.031 A 
ATOM      4  C4  IND d   1       5.185   2.952  -0.136  0.00  0.00     0.051 A 
ATOM      5  C5  IND d   1       6.000   3.735   0.633  0.00  0.00    -0.031 A 
ATOM      6  C6  IND d   1       5.994   3.661   2.010  0.00  0.00     0.015 A 
ATOM      7  C7  IND d   1       5.178   2.789   2.674  0.00  0.00    -0.016 A 
ATOM      8  C8  IND d   1       4.344   1.997   1.897  0.00  0.00    -0.047 A 
ATOM      9  C9  IND d   1       4.315   2.098   0.500  0.00  0.00    -0.096 A 
ATOM     10  HN1 IND d   1       3.225   0.811   3.064  0.00  0.00     0.298 HD
ENDROOT
TORSDOF 0
ENDMDL
