MODEL 1
REMARK minimizedAffinity 13.7920084
REMARK minimizedRMSD -1
REMARK  0 active torsions:
REMARK  status: ('A' for Active; 'I' for Inactive)
ROOT
ATOM      1  N1  IND d   1       3.332   2.778  -4.573  0.00  0.00    -0.196 N 
ATOM      2  C2  IND d   1       4.635   3.187  -4.521  0.00  0.00     0.054 A 
ATOM      3  C3  IND d   1       4.763   4.246  -3.691  0.00  0.00    -0.031 A 
ATOM      4  C4  IND d   1       2.986   5.408  -2.235  0.00  0.00     0.051 A 
ATOM      5  C5  IND d   1       1.645   5.413  -1.972  0.00  0.00    -0.031 A 
ATOM      6  C6  IND d   1       0.780   4.521  -2.572  0.00  0.00     0.015 A 
ATOM      7  C7  IND d   1       1.229   3.578  -3.454  0.00  0.00    -0.016 A 
ATOM      8  C8  IND d   1       2.589   3.574  -3.729  0.00  0.00    -0.047 A 
ATOM      9  C9  IND d   1       3.465   4.505  -3.155  0.00  0.00    -0.096 A 
ATOM     10  HN1 IND d   1       3.027   2.132  -5.052  0.00  0.00     0.298 HD
ENDROOT
TORSDOF 0
ENDMDL
