MODEL 1
REMARK minimizedAffinity 14.7275248
REMARK minimizedRMSD -1
REMARK  0 active torsions:
REMARK  status: ('A' for Active; 'I' for Inactive)
ROOT
ATOM      1  N1  IND d   1      -0.382   0.423   5.020  0.00  0.00    -0.196 N 
ATOM      2  C2  IND d   1      -1.432   1.044   4.402  0.00  0.00     0.054 A 
ATOM      3  C3  IND d   1      -1.615   0.536   3.163  0.00  0.00    -0.031 A 
ATOM      4  C4  IND d   1      -0.375  -1.388   1.983  0.00  0.00     0.051 A 
ATOM      5  C5  IND d   1       0.683  -2.239   2.133  0.00  0.00    -0.031 A 
ATOM      6  C6  IND d   1       1.455  -2.249   3.278  0.00  0.00     0.015 A 
ATOM      7  C7  IND d   1       1.188  -1.411   4.323  0.00  0.00    -0.016 A 
ATOM      8  C8  IND d   1       0.118  -0.540   4.172  0.00  0.00    -0.047 A 
ATOM      9  C9  IND d   1      -0.642  -0.497   2.996  0.00  0.00    -0.096 A 
ATOM     10  HN1 IND d   1      -0.084   0.604   5.806  0.00  0.00     0.298 HD
ENDROOT
TORSDOF 0
ENDMDL
