MODEL 1
REMARK minimizedAffinity 1.88435304
REMARK minimizedRMSD -1
REMARK  0 active torsions:
REMARK  status: ('A' for Active; 'I' for Inactive)
ROOT
ATOM      1  N1  IND d   1       2.262  -4.495   0.159  0.00  0.00    -0.196 N 
ATOM      2  C2  IND d   1       1.925  -3.184   0.351  0.00  0.00     0.054 A 
ATOM      3  C3  IND d   1       2.945  -2.377  -0.018  0.00  0.00    -0.031 A 
ATOM      4  C4  IND d   1       5.219  -2.988  -1.059  0.00  0.00     0.051 A 
ATOM      5  C5  IND d   1       5.998  -4.060  -1.393  0.00  0.00    -0.031 A 
ATOM      6  C6  IND d   1       5.562  -5.358  -1.225  0.00  0.00     0.015 A 
ATOM      7  C7  IND d   1       4.320  -5.634  -0.726  0.00  0.00    -0.016 A 
ATOM      8  C8  IND d   1       3.529  -4.548  -0.380  0.00  0.00    -0.047 A 
ATOM      9  C9  IND d   1       3.983  -3.228  -0.508  0.00  0.00    -0.096 A 
ATOM     10  HN1 IND d   1       1.766  -5.173   0.344  0.00  0.00     0.298 HD
ENDROOT
TORSDOF 0
ENDMDL
