MODEL 1
REMARK minimizedAffinity 17.7353725
REMARK minimizedRMSD -1
REMARK  0 active torsions:
REMARK  status: ('A' for Active; 'I' for Inactive)
ROOT
ATOM      1  N1  IND d   1      -4.105   0.908   1.493  0.00  0.00    -0.196 N 
ATOM      2  C2  IND d   1      -4.622   0.144   0.484  0.00  0.00     0.054 A 
ATOM      3  C3  IND d   1      -3.782  -0.872   0.185  0.00  0.00    -0.031 A 
ATOM      4  C4  IND d   1      -1.552  -1.530   1.292  0.00  0.00     0.051 A 
ATOM      5  C5  IND d   1      -0.652  -1.113   2.231  0.00  0.00    -0.031 A 
ATOM      6  C6  IND d   1      -0.862   0.020   2.990  0.00  0.00     0.015 A 
ATOM      7  C7  IND d   1      -1.991   0.776   2.845  0.00  0.00    -0.016 A 
ATOM      8  C8  IND d   1      -2.904   0.359   1.887  0.00  0.00    -0.047 A 
ATOM      9  C9  IND d   1      -2.677  -0.766   1.084  0.00  0.00    -0.096 A 
ATOM     10  HN1 IND d   1      -4.469   1.612   1.826  0.00  0.00     0.298 HD
ENDROOT
TORSDOF 0
ENDMDL
