MODEL 1
REMARK minimizedAffinity 8.9504137
REMARK minimizedRMSD -1
REMARK  0 active torsions:
REMARK  status: ('A' for Active; 'I' for Inactive)
ROOT
ATOM      1  N1  IND d   1      -2.663   0.428   3.132  0.00  0.00    -0.196 N 
ATOM      2  C2  IND d   1      -1.637   0.454   4.035  0.00  0.00     0.054 A 
ATOM      3  C3  IND d   1      -2.059   0.971   5.211  0.00  0.00    -0.031 A 
ATOM      4  C4  IND d   1      -4.414   1.744   5.907  0.00  0.00     0.051 A 
ATOM      5  C5  IND d   1      -5.671   1.946   5.412  0.00  0.00    -0.031 A 
ATOM      6  C6  IND d   1      -5.998   1.643   4.106  0.00  0.00     0.015 A 
ATOM      7  C7  IND d   1      -5.077   1.115   3.245  0.00  0.00    -0.016 A 
ATOM      8  C8  IND d   1      -3.797   0.915   3.743  0.00  0.00    -0.047 A 
ATOM      9  C9  IND d   1      -3.449   1.260   5.055  0.00  0.00    -0.096 A 
ATOM     10  HN1 IND d   1      -2.608   0.154   2.319  0.00  0.00     0.298 HD
ENDROOT
TORSDOF 0
ENDMDL
