MODEL 1
REMARK minimizedAffinity 11.9302664
REMARK minimizedRMSD -1
REMARK  0 active torsions:
REMARK  status: ('A' for Active; 'I' for Inactive)
ROOT
ATOM      1  N1  IND d   1      -5.670  -1.368  -1.063  0.00  0.00    -0.196 N 
ATOM      2  C2  IND d   1      -5.848  -1.498  -2.413  0.00  0.00     0.054 A 
ATOM      3  C3  IND d   1      -5.999  -0.283  -2.986  0.00  0.00    -0.031 A 
ATOM      4  C4  IND d   1      -5.887   2.056  -1.917  0.00  0.00     0.051 A 
ATOM      5  C5  IND d   1      -5.780   2.684  -0.708  0.00  0.00    -0.031 A 
ATOM      6  C6  IND d   1      -5.625   1.979   0.468  0.00  0.00     0.015 A 
ATOM      7  C7  IND d   1      -5.560   0.614   0.478  0.00  0.00    -0.016 A 
ATOM      8  C8  IND d   1      -5.675  -0.027  -0.748  0.00  0.00    -0.047 A 
ATOM      9  C9  IND d   1      -5.875   0.682  -1.940  0.00  0.00    -0.096 A 
ATOM     10  HN1 IND d   1      -5.572  -2.015  -0.506  0.00  0.00     0.298 HD
ENDROOT
TORSDOF 0
ENDMDL
