MODEL 1
REMARK minimizedAffinity 16.9279099
REMARK minimizedRMSD -1
REMARK  0 active torsions:
REMARK  status: ('A' for Active; 'I' for Inactive)
ROOT
ATOM      1  N1  IND d   1      -4.654   4.792  -2.285  0.00  0.00    -0.196 N 
ATOM      2  C2  IND d   1      -4.839   4.857  -0.932  0.00  0.00     0.054 A 
ATOM      3  C3  IND d   1      -3.649   4.942  -0.298  0.00  0.00    -0.031 A 
ATOM      4  C4  IND d   1      -1.276   5.093  -1.286  0.00  0.00     0.051 A 
ATOM      5  C5  IND d   1      -0.597   5.037  -2.470  0.00  0.00    -0.031 A 
ATOM      6  C6  IND d   1      -1.248   4.896  -3.678  0.00  0.00     0.015 A 
ATOM      7  C7  IND d   1      -2.611   4.817  -3.748  0.00  0.00    -0.016 A 
ATOM      8  C8  IND d   1      -3.303   4.867  -2.547  0.00  0.00    -0.047 A 
ATOM      9  C9  IND d   1      -2.645   4.967  -1.314  0.00  0.00    -0.096 A 
ATOM     10  HN1 IND d   1      -5.276   4.718  -2.874  0.00  0.00     0.298 HD
ENDROOT
TORSDOF 0
ENDMDL
