MODEL 1
REMARK minimizedAffinity 11.994873
REMARK minimizedRMSD -1
REMARK  0 active torsions:
REMARK  status: ('A' for Active; 'I' for Inactive)
ROOT
ATOM      1  N1  IND d   1       0.695   1.916  -2.891  0.00  0.00    -0.196 N 
ATOM      2  C2  IND d   1       1.736   1.958  -2.008  0.00  0.00     0.054 A 
ATOM      3  C3  IND d   1       2.003   3.236  -1.656  0.00  0.00    -0.031 A 
ATOM      4  C4  IND d   1       0.792   5.405  -2.331  0.00  0.00     0.051 A 
ATOM      5  C5  IND d   1      -0.197   5.877  -3.148  0.00  0.00    -0.031 A 
ATOM      6  C6  IND d   1      -0.956   5.036  -3.935  0.00  0.00     0.015 A 
ATOM      7  C7  IND d   1      -0.761   3.683  -3.926  0.00  0.00    -0.016 A 
ATOM      8  C8  IND d   1       0.246   3.201  -3.103  0.00  0.00    -0.047 A 
ATOM      9  C9  IND d   1       1.048   4.054  -2.334  0.00  0.00    -0.096 A 
ATOM     10  HN1 IND d   1       0.373   1.205  -3.255  0.00  0.00     0.298 HD
ENDROOT
TORSDOF 0
ENDMDL
