MODEL 1
REMARK minimizedAffinity 20.3139668
REMARK minimizedRMSD -1
REMARK  0 active torsions:
REMARK  status: ('A' for Active; 'I' for Inactive)
ROOT
ATOM      1  N1  IND d   1      -6.000   0.733  -3.636  0.00  0.00    -0.196 N 
ATOM      2  C2  IND d   1      -5.624  -0.567  -3.829  0.00  0.00     0.054 A 
ATOM      3  C3  IND d   1      -5.154  -1.096  -2.678  0.00  0.00    -0.031 A 
ATOM      4  C4  IND d   1      -5.005  -0.042  -0.334  0.00  0.00     0.051 A 
ATOM      5  C5  IND d   1      -5.195   1.137   0.331  0.00  0.00    -0.031 A 
ATOM      6  C6  IND d   1      -5.676   2.263  -0.305  0.00  0.00     0.015 A 
ATOM      7  C7  IND d   1      -5.996   2.250  -1.633  0.00  0.00    -0.016 A 
ATOM      8  C8  IND d   1      -5.797   1.056  -2.313  0.00  0.00    -0.047 A 
ATOM      9  C9  IND d   1      -5.270  -0.078  -1.682  0.00  0.00    -0.096 A 
ATOM     10  HN1 IND d   1      -6.310   1.260  -4.241  0.00  0.00     0.298 HD
ENDROOT
TORSDOF 0
ENDMDL
