MODEL 1
REMARK minimizedAffinity 17.3855801
REMARK minimizedRMSD -1
REMARK  0 active torsions:
REMARK  status: ('A' for Active; 'I' for Inactive)
ROOT
ATOM      1  N1  IND d   1      -5.257   3.329  -2.039  0.00  0.00    -0.196 N 
ATOM      2  C2  IND d   1      -4.952   4.325  -1.154  0.00  0.00     0.054 A 
ATOM      3  C3  IND d   1      -4.861   3.830   0.100  0.00  0.00    -0.031 A 
ATOM      4  C4  IND d   1      -5.074   1.398   0.917  0.00  0.00     0.051 A 
ATOM      5  C5  IND d   1      -5.383   0.139   0.484  0.00  0.00    -0.031 A 
ATOM      6  C6  IND d   1      -5.669  -0.127  -0.840  0.00  0.00     0.015 A 
ATOM      7  C7  IND d   1      -5.645   0.859  -1.785  0.00  0.00    -0.016 A 
ATOM      8  C8  IND d   1      -5.338   2.139  -1.348  0.00  0.00    -0.047 A 
ATOM      9  C9  IND d   1      -5.089   2.423   0.001  0.00  0.00    -0.096 A 
ATOM     10  HN1 IND d   1      -5.377   3.427  -2.884  0.00  0.00     0.298 HD
ENDROOT
TORSDOF 0
ENDMDL
