MODEL 1
REMARK minimizedAffinity 17.2019176
REMARK minimizedRMSD -1
REMARK  0 active torsions:
REMARK  status: ('A' for Active; 'I' for Inactive)
ROOT
ATOM      1  N1  IND d   1       5.999   5.374  -4.133  0.00  0.00    -0.196 N 
ATOM      2  C2  IND d   1       5.999   5.980  -2.907  0.00  0.00     0.054 A 
ATOM      3  C3  IND d   1       4.960   5.539  -2.164  0.00  0.00    -0.031 A 
ATOM      4  C4  IND d   1       3.194   3.750  -2.721  0.00  0.00     0.051 A 
ATOM      5  C5  IND d   1       2.761   2.943  -3.735  0.00  0.00    -0.031 A 
ATOM      6  C6  IND d   1       3.400   2.902  -4.958  0.00  0.00     0.015 A 
ATOM      7  C7  IND d   1       4.507   3.662  -5.209  0.00  0.00    -0.016 A 
ATOM      8  C8  IND d   1       4.945   4.488  -4.184  0.00  0.00    -0.047 A 
ATOM      9  C9  IND d   1       4.276   4.566  -2.956  0.00  0.00    -0.096 A 
ATOM     10  HN1 IND d   1       6.562   5.522  -4.766  0.00  0.00     0.298 HD
ENDROOT
TORSDOF 0
ENDMDL
