MODEL 1
REMARK minimizedAffinity 12.8278894
REMARK minimizedRMSD -1
REMARK  0 active torsions:
REMARK  status: ('A' for Active; 'I' for Inactive)
ROOT
ATOM      1  N1  IND d   1      -2.022   0.775   4.626  0.00  0.00    -0.196 N 
ATOM      2  C2  IND d   1      -3.153   1.484   4.330  0.00  0.00     0.054 A 
ATOM      3  C3  IND d   1      -3.619   1.138   3.108  0.00  0.00    -0.031 A 
ATOM      4  C4  IND d   1      -2.740  -0.639   1.467  0.00  0.00     0.051 A 
ATOM      5  C5  IND d   1      -1.710  -1.518   1.280  0.00  0.00    -0.031 A 
ATOM      6  C6  IND d   1      -0.712  -1.682   2.220  0.00  0.00     0.015 A 
ATOM      7  C7  IND d   1      -0.715  -0.979   3.391  0.00  0.00    -0.016 A 
ATOM      8  C8  IND d   1      -1.755  -0.081   3.581  0.00  0.00    -0.047 A 
ATOM      9  C9  IND d   1      -2.747   0.121   2.612  0.00  0.00    -0.096 A 
ATOM     10  HN1 IND d   1      -1.556   0.852   5.345  0.00  0.00     0.298 HD
ENDROOT
TORSDOF 0
ENDMDL
