MODEL 1
REMARK minimizedAffinity 11.4933186
REMARK minimizedRMSD -1
REMARK  0 active torsions:
REMARK  status: ('A' for Active; 'I' for Inactive)
ROOT
ATOM      1  N1  IND d   1       2.995   2.683  -3.283  0.00  0.00    -0.196 N 
ATOM      2  C2  IND d   1       4.096   3.443  -3.002  0.00  0.00     0.054 A 
ATOM      3  C3  IND d   1       3.723   4.662  -2.551  0.00  0.00    -0.031 A 
ATOM      4  C4  IND d   1       1.364   5.587  -2.096  0.00  0.00     0.051 A 
ATOM      5  C5  IND d   1       0.041   5.276  -2.234  0.00  0.00    -0.031 A 
ATOM      6  C6  IND d   1      -0.375   4.060  -2.736  0.00  0.00     0.015 A 
ATOM      7  C7  IND d   1       0.523   3.100  -3.110  0.00  0.00    -0.016 A 
ATOM      8  C8  IND d   1       1.868   3.414  -2.978  0.00  0.00    -0.047 A 
ATOM      9  C9  IND d   1       2.295   4.663  -2.509  0.00  0.00    -0.096 A 
ATOM     10  HN1 IND d   1       3.004   1.883  -3.597  0.00  0.00     0.298 HD
ENDROOT
TORSDOF 0
ENDMDL
