MODEL 1
REMARK minimizedAffinity 5.5507226
REMARK minimizedRMSD -1
REMARK  0 active torsions:
REMARK  status: ('A' for Active; 'I' for Inactive)
ROOT
ATOM      1  N1  IND d   1       4.964   3.101   2.012  0.00  0.00    -0.196 N 
ATOM      2  C2  IND d   1       6.000   3.544   1.238  0.00  0.00     0.054 A 
ATOM      3  C3  IND d   1       5.863   3.098  -0.031  0.00  0.00    -0.031 A 
ATOM      4  C4  IND d   1       3.963   1.714  -1.082  0.00  0.00     0.051 A 
ATOM      5  C5  IND d   1       2.815   1.044  -0.764  0.00  0.00    -0.031 A 
ATOM      6  C6  IND d   1       2.313   1.028   0.521  0.00  0.00     0.015 A 
ATOM      7  C7  IND d   1       2.937   1.693   1.538  0.00  0.00    -0.016 A 
ATOM      8  C8  IND d   1       4.107   2.368   1.220  0.00  0.00    -0.047 A 
ATOM      9  C9  IND d   1       4.644   2.353  -0.073  0.00  0.00    -0.096 A 
ATOM     10  HN1 IND d   1       4.864   3.255   2.852  0.00  0.00     0.298 HD
ENDROOT
TORSDOF 0
ENDMDL
