MODEL 1
REMARK minimizedAffinity 10.9856157
REMARK minimizedRMSD -1
REMARK  0 active torsions:
REMARK  status: ('A' for Active; 'I' for Inactive)
ROOT
ATOM      1  N1  IND d   1      -5.830  -1.878  -2.433  0.00  0.00    -0.196 N 
ATOM      2  C2  IND d   1      -6.000  -1.362  -3.687  0.00  0.00     0.054 A 
ATOM      3  C3  IND d   1      -5.999  -0.011  -3.643  0.00  0.00    -0.031 A 
ATOM      4  C4  IND d   1      -5.633   1.560  -1.637  0.00  0.00     0.051 A 
ATOM      5  C5  IND d   1      -5.474   1.555  -0.280  0.00  0.00    -0.031 A 
ATOM      6  C6  IND d   1      -5.421   0.381   0.443  0.00  0.00     0.015 A 
ATOM      7  C7  IND d   1      -5.515  -0.837  -0.168  0.00  0.00    -0.016 A 
ATOM      8  C8  IND d   1      -5.684  -0.835  -1.545  0.00  0.00    -0.047 A 
ATOM      9  C9  IND d   1      -5.781   0.354  -2.280  0.00  0.00    -0.096 A 
ATOM     10  HN1 IND d   1      -5.817  -2.714  -2.233  0.00  0.00     0.298 HD
ENDROOT
TORSDOF 0
ENDMDL
