MODEL 1
REMARK minimizedAffinity 8.24454689
REMARK minimizedRMSD -1
REMARK  0 active torsions:
REMARK  status: ('A' for Active; 'I' for Inactive)
ROOT
ATOM      1  C1  DEN d   1       0.486   1.529   3.018  0.00  0.00     0.130 A 
ATOM      2  C2  DEN d   1       1.173   2.615   3.712  0.00  0.00    -0.031 A 
ATOM      3  C3  DEN d   1       2.362   2.984   2.918  0.00  0.00     0.027 A 
ATOM      4  C4  DEN d   1       3.200   1.988   0.692  0.00  0.00     0.027 A 
ATOM      5  C5  DEN d   1       2.955   1.039  -0.276  0.00  0.00    -0.003 A 
ATOM      6  C6  DEN d   1       1.898   0.171  -0.197  0.00  0.00     0.001 A 
ATOM      7  C7  DEN d   1       1.020   0.265   0.850  0.00  0.00     0.017 A 
ATOM      8  C8  DEN d   1       1.264   1.214   1.833  0.00  0.00    -0.094 A 
ATOM      9  C9  DEN d   1       2.331   2.091   1.729  0.00  0.00    -0.072 A 
ENDROOT
TORSDOF 0
ENDMDL
