MODEL 1
REMARK minimizedAffinity 18.3114777
REMARK minimizedRMSD -1
REMARK  0 active torsions:
REMARK  status: ('A' for Active; 'I' for Inactive)
ROOT
ATOM      1  C1  DEN d   1       3.294   4.383   3.310  0.00  0.00     0.130 A 
ATOM      2  C2  DEN d   1       2.269   3.381   3.031  0.00  0.00    -0.031 A 
ATOM      3  C3  DEN d   1       2.199   3.194   1.568  0.00  0.00     0.027 A 
ATOM      4  C4  DEN d   1       3.575   4.349  -0.283  0.00  0.00     0.027 A 
ATOM      5  C5  DEN d   1       4.557   5.281  -0.535  0.00  0.00    -0.003 A 
ATOM      6  C6  DEN d   1       5.158   5.998   0.465  0.00  0.00     0.001 A 
ATOM      7  C7  DEN d   1       4.814   5.762   1.770  0.00  0.00     0.017 A 
ATOM      8  C8  DEN d   1       3.820   4.829   2.032  0.00  0.00    -0.094 A 
ATOM      9  C9  DEN d   1       3.233   4.105   1.008  0.00  0.00    -0.072 A 
ENDROOT
TORSDOF 0
ENDMDL
