MODEL 1
REMARK minimizedAffinity 12.7681475
REMARK minimizedRMSD -1
REMARK  0 active torsions:
REMARK  status: ('A' for Active; 'I' for Inactive)
ROOT
ATOM      1  C1  DEN d   1       1.305  -0.794  -1.501  0.00  0.00     0.130 A 
ATOM      2  C2  DEN d   1       2.030  -1.921  -2.082  0.00  0.00    -0.031 A 
ATOM      3  C3  DEN d   1       3.122  -2.286  -1.157  0.00  0.00     0.027 A 
ATOM      4  C4  DEN d   1       3.753  -1.226   1.108  0.00  0.00     0.027 A 
ATOM      5  C5  DEN d   1       3.435  -0.236   2.011  0.00  0.00    -0.003 A 
ATOM      6  C6  DEN d   1       2.415   0.652   1.793  0.00  0.00     0.001 A 
ATOM      7  C7  DEN d   1       1.647   0.539   0.665  0.00  0.00     0.017 A 
ATOM      8  C8  DEN d   1       1.965  -0.452  -0.254  0.00  0.00    -0.094 A 
ATOM      9  C9  DEN d   1       2.993  -1.348  -0.009  0.00  0.00    -0.072 A 
ENDROOT
TORSDOF 0
ENDMDL
