MODEL 1
REMARK minimizedAffinity 12.9179363
REMARK minimizedRMSD -1
REMARK  0 active torsions:
REMARK  status: ('A' for Active; 'I' for Inactive)
ROOT
ATOM      1  C1  DEN d   1       5.804   2.421   5.754  0.00  0.00     0.130 A 
ATOM      2  C2  DEN d   1       5.888   1.411   4.703  0.00  0.00    -0.031 A 
ATOM      3  C3  DEN d   1       5.289   1.976   3.478  0.00  0.00     0.027 A 
ATOM      4  C4  DEN d   1       4.248   4.307   3.106  0.00  0.00     0.027 A 
ATOM      5  C5  DEN d   1       3.939   5.507   3.708  0.00  0.00    -0.003 A 
ATOM      6  C6  DEN d   1       4.197   5.748   5.031  0.00  0.00     0.001 A 
ATOM      7  C7  DEN d   1       4.823   4.792   5.786  0.00  0.00     0.017 A 
ATOM      8  C8  DEN d   1       5.131   3.577   5.189  0.00  0.00    -0.094 A 
ATOM      9  C9  DEN d   1       4.873   3.356   3.846  0.00  0.00    -0.072 A 
ENDROOT
TORSDOF 0
ENDMDL
