MODEL 1
REMARK minimizedAffinity 14.1475964
REMARK minimizedRMSD -1
REMARK  0 active torsions:
REMARK  status: ('A' for Active; 'I' for Inactive)
ROOT
ATOM      1  C1  DEN d   1       1.576   0.224  -0.983  0.00  0.00     0.130 A 
ATOM      2  C2  DEN d   1       1.295  -0.910  -0.106  0.00  0.00    -0.031 A 
ATOM      3  C3  DEN d   1       2.509  -1.182   0.690  0.00  0.00     0.027 A 
ATOM      4  C4  DEN d   1       4.781   0.038   0.655  0.00  0.00     0.027 A 
ATOM      5  C5  DEN d   1       5.500   1.055   0.067  0.00  0.00    -0.003 A 
ATOM      6  C6  DEN d   1       4.978   1.838  -0.928  0.00  0.00     0.001 A 
ATOM      7  C7  DEN d   1       3.683   1.645  -1.334  0.00  0.00     0.017 A 
ATOM      8  C8  DEN d   1       2.954   0.617  -0.751  0.00  0.00    -0.094 A 
ATOM      9  C9  DEN d   1       3.496  -0.155   0.262  0.00  0.00    -0.072 A 
ENDROOT
TORSDOF 0
ENDMDL
