MODEL 1
REMARK minimizedAffinity 3.46462488
REMARK minimizedRMSD -1
REMARK  0 active torsions:
REMARK  status: ('A' for Active; 'I' for Inactive)
ROOT
ATOM      1  C   UNL d   1       4.002  -4.665  -3.757  0.00  0.00     0.078 C 
ATOM      2  C1  UNL d   1       2.985  -5.122  -2.753  0.00  0.00    -0.077 A 
ATOM      3  C2  UNL d   1       3.276  -5.126  -1.383  0.00  0.00    -0.001 A 
ATOM      4  C3  UNL d   1       2.324  -5.562  -0.461  0.00  0.00     0.003 A 
ATOM      5  C4  UNL d   1       1.075  -5.999  -0.898  0.00  0.00    -0.005 A 
ATOM      6  C5  UNL d   1       0.777  -6.000  -2.259  0.00  0.00     0.003 A 
ATOM      7  C6  UNL d   1       1.728  -5.564  -3.183  0.00  0.00    -0.001 A 
ENDROOT
TORSDOF 0
ENDMDL
