MODEL 1
REMARK minimizedAffinity 10.0317841
REMARK minimizedRMSD -1
REMARK  0 active torsions:
REMARK  status: ('A' for Active; 'I' for Inactive)
ROOT
ATOM      1  C   UNL d   1      -0.478   2.627   2.095  0.00  0.00     0.078 C 
ATOM      2  C1  UNL d   1      -0.167   3.730   1.128  0.00  0.00    -0.077 A 
ATOM      3  C2  UNL d   1      -0.783   4.983   1.241  0.00  0.00    -0.001 A 
ATOM      4  C3  UNL d   1      -0.492   5.997   0.328  0.00  0.00     0.003 A 
ATOM      5  C4  UNL d   1       0.414   5.769  -0.706  0.00  0.00    -0.005 A 
ATOM      6  C5  UNL d   1       1.030   4.525  -0.828  0.00  0.00     0.003 A 
ATOM      7  C6  UNL d   1       0.740   3.509   0.084  0.00  0.00    -0.001 A 
ENDROOT
TORSDOF 0
ENDMDL
