MODEL 1
REMARK minimizedAffinity 4.39660406
REMARK minimizedRMSD -1
REMARK  0 active torsions:
REMARK  status: ('A' for Active; 'I' for Inactive)
ROOT
ATOM      1  C   UNL d   1       0.566   3.847  -0.112  0.00  0.00     0.078 C 
ATOM      2  C1  UNL d   1       0.265   3.067   1.133  0.00  0.00    -0.077 A 
ATOM      3  C2  UNL d   1      -1.051   2.905   1.582  0.00  0.00    -0.001 A 
ATOM      4  C3  UNL d   1      -1.316   2.185   2.748  0.00  0.00     0.003 A 
ATOM      5  C4  UNL d   1      -0.270   1.622   3.475  0.00  0.00    -0.005 A 
ATOM      6  C5  UNL d   1       1.043   1.779   3.038  0.00  0.00     0.003 A 
ATOM      7  C6  UNL d   1       1.310   2.499   1.872  0.00  0.00    -0.001 A 
ENDROOT
TORSDOF 0
ENDMDL
