MODEL 1
REMARK minimizedAffinity 11.6419134
REMARK minimizedRMSD -1
REMARK  0 active torsions:
REMARK  status: ('A' for Active; 'I' for Inactive)
ROOT
ATOM      1  C   UNL d   1       2.661  -3.154   1.197  0.00  0.00     0.078 C 
ATOM      2  C1  UNL d   1       3.827  -2.823   0.315  0.00  0.00    -0.077 A 
ATOM      3  C2  UNL d   1       4.192  -1.493   0.070  0.00  0.00    -0.001 A 
ATOM      4  C3  UNL d   1       5.273  -1.199  -0.762  0.00  0.00     0.003 A 
ATOM      5  C4  UNL d   1       5.999  -2.229  -1.356  0.00  0.00    -0.005 A 
ATOM      6  C5  UNL d   1       5.643  -3.555  -1.120  0.00  0.00     0.003 A 
ATOM      7  C6  UNL d   1       4.561  -3.851  -0.289  0.00  0.00    -0.001 A 
ENDROOT
TORSDOF 0
ENDMDL
