MODEL 1
REMARK minimizedAffinity 2.41277599
REMARK minimizedRMSD -1
REMARK  0 active torsions:
REMARK  status: ('A' for Active; 'I' for Inactive)
ROOT
ATOM      1  C   UNL d   1      -0.194   2.873   2.743  0.00  0.00     0.078 C 
ATOM      2  C1  UNL d   1      -0.049   3.669   1.480  0.00  0.00    -0.077 A 
ATOM      3  C2  UNL d   1       0.201   3.039   0.255  0.00  0.00    -0.001 A 
ATOM      4  C3  UNL d   1       0.343   3.794  -0.911  0.00  0.00     0.003 A 
ATOM      5  C4  UNL d   1       0.237   5.182  -0.862  0.00  0.00    -0.005 A 
ATOM      6  C5  UNL d   1      -0.010   5.818   0.353  0.00  0.00     0.003 A 
ATOM      7  C6  UNL d   1      -0.152   5.065   1.519  0.00  0.00    -0.001 A 
ENDROOT
TORSDOF 0
ENDMDL
