MODEL 1
REMARK minimizedAffinity 5.36261082
REMARK minimizedRMSD -1
REMARK  0 active torsions:
REMARK  status: ('A' for Active; 'I' for Inactive)
ROOT
ATOM      1  C   UNL d   1      -0.254   2.560   2.369  0.00  0.00     0.078 C 
ATOM      2  C1  UNL d   1      -0.203   3.696   1.391  0.00  0.00    -0.077 A 
ATOM      3  C2  UNL d   1      -0.774   4.937   1.698  0.00  0.00    -0.001 A 
ATOM      4  C3  UNL d   1      -0.728   5.983   0.775  0.00  0.00     0.003 A 
ATOM      5  C4  UNL d   1      -0.113   5.797  -0.462  0.00  0.00    -0.005 A 
ATOM      6  C5  UNL d   1       0.456   4.565  -0.777  0.00  0.00     0.003 A 
ATOM      7  C6  UNL d   1       0.411   3.518   0.145  0.00  0.00    -0.001 A 
ENDROOT
TORSDOF 0
ENDMDL
