MODEL 1
REMARK minimizedAffinity 5.04177475
REMARK minimizedRMSD -1
REMARK  0 active torsions:
REMARK  status: ('A' for Active; 'I' for Inactive)
ROOT
ATOM      1  C   UNL d   1       0.285   2.926   2.694  0.00  0.00     0.078 C 
ATOM      2  C1  UNL d   1       0.025   3.837   1.532  0.00  0.00    -0.077 A 
ATOM      3  C2  UNL d   1       0.260   3.414   0.218  0.00  0.00    -0.001 A 
ATOM      4  C3  UNL d   1       0.023   4.277  -0.854  0.00  0.00     0.003 A 
ATOM      5  C4  UNL d   1      -0.449   5.567  -0.622  0.00  0.00    -0.005 A 
ATOM      6  C5  UNL d   1      -0.683   5.997   0.682  0.00  0.00     0.003 A 
ATOM      7  C6  UNL d   1      -0.447   5.137   1.755  0.00  0.00    -0.001 A 
ENDROOT
TORSDOF 0
ENDMDL
