MODEL 1
REMARK minimizedAffinity 9.87650108
REMARK minimizedRMSD -1
REMARK  0 active torsions:
REMARK  status: ('A' for Active; 'I' for Inactive)
ROOT
ATOM      1  C   UNL d   1       0.243   4.493   0.201  0.00  0.00     0.078 C 
ATOM      2  C1  UNL d   1       0.187   3.456   1.283  0.00  0.00    -0.077 A 
ATOM      3  C2  UNL d   1      -1.003   2.775   1.568  0.00  0.00    -0.001 A 
ATOM      4  C3  UNL d   1      -1.043   1.819   2.584  0.00  0.00     0.003 A 
ATOM      5  C4  UNL d   1       0.103   1.536   3.325  0.00  0.00    -0.005 A 
ATOM      6  C5  UNL d   1       1.291   2.211   3.051  0.00  0.00     0.003 A 
ATOM      7  C6  UNL d   1       1.333   3.167   2.035  0.00  0.00    -0.001 A 
ENDROOT
TORSDOF 0
ENDMDL
