MODEL 1
REMARK minimizedAffinity 2.99939561
REMARK minimizedRMSD -1
REMARK  0 active torsions:
REMARK  status: ('A' for Active; 'I' for Inactive)
ROOT
ATOM      1  C   UNL d   1      -5.992  -3.261   5.899  0.00  0.00     0.078 C 
ATOM      2  C1  UNL d   1      -5.610  -2.120   5.004  0.00  0.00    -0.077 A 
ATOM      3  C2  UNL d   1      -4.871  -2.337   3.834  0.00  0.00    -0.001 A 
ATOM      4  C3  UNL d   1      -4.514  -1.264   3.015  0.00  0.00     0.003 A 
ATOM      5  C4  UNL d   1      -4.890   0.033   3.358  0.00  0.00    -0.005 A 
ATOM      6  C5  UNL d   1      -5.623   0.259   4.521  0.00  0.00     0.003 A 
ATOM      7  C6  UNL d   1      -5.981  -0.812   5.341  0.00  0.00    -0.001 A 
ENDROOT
TORSDOF 0
ENDMDL
