MODEL 1
REMARK minimizedAffinity 3.23878407
REMARK minimizedRMSD -1
REMARK  0 active torsions:
REMARK  status: ('A' for Active; 'I' for Inactive)
ROOT
ATOM      1  C   UNL d   1      -0.394   6.000  -4.541  0.00  0.00     0.078 C 
ATOM      2  C1  UNL d   1      -0.391   5.702  -3.072  0.00  0.00    -0.077 A 
ATOM      3  C2  UNL d   1       0.733   5.142  -2.452  0.00  0.00    -0.001 A 
ATOM      4  C3  UNL d   1       0.719   4.860  -1.085  0.00  0.00     0.003 A 
ATOM      5  C4  UNL d   1      -0.417   5.134  -0.326  0.00  0.00    -0.005 A 
ATOM      6  C5  UNL d   1      -1.541   5.689  -0.935  0.00  0.00     0.003 A 
ATOM      7  C6  UNL d   1      -1.529   5.971  -2.301  0.00  0.00    -0.001 A 
ENDROOT
TORSDOF 0
ENDMDL
