MODEL 1
REMARK minimizedAffinity -3.97117996
REMARK minimizedRMSD -1
REMARK  0 active torsions:
REMARK  status: ('A' for Active; 'I' for Inactive)
ROOT
ATOM      1  C2' OXE d   1      -2.142   2.181   2.197  0.00  0.00     0.078 C 
ATOM      2  C1' OXE d   1      -1.260  -0.355   1.377  0.00  0.00     0.078 C 
ATOM      3  C1  OXE d   1      -0.729   0.847   0.638  0.00  0.00    -0.078 A 
ATOM      4  C2  OXE d   1      -1.202   2.081   1.015  0.00  0.00    -0.078 A 
ATOM      5  C3  OXE d   1      -0.703   3.227   0.403  0.00  0.00     0.003 A 
ATOM      6  C4  OXE d   1       0.159   3.126  -0.696  0.00  0.00    -0.002 A 
ATOM      7  C5  OXE d   1       0.622   1.876  -1.122  0.00  0.00    -0.002 A 
ATOM      8  C6  OXE d   1       0.222   0.732  -0.440  0.00  0.00     0.003 A 
ENDROOT
TORSDOF 0
ENDMDL
