MODEL 1
REMARK minimizedAffinity -4.46989059
REMARK minimizedRMSD -1
REMARK  0 active torsions:
REMARK  status: ('A' for Active; 'I' for Inactive)
ROOT
ATOM      1  C2' OXE d   1       1.680  -0.161  -0.842  0.00  0.00     0.078 C 
ATOM      2  C1' OXE d   1       0.144   2.167  -1.163  0.00  0.00     0.078 C 
ATOM      3  C1  OXE d   1      -0.144   1.294   0.033  0.00  0.00    -0.078 A 
ATOM      4  C2  OXE d   1       0.581   0.133   0.157  0.00  0.00    -0.078 A 
ATOM      5  C3  OXE d   1       0.393  -0.682   1.270  0.00  0.00     0.003 A 
ATOM      6  C4  OXE d   1      -0.633  -0.409   2.183  0.00  0.00    -0.002 A 
ATOM      7  C5  OXE d   1      -1.409   0.748   2.054  0.00  0.00    -0.002 A 
ATOM      8  C6  OXE d   1      -1.149   1.630   1.010  0.00  0.00     0.003 A 
ENDROOT
TORSDOF 0
ENDMDL
