MODEL 1
REMARK minimizedAffinity -3.86512375
REMARK minimizedRMSD -1
REMARK  0 active torsions:
REMARK  status: ('A' for Active; 'I' for Inactive)
ROOT
ATOM      1  C2' OXE d   1      -0.539  -0.931   2.084  0.00  0.00     0.078 C 
ATOM      2  C1' OXE d   1       0.709  -0.822  -0.428  0.00  0.00     0.078 C 
ATOM      3  C1  OXE d   1       0.111   0.451   0.116  0.00  0.00    -0.078 A 
ATOM      4  C2  OXE d   1      -0.538   0.379   1.325  0.00  0.00    -0.078 A 
ATOM      5  C3  OXE d   1      -1.059   1.535   1.898  0.00  0.00     0.003 A 
ATOM      6  C4  OXE d   1      -1.063   2.740   1.185  0.00  0.00    -0.002 A 
ATOM      7  C5  OXE d   1      -0.442   2.827  -0.066  0.00  0.00    -0.002 A 
ATOM      8  C6  OXE d   1       0.186   1.704  -0.594  0.00  0.00     0.003 A 
ENDROOT
TORSDOF 0
ENDMDL
