MODEL 1
REMARK minimizedAffinity 1.68739426
REMARK minimizedRMSD -1
REMARK  0 active torsions:
REMARK  status: ('A' for Active; 'I' for Inactive)
ROOT
ATOM      1  C2' OXE d   1       1.910   0.284  -1.473  0.00  0.00     0.078 C 
ATOM      2  C1' OXE d   1       1.025  -2.373  -1.677  0.00  0.00     0.078 C 
ATOM      3  C1  OXE d   1       0.339  -1.478  -0.675  0.00  0.00    -0.078 A 
ATOM      4  C2  OXE d   1       0.810  -0.193  -0.549  0.00  0.00    -0.078 A 
ATOM      5  C3  OXE d   1       0.177   0.691   0.321  0.00  0.00     0.003 A 
ATOM      6  C4  OXE d   1      -0.833   0.239   1.179  0.00  0.00    -0.002 A 
ATOM      7  C5  OXE d   1      -1.300  -1.076   1.095  0.00  0.00    -0.002 A 
ATOM      8  C6  OXE d   1      -0.755  -1.934   0.145  0.00  0.00     0.003 A 
ENDROOT
TORSDOF 0
ENDMDL
