MODEL 1
REMARK minimizedAffinity -2.99660349
REMARK minimizedRMSD -1
REMARK  0 active torsions:
REMARK  status: ('A' for Active; 'I' for Inactive)
ROOT
ATOM      1  C2' OXE d   1       1.125  -1.291  -0.255  0.00  0.00     0.078 C 
ATOM      2  C1' OXE d   1      -0.138  -1.305   2.252  0.00  0.00     0.078 C 
ATOM      3  C1  OXE d   1      -0.123  -0.010   1.479  0.00  0.00    -0.078 A 
ATOM      4  C2  OXE d   1       0.538  -0.000   0.275  0.00  0.00    -0.078 A 
ATOM      5  C3  OXE d   1       0.536   1.154  -0.503  0.00  0.00     0.003 A 
ATOM      6  C4  OXE d   1       0.000   2.346  -0.002  0.00  0.00    -0.002 A 
ATOM      7  C5  OXE d   1      -0.643   2.368   1.241  0.00  0.00    -0.002 A 
ATOM      8  C6  OXE d   1      -0.750   1.191   1.973  0.00  0.00     0.003 A 
ENDROOT
TORSDOF 0
ENDMDL
