MODEL 1
REMARK minimizedAffinity 2.18946862
REMARK minimizedRMSD -1
REMARK  0 active torsions:
REMARK  status: ('A' for Active; 'I' for Inactive)
ROOT
ATOM      1  C2' OXE d   1       0.465  -0.902   3.210  0.00  0.00     0.078 C 
ATOM      2  C1' OXE d   1      -0.586   1.700   3.112  0.00  0.00     0.078 C 
ATOM      3  C1  OXE d   1      -0.267   1.020   1.803  0.00  0.00    -0.078 A 
ATOM      4  C2  OXE d   1       0.291  -0.234   1.862  0.00  0.00    -0.078 A 
ATOM      5  C3  OXE d   1       0.554  -0.928   0.685  0.00  0.00     0.003 A 
ATOM      6  C4  OXE d   1       0.400  -0.300  -0.557  0.00  0.00    -0.002 A 
ATOM      7  C5  OXE d   1      -0.129   0.993  -0.638  0.00  0.00    -0.002 A 
ATOM      8  C6  OXE d   1      -0.506   1.649   0.528  0.00  0.00     0.003 A 
ENDROOT
TORSDOF 0
ENDMDL
