MODEL 1
REMARK minimizedAffinity -5.24428797
REMARK minimizedRMSD -1
REMARK  0 active torsions:
REMARK  status: ('A' for Active; 'I' for Inactive)
ROOT
ATOM      1  C2' OXE d   1      -0.883  -0.537   2.044  0.00  0.00     0.078 C 
ATOM      2  C1' OXE d   1      -2.164   1.854   1.322  0.00  0.00     0.078 C 
ATOM      3  C1  OXE d   1      -0.998   1.398   0.480  0.00  0.00    -0.078 A 
ATOM      4  C2  OXE d   1      -0.348   0.252   0.869  0.00  0.00    -0.078 A 
ATOM      5  C3  OXE d   1       0.700  -0.242   0.096  0.00  0.00     0.003 A 
ATOM      6  C4  OXE d   1       1.195   0.499  -0.984  0.00  0.00    -0.002 A 
ATOM      7  C5  OXE d   1       0.572   1.689  -1.372  0.00  0.00    -0.002 A 
ATOM      8  C6  OXE d   1      -0.549   2.130  -0.678  0.00  0.00     0.003 A 
ENDROOT
TORSDOF 0
ENDMDL
