MODEL 1
REMARK minimizedAffinity -5.35162354
REMARK minimizedRMSD -1
REMARK  0 active torsions:
REMARK  status: ('A' for Active; 'I' for Inactive)
ROOT
ATOM      1  C2' OXE d   1      -0.882  -0.790   1.877  0.00  0.00     0.078 C 
ATOM      2  C1' OXE d   1      -2.144   1.618   1.176  0.00  0.00     0.078 C 
ATOM      3  C1  OXE d   1      -0.962   1.177   0.350  0.00  0.00    -0.078 A 
ATOM      4  C2  OXE d   1      -0.321   0.021   0.729  0.00  0.00    -0.078 A 
ATOM      5  C3  OXE d   1       0.741  -0.459  -0.031  0.00  0.00     0.003 A 
ATOM      6  C4  OXE d   1       1.260   0.303  -1.085  0.00  0.00    -0.002 A 
ATOM      7  C5  OXE d   1       0.648   1.502  -1.463  0.00  0.00    -0.002 A 
ATOM      8  C6  OXE d   1      -0.487   1.931  -0.784  0.00  0.00     0.003 A 
ENDROOT
TORSDOF 0
ENDMDL
