MODEL 1
REMARK minimizedAffinity -3.27803969
REMARK minimizedRMSD -1
REMARK  0 active torsions:
REMARK  status: ('A' for Active; 'I' for Inactive)
ROOT
ATOM      1  C2' OXE d   1      -2.061   2.045   1.042  0.00  0.00     0.078 C 
ATOM      2  C1' OXE d   1      -0.691   2.369  -1.386  0.00  0.00     0.078 C 
ATOM      3  C1  OXE d   1      -0.307   1.201  -0.512  0.00  0.00    -0.078 A 
ATOM      4  C2  OXE d   1      -0.951   1.077   0.696  0.00  0.00    -0.078 A 
ATOM      5  C3  OXE d   1      -0.673  -0.013   1.516  0.00  0.00     0.003 A 
ATOM      6  C4  OXE d   1       0.363  -0.897   1.193  0.00  0.00    -0.002 A 
ATOM      7  C5  OXE d   1       1.058  -0.766  -0.014  0.00  0.00    -0.002 A 
ATOM      8  C6  OXE d   1       0.707   0.250  -0.896  0.00  0.00     0.003 A 
ENDROOT
TORSDOF 0
ENDMDL
