MODEL 1
REMARK minimizedAffinity -5.10768461
REMARK minimizedRMSD -1
REMARK  0 active torsions:
REMARK  status: ('A' for Active; 'I' for Inactive)
ROOT
ATOM      1  C2' OXE d   1       0.628  -0.354  -0.561  0.00  0.00     0.078 C 
ATOM      2  C1' OXE d   1      -0.035   2.240  -1.403  0.00  0.00     0.078 C 
ATOM      3  C1  OXE d   1      -0.610   1.756  -0.095  0.00  0.00    -0.078 A 
ATOM      4  C2  OXE d   1      -0.318   0.469   0.286  0.00  0.00    -0.078 A 
ATOM      5  C3  OXE d   1      -0.778  -0.009   1.510  0.00  0.00     0.003 A 
ATOM      6  C4  OXE d   1      -1.660   0.755   2.283  0.00  0.00    -0.002 A 
ATOM      7  C5  OXE d   1      -2.002   2.054   1.894  0.00  0.00    -0.002 A 
ATOM      8  C6  OXE d   1      -1.453   2.585   0.731  0.00  0.00     0.003 A 
ENDROOT
TORSDOF 0
ENDMDL
