MODEL 1
REMARK minimizedAffinity -5.80390215
REMARK minimizedRMSD -1
REMARK  0 active torsions:
REMARK  status: ('A' for Active; 'I' for Inactive)
ROOT
ATOM      1  C2' OXE d   1       0.052  -0.269  -0.630  0.00  0.00     0.078 C 
ATOM      2  C1' OXE d   1       0.908   2.089  -1.891  0.00  0.00     0.078 C 
ATOM      3  C1  OXE d   1      -0.124   2.210  -0.798  0.00  0.00    -0.078 A 
ATOM      4  C2  OXE d   1      -0.572   1.047  -0.219  0.00  0.00    -0.078 A 
ATOM      5  C3  OXE d   1      -1.483   1.106   0.831  0.00  0.00     0.003 A 
ATOM      6  C4  OXE d   1      -2.063   2.326   1.199  0.00  0.00    -0.002 A 
ATOM      7  C5  OXE d   1      -1.651   3.519   0.595  0.00  0.00    -0.002 A 
ATOM      8  C6  OXE d   1      -0.654   3.483  -0.374  0.00  0.00     0.003 A 
ENDROOT
TORSDOF 0
ENDMDL
