MODEL 1
REMARK minimizedAffinity -2.52037311
REMARK minimizedRMSD -1
REMARK  0 active torsions:
REMARK  status: ('A' for Active; 'I' for Inactive)
ROOT
ATOM      1  C2' OXE d   1       0.652   4.206  -0.967  0.00  0.00     0.078 C 
ATOM      2  C1' OXE d   1       0.994   4.835   1.747  0.00  0.00     0.078 C 
ATOM      3  C1  OXE d   1       0.173   3.617   1.405  0.00  0.00    -0.078 A 
ATOM      4  C2  OXE d   1      -0.028   3.343   0.074  0.00  0.00    -0.078 A 
ATOM      5  C3  OXE d   1      -0.732   2.201  -0.296  0.00  0.00     0.003 A 
ATOM      6  C4  OXE d   1      -1.366   1.414   0.673  0.00  0.00    -0.002 A 
ATOM      7  C5  OXE d   1      -1.207   1.698   2.034  0.00  0.00    -0.002 A 
ATOM      8  C6  OXE d   1      -0.407   2.769   2.417  0.00  0.00     0.003 A 
ENDROOT
TORSDOF 0
ENDMDL
