MODEL 1
REMARK minimizedAffinity -6.13395119
REMARK minimizedRMSD -1
REMARK  0 active torsions:
REMARK  status: ('A' for Active; 'I' for Inactive)
ROOT
ATOM      1  C2' OXE d   1      -0.557   3.785  -0.682  0.00  0.00     0.078 C 
ATOM      2  C1' OXE d   1      -2.017   2.593   1.398  0.00  0.00     0.078 C 
ATOM      3  C1  OXE d   1      -0.872   1.811   0.803  0.00  0.00    -0.078 A 
ATOM      4  C2  OXE d   1      -0.193   2.383  -0.245  0.00  0.00    -0.078 A 
ATOM      5  C3  OXE d   1       0.906   1.728  -0.794  0.00  0.00     0.003 A 
ATOM      6  C4  OXE d   1       1.230   0.427  -0.391  0.00  0.00    -0.002 A 
ATOM      7  C5  OXE d   1       0.526  -0.190   0.649  0.00  0.00    -0.002 A 
ATOM      8  C6  OXE d   1      -0.498   0.503   1.284  0.00  0.00     0.003 A 
ENDROOT
TORSDOF 0
ENDMDL
