MODEL 1
REMARK minimizedAffinity -2.37011623
REMARK minimizedRMSD -1
REMARK  0 active torsions:
REMARK  status: ('A' for Active; 'I' for Inactive)
ROOT
ATOM      1  C2' OXE d   1      -0.739  -4.352  -2.609  0.00  0.00     0.078 C 
ATOM      2  C1' OXE d   1       1.147  -2.290  -2.341  0.00  0.00     0.078 C 
ATOM      3  C1  OXE d   1       1.411  -3.583  -1.611  0.00  0.00    -0.078 A 
ATOM      4  C2  OXE d   1       0.460  -4.570  -1.710  0.00  0.00    -0.078 A 
ATOM      5  C3  OXE d   1       0.679  -5.803  -1.102  0.00  0.00     0.003 A 
ATOM      6  C4  OXE d   1       1.785  -5.993  -0.265  0.00  0.00    -0.002 A 
ATOM      7  C5  OXE d   1       2.746  -4.987  -0.118  0.00  0.00    -0.002 A 
ATOM      8  C6  OXE d   1       2.596  -3.794  -0.817  0.00  0.00     0.003 A 
ENDROOT
TORSDOF 0
ENDMDL
