MODEL 1
REMARK minimizedAffinity -0.184417039
REMARK minimizedRMSD -1
REMARK  0 active torsions:
REMARK  status: ('A' for Active; 'I' for Inactive)
ROOT
ATOM      1  C2' OXE d   1      -0.883   1.133   2.283  0.00  0.00     0.078 C 
ATOM      2  C1' OXE d   1      -0.327  -1.535   2.955  0.00  0.00     0.078 C 
ATOM      3  C1  OXE d   1       0.102  -1.048   1.594  0.00  0.00    -0.078 A 
ATOM      4  C2  OXE d   1      -0.216   0.245   1.255  0.00  0.00    -0.078 A 
ATOM      5  C3  OXE d   1       0.205   0.761   0.033  0.00  0.00     0.003 A 
ATOM      6  C4  OXE d   1       0.813  -0.070  -0.916  0.00  0.00    -0.002 A 
ATOM      7  C5  OXE d   1       1.110  -1.402  -0.607  0.00  0.00    -0.002 A 
ATOM      8  C6  OXE d   1       0.800  -1.894   0.657  0.00  0.00     0.003 A 
ENDROOT
TORSDOF 0
ENDMDL
