MODEL 1
REMARK minimizedAffinity -4.89467812
REMARK minimizedRMSD -1
REMARK  0 active torsions:
REMARK  status: ('A' for Active; 'I' for Inactive)
ROOT
ATOM      1  C   UNL d   1      -0.754  -3.415  -0.959  0.00  0.00     0.023 A 
ATOM      2  C1  UNL d   1      -0.968  -2.837   0.292  0.00  0.00     0.003 A 
ATOM      3  C2  UNL d   1      -0.701  -1.481   0.491  0.00  0.00     0.048 A 
ATOM      4  C3  UNL d   1      -0.222  -0.708  -0.566  0.00  0.00     0.023 A 
ATOM      5  C4  UNL d   1      -0.008  -1.282  -1.820  0.00  0.00     0.048 A 
ATOM      6  C5  UNL d   1      -0.275  -2.639  -2.014  0.00  0.00     0.003 A 
ATOM      7  I   UNL d   1       0.174   1.311  -0.273  0.00  0.00    -0.146 I 
ENDROOT
TORSDOF 0
ENDMDL
