MODEL 1
REMARK minimizedAffinity -1.28979313
REMARK minimizedRMSD -1
REMARK  0 active torsions:
REMARK  status: ('A' for Active; 'I' for Inactive)
ROOT
ATOM      1  C   UNL d   1      -1.025  -0.935   1.223  0.00  0.00     0.023 A 
ATOM      2  C1  UNL d   1      -0.688  -0.060   2.255  0.00  0.00     0.003 A 
ATOM      3  C2  UNL d   1       0.054   1.091   1.983  0.00  0.00     0.048 A 
ATOM      4  C3  UNL d   1       0.455   1.362   0.675  0.00  0.00     0.023 A 
ATOM      5  C4  UNL d   1       0.119   0.489  -0.362  0.00  0.00     0.048 A 
ATOM      6  C5  UNL d   1      -0.622  -0.661  -0.084  0.00  0.00     0.003 A 
ATOM      7  I   UNL d   1       1.559   3.074   0.266  0.00  0.00    -0.146 I 
ENDROOT
TORSDOF 0
ENDMDL
