MODEL 1
REMARK minimizedAffinity -0.620775342
REMARK minimizedRMSD -1
REMARK  0 active torsions:
REMARK  status: ('A' for Active; 'I' for Inactive)
ROOT
ATOM      1  C   UNL d   1      -0.929   0.041   1.544  0.00  0.00     0.023 A 
ATOM      2  C1  UNL d   1      -0.991  -1.345   1.392  0.00  0.00     0.003 A 
ATOM      3  C2  UNL d   1      -0.615  -1.932   0.182  0.00  0.00     0.048 A 
ATOM      4  C3  UNL d   1      -0.178  -1.129  -0.871  0.00  0.00     0.023 A 
ATOM      5  C4  UNL d   1      -0.114   0.257  -0.722  0.00  0.00     0.048 A 
ATOM      6  C5  UNL d   1      -0.491   0.841   0.489  0.00  0.00     0.003 A 
ATOM      7  I   UNL d   1       0.382  -2.002  -2.672  0.00  0.00    -0.146 I 
ENDROOT
TORSDOF 0
ENDMDL
