MODEL 1
REMARK minimizedAffinity -3.34023118
REMARK minimizedRMSD -1
REMARK  0 active torsions:
REMARK  status: ('A' for Active; 'I' for Inactive)
ROOT
ATOM      1  C   UNL d   1      -0.395  -1.558   0.579  0.00  0.00     0.023 A 
ATOM      2  C1  UNL d   1      -0.589  -0.599   1.572  0.00  0.00     0.003 A 
ATOM      3  C2  UNL d   1      -0.137   0.708   1.380  0.00  0.00     0.048 A 
ATOM      4  C3  UNL d   1       0.508   1.049   0.192  0.00  0.00     0.023 A 
ATOM      5  C4  UNL d   1       0.703   0.092  -0.806  0.00  0.00     0.048 A 
ATOM      6  C5  UNL d   1       0.250  -1.213  -0.609  0.00  0.00     0.003 A 
ATOM      7  I   UNL d   1       1.182   2.994  -0.097  0.00  0.00    -0.146 I 
ENDROOT
TORSDOF 0
ENDMDL
