MODEL 1
REMARK minimizedAffinity -0.969003797
REMARK minimizedRMSD -1
REMARK  0 active torsions:
REMARK  status: ('A' for Active; 'I' for Inactive)
ROOT
ATOM      1  C   UNL d   1      -0.561  -2.783   0.035  0.00  0.00     0.023 A 
ATOM      2  C1  UNL d   1      -0.840  -2.115   1.227  0.00  0.00     0.003 A 
ATOM      3  C2  UNL d   1      -0.447  -0.785   1.391  0.00  0.00     0.048 A 
ATOM      4  C3  UNL d   1       0.224  -0.129   0.359  0.00  0.00     0.023 A 
ATOM      5  C4  UNL d   1       0.505  -0.794  -0.835  0.00  0.00     0.048 A 
ATOM      6  C5  UNL d   1       0.111  -2.124  -0.995  0.00  0.00     0.003 A 
ATOM      7  I   UNL d   1       0.809   1.850   0.602  0.00  0.00    -0.146 I 
ENDROOT
TORSDOF 0
ENDMDL
