MODEL 1
REMARK minimizedAffinity -3.27069426
REMARK minimizedRMSD -1
REMARK  0 active torsions:
REMARK  status: ('A' for Active; 'I' for Inactive)
ROOT
ATOM      1  C   UNL d   1      -0.602  -3.292  -0.877  0.00  0.00     0.023 A 
ATOM      2  C1  UNL d   1      -0.158  -2.481  -1.922  0.00  0.00     0.003 A 
ATOM      3  C2  UNL d   1       0.047  -1.116  -1.709  0.00  0.00     0.048 A 
ATOM      4  C3  UNL d   1      -0.192  -0.569  -0.449  0.00  0.00     0.023 A 
ATOM      5  C4  UNL d   1      -0.635  -1.377   0.599  0.00  0.00     0.048 A 
ATOM      6  C5  UNL d   1      -0.840  -2.740   0.382  0.00  0.00     0.003 A 
ATOM      7  I   UNL d   1       0.113   1.462  -0.130  0.00  0.00    -0.146 I 
ENDROOT
TORSDOF 0
ENDMDL
