MODEL 1
REMARK minimizedAffinity 0.608774304
REMARK minimizedRMSD -1
REMARK  0 active torsions:
REMARK  status: ('A' for Active; 'I' for Inactive)
ROOT
ATOM      1  C   UNL d   1       1.380   3.849   1.091  0.00  0.00     0.023 A 
ATOM      2  C1  UNL d   1       0.043   3.453   1.129  0.00  0.00     0.003 A 
ATOM      3  C2  UNL d   1      -0.341   2.232   0.571  0.00  0.00     0.048 A 
ATOM      4  C3  UNL d   1       0.617   1.411  -0.022  0.00  0.00     0.023 A 
ATOM      5  C4  UNL d   1       1.957   1.802  -0.061  0.00  0.00     0.048 A 
ATOM      6  C5  UNL d   1       2.336   3.025   0.497  0.00  0.00     0.003 A 
ATOM      7  I   UNL d   1       0.048  -0.408  -0.852  0.00  0.00    -0.146 I 
ENDROOT
TORSDOF 0
ENDMDL
