MODEL 1
REMARK minimizedAffinity -2.97285414
REMARK minimizedRMSD -1
REMARK  0 active torsions:
REMARK  status: ('A' for Active; 'I' for Inactive)
ROOT
ATOM      1  C   UNL d   1      -0.845  -0.329   1.185  0.00  0.00     0.023 A 
ATOM      2  C1  UNL d   1      -1.136  -1.691   1.103  0.00  0.00     0.003 A 
ATOM      3  C2  UNL d   1      -0.927  -2.381  -0.093  0.00  0.00     0.048 A 
ATOM      4  C3  UNL d   1      -0.425  -1.702  -1.204  0.00  0.00     0.023 A 
ATOM      5  C4  UNL d   1      -0.132  -0.340  -1.126  0.00  0.00     0.048 A 
ATOM      6  C5  UNL d   1      -0.344   0.345   0.072  0.00  0.00     0.003 A 
ATOM      7  I   UNL d   1      -0.112  -2.726  -2.985  0.00  0.00    -0.146 I 
ENDROOT
TORSDOF 0
ENDMDL
