MODEL 1
REMARK minimizedAffinity -2.86308694
REMARK minimizedRMSD -1
REMARK  0 active torsions:
REMARK  status: ('A' for Active; 'I' for Inactive)
ROOT
ATOM      1  C   UNL d   1      -0.849  -2.772  -0.381  0.00  0.00     0.023 A 
ATOM      2  C1  UNL d   1      -1.228  -2.091   0.776  0.00  0.00     0.003 A 
ATOM      3  C2  UNL d   1      -0.872  -0.752   0.948  0.00  0.00     0.048 A 
ATOM      4  C3  UNL d   1      -0.138  -0.099  -0.042  0.00  0.00     0.023 A 
ATOM      5  C4  UNL d   1       0.243  -0.776  -1.202  0.00  0.00     0.048 A 
ATOM      6  C5  UNL d   1      -0.114  -2.115  -1.369  0.00  0.00     0.003 A 
ATOM      7  I   UNL d   1       0.392   1.895   0.212  0.00  0.00    -0.146 I 
ENDROOT
TORSDOF 0
ENDMDL
