MODEL 1
REMARK minimizedAffinity -1.50528765
REMARK minimizedRMSD -1
REMARK  0 active torsions:
REMARK  status: ('A' for Active; 'I' for Inactive)
ROOT
ATOM      1  C   UNL d   1      -0.332  -2.809  -2.561  0.00  0.00     0.023 A 
ATOM      2  C1  UNL d   1       0.291  -1.565  -2.470  0.00  0.00     0.003 A 
ATOM      3  C2  UNL d   1       0.209  -0.826  -1.288  0.00  0.00     0.048 A 
ATOM      4  C3  UNL d   1      -0.497  -1.338  -0.200  0.00  0.00     0.023 A 
ATOM      5  C4  UNL d   1      -1.121  -2.584  -0.286  0.00  0.00     0.048 A 
ATOM      6  C5  UNL d   1      -1.037  -3.319  -1.470  0.00  0.00     0.003 A 
ATOM      7  I   UNL d   1      -0.621  -0.241   1.561  0.00  0.00    -0.146 I 
ENDROOT
TORSDOF 0
ENDMDL
