MODEL 1
REMARK minimizedAffinity -2.67121887
REMARK minimizedRMSD -1
REMARK  0 active torsions:
REMARK  status: ('A' for Active; 'I' for Inactive)
ROOT
ATOM      1  C   UNL d   1      -0.607  -3.234  -1.320  0.00  0.00     0.023 A 
ATOM      2  C1  UNL d   1       0.008  -2.409  -2.262  0.00  0.00     0.003 A 
ATOM      3  C2  UNL d   1       0.373  -1.106  -1.919  0.00  0.00     0.048 A 
ATOM      4  C3  UNL d   1       0.122  -0.634  -0.631  0.00  0.00     0.023 A 
ATOM      5  C4  UNL d   1      -0.492  -1.456   0.315  0.00  0.00     0.048 A 
ATOM      6  C5  UNL d   1      -0.857  -2.758  -0.033  0.00  0.00     0.003 A 
ATOM      7  I   UNL d   1       0.665   1.306  -0.118  0.00  0.00    -0.146 I 
ENDROOT
TORSDOF 0
ENDMDL
