MODEL 1
REMARK minimizedAffinity -2.38296318
REMARK minimizedRMSD -1
REMARK  0 active torsions:
REMARK  status: ('A' for Active; 'I' for Inactive)
ROOT
ATOM      1  C   UNL d   1      -0.502  -0.730   1.535  0.00  0.00     0.023 A 
ATOM      2  C1  UNL d   1      -0.259   0.100   0.440  0.00  0.00     0.003 A 
ATOM      3  C2  UNL d   1      -0.147  -0.446  -0.840  0.00  0.00     0.048 A 
ATOM      4  C3  UNL d   1      -0.279  -1.823  -1.019  0.00  0.00     0.023 A 
ATOM      5  C4  UNL d   1      -0.522  -2.657   0.073  0.00  0.00     0.048 A 
ATOM      6  C5  UNL d   1      -0.633  -2.107   1.352  0.00  0.00     0.003 A 
ATOM      7  I   UNL d   1      -0.111  -2.638  -2.924  0.00  0.00    -0.146 I 
ENDROOT
TORSDOF 0
ENDMDL
