MODEL 1
REMARK minimizedAffinity 0.323404491
REMARK minimizedRMSD -1
REMARK  0 active torsions:
REMARK  status: ('A' for Active; 'I' for Inactive)
ROOT
ATOM      1  C   UNL d   1      -0.981  -0.411   1.490  0.00  0.00     0.023 A 
ATOM      2  C1  UNL d   1      -0.525   0.326   0.397  0.00  0.00     0.003 A 
ATOM      3  C2  UNL d   1      -0.330  -0.301  -0.836  0.00  0.00     0.048 A 
ATOM      4  C3  UNL d   1      -0.594  -1.663  -0.969  0.00  0.00     0.023 A 
ATOM      5  C4  UNL d   1      -1.053  -2.404   0.122  0.00  0.00     0.048 A 
ATOM      6  C5  UNL d   1      -1.245  -1.774   1.353  0.00  0.00     0.003 A 
ATOM      7  I   UNL d   1      -0.305  -2.597  -2.803  0.00  0.00    -0.146 I 
ENDROOT
TORSDOF 0
ENDMDL
