MODEL 1
REMARK minimizedAffinity -3.01809049
REMARK minimizedRMSD -1
REMARK  0 active torsions:
REMARK  status: ('A' for Active; 'I' for Inactive)
ROOT
ATOM      1  C   UNL d   1      -0.763  -0.091   1.769  0.00  0.00     0.023 A 
ATOM      2  C1  UNL d   1      -0.487   0.532   0.552  0.00  0.00     0.003 A 
ATOM      3  C2  UNL d   1      -0.507  -0.207  -0.633  0.00  0.00     0.048 A 
ATOM      4  C3  UNL d   1      -0.806  -1.568  -0.593  0.00  0.00     0.023 A 
ATOM      5  C4  UNL d   1      -1.083  -2.196   0.623  0.00  0.00     0.048 A 
ATOM      6  C5  UNL d   1      -1.061  -1.453   1.804  0.00  0.00     0.003 A 
ATOM      7  I   UNL d   1      -0.837  -2.671  -2.355  0.00  0.00    -0.146 I 
ENDROOT
TORSDOF 0
ENDMDL
