MODEL 1
REMARK minimizedAffinity -1.74133754
REMARK minimizedRMSD -1
REMARK  0 active torsions:
REMARK  status: ('A' for Active; 'I' for Inactive)
ROOT
ATOM      1  C   UNL d   1       1.475  -5.907  -4.870  0.00  0.00     0.020 A 
ATOM      2  C1  UNL d   1       2.264  -5.692  -5.999  0.00  0.00     0.020 A 
ATOM      3  C2  UNL d   1       3.649  -5.568  -5.870  0.00  0.00     0.034 A 
ATOM      4  C3  UNL d   1       4.249  -5.659  -4.608  0.00  0.00     0.017 A 
ATOM      5  C4  UNL d   1       3.456  -5.875  -3.476  0.00  0.00     0.017 A 
ATOM      6  C5  UNL d   1       2.070  -5.999  -3.611  0.00  0.00     0.034 A 
ATOM      7 Cl   UNL d   1       4.124  -5.999  -1.886  0.00  0.00    -0.070 Cl
ATOM      8 Cl1  UNL d   1       5.967  -5.497  -4.522  0.00  0.00    -0.070 Cl
ENDROOT
TORSDOF 0
ENDMDL
