MODEL 1
REMARK minimizedAffinity -0.560298502
REMARK minimizedRMSD -1
REMARK  0 active torsions:
REMARK  status: ('A' for Active; 'I' for Inactive)
ROOT
ATOM      1  C   UNL d   1       5.762  -5.765  -4.921  0.00  0.00     0.020 A 
ATOM      2  C1  UNL d   1       6.000  -4.459  -5.348  0.00  0.00     0.020 A 
ATOM      3  C2  UNL d   1       5.723  -3.385  -4.499  0.00  0.00     0.034 A 
ATOM      4  C3  UNL d   1       5.206  -3.615  -3.219  0.00  0.00     0.017 A 
ATOM      5  C4  UNL d   1       4.967  -4.926  -2.791  0.00  0.00     0.017 A 
ATOM      6  C5  UNL d   1       5.246  -5.998  -3.646  0.00  0.00     0.034 A 
ATOM      7 Cl   UNL d   1       4.330  -5.289  -1.226  0.00  0.00    -0.070 Cl
ATOM      8 Cl1  UNL d   1       4.887  -2.241  -2.222  0.00  0.00    -0.070 Cl
ENDROOT
TORSDOF 0
ENDMDL
