MODEL 1
REMARK minimizedAffinity 8.00483799
REMARK minimizedRMSD -1
REMARK  0 active torsions:
REMARK  status: ('A' for Active; 'I' for Inactive)
ROOT
ATOM      1  C   UNL d   1      -5.581   3.590   0.923  0.00  0.00     0.020 A 
ATOM      2  C1  UNL d   1      -5.071   4.398   1.938  0.00  0.00     0.020 A 
ATOM      3  C2  UNL d   1      -3.698   4.419   2.191  0.00  0.00     0.034 A 
ATOM      4  C3  UNL d   1      -2.830   3.630   1.427  0.00  0.00     0.017 A 
ATOM      5  C4  UNL d   1      -3.343   2.819   0.408  0.00  0.00     0.017 A 
ATOM      6  C5  UNL d   1      -4.718   2.802   0.160  0.00  0.00     0.034 A 
ATOM      7 Cl   UNL d   1      -2.334   1.819  -0.576  0.00  0.00    -0.070 Cl
ATOM      8 Cl1  UNL d   1      -1.143   3.706   1.794  0.00  0.00    -0.070 Cl
ENDROOT
TORSDOF 0
ENDMDL
