MODEL 1
REMARK minimizedAffinity 0.591748893
REMARK minimizedRMSD -1
REMARK  0 active torsions:
REMARK  status: ('A' for Active; 'I' for Inactive)
ROOT
ATOM      1  C   UNL d   1       2.030  -5.992  -5.956  0.00  0.00     0.020 A 
ATOM      2  C1  UNL d   1       1.369  -5.998  -4.728  0.00  0.00     0.020 A 
ATOM      3  C2  UNL d   1       2.104  -6.000  -3.540  0.00  0.00     0.034 A 
ATOM      4  C3  UNL d   1       3.503  -5.997  -3.577  0.00  0.00     0.017 A 
ATOM      5  C4  UNL d   1       4.165  -5.991  -4.811  0.00  0.00     0.017 A 
ATOM      6  C5  UNL d   1       3.425  -5.988  -5.997  0.00  0.00     0.034 A 
ATOM      7 Cl   UNL d   1       5.889  -5.986  -4.937  0.00  0.00    -0.070 Cl
ATOM      8 Cl1  UNL d   1       4.347  -5.999  -2.070  0.00  0.00    -0.070 Cl
ENDROOT
TORSDOF 0
ENDMDL
