MODEL 1
REMARK minimizedAffinity 4.88205671
REMARK minimizedRMSD -1
REMARK  0 active torsions:
REMARK  status: ('A' for Active; 'I' for Inactive)
ROOT
ATOM      1  C   UNL d   1       1.747  -5.726  -5.986  0.00  0.00     0.020 A 
ATOM      2  C1  UNL d   1       1.081  -5.936  -4.779  0.00  0.00     0.020 A 
ATOM      3  C2  UNL d   1       1.802  -5.996  -3.585  0.00  0.00     0.034 A 
ATOM      4  C3  UNL d   1       3.194  -5.846  -3.594  0.00  0.00     0.017 A 
ATOM      5  C4  UNL d   1       3.862  -5.636  -4.806  0.00  0.00     0.017 A 
ATOM      6  C5  UNL d   1       3.135  -5.577  -5.999  0.00  0.00     0.034 A 
ATOM      7 Cl   UNL d   1       5.577  -5.443  -4.898  0.00  0.00    -0.070 Cl
ATOM      8 Cl1  UNL d   1       4.022  -5.932  -2.080  0.00  0.00    -0.070 Cl
ENDROOT
TORSDOF 0
ENDMDL
