MODEL 1
REMARK minimizedAffinity 1.90777099
REMARK minimizedRMSD -1
REMARK  0 active torsions:
REMARK  status: ('A' for Active; 'I' for Inactive)
ROOT
ATOM      1  C   UNL d   1       1.316  -6.000  -4.561  0.00  0.00     0.020 A 
ATOM      2  C1  UNL d   1       1.812  -5.706  -5.830  0.00  0.00     0.020 A 
ATOM      3  C2  UNL d   1       3.166  -5.412  -6.000  0.00  0.00     0.034 A 
ATOM      4  C3  UNL d   1       4.030  -5.411  -4.898  0.00  0.00     0.017 A 
ATOM      5  C4  UNL d   1       3.531  -5.706  -3.624  0.00  0.00     0.017 A 
ATOM      6  C5  UNL d   1       2.174  -6.000  -3.460  0.00  0.00     0.034 A 
ATOM      7 Cl   UNL d   1       4.534  -5.724  -2.217  0.00  0.00    -0.070 Cl
ATOM      8 Cl1  UNL d   1       5.693  -5.039  -5.181  0.00  0.00    -0.070 Cl
ENDROOT
TORSDOF 0
ENDMDL
