MODEL 1
REMARK minimizedAffinity 2.63895869
REMARK minimizedRMSD -1
REMARK  0 active torsions:
REMARK  status: ('A' for Active; 'I' for Inactive)
ROOT
ATOM      1  C   UNL d   1      -2.770  -1.132  -2.875  0.00  0.00     0.020 A 
ATOM      2  C1  UNL d   1      -3.704  -2.069  -3.313  0.00  0.00     0.020 A 
ATOM      3  C2  UNL d   1      -3.732  -3.345  -2.747  0.00  0.00     0.034 A 
ATOM      4  C3  UNL d   1      -2.823  -3.688  -1.740  0.00  0.00     0.017 A 
ATOM      5  C4  UNL d   1      -1.885  -2.747  -1.300  0.00  0.00     0.017 A 
ATOM      6  C5  UNL d   1      -1.862  -1.470  -1.870  0.00  0.00     0.034 A 
ATOM      7 Cl   UNL d   1      -0.731  -3.096  -0.061  0.00  0.00    -0.070 Cl
ATOM      8 Cl1  UNL d   1      -2.913  -5.284  -1.085  0.00  0.00    -0.070 Cl
ENDROOT
TORSDOF 0
ENDMDL
