MODEL 1
REMARK minimizedAffinity 2.08728027
REMARK minimizedRMSD -1
REMARK  0 active torsions:
REMARK  status: ('A' for Active; 'I' for Inactive)
ROOT
ATOM      1  C   UNL d   1       2.265  -4.415   3.259  0.00  0.00     0.020 A 
ATOM      2  C1  UNL d   1       1.557  -4.326   4.456  0.00  0.00     0.020 A 
ATOM      3  C2  UNL d   1       1.239  -3.075   4.989  0.00  0.00     0.034 A 
ATOM      4  C3  UNL d   1       1.630  -1.907   4.323  0.00  0.00     0.017 A 
ATOM      5  C4  UNL d   1       2.341  -1.997   3.121  0.00  0.00     0.017 A 
ATOM      6  C5  UNL d   1       2.656  -3.253   2.593  0.00  0.00     0.034 A 
ATOM      7 Cl   UNL d   1       2.857  -0.601   2.242  0.00  0.00    -0.070 Cl
ATOM      8 Cl1  UNL d   1       1.203  -0.393   5.039  0.00  0.00    -0.070 Cl
ENDROOT
TORSDOF 0
ENDMDL
