MODEL 1
REMARK minimizedAffinity -4.28745699
REMARK minimizedRMSD -1
REMARK  1 active torsions:
REMARK  status: ('A' for Active; 'I' for Inactive)
REMARK    1  A    between atoms: C1_2  and  C2_3 
ROOT
ATOM      1  C2  UNL d   1       0.475   0.293  -0.092  0.00  0.00    -0.077 A 
ATOM      2  C3  UNL d   1      -0.220   0.492   1.109  0.00  0.00     0.002 A 
ATOM      3  C4  UNL d   1      -0.163   1.724   1.763  0.00  0.00     0.002 A 
ATOM      4  C5  UNL d   1       0.584   2.768   1.221  0.00  0.00    -0.004 A 
ATOM      5  C6  UNL d   1       1.281   2.580   0.029  0.00  0.00     0.002 A 
ATOM      6  C7  UNL d   1       1.226   1.348  -0.626  0.00  0.00     0.002 A 
ENDROOT
BRANCH   1   7
ATOM      7  C1  UNL d   1       0.375  -1.020  -0.824  0.00  0.00     0.055 C 
ATOM      8  C   UNL d   1      -1.009  -1.213  -1.427  0.00  0.00     0.019 C 
ENDBRANCH   1   7
TORSDOF 1
ENDMDL
