MODEL 1
REMARK minimizedAffinity -4.24214315
REMARK minimizedRMSD -1
REMARK  1 active torsions:
REMARK  status: ('A' for Active; 'I' for Inactive)
REMARK    1  A    between atoms: C1_2  and  C2_3 
ROOT
ATOM      1  C2  UNL d   1       0.157  -0.027   0.202  0.00  0.00    -0.077 A 
ATOM      2  C3  UNL d   1       0.567   0.955  -0.711  0.00  0.00     0.002 A 
ATOM      3  C4  UNL d   1       0.864   2.247  -0.272  0.00  0.00     0.002 A 
ATOM      4  C5  UNL d   1       0.758   2.567   1.079  0.00  0.00    -0.004 A 
ATOM      5  C6  UNL d   1       0.349   1.598   1.995  0.00  0.00     0.002 A 
ATOM      6  C7  UNL d   1       0.051   0.307   1.558  0.00  0.00     0.002 A 
ENDROOT
BRANCH   1   7
ATOM      7  C1  UNL d   1      -0.116  -1.434  -0.262  0.00  0.00     0.055 C 
ATOM      8  C   UNL d   1      -1.232  -1.469  -1.296  0.00  0.00     0.019 C 
ENDBRANCH   1   7
TORSDOF 1
ENDMDL
