MODEL 1
REMARK minimizedAffinity -1.12910247
REMARK minimizedRMSD -1
REMARK  1 active torsions:
REMARK  status: ('A' for Active; 'I' for Inactive)
REMARK    1  A    between atoms: C1_2  and  C2_3 
ROOT
ATOM      1  C2  UNL d   1      -0.210   0.175   0.597  0.00  0.00    -0.077 A 
ATOM      2  C3  UNL d   1      -0.465  -1.102   0.078  0.00  0.00     0.002 A 
ATOM      3  C4  UNL d   1       0.514  -1.775  -0.655  0.00  0.00     0.002 A 
ATOM      4  C5  UNL d   1       1.757  -1.182  -0.870  0.00  0.00    -0.004 A 
ATOM      5  C6  UNL d   1       2.020   0.088  -0.358  0.00  0.00     0.002 A 
ATOM      6  C7  UNL d   1       1.041   0.763   0.373  0.00  0.00     0.002 A 
ENDROOT
BRANCH   1   7
ATOM      7  C1  UNL d   1      -1.248   0.882   1.429  0.00  0.00     0.055 C 
ATOM      8  C   UNL d   1      -0.605   1.680   2.555  0.00  0.00     0.019 C 
ENDBRANCH   1   7
TORSDOF 1
ENDMDL
