MODEL 1
REMARK minimizedAffinity -4.2994051
REMARK minimizedRMSD -1
REMARK  1 active torsions:
REMARK  status: ('A' for Active; 'I' for Inactive)
REMARK    1  A    between atoms: C1_2  and  C2_3 
ROOT
ATOM      1  C2  UNL d   1      -0.171  -0.743  -0.993  0.00  0.00    -0.077 A 
ATOM      2  C3  UNL d   1      -0.990  -0.737   0.145  0.00  0.00     0.002 A 
ATOM      3  C4  UNL d   1      -0.800   0.217   1.147  0.00  0.00     0.002 A 
ATOM      4  C5  UNL d   1       0.206   1.173   1.019  0.00  0.00    -0.004 A 
ATOM      5  C6  UNL d   1       1.026   1.174  -0.108  0.00  0.00     0.002 A 
ATOM      6  C7  UNL d   1       0.839   0.221  -1.110  0.00  0.00     0.002 A 
ENDROOT
BRANCH   1   7
ATOM      7  C1  UNL d   1      -0.406  -1.740  -2.098  0.00  0.00     0.055 C 
ATOM      8  C   UNL d   1      -1.891  -1.895  -2.396  0.00  0.00     0.019 C 
ENDBRANCH   1   7
TORSDOF 1
ENDMDL
