MODEL 1
REMARK minimizedAffinity -2.15950084
REMARK minimizedRMSD -1
REMARK  1 active torsions:
REMARK  status: ('A' for Active; 'I' for Inactive)
REMARK    1  A    between atoms: C1_2  and  C2_3 
ROOT
ATOM      1  C2  UNL d   1      -0.261  -0.619  -0.207  0.00  0.00    -0.077 A 
ATOM      2  C3  UNL d   1       0.748   0.290  -0.553  0.00  0.00     0.002 A 
ATOM      3  C4  UNL d   1       0.981   1.420   0.234  0.00  0.00     0.002 A 
ATOM      4  C5  UNL d   1       0.212   1.648   1.373  0.00  0.00    -0.004 A 
ATOM      5  C6  UNL d   1      -0.795   0.750   1.725  0.00  0.00     0.002 A 
ATOM      6  C7  UNL d   1      -1.031  -0.379   0.939  0.00  0.00     0.002 A 
ENDROOT
BRANCH   1   7
ATOM      7  C1  UNL d   1      -0.482  -1.864  -1.027  0.00  0.00     0.055 C 
ATOM      8  C   UNL d   1      -1.823  -1.824  -1.745  0.00  0.00     0.019 C 
ENDBRANCH   1   7
TORSDOF 1
ENDMDL
