MODEL 1
REMARK minimizedAffinity -4.84175873
REMARK minimizedRMSD -1
REMARK  1 active torsions:
REMARK  status: ('A' for Active; 'I' for Inactive)
REMARK    1  A    between atoms: C1_2  and  C2_3 
ROOT
ATOM      1  C2  UNL d   1       0.361   1.001   1.110  0.00  0.00    -0.077 A 
ATOM      2  C3  UNL d   1      -0.666   0.360   1.818  0.00  0.00     0.002 A 
ATOM      3  C4  UNL d   1      -1.057  -0.936   1.477  0.00  0.00     0.002 A 
ATOM      4  C5  UNL d   1      -0.423  -1.604   0.431  0.00  0.00    -0.004 A 
ATOM      5  C6  UNL d   1       0.597  -0.975  -0.281  0.00  0.00     0.002 A 
ATOM      6  C7  UNL d   1       0.989   0.321   0.058  0.00  0.00     0.002 A 
ENDROOT
BRANCH   1   7
ATOM      7  C1  UNL d   1       0.818   2.380   1.508  0.00  0.00     0.055 C 
ATOM      8  C   UNL d   1       1.033   3.265   0.289  0.00  0.00     0.019 C 
ENDBRANCH   1   7
TORSDOF 1
ENDMDL
