MODEL 1
REMARK minimizedAffinity -2.78902984
REMARK minimizedRMSD -1
REMARK  1 active torsions:
REMARK  status: ('A' for Active; 'I' for Inactive)
REMARK    1  A    between atoms: C1_2  and  C2_3 
ROOT
ATOM      1  C2  UNL d   1      -1.165  -1.100  -0.790  0.00  0.00    -0.077 A 
ATOM      2  C3  UNL d   1      -0.347  -0.826  -1.896  0.00  0.00     0.002 A 
ATOM      3  C4  UNL d   1      -0.864  -0.897  -3.191  0.00  0.00     0.002 A 
ATOM      4  C5  UNL d   1      -2.200  -1.239  -3.392  0.00  0.00    -0.004 A 
ATOM      5  C6  UNL d   1      -3.020  -1.515  -2.299  0.00  0.00     0.002 A 
ATOM      6  C7  UNL d   1      -2.505  -1.445  -1.004  0.00  0.00     0.002 A 
ENDROOT
BRANCH   1   7
ATOM      7  C1  UNL d   1      -0.622  -0.976   0.610  0.00  0.00     0.055 C 
ATOM      8  C   UNL d   1      -0.916   0.397   1.197  0.00  0.00     0.019 C 
ENDBRANCH   1   7
TORSDOF 1
ENDMDL
