MODEL 1
REMARK minimizedAffinity -4.93211794
REMARK minimizedRMSD -1
REMARK  1 active torsions:
REMARK  status: ('A' for Active; 'I' for Inactive)
REMARK    1  A    between atoms: C1_2  and  C2_3 
ROOT
ATOM      1  C2  UNL d   1       0.247  -0.023   0.180  0.00  0.00    -0.077 A 
ATOM      2  C3  UNL d   1      -0.528   0.395   1.271  0.00  0.00     0.002 A 
ATOM      3  C4  UNL d   1      -0.304   1.642   1.860  0.00  0.00     0.002 A 
ATOM      4  C5  UNL d   1       0.691   2.481   1.362  0.00  0.00    -0.004 A 
ATOM      5  C6  UNL d   1       1.468   2.073   0.278  0.00  0.00     0.002 A 
ATOM      6  C7  UNL d   1       1.246   0.827  -0.311  0.00  0.00     0.002 A 
ENDROOT
BRANCH   1   7
ATOM      7  C1  UNL d   1      -0.026  -1.345  -0.488  0.00  0.00     0.055 C 
ATOM      8  C   UNL d   1      -1.205  -1.250  -1.445  0.00  0.00     0.019 C 
ENDBRANCH   1   7
TORSDOF 1
ENDMDL
