MODEL 1
REMARK minimizedAffinity -4.96525288
REMARK minimizedRMSD -1
REMARK  1 active torsions:
REMARK  status: ('A' for Active; 'I' for Inactive)
REMARK    1  A    between atoms: C1_2  and  C2_3 
ROOT
ATOM      1  C2  UNL d   1      -0.156   0.293   0.108  0.00  0.00    -0.077 A 
ATOM      2  C3  UNL d   1       0.912   0.850  -0.609  0.00  0.00     0.002 A 
ATOM      3  C4  UNL d   1       1.656   1.900  -0.067  0.00  0.00     0.002 A 
ATOM      4  C5  UNL d   1       1.342   2.399   1.195  0.00  0.00    -0.004 A 
ATOM      5  C6  UNL d   1       0.280   1.854   1.916  0.00  0.00     0.002 A 
ATOM      6  C7  UNL d   1      -0.465   0.805   1.375  0.00  0.00     0.002 A 
ENDROOT
BRANCH   1   7
ATOM      7  C1  UNL d   1      -0.928  -0.872  -0.454  0.00  0.00     0.055 C 
ATOM      8  C   UNL d   1      -0.906  -0.868  -1.976  0.00  0.00     0.019 C 
ENDBRANCH   1   7
TORSDOF 1
ENDMDL
