MODEL 1
REMARK minimizedAffinity -3.67918181
REMARK minimizedRMSD -1
REMARK  1 active torsions:
REMARK  status: ('A' for Active; 'I' for Inactive)
REMARK    1  A    between atoms: C1_2  and  C2_3 
ROOT
ATOM      1  C2  UNL d   1       1.054   0.381  -0.010  0.00  0.00    -0.077 A 
ATOM      2  C3  UNL d   1       1.642   1.654   0.005  0.00  0.00     0.002 A 
ATOM      3  C4  UNL d   1       1.250   2.601   0.953  0.00  0.00     0.002 A 
ATOM      4  C5  UNL d   1       0.274   2.284   1.894  0.00  0.00    -0.004 A 
ATOM      5  C6  UNL d   1      -0.318   1.022   1.887  0.00  0.00     0.002 A 
ATOM      6  C7  UNL d   1       0.071   0.074   0.939  0.00  0.00     0.002 A 
ENDROOT
BRANCH   1   7
ATOM      7  C1  UNL d   1       1.510  -0.659  -1.000  0.00  0.00     0.055 C 
ATOM      8  C   UNL d   1       3.029  -0.737  -1.061  0.00  0.00     0.019 C 
ENDBRANCH   1   7
TORSDOF 1
ENDMDL
