MODEL 1
REMARK minimizedAffinity 6.38836908
REMARK minimizedRMSD -1
REMARK  0 active torsions:
REMARK  status: ('A' for Active; 'I' for Inactive)
ROOT
ATOM      1  O1  BZF d   1      -2.447   1.921   2.822  0.00  0.00    -0.204 OA
ATOM      2  C2  BZF d   1      -3.007   0.816   2.209  0.00  0.00     0.174 A 
ATOM      3  C3  BZF d   1      -2.049  -0.026   1.772  0.00  0.00    -0.012 A 
ATOM      4  C3A BZF d   1      -0.814   0.547   2.216  0.00  0.00    -0.107 A 
ATOM      5  C4  BZF d   1       0.492   0.165   2.102  0.00  0.00     0.055 A 
ATOM      6  C5  BZF d   1       1.464   0.985   2.582  0.00  0.00    -0.016 A 
ATOM      7  C6  BZF d   1       1.166   2.194   3.176  0.00  0.00     0.022 A 
ATOM      8  C7  BZF d   1      -0.115   2.613   3.315  0.00  0.00     0.029 A 
ATOM      9  C7A BZF d   1      -1.101   1.772   2.861  0.00  0.00     0.058 A 
ENDROOT
TORSDOF 0
ENDMDL
