MODEL 1
REMARK minimizedAffinity 5.79688883
REMARK minimizedRMSD -1
REMARK  0 active torsions:
REMARK  status: ('A' for Active; 'I' for Inactive)
ROOT
ATOM      1  O1  BZF d   1       0.524   0.721   2.998  0.00  0.00    -0.204 OA
ATOM      2  C2  BZF d   1       1.257   0.361   1.884  0.00  0.00     0.174 A 
ATOM      3  C3  BZF d   1       0.476   0.335   0.785  0.00  0.00    -0.012 A 
ATOM      4  C3A BZF d   1      -0.807   0.792   1.224  0.00  0.00    -0.107 A 
ATOM      5  C4  BZF d   1      -1.997   1.000   0.589  0.00  0.00     0.055 A 
ATOM      6  C5  BZF d   1      -3.078   1.380   1.319  0.00  0.00    -0.016 A 
ATOM      7  C6  BZF d   1      -3.006   1.557   2.685  0.00  0.00     0.022 A 
ATOM      8  C7  BZF d   1      -1.846   1.367   3.359  0.00  0.00     0.029 A 
ATOM      9  C7A BZF d   1      -0.743   1.015   2.619  0.00  0.00     0.058 A 
ENDROOT
TORSDOF 0
ENDMDL
