MODEL 1
REMARK minimizedAffinity 8.17374992
REMARK minimizedRMSD -1
REMARK  0 active torsions:
REMARK  status: ('A' for Active; 'I' for Inactive)
ROOT
ATOM      1  O1  BZF d   1      -2.452   1.936   2.409  0.00  0.00    -0.204 OA
ATOM      2  C2  BZF d   1      -2.927   1.201   1.340  0.00  0.00     0.174 A 
ATOM      3  C3  BZF d   1      -1.951   0.434   0.815  0.00  0.00    -0.012 A 
ATOM      4  C3A BZF d   1      -0.816   0.636   1.662  0.00  0.00    -0.107 A 
ATOM      5  C4  BZF d   1       0.454   0.135   1.667  0.00  0.00     0.055 A 
ATOM      6  C5  BZF d   1       1.342   0.592   2.589  0.00  0.00    -0.016 A 
ATOM      7  C6  BZF d   1       0.995   1.552   3.516  0.00  0.00     0.022 A 
ATOM      8  C7  BZF d   1      -0.254   2.076   3.555  0.00  0.00     0.029 A 
ATOM      9  C7A BZF d   1      -1.163   1.592   2.645  0.00  0.00     0.058 A 
ENDROOT
TORSDOF 0
ENDMDL
