MODEL 1
REMARK minimizedAffinity 5.11377478
REMARK minimizedRMSD -1
REMARK  0 active torsions:
REMARK  status: ('A' for Active; 'I' for Inactive)
ROOT
ATOM      1  O1  BZF d   1      -2.658   2.182   2.794  0.00  0.00    -0.204 OA
ATOM      2  C2  BZF d   1      -1.743   2.422   3.800  0.00  0.00     0.174 A 
ATOM      3  C3  BZF d   1      -0.629   1.683   3.620  0.00  0.00    -0.012 A 
ATOM      4  C3A BZF d   1      -0.825   1.004   2.376  0.00  0.00    -0.107 A 
ATOM      5  C4  BZF d   1      -0.061   0.135   1.651  0.00  0.00     0.055 A 
ATOM      6  C5  BZF d   1      -0.574  -0.404   0.513  0.00  0.00    -0.016 A 
ATOM      7  C6  BZF d   1      -1.846  -0.100   0.075  0.00  0.00     0.022 A 
ATOM      8  C7  BZF d   1      -2.639   0.761   0.759  0.00  0.00     0.029 A 
ATOM      9  C7A BZF d   1      -2.112   1.332   1.891  0.00  0.00     0.058 A 
ENDROOT
TORSDOF 0
ENDMDL
