MODEL 1
REMARK minimizedAffinity 7.21557617
REMARK minimizedRMSD -1
REMARK  0 active torsions:
REMARK  status: ('A' for Active; 'I' for Inactive)
ROOT
ATOM      1  O1  BZF d   1      -2.642   1.776   1.890  0.00  0.00    -0.204 OA
ATOM      2  C2  BZF d   1      -2.893   1.034   0.752  0.00  0.00     0.174 A 
ATOM      3  C3  BZF d   1      -1.804   0.322   0.395  0.00  0.00    -0.012 A 
ATOM      4  C3A BZF d   1      -0.841   0.568   1.424  0.00  0.00    -0.107 A 
ATOM      5  C4  BZF d   1       0.434   0.129   1.640  0.00  0.00     0.055 A 
ATOM      6  C5  BZF d   1       1.129   0.616   2.702  0.00  0.00    -0.016 A 
ATOM      7  C6  BZF d   1       0.583   1.545   3.563  0.00  0.00     0.022 A 
ATOM      8  C7  BZF d   1      -0.680   2.007   3.391  0.00  0.00     0.029 A 
ATOM      9  C7A BZF d   1      -1.396   1.492   2.339  0.00  0.00     0.058 A 
ENDROOT
TORSDOF 0
ENDMDL
