MODEL 1
REMARK minimizedAffinity 2.1566112
REMARK minimizedRMSD -1
REMARK  0 active torsions:
REMARK  status: ('A' for Active; 'I' for Inactive)
ROOT
ATOM      1  O1  BZF d   1       1.587  -0.521   3.218  0.00  0.00    -0.204 OA
ATOM      2  C2  BZF d   1       0.444   0.027   2.669  0.00  0.00     0.174 A 
ATOM      3  C3  BZF d   1       0.754   0.868   1.662  0.00  0.00    -0.012 A 
ATOM      4  C3A BZF d   1       2.174   0.774   1.516  0.00  0.00    -0.107 A 
ATOM      5  C4  BZF d   1       3.072   1.361   0.670  0.00  0.00     0.055 A 
ATOM      6  C5  BZF d   1       4.397   1.112   0.838  0.00  0.00    -0.016 A 
ATOM      7  C6  BZF d   1       4.859   0.287   1.842  0.00  0.00     0.022 A 
ATOM      8  C7  BZF d   1       4.007  -0.322   2.702  0.00  0.00     0.029 A 
ATOM      9  C7A BZF d   1       2.664  -0.098   2.515  0.00  0.00     0.058 A 
ENDROOT
TORSDOF 0
ENDMDL
