MODEL 1
REMARK minimizedAffinity 4.14262724
REMARK minimizedRMSD -1
REMARK  0 active torsions:
REMARK  status: ('A' for Active; 'I' for Inactive)
ROOT
ATOM      1  O1  BZF d   1       2.271   1.036  -5.900  0.00  0.00    -0.204 OA
ATOM      2  C2  BZF d   1       3.095   1.909  -5.215  0.00  0.00     0.174 A 
ATOM      3  C3  BZF d   1       3.694   1.287  -4.179  0.00  0.00    -0.012 A 
ATOM      4  C3A BZF d   1       3.286  -0.081  -4.274  0.00  0.00    -0.107 A 
ATOM      5  C4  BZF d   1       3.564  -1.197  -3.537  0.00  0.00     0.055 A 
ATOM      6  C5  BZF d   1       2.947  -2.366  -3.850  0.00  0.00    -0.016 A 
ATOM      7  C6  BZF d   1       2.043  -2.454  -4.889  0.00  0.00     0.022 A 
ATOM      8  C7  BZF d   1       1.739  -1.376  -5.652  0.00  0.00     0.029 A 
ATOM      9  C7A BZF d   1       2.387  -0.200  -5.358  0.00  0.00     0.058 A 
ENDROOT
TORSDOF 0
ENDMDL
