MODEL 1
REMARK minimizedAffinity 17.9792347
REMARK minimizedRMSD -1
REMARK  0 active torsions:
REMARK  status: ('A' for Active; 'I' for Inactive)
ROOT
ATOM      1  O1  BZF d   1      -2.036   2.071   1.982  0.00  0.00    -0.204 OA
ATOM      2  C2  BZF d   1      -2.797   1.442   1.016  0.00  0.00     0.174 A 
ATOM      3  C3  BZF d   1      -2.119   0.413   0.468  0.00  0.00    -0.012 A 
ATOM      4  C3A BZF d   1      -0.890   0.342   1.197  0.00  0.00    -0.107 A 
ATOM      5  C4  BZF d   1       0.195  -0.485   1.129  0.00  0.00     0.055 A 
ATOM      6  C5  BZF d   1       1.263  -0.241   1.934  0.00  0.00    -0.016 A 
ATOM      7  C6  BZF d   1       1.281   0.822   2.814  0.00  0.00     0.022 A 
ATOM      8  C7  BZF d   1       0.226   1.666   2.920  0.00  0.00     0.029 A 
ATOM      9  C7A BZF d   1      -0.868   1.403   2.131  0.00  0.00     0.058 A 
ENDROOT
TORSDOF 0
ENDMDL
