MODEL 1
REMARK minimizedAffinity 4.89979935
REMARK minimizedRMSD -1
REMARK  0 active torsions:
REMARK  status: ('A' for Active; 'I' for Inactive)
ROOT
ATOM      1  O1  BZF d   1      -2.748   1.989   2.338  0.00  0.00    -0.204 OA
ATOM      2  C2  BZF d   1      -2.929   0.947   1.448  0.00  0.00     0.174 A 
ATOM      3  C3  BZF d   1      -1.743   0.427   1.073  0.00  0.00    -0.012 A 
ATOM      4  C3A BZF d   1      -0.763   1.130   1.842  0.00  0.00    -0.107 A 
ATOM      5  C4  BZF d   1       0.598   1.052   1.926  0.00  0.00     0.055 A 
ATOM      6  C5  BZF d   1       1.262   1.932   2.721  0.00  0.00    -0.016 A 
ATOM      7  C6  BZF d   1       0.599   2.904   3.440  0.00  0.00     0.022 A 
ATOM      8  C7  BZF d   1      -0.751   3.018   3.393  0.00  0.00     0.029 A 
ATOM      9  C7A BZF d   1      -1.427   2.109   2.617  0.00  0.00     0.058 A 
ENDROOT
TORSDOF 0
ENDMDL
