MODEL 1
REMARK minimizedAffinity 7.20749044
REMARK minimizedRMSD -1
REMARK  0 active torsions:
REMARK  status: ('A' for Active; 'I' for Inactive)
ROOT
ATOM      1  O1  BZF d   1      -2.880   0.958   1.708  0.00  0.00    -0.204 OA
ATOM      2  C2  BZF d   1      -2.200   0.296   0.704  0.00  0.00     0.174 A 
ATOM      3  C3  BZF d   1      -0.868   0.361   0.905  0.00  0.00    -0.012 A 
ATOM      4  C3A BZF d   1      -0.710   1.031   2.160  0.00  0.00    -0.107 A 
ATOM      5  C4  BZF d   1       0.379   1.380   2.907  0.00  0.00     0.055 A 
ATOM      6  C5  BZF d   1       0.195   2.092   4.050  0.00  0.00    -0.016 A 
ATOM      7  C6  BZF d   1      -1.061   2.474   4.473  0.00  0.00     0.022 A 
ATOM      8  C7  BZF d   1      -2.172   2.147   3.768  0.00  0.00     0.029 A 
ATOM      9  C7A BZF d   1      -1.991   1.399   2.630  0.00  0.00     0.058 A 
ENDROOT
TORSDOF 0
ENDMDL
