MODEL 1
REMARK minimizedAffinity 5.44984388
REMARK minimizedRMSD -1
REMARK  0 active torsions:
REMARK  status: ('A' for Active; 'I' for Inactive)
ROOT
ATOM      1  O1  BZF d   1      -4.093   1.379   1.983  0.00  0.00    -0.204 OA
ATOM      2  C2  BZF d   1      -4.216   2.061   3.178  0.00  0.00     0.174 A 
ATOM      3  C3  BZF d   1      -3.004   2.292   3.724  0.00  0.00    -0.012 A 
ATOM      4  C3A BZF d   1      -2.061   1.799   2.767  0.00  0.00    -0.107 A 
ATOM      5  C4  BZF d   1      -0.696   1.758   2.729  0.00  0.00     0.055 A 
ATOM      6  C5  BZF d   1      -0.083   1.144   1.684  0.00  0.00    -0.016 A 
ATOM      7  C6  BZF d   1      -0.802   0.556   0.664  0.00  0.00     0.022 A 
ATOM      8  C7  BZF d   1      -2.157   0.576   0.655  0.00  0.00     0.029 A 
ATOM      9  C7A BZF d   1      -2.779   1.225   1.693  0.00  0.00     0.058 A 
ENDROOT
TORSDOF 0
ENDMDL
