MODEL 1
REMARK minimizedAffinity 9.65393734
REMARK minimizedRMSD -1
REMARK  0 active torsions:
REMARK  status: ('A' for Active; 'I' for Inactive)
ROOT
ATOM      1  O1  BZF d   1      -5.990  -2.165   3.468  0.00  0.00    -0.204 OA
ATOM      2  C2  BZF d   1      -5.983  -1.841   2.125  0.00  0.00     0.174 A 
ATOM      3  C3  BZF d   1      -5.999  -0.503   1.956  0.00  0.00    -0.012 A 
ATOM      4  C3A BZF d   1      -5.924   0.045   3.276  0.00  0.00    -0.107 A 
ATOM      5  C4  BZF d   1      -5.887   1.320   3.763  0.00  0.00     0.055 A 
ATOM      6  C5  BZF d   1      -5.888   1.514   5.108  0.00  0.00    -0.016 A 
ATOM      7  C6  BZF d   1      -5.932   0.457   5.994  0.00  0.00     0.022 A 
ATOM      8  C7  BZF d   1      -5.965  -0.826   5.558  0.00  0.00     0.029 A 
ATOM      9  C7A BZF d   1      -5.930  -1.026   4.200  0.00  0.00     0.058 A 
ENDROOT
TORSDOF 0
ENDMDL
