MODEL 1
REMARK minimizedAffinity 8.22760582
REMARK minimizedRMSD -1
REMARK  0 active torsions:
REMARK  status: ('A' for Active; 'I' for Inactive)
ROOT
ATOM      1  O1  BZF d   1       0.582   0.975   3.047  0.00  0.00    -0.204 OA
ATOM      2  C2  BZF d   1       1.340   0.252   2.146  0.00  0.00     0.174 A 
ATOM      3  C3  BZF d   1       0.582  -0.169   1.113  0.00  0.00    -0.012 A 
ATOM      4  C3A BZF d   1      -0.711   0.401   1.338  0.00  0.00    -0.107 A 
ATOM      5  C4  BZF d   1      -1.889   0.359   0.648  0.00  0.00     0.055 A 
ATOM      6  C5  BZF d   1      -2.986   0.963   1.176  0.00  0.00    -0.016 A 
ATOM      7  C6  BZF d   1      -2.942   1.612   2.393  0.00  0.00     0.022 A 
ATOM      8  C7  BZF d   1      -1.796   1.684   3.112  0.00  0.00     0.029 A 
ATOM      9  C7A BZF d   1      -0.677   1.104   2.565  0.00  0.00     0.058 A 
ENDROOT
TORSDOF 0
ENDMDL
