MODEL 1
REMARK minimizedAffinity 3.82709599
REMARK minimizedRMSD -1
REMARK  0 active torsions:
REMARK  status: ('A' for Active; 'I' for Inactive)
ROOT
ATOM      1  O1  BZF d   1      -3.076   1.409   1.087  0.00  0.00    -0.204 OA
ATOM      2  C2  BZF d   1      -2.848   0.336   0.247  0.00  0.00     0.174 A 
ATOM      3  C3  BZF d   1      -1.575  -0.095   0.357  0.00  0.00    -0.012 A 
ATOM      4  C3A BZF d   1      -0.995   0.704   1.394  0.00  0.00    -0.107 A 
ATOM      5  C4  BZF d   1       0.241   0.738   1.972  0.00  0.00     0.055 A 
ATOM      6  C5  BZF d   1       0.506   1.687   2.909  0.00  0.00    -0.016 A 
ATOM      7  C6  BZF d   1      -0.439   2.618   3.286  0.00  0.00     0.022 A 
ATOM      8  C7  BZF d   1      -1.681   2.621   2.744  0.00  0.00     0.029 A 
ATOM      9  C7A BZF d   1      -1.962   1.643   1.822  0.00  0.00     0.058 A 
ENDROOT
TORSDOF 0
ENDMDL
