MODEL 1
REMARK minimizedAffinity 0.037727695
REMARK minimizedRMSD -1
REMARK  1 active torsions:
REMARK  status: ('A' for Active; 'I' for Inactive)
REMARK    1  A    between atoms: N_2  and  C1_3 
ROOT
ATOM      1  C1  UNL d   1       4.755   1.932  -1.909  0.00  0.00     0.143 A 
ATOM      2  C2  UNL d   1       5.064   1.996  -0.546  0.00  0.00    -0.057 A 
ATOM      3  C3  UNL d   1       4.354   1.241   0.395  0.00  0.00     0.033 A 
ATOM      4  C4  UNL d   1       3.301   0.427  -0.008  0.00  0.00    -0.042 A 
ATOM      5  C5  UNL d   1       2.961   0.366  -1.355  0.00  0.00     0.033 A 
ATOM      6  C6  UNL d   1       3.677   1.117  -2.291  0.00  0.00    -0.057 A 
ENDROOT
BRANCH   1   7
ATOM      7  N   UNL d   1       5.359   2.732  -2.882  0.00  0.00    -0.732 N 
ATOM      8  C   UNL d   1       5.137   4.162  -2.902  0.00  0.00     0.284 C 
ATOM      9  H3  UNL d   1       6.321   2.458  -3.069  0.00  0.00     0.395 HD
ENDBRANCH   1   7
TORSDOF 1
ENDMDL
