MODEL 1
REMARK minimizedAffinity -3.60933018
REMARK minimizedRMSD -1
REMARK  1 active torsions:
REMARK  status: ('A' for Active; 'I' for Inactive)
REMARK    1  A    between atoms: N_2  and  C1_3 
ROOT
ATOM      1  C1  UNL d   1      -3.323   0.655  -4.094  0.00  0.00     0.143 A 
ATOM      2  C2  UNL d   1      -3.386   1.433  -5.256  0.00  0.00    -0.057 A 
ATOM      3  C3  UNL d   1      -4.568   1.533  -5.999  0.00  0.00     0.033 A 
ATOM      4  C4  UNL d   1      -5.704   0.831  -5.609  0.00  0.00    -0.042 A 
ATOM      5  C5  UNL d   1      -5.657   0.032  -4.472  0.00  0.00     0.033 A 
ATOM      6  C6  UNL d   1      -4.476  -0.058  -3.730  0.00  0.00    -0.057 A 
ENDROOT
BRANCH   1   7
ATOM      7  N   UNL d   1      -2.150   0.437  -3.367  0.00  0.00    -0.732 N 
ATOM      8  C   UNL d   1      -2.025  -0.713  -2.498  0.00  0.00     0.284 C 
ATOM      9  H3  UNL d   1      -1.314   0.642  -3.908  0.00  0.00     0.395 HD
ENDBRANCH   1   7
TORSDOF 1
ENDMDL
