MODEL 1
REMARK minimizedAffinity 7.18345547
REMARK minimizedRMSD -1
REMARK  1 active torsions:
REMARK  status: ('A' for Active; 'I' for Inactive)
REMARK    1  A    between atoms: N_2  and  C1_3 
ROOT
ATOM      1  C1  UNL d   1       4.123   1.222  -1.920  0.00  0.00     0.143 A 
ATOM      2  C2  UNL d   1       4.530   1.549  -0.621  0.00  0.00    -0.057 A 
ATOM      3  C3  UNL d   1       3.849   1.056   0.498  0.00  0.00     0.033 A 
ATOM      4  C4  UNL d   1       2.727   0.249   0.338  0.00  0.00    -0.042 A 
ATOM      5  C5  UNL d   1       2.290  -0.068  -0.943  0.00  0.00     0.033 A 
ATOM      6  C6  UNL d   1       2.979   0.422  -2.057  0.00  0.00    -0.057 A 
ENDROOT
BRANCH   1   7
ATOM      7  N   UNL d   1       4.699   1.760  -3.073  0.00  0.00    -0.732 N 
ATOM      8  C   UNL d   1       5.997   2.397  -3.021  0.00  0.00     0.284 C 
ATOM      9  H3  UNL d   1       4.559   1.169  -3.889  0.00  0.00     0.395 HD
ENDBRANCH   1   7
TORSDOF 1
ENDMDL
