MODEL 1
REMARK minimizedAffinity 2.87836051
REMARK minimizedRMSD -1
REMARK  1 active torsions:
REMARK  status: ('A' for Active; 'I' for Inactive)
REMARK    1  A    between atoms: N_2  and  C1_3 
ROOT
ATOM      1  C1  UNL d   1       0.448   1.905  -0.236  0.00  0.00     0.143 A 
ATOM      2  C2  UNL d   1      -0.788   2.204  -0.820  0.00  0.00    -0.057 A 
ATOM      3  C3  UNL d   1      -1.661   3.131  -0.238  0.00  0.00     0.033 A 
ATOM      4  C4  UNL d   1      -1.324   3.756   0.958  0.00  0.00    -0.042 A 
ATOM      5  C5  UNL d   1      -0.112   3.456   1.569  0.00  0.00     0.033 A 
ATOM      6  C6  UNL d   1       0.758   2.534   0.980  0.00  0.00    -0.057 A 
ENDROOT
BRANCH   1   7
ATOM      7  N   UNL d   1       1.315   0.920  -0.714  0.00  0.00    -0.732 N 
ATOM      8  C   UNL d   1       2.657   0.800  -0.185  0.00  0.00     0.284 C 
ATOM      9  H3  UNL d   1       0.847   0.030  -0.865  0.00  0.00     0.395 HD
ENDBRANCH   1   7
TORSDOF 1
ENDMDL
