MODEL 1
REMARK minimizedAffinity 3.07411003
REMARK minimizedRMSD -1
REMARK  1 active torsions:
REMARK  status: ('A' for Active; 'I' for Inactive)
REMARK    1  A    between atoms: N_2  and  C1_3 
ROOT
ATOM      1  C1  UNL d   1       1.942  -1.585  -2.859  0.00  0.00     0.143 A 
ATOM      2  C2  UNL d   1       2.725  -1.104  -3.914  0.00  0.00    -0.057 A 
ATOM      3  C3  UNL d   1       3.471   0.074  -3.786  0.00  0.00     0.033 A 
ATOM      4  C4  UNL d   1       3.424   0.809  -2.606  0.00  0.00    -0.042 A 
ATOM      5  C5  UNL d   1       2.633   0.363  -1.553  0.00  0.00     0.033 A 
ATOM      6  C6  UNL d   1       1.895  -0.817  -1.685  0.00  0.00    -0.057 A 
ENDROOT
BRANCH   1   7
ATOM      7  N   UNL d   1       1.101  -2.696  -2.959  0.00  0.00    -0.732 N 
ATOM      8  C   UNL d   1      -0.265  -2.631  -2.487  0.00  0.00     0.284 C 
ATOM      9  H3  UNL d   1       1.213  -3.190  -3.842  0.00  0.00     0.395 HD
ENDBRANCH   1   7
TORSDOF 1
ENDMDL
