MODEL 1
REMARK minimizedAffinity -4.29002142
REMARK minimizedRMSD -1
REMARK  1 active torsions:
REMARK  status: ('A' for Active; 'I' for Inactive)
REMARK    1  A    between atoms: N_2  and  C1_3 
ROOT
ATOM      1  C1  UNL d   1      -3.711   0.758  -3.673  0.00  0.00     0.143 A 
ATOM      2  C2  UNL d   1      -4.871   0.030  -3.386  0.00  0.00    -0.057 A 
ATOM      3  C3  UNL d   1      -6.000   0.109  -4.210  0.00  0.00     0.033 A 
ATOM      4  C4  UNL d   1      -6.000   0.943  -5.323  0.00  0.00    -0.042 A 
ATOM      5  C5  UNL d   1      -4.867   1.695  -5.613  0.00  0.00     0.033 A 
ATOM      6  C6  UNL d   1      -3.740   1.607  -4.790  0.00  0.00    -0.057 A 
ENDROOT
BRANCH   1   7
ATOM      7  N   UNL d   1      -2.591   0.798  -2.839  0.00  0.00    -0.732 N 
ATOM      8  C   UNL d   1      -2.058  -0.418  -2.262  0.00  0.00     0.284 C 
ATOM      9  H3  UNL d   1      -1.881   1.446  -3.172  0.00  0.00     0.395 HD
ENDBRANCH   1   7
TORSDOF 1
ENDMDL
