MODEL 1
REMARK minimizedAffinity 8.81806183
REMARK minimizedRMSD -1
REMARK  1 active torsions:
REMARK  status: ('A' for Active; 'I' for Inactive)
REMARK    1  A    between atoms: N_2  and  C1_3 
ROOT
ATOM      1  C1  UNL d   1      -0.559   3.046   0.166  0.00  0.00     0.143 A 
ATOM      2  C2  UNL d   1       0.325   3.020   1.250  0.00  0.00    -0.057 A 
ATOM      3  C3  UNL d   1       0.424   4.102   2.133  0.00  0.00     0.033 A 
ATOM      4  C4  UNL d   1      -0.342   5.245   1.930  0.00  0.00    -0.042 A 
ATOM      5  C5  UNL d   1      -1.209   5.304   0.844  0.00  0.00     0.033 A 
ATOM      6  C6  UNL d   1      -1.308   4.217  -0.030  0.00  0.00    -0.057 A 
ENDROOT
BRANCH   1   7
ATOM      7  N   UNL d   1      -0.632   2.042  -0.803  0.00  0.00    -0.732 N 
ATOM      8  C   UNL d   1      -1.825   1.235  -0.940  0.00  0.00     0.284 C 
ATOM      9  H3  UNL d   1      -0.218   2.326  -1.688  0.00  0.00     0.395 HD
ENDBRANCH   1   7
TORSDOF 1
ENDMDL
