MODEL 1
REMARK minimizedAffinity 14.6575937
REMARK minimizedRMSD -1
REMARK  0 active torsions:
REMARK  status: ('A' for Active; 'I' for Inactive)
ROOT
ATOM      1  C   UNL d   1      -1.494   0.117   1.819  0.00  0.00    -0.002 A 
ATOM      2  C1  UNL d   1      -2.606  -0.712   1.778  0.00  0.00     0.010 A 
ATOM      3  C2  UNL d   1      -3.878  -0.209   2.054  0.00  0.00     0.041 A 
ATOM      4  C3  UNL d   1      -4.017   1.157   2.373  0.00  0.00    -0.075 A 
ATOM      5  S   UNL d   1      -5.477   1.994   2.745  0.00  0.00     0.015 SA
ATOM      6  C4  UNL d   1      -4.659   3.473   2.967  0.00  0.00     0.022 A 
ATOM      7  C5  UNL d   1      -3.305   3.349   2.766  0.00  0.00     0.026 A 
ATOM      8  C6  UNL d   1      -2.912   2.012   2.419  0.00  0.00    -0.082 A 
ATOM      9  C7  UNL d   1      -1.635   1.471   2.136  0.00  0.00     0.045 A 
ENDROOT
TORSDOF 0
ENDMDL
