MODEL 1
REMARK minimizedAffinity 22.536747
REMARK minimizedRMSD -1
REMARK  0 active torsions:
REMARK  status: ('A' for Active; 'I' for Inactive)
ROOT
ATOM      1  C   UNL d   1       0.470  -3.035   1.116  0.00  0.00    -0.002 A 
ATOM      2  C1  UNL d   1       0.640  -3.516   2.407  0.00  0.00     0.010 A 
ATOM      3  C2  UNL d   1      -0.137  -3.022   3.457  0.00  0.00     0.041 A 
ATOM      4  C3  UNL d   1      -1.098  -2.029   3.185  0.00  0.00    -0.075 A 
ATOM      5  S   UNL d   1      -2.163  -1.276   4.313  0.00  0.00     0.015 SA
ATOM      6  C4  UNL d   1      -2.869  -0.299   3.108  0.00  0.00     0.022 A 
ATOM      7  C5  UNL d   1      -2.318  -0.528   1.870  0.00  0.00     0.026 A 
ATOM      8  C6  UNL d   1      -1.288  -1.529   1.893  0.00  0.00    -0.082 A 
ATOM      9  C7  UNL d   1      -0.484  -2.050   0.850  0.00  0.00     0.045 A 
ENDROOT
TORSDOF 0
ENDMDL
