MODEL 1
REMARK minimizedAffinity 17.3536205
REMARK minimizedRMSD -1
REMARK  0 active torsions:
REMARK  status: ('A' for Active; 'I' for Inactive)
ROOT
ATOM      1  C   UNL d   1      -2.675   1.872   1.350  0.00  0.00    -0.002 A 
ATOM      2  C1  UNL d   1      -1.312   2.095   1.217  0.00  0.00     0.010 A 
ATOM      3  C2  UNL d   1      -0.390   1.226   1.804  0.00  0.00     0.041 A 
ATOM      4  C3  UNL d   1      -0.865   0.118   2.532  0.00  0.00    -0.075 A 
ATOM      5  S   UNL d   1       0.079  -1.080   3.336  0.00  0.00     0.015 SA
ATOM      6  C4  UNL d   1      -1.305  -1.917   3.874  0.00  0.00     0.022 A 
ATOM      7  C5  UNL d   1      -2.467  -1.311   3.460  0.00  0.00     0.026 A 
ATOM      8  C6  UNL d   1      -2.233  -0.128   2.679  0.00  0.00    -0.082 A 
ATOM      9  C7  UNL d   1      -3.143   0.771   2.073  0.00  0.00     0.045 A 
ENDROOT
TORSDOF 0
ENDMDL
