MODEL 1
REMARK minimizedAffinity 18.0190201
REMARK minimizedRMSD -1
REMARK  0 active torsions:
REMARK  status: ('A' for Active; 'I' for Inactive)
ROOT
ATOM      1  C   UNL d   1       4.590   0.318   1.471  0.00  0.00    -0.002 A 
ATOM      2  C1  UNL d   1       3.598   0.786   2.320  0.00  0.00     0.010 A 
ATOM      3  C2  UNL d   1       2.435   1.362   1.805  0.00  0.00     0.041 A 
ATOM      4  C3  UNL d   1       2.284   1.459   0.408  0.00  0.00    -0.075 A 
ATOM      5  S   UNL d   1       0.945   2.126  -0.449  0.00  0.00     0.015 SA
ATOM      6  C4  UNL d   1       1.658   1.805  -1.963  0.00  0.00     0.022 A 
ATOM      7  C5  UNL d   1       2.887   1.204  -1.837  0.00  0.00     0.026 A 
ATOM      8  C6  UNL d   1       3.268   0.994  -0.468  0.00  0.00    -0.082 A 
ATOM      9  C7  UNL d   1       4.436   0.416   0.085  0.00  0.00     0.045 A 
ENDROOT
TORSDOF 0
ENDMDL
