MODEL 1
REMARK minimizedAffinity 9.45719051
REMARK minimizedRMSD -1
REMARK  0 active torsions:
REMARK  status: ('A' for Active; 'I' for Inactive)
ROOT
ATOM      1  C   UNL d   1       3.376   4.859  -3.962  0.00  0.00    -0.002 A 
ATOM      2  C1  UNL d   1       2.338   4.255  -3.268  0.00  0.00     0.010 A 
ATOM      3  C2  UNL d   1       2.031   2.909  -3.479  0.00  0.00     0.041 A 
ATOM      4  C3  UNL d   1       2.793   2.174  -4.407  0.00  0.00    -0.075 A 
ATOM      5  S   UNL d   1       2.599   0.513  -4.828  0.00  0.00     0.015 SA
ATOM      6  C4  UNL d   1       3.891   0.567  -5.939  0.00  0.00     0.022 A 
ATOM      7  C5  UNL d   1       4.467   1.813  -6.000  0.00  0.00     0.026 A 
ATOM      8  C6  UNL d   1       3.845   2.760  -5.118  0.00  0.00    -0.082 A 
ATOM      9  C7  UNL d   1       4.131   4.126  -4.882  0.00  0.00     0.045 A 
ENDROOT
TORSDOF 0
ENDMDL
