MODEL 1
REMARK minimizedAffinity 21.1781216
REMARK minimizedRMSD -1
REMARK  0 active torsions:
REMARK  status: ('A' for Active; 'I' for Inactive)
ROOT
ATOM      1  C   UNL d   1      -5.227   5.116   1.266  0.00  0.00    -0.002 A 
ATOM      2  C1  UNL d   1      -4.769   3.821   1.465  0.00  0.00     0.010 A 
ATOM      3  C2  UNL d   1      -4.685   3.289   2.753  0.00  0.00     0.041 A 
ATOM      4  C3  UNL d   1      -5.074   4.086   3.847  0.00  0.00    -0.075 A 
ATOM      5  S   UNL d   1      -5.058   3.644   5.514  0.00  0.00     0.015 SA
ATOM      6  C4  UNL d   1      -5.658   5.164   6.000  0.00  0.00     0.022 A 
ATOM      7  C5  UNL d   1      -5.871   6.000   4.930  0.00  0.00     0.026 A 
ATOM      8  C6  UNL d   1      -5.539   5.393   3.671  0.00  0.00    -0.082 A 
ATOM      9  C7  UNL d   1      -5.611   5.904   2.353  0.00  0.00     0.045 A 
ENDROOT
TORSDOF 0
ENDMDL
