MODEL 1
REMARK minimizedAffinity -3.35495925
REMARK minimizedRMSD -1
REMARK  0 active torsions:
REMARK  status: ('A' for Active; 'I' for Inactive)
ROOT
ATOM      1  C4' PXY d   1      -1.208  -2.053  -1.696  0.00  0.00     0.077 C 
ATOM      2  C1' PXY d   1       0.592   3.254  -0.279  0.00  0.00     0.077 C 
ATOM      3  C1  PXY d   1       0.131   1.857  -0.644  0.00  0.00    -0.082 A 
ATOM      4  C2  PXY d   1      -0.634   1.678  -1.709  0.00  0.00     0.003 A 
ATOM      5  C3  PXY d   1      -1.087   0.426  -2.035  0.00  0.00     0.003 A 
ATOM      6  C4  PXY d   1      -0.710  -0.662  -1.294  0.00  0.00    -0.082 A 
ATOM      7  C5  PXY d   1       0.079  -0.489  -0.213  0.00  0.00     0.003 A 
ATOM      8  C6  PXY d   1       0.494   0.795   0.126  0.00  0.00     0.003 A 
ENDROOT
TORSDOF 0
ENDMDL
