MODEL 1
REMARK minimizedAffinity -5.00269127
REMARK minimizedRMSD -1
REMARK  0 active torsions:
REMARK  status: ('A' for Active; 'I' for Inactive)
ROOT
ATOM      1  C4' PXY d   1      -0.420  -2.049  -0.437  0.00  0.00     0.077 C 
ATOM      2  C1' PXY d   1       0.568   3.591   0.357  0.00  0.00     0.077 C 
ATOM      3  C1  PXY d   1       0.299   2.112   0.156  0.00  0.00    -0.082 A 
ATOM      4  C2  PXY d   1       1.296   1.303  -0.163  0.00  0.00     0.003 A 
ATOM      5  C3  PXY d   1       1.064  -0.031  -0.379  0.00  0.00     0.003 A 
ATOM      6  C4  PXY d   1      -0.192  -0.551  -0.215  0.00  0.00    -0.082 A 
ATOM      7  C5  PXY d   1      -1.212   0.266   0.121  0.00  0.00     0.003 A 
ATOM      8  C6  PXY d   1      -0.964   1.624   0.295  0.00  0.00     0.003 A 
ENDROOT
TORSDOF 0
ENDMDL
