MODEL 1
REMARK minimizedAffinity -3.58978677
REMARK minimizedRMSD -1
REMARK  0 active torsions:
REMARK  status: ('A' for Active; 'I' for Inactive)
ROOT
ATOM      1  C4' PXY d   1      -0.336   3.751   0.050  0.00  0.00     0.077 C 
ATOM      2  C1' PXY d   1      -0.344  -2.028  -0.076  0.00  0.00     0.077 C 
ATOM      3  C1  PXY d   1      -0.354  -0.512  -0.041  0.00  0.00    -0.082 A 
ATOM      4  C2  PXY d   1       0.600   0.163  -0.661  0.00  0.00     0.003 A 
ATOM      5  C3  PXY d   1       0.623   1.533  -0.612  0.00  0.00     0.003 A 
ATOM      6  C4  PXY d   1      -0.370   2.221   0.033  0.00  0.00    -0.082 A 
ATOM      7  C5  PXY d   1      -1.353   1.539   0.658  0.00  0.00     0.003 A 
ATOM      8  C6  PXY d   1      -1.336   0.148   0.632  0.00  0.00     0.003 A 
ENDROOT
TORSDOF 0
ENDMDL
