MODEL 1
REMARK minimizedAffinity -1.00182486
REMARK minimizedRMSD -1
REMARK  0 active torsions:
REMARK  status: ('A' for Active; 'I' for Inactive)
ROOT
ATOM      1  C4' PXY d   1       3.329   1.434  -0.460  0.00  0.00     0.077 C 
ATOM      2  C1' PXY d   1      -2.332   1.088   0.661  0.00  0.00     0.077 C 
ATOM      3  C1  PXY d   1      -0.849   1.190   0.361  0.00  0.00    -0.082 A 
ATOM      4  C2  PXY d   1      -0.123   0.088   0.269  0.00  0.00     0.003 A 
ATOM      5  C3  PXY d   1       1.225   0.164   0.030  0.00  0.00     0.003 A 
ATOM      6  C4  PXY d   1       1.826   1.378  -0.168  0.00  0.00    -0.082 A 
ATOM      7  C5  PXY d   1       1.090   2.506  -0.086  0.00  0.00     0.003 A 
ATOM      8  C6  PXY d   1      -0.269   2.410   0.198  0.00  0.00     0.003 A 
ENDROOT
TORSDOF 0
ENDMDL
