MODEL 1
REMARK minimizedAffinity -4.55062485
REMARK minimizedRMSD -1
REMARK  0 active torsions:
REMARK  status: ('A' for Active; 'I' for Inactive)
ROOT
ATOM      1  C4' PXY d   1      -0.203  -1.734   0.657  0.00  0.00     0.077 C 
ATOM      2  C1' PXY d   1       0.669   3.925  -0.141  0.00  0.00     0.077 C 
ATOM      3  C1  PXY d   1       0.429   2.443   0.074  0.00  0.00    -0.082 A 
ATOM      4  C2  PXY d   1       1.458   1.613   0.116  0.00  0.00     0.003 A 
ATOM      5  C3  PXY d   1       1.257   0.267   0.278  0.00  0.00     0.003 A 
ATOM      6  C4  PXY d   1      -0.007  -0.229   0.451  0.00  0.00    -0.082 A 
ATOM      7  C5  PXY d   1      -1.062   0.613   0.420  0.00  0.00     0.003 A 
ATOM      8  C6  PXY d   1      -0.839   1.971   0.214  0.00  0.00     0.003 A 
ENDROOT
TORSDOF 0
ENDMDL
