MODEL 1
REMARK minimizedAffinity -4.01424646
REMARK minimizedRMSD -1
REMARK  0 active torsions:
REMARK  status: ('A' for Active; 'I' for Inactive)
ROOT
ATOM      1  C4' PXY d   1       0.091  -3.146  -1.911  0.00  0.00     0.077 C 
ATOM      2  C1' PXY d   1      -0.578   1.830   0.954  0.00  0.00     0.077 C 
ATOM      3  C1  PXY d   1      -0.396   0.520   0.212  0.00  0.00    -0.082 A 
ATOM      4  C2  PXY d   1      -0.473   0.500  -1.108  0.00  0.00     0.003 A 
ATOM      5  C3  PXY d   1      -0.342  -0.681  -1.793  0.00  0.00     0.003 A 
ATOM      6  C4  PXY d   1      -0.077  -1.845  -1.122  0.00  0.00    -0.082 A 
ATOM      7  C5  PXY d   1       0.014  -1.831   0.225  0.00  0.00     0.003 A 
ATOM      8  C6  PXY d   1      -0.162  -0.628   0.904  0.00  0.00     0.003 A 
ENDROOT
TORSDOF 0
ENDMDL
