MODEL 1
REMARK minimizedAffinity -1.78576016
REMARK minimizedRMSD -1
REMARK  0 active torsions:
REMARK  status: ('A' for Active; 'I' for Inactive)
ROOT
ATOM      1  C4' PXY d   1      -2.990   1.734   0.574  0.00  0.00     0.077 C 
ATOM      2  C1' PXY d   1       2.615   0.327   0.721  0.00  0.00     0.077 C 
ATOM      3  C1  PXY d   1       1.148   0.708   0.687  0.00  0.00    -0.082 A 
ATOM      4  C2  PXY d   1       0.225  -0.239   0.737  0.00  0.00     0.003 A 
ATOM      5  C3  PXY d   1      -1.106   0.086   0.675  0.00  0.00     0.003 A 
ATOM      6  C4  PXY d   1      -1.497   1.396   0.615  0.00  0.00    -0.082 A 
ATOM      7  C5  PXY d   1      -0.562   2.369   0.575  0.00  0.00     0.003 A 
ATOM      8  C6  PXY d   1       0.784   2.016   0.597  0.00  0.00     0.003 A 
ENDROOT
TORSDOF 0
ENDMDL
