MODEL 1
REMARK minimizedAffinity -3.89818811
REMARK minimizedRMSD -1
REMARK  0 active torsions:
REMARK  status: ('A' for Active; 'I' for Inactive)
ROOT
ATOM      1  C4' PXY d   1      -0.310  -2.253   1.019  0.00  0.00     0.077 C 
ATOM      2  C1' PXY d   1       0.525   3.302  -0.345  0.00  0.00     0.077 C 
ATOM      3  C1  PXY d   1       0.315   1.841   0.004  0.00  0.00    -0.082 A 
ATOM      4  C2  PXY d   1      -0.844   1.449   0.508  0.00  0.00     0.003 A 
ATOM      5  C3  PXY d   1      -1.039   0.138   0.859  0.00  0.00     0.003 A 
ATOM      6  C4  PXY d   1      -0.057  -0.791   0.643  0.00  0.00    -0.082 A 
ATOM      7  C5  PXY d   1       1.124  -0.400   0.119  0.00  0.00     0.003 A 
ATOM      8  C6  PXY d   1       1.317   0.942  -0.192  0.00  0.00     0.003 A 
ENDROOT
TORSDOF 0
ENDMDL
