MODEL 1
REMARK minimizedAffinity -5.75917625
REMARK minimizedRMSD -1
REMARK  0 active torsions:
REMARK  status: ('A' for Active; 'I' for Inactive)
ROOT
ATOM      1  C4' PXY d   1       0.199   3.628  -0.095  0.00  0.00     0.077 C 
ATOM      2  C1' PXY d   1       0.039  -2.147  -0.296  0.00  0.00     0.077 C 
ATOM      3  C1  PXY d   1       0.093  -0.633  -0.240  0.00  0.00    -0.082 A 
ATOM      4  C2  PXY d   1      -1.024   0.056  -0.073  0.00  0.00     0.003 A 
ATOM      5  C3  PXY d   1      -0.997   1.427  -0.051  0.00  0.00     0.003 A 
ATOM      6  C4  PXY d   1       0.193   2.098  -0.149  0.00  0.00    -0.082 A 
ATOM      7  C5  PXY d   1       1.338   1.401  -0.309  0.00  0.00     0.003 A 
ATOM      8  C6  PXY d   1       1.284   0.012  -0.369  0.00  0.00     0.003 A 
ENDROOT
TORSDOF 0
ENDMDL
