MODEL 1
REMARK minimizedAffinity -4.2251482
REMARK minimizedRMSD -1
REMARK  0 active torsions:
REMARK  status: ('A' for Active; 'I' for Inactive)
ROOT
ATOM      1  C4' PXY d   1       0.251  -2.068   0.376  0.00  0.00     0.077 C 
ATOM      2  C1' PXY d   1       0.231   3.697  -0.048  0.00  0.00     0.077 C 
ATOM      3  C1  PXY d   1       0.247   2.184   0.056  0.00  0.00    -0.082 A 
ATOM      4  C2  PXY d   1      -0.877   1.534   0.310  0.00  0.00     0.003 A 
ATOM      5  C3  PXY d   1      -0.875   0.169   0.439  0.00  0.00     0.003 A 
ATOM      6  C4  PXY d   1       0.281  -0.542   0.253  0.00  0.00    -0.082 A 
ATOM      7  C5  PXY d   1       1.429   0.113  -0.017  0.00  0.00     0.003 A 
ATOM      8  C6  PXY d   1       1.413   1.502  -0.103  0.00  0.00     0.003 A 
ENDROOT
TORSDOF 0
ENDMDL
