MODEL 1
REMARK minimizedAffinity -4.09171057
REMARK minimizedRMSD -1
REMARK  0 active torsions:
REMARK  status: ('A' for Active; 'I' for Inactive)
ROOT
ATOM      1  C4' PXY d   1       0.223   3.843  -0.081  0.00  0.00     0.077 C 
ATOM      2  C1' PXY d   1      -0.288  -1.912   0.106  0.00  0.00     0.077 C 
ATOM      3  C1  PXY d   1      -0.141  -0.404   0.057  0.00  0.00    -0.082 A 
ATOM      4  C2  PXY d   1      -1.112   0.363   0.524  0.00  0.00     0.003 A 
ATOM      5  C3  PXY d   1      -1.010   1.729   0.458  0.00  0.00     0.003 A 
ATOM      6  C4  PXY d   1       0.122   2.315  -0.043  0.00  0.00    -0.082 A 
ATOM      7  C5  PXY d   1       1.122   1.539  -0.512  0.00  0.00     0.003 A 
ATOM      8  C6  PXY d   1       0.980   0.155  -0.473  0.00  0.00     0.003 A 
ENDROOT
TORSDOF 0
ENDMDL
