MODEL 1
REMARK minimizedAffinity -4.76874304
REMARK minimizedRMSD -1
REMARK  0 active torsions:
REMARK  status: ('A' for Active; 'I' for Inactive)
ROOT
ATOM      1  C4' PXY d   1      -0.038  -2.066  -0.806  0.00  0.00     0.077 C 
ATOM      2  C1' PXY d   1       0.454   3.637   0.001  0.00  0.00     0.077 C 
ATOM      3  C1  PXY d   1       0.336   2.141  -0.218  0.00  0.00    -0.082 A 
ATOM      4  C2  PXY d   1      -0.847   1.556  -0.115  0.00  0.00     0.003 A 
ATOM      5  C3  PXY d   1      -0.966   0.200  -0.278  0.00  0.00     0.003 A 
ATOM      6  C4  PXY d   1       0.127  -0.558  -0.602  0.00  0.00    -0.082 A 
ATOM      7  C5  PXY d   1       1.335   0.033  -0.720  0.00  0.00     0.003 A 
ATOM      8  C6  PXY d   1       1.442   1.405  -0.510  0.00  0.00     0.003 A 
ENDROOT
TORSDOF 0
ENDMDL
