MODEL 1
REMARK minimizedAffinity -4.41310835
REMARK minimizedRMSD -1
REMARK  0 active torsions:
REMARK  status: ('A' for Active; 'I' for Inactive)
ROOT
ATOM      1  C4' PXY d   1      -1.247  -2.941  -0.347  0.00  0.00     0.077 C 
ATOM      2  C1' PXY d   1       0.831   2.449  -0.137  0.00  0.00     0.077 C 
ATOM      3  C1  PXY d   1       0.280   1.037  -0.181  0.00  0.00    -0.082 A 
ATOM      4  C2  PXY d   1       0.910   0.110  -0.884  0.00  0.00     0.003 A 
ATOM      5  C3  PXY d   1       0.408  -1.163  -0.960  0.00  0.00     0.003 A 
ATOM      6  C4  PXY d   1      -0.722  -1.505  -0.266  0.00  0.00    -0.082 A 
ATOM      7  C5  PXY d   1      -1.364  -0.568   0.462  0.00  0.00     0.003 A 
ATOM      8  C6  PXY d   1      -0.861   0.729   0.493  0.00  0.00     0.003 A 
ENDROOT
TORSDOF 0
ENDMDL
