MODEL 1
REMARK minimizedAffinity -3.86248279
REMARK minimizedRMSD -1
REMARK  0 active torsions:
REMARK  status: ('A' for Active; 'I' for Inactive)
ROOT
ATOM      1  C4' PXY d   1       0.423   1.018   0.131  0.00  0.00     0.077 C 
ATOM      2  C1' PXY d   1      -0.733  -3.897  -2.683  0.00  0.00     0.077 C 
ATOM      3  C1  PXY d   1      -0.435  -2.613  -1.935  0.00  0.00    -0.082 A 
ATOM      4  C2  PXY d   1      -0.287  -1.483  -2.607  0.00  0.00     0.003 A 
ATOM      5  C3  PXY d   1       0.014  -0.318  -1.948  0.00  0.00     0.003 A 
ATOM      6  C4  PXY d   1       0.113  -0.300  -0.583  0.00  0.00    -0.082 A 
ATOM      7  C5  PXY d   1      -0.048  -1.447   0.111  0.00  0.00     0.003 A 
ATOM      8  C6  PXY d   1      -0.313  -2.626  -0.579  0.00  0.00     0.003 A 
ENDROOT
TORSDOF 0
ENDMDL
