MODEL 1
REMARK minimizedAffinity -5.61415434
REMARK minimizedRMSD -1
REMARK  0 active torsions:
REMARK  status: ('A' for Active; 'I' for Inactive)
ROOT
ATOM      1  C4' PXY d   1       0.636   3.503   0.264  0.00  0.00     0.077 C 
ATOM      2  C1' PXY d   1      -0.540  -2.074  -0.697  0.00  0.00     0.077 C 
ATOM      3  C1  PXY d   1      -0.245  -0.609  -0.445  0.00  0.00    -0.082 A 
ATOM      4  C2  PXY d   1       0.945  -0.119  -0.753  0.00  0.00     0.003 A 
ATOM      5  C3  PXY d   1       1.240   1.196  -0.503  0.00  0.00     0.003 A 
ATOM      6  C4  PXY d   1       0.290   2.032   0.019  0.00  0.00    -0.082 A 
ATOM      7  C5  PXY d   1      -0.930   1.543   0.326  0.00  0.00     0.003 A 
ATOM      8  C6  PXY d   1      -1.196   0.195   0.103  0.00  0.00     0.003 A 
ENDROOT
TORSDOF 0
ENDMDL
