MODEL 1
REMARK minimizedAffinity -5.92396927
REMARK minimizedRMSD -1
REMARK  0 active torsions:
REMARK  status: ('A' for Active; 'I' for Inactive)
ROOT
ATOM      1  C4' PXY d   1       0.798   3.322   0.257  0.00  0.00     0.077 C 
ATOM      2  C1' PXY d   1      -0.337  -2.335  -0.087  0.00  0.00     0.077 C 
ATOM      3  C1  PXY d   1      -0.028  -0.854   0.009  0.00  0.00    -0.082 A 
ATOM      4  C2  PXY d   1      -1.018   0.024  -0.022  0.00  0.00     0.003 A 
ATOM      5  C3  PXY d   1      -0.754   1.368   0.032  0.00  0.00     0.003 A 
ATOM      6  C4  PXY d   1       0.532   1.817   0.172  0.00  0.00    -0.082 A 
ATOM      7  C5  PXY d   1       1.546   0.927   0.215  0.00  0.00     0.003 A 
ATOM      8  C6  PXY d   1       1.261  -0.432   0.118  0.00  0.00     0.003 A 
ENDROOT
TORSDOF 0
ENDMDL
