MODEL 1
REMARK minimizedAffinity 2.41723013
REMARK minimizedRMSD -1
REMARK  0 active torsions:
REMARK  status: ('A' for Active; 'I' for Inactive)
ROOT
ATOM      1  C4' PXY d   1      -1.328   2.987   2.509  0.00  0.00     0.077 C 
ATOM      2  C1' PXY d   1      -0.431  -1.701  -0.752  0.00  0.00     0.077 C 
ATOM      3  C1  PXY d   1      -0.657  -0.465   0.096  0.00  0.00    -0.082 A 
ATOM      4  C2  PXY d   1      -1.153  -0.591   1.316  0.00  0.00     0.003 A 
ATOM      5  C3  PXY d   1      -1.394   0.518   2.085  0.00  0.00     0.003 A 
ATOM      6  C4  PXY d   1      -1.074   1.766   1.620  0.00  0.00    -0.082 A 
ATOM      7  C5  PXY d   1      -0.558   1.902   0.380  0.00  0.00     0.003 A 
ATOM      8  C6  PXY d   1      -0.359   0.767  -0.400  0.00  0.00     0.003 A 
ENDROOT
TORSDOF 0
ENDMDL
