MODEL 1
REMARK minimizedAffinity -5.40424919
REMARK minimizedRMSD -1
REMARK  0 active torsions:
REMARK  status: ('A' for Active; 'I' for Inactive)
ROOT
ATOM      1  C4' PXY d   1      -0.680  -1.985   0.880  0.00  0.00     0.077 C 
ATOM      2  C1' PXY d   1       0.467   3.608  -0.024  0.00  0.00     0.077 C 
ATOM      3  C1  PXY d   1       0.177   2.138   0.206  0.00  0.00    -0.082 A 
ATOM      4  C2  PXY d   1      -1.063   1.746   0.449  0.00  0.00     0.003 A 
ATOM      5  C3  PXY d   1      -1.338   0.425   0.691  0.00  0.00     0.003 A 
ATOM      6  C4  PXY d   1      -0.342  -0.512   0.632  0.00  0.00    -0.082 A 
ATOM      7  C5  PXY d   1       0.924  -0.122   0.374  0.00  0.00     0.003 A 
ATOM      8  C6  PXY d   1       1.189   1.230   0.172  0.00  0.00     0.003 A 
ENDROOT
TORSDOF 0
ENDMDL
