MODEL 1
REMARK minimizedAffinity -5.81148195
REMARK minimizedRMSD -1
REMARK  0 active torsions:
REMARK  status: ('A' for Active; 'I' for Inactive)
ROOT
ATOM      1  C4' PXY d   1       1.781   4.129   0.392  0.00  0.00     0.077 C 
ATOM      2  C1' PXY d   1       0.258  -1.406  -0.288  0.00  0.00     0.077 C 
ATOM      3  C1  PXY d   1       0.646   0.049  -0.115  0.00  0.00    -0.082 A 
ATOM      4  C2  PXY d   1       1.924   0.378  -0.016  0.00  0.00     0.003 A 
ATOM      5  C3  PXY d   1       2.291   1.686   0.172  0.00  0.00     0.003 A 
ATOM      6  C4  PXY d   1       1.343   2.673   0.207  0.00  0.00    -0.082 A 
ATOM      7  C5  PXY d   1       0.038   2.347   0.096  0.00  0.00     0.003 A 
ATOM      8  C6  PXY d   1      -0.316   1.010  -0.054  0.00  0.00     0.003 A 
ENDROOT
TORSDOF 0
ENDMDL
