MODEL 1
REMARK minimizedAffinity -3.8503108
REMARK minimizedRMSD -1
REMARK  0 active torsions:
REMARK  status: ('A' for Active; 'I' for Inactive)
ROOT
ATOM      1  C4' PXY d   1      -0.411  -2.866  -1.672  0.00  0.00     0.077 C 
ATOM      2  C1' PXY d   1      -0.475   2.210   1.092  0.00  0.00     0.077 C 
ATOM      3  C1  PXY d   1      -0.446   0.877   0.371  0.00  0.00    -0.082 A 
ATOM      4  C2  PXY d   1      -1.260   0.668  -0.652  0.00  0.00     0.003 A 
ATOM      5  C3  PXY d   1      -1.269  -0.543  -1.294  0.00  0.00     0.003 A 
ATOM      6  C4  PXY d   1      -0.400  -1.532  -0.921  0.00  0.00    -0.082 A 
ATOM      7  C5  PXY d   1       0.441  -1.323   0.115  0.00  0.00     0.003 A 
ATOM      8  C6  PXY d   1       0.406  -0.102   0.781  0.00  0.00     0.003 A 
ENDROOT
TORSDOF 0
ENDMDL
