MODEL 1
REMARK minimizedAffinity -3.44513559
REMARK minimizedRMSD -1
REMARK  2 active torsions:
REMARK  status: ('A' for Active; 'I' for Inactive)
REMARK    1  A    between atoms: C2'_3  and  C1'_4 
REMARK    2  A    between atoms: C1'_4  and  C1_5 
ROOT
ATOM      1  C1  I4B d   1       0.159   0.921  -0.593  0.00  0.00    -0.075 A 
ATOM      2  C2  I4B d   1       1.471   1.261  -0.812  0.00  0.00     0.003 A 
ATOM      3  C3  I4B d   1       1.825   2.049  -1.934  0.00  0.00     0.002 A 
ATOM      4  C4  I4B d   1       0.849   2.430  -2.832  0.00  0.00    -0.004 A 
ATOM      5  C5  I4B d   1      -0.483   2.104  -2.596  0.00  0.00     0.002 A 
ATOM      6  C6  I4B d   1      -0.833   1.355  -1.463  0.00  0.00     0.003 A 
ENDROOT
BRANCH   1   7
ATOM      7  C1' I4B d   1      -0.175   0.059   0.583  0.00  0.00     0.060 C 
BRANCH   7   8
ATOM      8  C2' I4B d   1       0.225  -1.363   0.249  0.00  0.00    -0.013 C 
ATOM      9  C4' I4B d   1       1.723  -1.510   0.197  0.00  0.00     0.013 C 
ATOM     10  C3' I4B d   1      -0.371  -2.268   1.286  0.00  0.00     0.013 C 
ENDBRANCH   7   8
ENDBRANCH   1   7
TORSDOF 2
ENDMDL
