MODEL 1
REMARK minimizedAffinity -2.85543799
REMARK minimizedRMSD -1
REMARK  2 active torsions:
REMARK  status: ('A' for Active; 'I' for Inactive)
REMARK    1  A    between atoms: C2'_3  and  C1'_4 
REMARK    2  A    between atoms: C1'_4  and  C1_5 
ROOT
ATOM      1  C1  I4B d   1       0.918   0.832  -0.338  0.00  0.00    -0.075 A 
ATOM      2  C2  I4B d   1      -0.377   0.824   0.116  0.00  0.00     0.003 A 
ATOM      3  C3  I4B d   1      -0.923  -0.347   0.695  0.00  0.00     0.002 A 
ATOM      4  C4  I4B d   1      -0.161  -1.495   0.753  0.00  0.00    -0.004 A 
ATOM      5  C5  I4B d   1       1.160  -1.480   0.313  0.00  0.00     0.002 A 
ATOM      6  C6  I4B d   1       1.707  -0.306  -0.225  0.00  0.00     0.003 A 
ENDROOT
BRANCH   1   7
ATOM      7  C1' I4B d   1       1.452   2.076  -0.974  0.00  0.00     0.060 C 
BRANCH   7   8
ATOM      8  C2' I4B d   1       1.459   1.867  -2.474  0.00  0.00    -0.013 C 
ATOM      9  C4' I4B d   1       0.184   2.368  -3.101  0.00  0.00     0.013 C 
ATOM     10  C3' I4B d   1       2.654   2.580  -3.035  0.00  0.00     0.013 C 
ENDBRANCH   7   8
ENDBRANCH   1   7
TORSDOF 2
ENDMDL
