MODEL 1
REMARK minimizedAffinity -6.46521664
REMARK minimizedRMSD -1
REMARK  2 active torsions:
REMARK  status: ('A' for Active; 'I' for Inactive)
REMARK    1  A    between atoms: C2'_3  and  C1'_4 
REMARK    2  A    between atoms: C1'_4  and  C1_5 
ROOT
ATOM      1  C1  I4B d   1      -0.331  -0.876   0.567  0.00  0.00    -0.075 A 
ATOM      2  C2  I4B d   1      -0.026  -2.201   0.756  0.00  0.00     0.003 A 
ATOM      3  C3  I4B d   1      -1.037  -3.118   1.132  0.00  0.00     0.002 A 
ATOM      4  C4  I4B d   1      -2.320  -2.662   1.356  0.00  0.00    -0.004 A 
ATOM      5  C5  I4B d   1      -2.632  -1.323   1.142  0.00  0.00     0.002 A 
ATOM      6  C6  I4B d   1      -1.635  -0.426   0.733  0.00  0.00     0.003 A 
ENDROOT
BRANCH   1   7
ATOM      7  C1' I4B d   1       0.767   0.072   0.202  0.00  0.00     0.060 C 
BRANCH   7   8
ATOM      8  C2' I4B d   1       0.136   1.298  -0.426  0.00  0.00    -0.013 C 
ATOM      9  C4' I4B d   1       0.058   2.435   0.558  0.00  0.00     0.013 C 
ATOM     10  C3' I4B d   1       0.953   1.675  -1.626  0.00  0.00     0.013 C 
ENDBRANCH   7   8
ENDBRANCH   1   7
TORSDOF 2
ENDMDL
