MODEL 1
REMARK minimizedAffinity -2.19950294
REMARK minimizedRMSD -1
REMARK  2 active torsions:
REMARK  status: ('A' for Active; 'I' for Inactive)
REMARK    1  A    between atoms: C2'_3  and  C1'_4 
REMARK    2  A    between atoms: C1'_4  and  C1_5 
ROOT
ATOM      1  C1  I4B d   1       0.590   0.312  -0.456  0.00  0.00    -0.075 A 
ATOM      2  C2  I4B d   1      -0.746   0.316  -0.143  0.00  0.00     0.003 A 
ATOM      3  C3  I4B d   1      -1.327  -0.795   0.517  0.00  0.00     0.002 A 
ATOM      4  C4  I4B d   1      -0.550  -1.900   0.798  0.00  0.00    -0.004 A 
ATOM      5  C5  I4B d   1       0.809  -1.892   0.501  0.00  0.00     0.002 A 
ATOM      6  C6  I4B d   1       1.386  -0.775  -0.119  0.00  0.00     0.003 A 
ENDROOT
BRANCH   1   7
ATOM      7  C1' I4B d   1       1.163   1.487  -1.183  0.00  0.00     0.060 C 
BRANCH   7   8
ATOM      8  C2' I4B d   1       0.653   1.449  -2.609  0.00  0.00    -0.013 C 
ATOM      9  C4' I4B d   1      -0.387   2.513  -2.845  0.00  0.00     0.013 C 
ATOM     10  C3' I4B d   1       1.826   1.625  -3.526  0.00  0.00     0.013 C 
ENDBRANCH   7   8
ENDBRANCH   1   7
TORSDOF 2
ENDMDL
