MODEL 1
REMARK minimizedAffinity -0.996923625
REMARK minimizedRMSD -1
REMARK  2 active torsions:
REMARK  status: ('A' for Active; 'I' for Inactive)
REMARK    1  A    between atoms: C2'_3  and  C1'_4 
REMARK    2  A    between atoms: C1'_4  and  C1_5 
ROOT
ATOM      1  C1  I4B d   1       0.142   0.034   0.203  0.00  0.00    -0.075 A 
ATOM      2  C2  I4B d   1      -1.165  -0.257   0.504  0.00  0.00     0.003 A 
ATOM      3  C3  I4B d   1      -1.517  -1.544   0.979  0.00  0.00     0.002 A 
ATOM      4  C4  I4B d   1      -0.544  -2.517   1.089  0.00  0.00    -0.004 A 
ATOM      5  C5  I4B d   1       0.784  -2.213   0.805  0.00  0.00     0.002 A 
ATOM      6  C6  I4B d   1       1.132  -0.926   0.371  0.00  0.00     0.003 A 
ENDROOT
BRANCH   1   7
ATOM      7  C1' I4B d   1       0.474   1.393  -0.327  0.00  0.00     0.060 C 
BRANCH   7   8
ATOM      8  C2' I4B d   1       1.035   1.225  -1.724  0.00  0.00    -0.013 C 
ATOM      9  C4' I4B d   1       0.034   1.642  -2.769  0.00  0.00     0.013 C 
ATOM     10  C3' I4B d   1       2.290   2.041  -1.821  0.00  0.00     0.013 C 
ENDBRANCH   7   8
ENDBRANCH   1   7
TORSDOF 2
ENDMDL
