MODEL 1
REMARK minimizedAffinity -4.17359686
REMARK minimizedRMSD -1
REMARK  2 active torsions:
REMARK  status: ('A' for Active; 'I' for Inactive)
REMARK    1  A    between atoms: C2'_3  and  C1'_4 
REMARK    2  A    between atoms: C1'_4  and  C1_5 
ROOT
ATOM      1  C1  I4B d   1      -0.035   1.074  -0.403  0.00  0.00    -0.075 A 
ATOM      2  C2  I4B d   1      -0.849   1.809   0.422  0.00  0.00     0.003 A 
ATOM      3  C3  I4B d   1      -1.844   1.166   1.198  0.00  0.00     0.002 A 
ATOM      4  C4  I4B d   1      -2.023  -0.197   1.080  0.00  0.00    -0.004 A 
ATOM      5  C5  I4B d   1      -1.182  -0.943   0.261  0.00  0.00     0.002 A 
ATOM      6  C6  I4B d   1      -0.173  -0.306  -0.476  0.00  0.00     0.003 A 
ENDROOT
BRANCH   1   7
ATOM      7  C1' I4B d   1       0.984   1.788  -1.233  0.00  0.00     0.060 C 
BRANCH   7   8
ATOM      8  C2' I4B d   1       0.530   1.735  -2.677  0.00  0.00    -0.013 C 
ATOM      9  C4' I4B d   1      -0.245   2.971  -3.050  0.00  0.00     0.013 C 
ATOM     10  C3' I4B d   1       1.747   1.578  -3.540  0.00  0.00     0.013 C 
ENDBRANCH   7   8
ENDBRANCH   1   7
TORSDOF 2
ENDMDL
