MODEL 1
REMARK minimizedAffinity -1.85052395
REMARK minimizedRMSD -1
REMARK  2 active torsions:
REMARK  status: ('A' for Active; 'I' for Inactive)
REMARK    1  A    between atoms: C2'_3  and  C1'_4 
REMARK    2  A    between atoms: C1'_4  and  C1_5 
ROOT
ATOM      1  C1  I4B d   1       0.672   0.608  -0.071  0.00  0.00    -0.075 A 
ATOM      2  C2  I4B d   1      -0.630   0.274   0.207  0.00  0.00     0.003 A 
ATOM      3  C3  I4B d   1      -0.950  -1.029   0.659  0.00  0.00     0.002 A 
ATOM      4  C4  I4B d   1       0.049  -1.974   0.771  0.00  0.00    -0.004 A 
ATOM      5  C5  I4B d   1       1.371  -1.627   0.511  0.00  0.00     0.002 A 
ATOM      6  C6  I4B d   1       1.687  -0.324   0.099  0.00  0.00     0.003 A 
ENDROOT
BRANCH   1   7
ATOM      7  C1' I4B d   1       0.970   1.984  -0.578  0.00  0.00     0.060 C 
BRANCH   7   8
ATOM      8  C2' I4B d   1       1.190   1.892  -2.075  0.00  0.00    -0.013 C 
ATOM      9  C4' I4B d   1       0.145   2.672  -2.828  0.00  0.00     0.013 C 
ATOM     10  C3' I4B d   1       2.568   2.403  -2.373  0.00  0.00     0.013 C 
ENDBRANCH   7   8
ENDBRANCH   1   7
TORSDOF 2
ENDMDL
