MODEL 1
REMARK minimizedAffinity -3.7250762
REMARK minimizedRMSD -1
REMARK  2 active torsions:
REMARK  status: ('A' for Active; 'I' for Inactive)
REMARK    1  A    between atoms: C2'_3  and  C1'_4 
REMARK    2  A    between atoms: C1'_4  and  C1_5 
ROOT
ATOM      1  C1  I4B d   1       0.772   2.149  -1.275  0.00  0.00    -0.075 A 
ATOM      2  C2  I4B d   1       1.880   1.676  -1.934  0.00  0.00     0.003 A 
ATOM      3  C3  I4B d   1       2.072   1.968  -3.306  0.00  0.00     0.002 A 
ATOM      4  C4  I4B d   1       1.112   2.688  -3.988  0.00  0.00    -0.004 A 
ATOM      5  C5  I4B d   1       0.001   3.185  -3.314  0.00  0.00     0.002 A 
ATOM      6  C6  I4B d   1      -0.164   2.925  -1.946  0.00  0.00     0.003 A 
ENDROOT
BRANCH   1   7
ATOM      7  C1' I4B d   1       0.585   1.794   0.166  0.00  0.00     0.060 C 
BRANCH   7   8
ATOM      8  C2' I4B d   1      -0.182   0.489   0.229  0.00  0.00    -0.013 C 
ATOM      9  C4' I4B d   1       0.670  -0.617   0.794  0.00  0.00     0.013 C 
ATOM     10  C3' I4B d   1      -1.406   0.711   1.067  0.00  0.00     0.013 C 
ENDBRANCH   7   8
ENDBRANCH   1   7
TORSDOF 2
ENDMDL
