MODEL 1
REMARK minimizedAffinity -2.98538184
REMARK minimizedRMSD -1
REMARK  2 active torsions:
REMARK  status: ('A' for Active; 'I' for Inactive)
REMARK    1  A    between atoms: C2'_3  and  C1'_4 
REMARK    2  A    between atoms: C1'_4  and  C1_5 
ROOT
ATOM      1  C1  I4B d   1       0.179   0.128   0.199  0.00  0.00    -0.075 A 
ATOM      2  C2  I4B d   1      -1.163  -0.127   0.326  0.00  0.00     0.003 A 
ATOM      3  C3  I4B d   1      -1.616  -1.440   0.605  0.00  0.00     0.002 A 
ATOM      4  C4  I4B d   1      -0.701  -2.469   0.698  0.00  0.00    -0.004 A 
ATOM      5  C5  I4B d   1       0.661  -2.204   0.592  0.00  0.00     0.002 A 
ATOM      6  C6  I4B d   1       1.105  -0.895   0.353  0.00  0.00     0.003 A 
ENDROOT
BRANCH   1   7
ATOM      7  C1' I4B d   1       0.620   1.519  -0.128  0.00  0.00     0.060 C 
BRANCH   7   8
ATOM      8  C2' I4B d   1       0.552   1.689  -1.633  0.00  0.00    -0.013 C 
ATOM      9  C4' I4B d   1      -0.612   2.557  -2.031  0.00  0.00     0.013 C 
ATOM     10  C3' I4B d   1       1.851   2.281  -2.091  0.00  0.00     0.013 C 
ENDBRANCH   7   8
ENDBRANCH   1   7
TORSDOF 2
ENDMDL
