MODEL 1
REMARK minimizedAffinity -4.33672667
REMARK minimizedRMSD -1
REMARK  2 active torsions:
REMARK  status: ('A' for Active; 'I' for Inactive)
REMARK    1  A    between atoms: C2'_3  and  C1'_4 
REMARK    2  A    between atoms: C1'_4  and  C1_5 
ROOT
ATOM      1  C1  I4B d   1      -1.390  -1.313   0.781  0.00  0.00    -0.075 A 
ATOM      2  C2  I4B d   1      -1.897  -0.042   0.894  0.00  0.00     0.003 A 
ATOM      3  C3  I4B d   1      -3.007   0.210   1.737  0.00  0.00     0.002 A 
ATOM      4  C4  I4B d   1      -3.606  -0.839   2.404  0.00  0.00    -0.004 A 
ATOM      5  C5  I4B d   1      -3.076  -2.123   2.306  0.00  0.00     0.002 A 
ATOM      6  C6  I4B d   1      -1.954  -2.359   1.499  0.00  0.00     0.003 A 
ENDROOT
BRANCH   1   7
ATOM      7  C1' I4B d   1      -0.238  -1.549  -0.143  0.00  0.00     0.060 C 
BRANCH   7   8
ATOM      8  C2' I4B d   1       0.896  -0.638   0.281  0.00  0.00    -0.013 C 
ATOM      9  C4' I4B d   1       2.183  -1.404   0.436  0.00  0.00     0.013 C 
ATOM     10  C3' I4B d   1       1.030   0.444  -0.749  0.00  0.00     0.013 C 
ENDBRANCH   7   8
ENDBRANCH   1   7
TORSDOF 2
ENDMDL
