MODEL 1
REMARK minimizedAffinity -4.5076251
REMARK minimizedRMSD -1
REMARK  2 active torsions:
REMARK  status: ('A' for Active; 'I' for Inactive)
REMARK    1  A    between atoms: C2'_3  and  C1'_4 
REMARK    2  A    between atoms: C1'_4  and  C1_5 
ROOT
ATOM      1  C1  I4B d   1       0.233   0.533   0.019  0.00  0.00    -0.075 A 
ATOM      2  C2  I4B d   1       1.373  -0.224   0.132  0.00  0.00     0.003 A 
ATOM      3  C3  I4B d   1       1.289  -1.590   0.493  0.00  0.00     0.002 A 
ATOM      4  C4  I4B d   1       0.057  -2.143   0.779  0.00  0.00    -0.004 A 
ATOM      5  C5  I4B d   1      -1.099  -1.381   0.641  0.00  0.00     0.002 A 
ATOM      6  C6  I4B d   1      -1.012  -0.038   0.247  0.00  0.00     0.003 A 
ENDROOT
BRANCH   1   7
ATOM      7  C1' I4B d   1       0.361   1.981  -0.332  0.00  0.00     0.060 C 
BRANCH   7   8
ATOM      8  C2' I4B d   1       0.539   2.084  -1.833  0.00  0.00    -0.013 C 
ATOM      9  C4' I4B d   1      -0.547   2.922  -2.454  0.00  0.00     0.013 C 
ATOM     10  C3' I4B d   1       1.894   2.669  -2.099  0.00  0.00     0.013 C 
ENDBRANCH   7   8
ENDBRANCH   1   7
TORSDOF 2
ENDMDL
