MODEL 1
REMARK minimizedAffinity -3.34254742
REMARK minimizedRMSD -1
REMARK  2 active torsions:
REMARK  status: ('A' for Active; 'I' for Inactive)
REMARK    1  A    between atoms: C2'_3  and  C1'_4 
REMARK    2  A    between atoms: C1'_4  and  C1_5 
ROOT
ATOM      1  C1  I4B d   1       0.323   0.396  -0.161  0.00  0.00    -0.075 A 
ATOM      2  C2  I4B d   1       1.221  -0.630  -0.002  0.00  0.00     0.003 A 
ATOM      3  C3  I4B d   1       0.770  -1.920   0.369  0.00  0.00     0.002 A 
ATOM      4  C4  I4B d   1      -0.571  -2.125   0.619  0.00  0.00    -0.004 A 
ATOM      5  C5  I4B d   1      -1.483  -1.089   0.436  0.00  0.00     0.002 A 
ATOM      6  C6  I4B d   1      -1.035   0.177   0.031  0.00  0.00     0.003 A 
ENDROOT
BRANCH   1   7
ATOM      7  C1' I4B d   1       0.837   1.754  -0.522  0.00  0.00     0.060 C 
BRANCH   7   8
ATOM      8  C2' I4B d   1       1.489   1.659  -1.886  0.00  0.00    -0.013 C 
ATOM      9  C4' I4B d   1       0.631   2.297  -2.946  0.00  0.00     0.013 C 
ATOM     10  C3' I4B d   1       2.832   2.322  -1.805  0.00  0.00     0.013 C 
ENDBRANCH   7   8
ENDBRANCH   1   7
TORSDOF 2
ENDMDL
