MODEL 1
REMARK minimizedAffinity -1.66342306
REMARK minimizedRMSD -1
REMARK  2 active torsions:
REMARK  status: ('A' for Active; 'I' for Inactive)
REMARK    1  A    between atoms: C2'_3  and  C1'_4 
REMARK    2  A    between atoms: C1'_4  and  C1_5 
ROOT
ATOM      1  C1  I4B d   1       0.184  -1.265   0.444  0.00  0.00    -0.075 A 
ATOM      2  C2  I4B d   1      -0.789  -0.811  -0.412  0.00  0.00     0.003 A 
ATOM      3  C3  I4B d   1      -2.095  -1.355  -0.359  0.00  0.00     0.002 A 
ATOM      4  C4  I4B d   1      -2.370  -2.379   0.525  0.00  0.00    -0.004 A 
ATOM      5  C5  I4B d   1      -1.389  -2.821   1.408  0.00  0.00     0.002 A 
ATOM      6  C6  I4B d   1      -0.107  -2.252   1.376  0.00  0.00     0.003 A 
ENDROOT
BRANCH   1   7
ATOM      7  C1' I4B d   1       1.561  -0.691   0.338  0.00  0.00     0.060 C 
BRANCH   7   8
ATOM      8  C2' I4B d   1       2.542  -1.739   0.824  0.00  0.00    -0.013 C 
ATOM      9  C4' I4B d   1       2.622  -2.897  -0.136  0.00  0.00     0.013 C 
ATOM     10  C3' I4B d   1       3.879  -1.081   0.991  0.00  0.00     0.013 C 
ENDBRANCH   7   8
ENDBRANCH   1   7
TORSDOF 2
ENDMDL
