MODEL 1
REMARK minimizedAffinity -1.55119944
REMARK minimizedRMSD -1
REMARK  2 active torsions:
REMARK  status: ('A' for Active; 'I' for Inactive)
REMARK    1  A    between atoms: C1_2  and  C2_3 
REMARK    2  A    between atoms: C2_3  and  C3_4 
ROOT
ATOM      1  C3  UNL d   1      -1.253  -1.188   3.563  0.00  0.00    -0.075 A 
ATOM      2  C4  UNL d   1      -2.425  -1.951   3.671  0.00  0.00     0.002 A 
ATOM      3  C5  UNL d   1      -3.553  -1.628   2.917  0.00  0.00     0.002 A 
ATOM      4  C6  UNL d   1      -3.528  -0.534   2.054  0.00  0.00    -0.004 A 
ATOM      5  C7  UNL d   1      -2.374   0.240   1.950  0.00  0.00     0.002 A 
ATOM      6  C8  UNL d   1      -1.243  -0.084   2.701  0.00  0.00     0.002 A 
ENDROOT
BRANCH   1   7
ATOM      7  C2  UNL d   1      -0.020  -1.551   4.355  0.00  0.00     0.056 C 
BRANCH   7   8
ATOM      8  C1  UNL d   1       1.297  -1.215   3.647  0.00  0.00     0.007 C 
ATOM      9  C   UNL d   1       2.525  -1.468   4.511  0.00  0.00     0.009 C 
ENDBRANCH   7   8
ENDBRANCH   1   7
TORSDOF 2
ENDMDL
