MODEL 1
REMARK minimizedAffinity -2.89628959
REMARK minimizedRMSD -1
REMARK  2 active torsions:
REMARK  status: ('A' for Active; 'I' for Inactive)
REMARK    1  A    between atoms: C1_2  and  C2_3 
REMARK    2  A    between atoms: C2_3  and  C3_4 
ROOT
ATOM      1  C3  UNL d   1       0.557  -0.519   2.471  0.00  0.00    -0.075 A 
ATOM      2  C4  UNL d   1      -0.632  -0.044   3.042  0.00  0.00     0.002 A 
ATOM      3  C5  UNL d   1      -1.713   0.313   2.236  0.00  0.00     0.002 A 
ATOM      4  C6  UNL d   1      -1.615   0.209   0.850  0.00  0.00    -0.004 A 
ATOM      5  C7  UNL d   1      -0.433  -0.247   0.270  0.00  0.00     0.002 A 
ATOM      6  C8  UNL d   1       0.648  -0.608   1.075  0.00  0.00     0.002 A 
ENDROOT
BRANCH   1   7
ATOM      7  C2  UNL d   1       1.720  -0.935   3.339  0.00  0.00     0.056 C 
BRANCH   7   8
ATOM      8  C1  UNL d   1       1.313  -1.709   4.598  0.00  0.00     0.007 C 
ATOM      9  C   UNL d   1       1.652  -0.977   5.889  0.00  0.00     0.009 C 
ENDBRANCH   7   8
ENDBRANCH   1   7
TORSDOF 2
ENDMDL
