MODEL 1
REMARK minimizedAffinity -1.55096626
REMARK minimizedRMSD -1
REMARK  2 active torsions:
REMARK  status: ('A' for Active; 'I' for Inactive)
REMARK    1  A    between atoms: C1_2  and  C2_3 
REMARK    2  A    between atoms: C2_3  and  C3_4 
ROOT
ATOM      1  C3  UNL d   1       0.304  -0.317   0.640  0.00  0.00    -0.075 A 
ATOM      2  C4  UNL d   1      -0.655  -0.838  -0.241  0.00  0.00     0.002 A 
ATOM      3  C5  UNL d   1      -2.013  -0.592  -0.037  0.00  0.00     0.002 A 
ATOM      4  C6  UNL d   1      -2.430   0.167   1.055  0.00  0.00    -0.004 A 
ATOM      5  C7  UNL d   1      -1.487   0.674   1.947  0.00  0.00     0.002 A 
ATOM      6  C8  UNL d   1      -0.127   0.434   1.742  0.00  0.00     0.002 A 
ENDROOT
BRANCH   1   7
ATOM      7  C2  UNL d   1       1.777  -0.555   0.408  0.00  0.00     0.056 C 
BRANCH   7   8
ATOM      8  C1  UNL d   1       2.397   0.361  -0.653  0.00  0.00     0.007 C 
ATOM      9  C   UNL d   1       3.323   1.418  -0.066  0.00  0.00     0.009 C 
ENDBRANCH   7   8
ENDBRANCH   1   7
TORSDOF 2
ENDMDL
