MODEL 1
REMARK minimizedAffinity -2.18918633
REMARK minimizedRMSD -1
REMARK  2 active torsions:
REMARK  status: ('A' for Active; 'I' for Inactive)
REMARK    1  A    between atoms: C1_2  and  C2_3 
REMARK    2  A    between atoms: C2_3  and  C3_4 
ROOT
ATOM      1  C3  UNL d   1       0.410  -1.639   4.069  0.00  0.00    -0.075 A 
ATOM      2  C4  UNL d   1      -0.335  -2.622   4.735  0.00  0.00     0.002 A 
ATOM      3  C5  UNL d   1      -1.728  -2.549   4.775  0.00  0.00     0.002 A 
ATOM      4  C6  UNL d   1      -2.391  -1.488   4.160  0.00  0.00    -0.004 A 
ATOM      5  C7  UNL d   1      -1.659  -0.497   3.510  0.00  0.00     0.002 A 
ATOM      6  C8  UNL d   1      -0.266  -0.571   3.464  0.00  0.00     0.002 A 
ENDROOT
BRANCH   1   7
ATOM      7  C2  UNL d   1       1.916  -1.728   3.996  0.00  0.00     0.056 C 
BRANCH   7   8
ATOM      8  C1  UNL d   1       2.644  -0.755   4.929  0.00  0.00     0.007 C 
ATOM      9  C   UNL d   1       3.676  -1.434   5.819  0.00  0.00     0.009 C 
ENDBRANCH   7   8
ENDBRANCH   1   7
TORSDOF 2
ENDMDL
