MODEL 1
REMARK minimizedAffinity 3.56334043
REMARK minimizedRMSD -1
REMARK  2 active torsions:
REMARK  status: ('A' for Active; 'I' for Inactive)
REMARK    1  A    between atoms: C1_2  and  C2_3 
REMARK    2  A    between atoms: C2_3  and  C3_4 
ROOT
ATOM      1  C3  UNL d   1      -0.373  -0.702   2.917  0.00  0.00    -0.075 A 
ATOM      2  C4  UNL d   1      -1.709  -0.286   2.832  0.00  0.00     0.002 A 
ATOM      3  C5  UNL d   1      -2.280   0.017   1.596  0.00  0.00     0.002 A 
ATOM      4  C6  UNL d   1      -1.522  -0.082   0.432  0.00  0.00    -0.004 A 
ATOM      5  C7  UNL d   1      -0.188  -0.478   0.505  0.00  0.00     0.002 A 
ATOM      6  C8  UNL d   1       0.385  -0.786   1.741  0.00  0.00     0.002 A 
ENDROOT
BRANCH   1   7
ATOM      7  C2  UNL d   1       0.243  -1.059   4.248  0.00  0.00     0.056 C 
BRANCH   7   8
ATOM      8  C1  UNL d   1       1.710  -1.493   4.161  0.00  0.00     0.007 C 
ATOM      9  C   UNL d   1       2.166  -2.314   5.360  0.00  0.00     0.009 C 
ENDBRANCH   7   8
ENDBRANCH   1   7
TORSDOF 2
ENDMDL
