MODEL 1
REMARK minimizedAffinity -0.47724402
REMARK minimizedRMSD -1
REMARK  2 active torsions:
REMARK  status: ('A' for Active; 'I' for Inactive)
REMARK    1  A    between atoms: C1_2  and  C2_3 
REMARK    2  A    between atoms: C2_3  and  C3_4 
ROOT
ATOM      1  C3  UNL d   1      -0.020  -0.876   2.044  0.00  0.00    -0.075 A 
ATOM      2  C4  UNL d   1      -0.969  -1.041   3.063  0.00  0.00     0.002 A 
ATOM      3  C5  UNL d   1      -0.563  -1.273   4.378  0.00  0.00     0.002 A 
ATOM      4  C6  UNL d   1       0.792  -1.354   4.688  0.00  0.00    -0.004 A 
ATOM      5  C7  UNL d   1       1.743  -1.209   3.680  0.00  0.00     0.002 A 
ATOM      6  C8  UNL d   1       1.340  -0.972   2.365  0.00  0.00     0.002 A 
ENDROOT
BRANCH   1   7
ATOM      7  C2  UNL d   1      -0.452  -0.596   0.624  0.00  0.00     0.056 C 
BRANCH   7   8
ATOM      8  C1  UNL d   1      -1.706   0.279   0.515  0.00  0.00     0.007 C 
ATOM      9  C   UNL d   1      -2.819  -0.366  -0.298  0.00  0.00     0.009 C 
ENDBRANCH   7   8
ENDBRANCH   1   7
TORSDOF 2
ENDMDL
