MODEL 1
REMARK minimizedAffinity 0.282041728
REMARK minimizedRMSD -1
REMARK  2 active torsions:
REMARK  status: ('A' for Active; 'I' for Inactive)
REMARK    1  A    between atoms: C1_2  and  C2_3 
REMARK    2  A    between atoms: C2_3  and  C3_4 
ROOT
ATOM      1  C3  UNL d   1      -0.853  -0.464   1.943  0.00  0.00    -0.075 A 
ATOM      2  C4  UNL d   1      -2.067  -0.205   1.290  0.00  0.00     0.002 A 
ATOM      3  C5  UNL d   1      -2.158  -0.301  -0.099  0.00  0.00     0.002 A 
ATOM      4  C6  UNL d   1      -1.038  -0.646  -0.852  0.00  0.00    -0.004 A 
ATOM      5  C7  UNL d   1       0.177  -0.889  -0.215  0.00  0.00     0.002 A 
ATOM      6  C8  UNL d   1       0.270  -0.798   1.175  0.00  0.00     0.002 A 
ENDROOT
BRANCH   1   7
ATOM      7  C2  UNL d   1      -0.755  -0.390   3.448  0.00  0.00     0.056 C 
BRANCH   7   8
ATOM      8  C1  UNL d   1      -0.114  -1.624   4.092  0.00  0.00     0.007 C 
ATOM      9  C   UNL d   1       1.393  -1.495   4.271  0.00  0.00     0.009 C 
ENDBRANCH   7   8
ENDBRANCH   1   7
TORSDOF 2
ENDMDL
