MODEL 1
REMARK minimizedAffinity 25.5629654
REMARK minimizedRMSD -1
REMARK  1 active torsions:
REMARK  status: ('A' for Active; 'I' for Inactive)
REMARK    1  A    between atoms: C1_2  and  C2_3 
ROOT
ATOM      1  C2  UNL d   1       3.764  -4.794  -0.692  0.00  0.00    -0.073 A 
ATOM      2  C3  UNL d   1       2.770  -5.409  -1.462  0.00  0.00    -0.002 A 
ATOM      3  C4  UNL d   1       1.534  -4.787  -1.644  0.00  0.00     0.004 A 
ATOM      4  C5  UNL d   1       1.282  -3.543  -1.065  0.00  0.00    -0.004 A 
ATOM      5  C6  UNL d   1       2.266  -2.908  -0.301  0.00  0.00    -0.075 A 
ATOM      6  C7  UNL d   1       2.010  -1.572   0.330  0.00  0.00     0.076 C 
ATOM      7  C8  UNL d   1       3.504  -3.540  -0.121  0.00  0.00     0.001 A 
ENDROOT
BRANCH   1   8
ATOM      8  C1  UNL d   1       5.102  -5.459  -0.497  0.00  0.00     0.053 C 
ATOM      9  C   UNL d   1       5.977  -4.701   0.488  0.00  0.00     0.018 C 
ENDBRANCH   1   8
TORSDOF 1
ENDMDL
