MODEL 1
REMARK minimizedAffinity 14.3731136
REMARK minimizedRMSD -1
REMARK  1 active torsions:
REMARK  status: ('A' for Active; 'I' for Inactive)
REMARK    1  A    between atoms: C1_2  and  C2_3 
ROOT
ATOM      1  C2  UNL d   1      -2.408  -3.472   5.165  0.00  0.00    -0.073 A 
ATOM      2  C3  UNL d   1      -2.625  -4.698   4.525  0.00  0.00    -0.002 A 
ATOM      3  C4  UNL d   1      -3.920  -5.192   4.370  0.00  0.00     0.004 A 
ATOM      4  C5  UNL d   1      -5.011  -4.465   4.846  0.00  0.00    -0.004 A 
ATOM      5  C6  UNL d   1      -4.815  -3.233   5.478  0.00  0.00    -0.075 A 
ATOM      6  C7  UNL d   1      -5.978  -2.439   5.998  0.00  0.00     0.076 C 
ATOM      7  C8  UNL d   1      -3.511  -2.744   5.633  0.00  0.00     0.001 A 
ENDROOT
BRANCH   1   8
ATOM      8  C1  UNL d   1      -1.011  -2.931   5.329  0.00  0.00     0.053 C 
ATOM      9  C   UNL d   1       0.026  -4.041   5.397  0.00  0.00     0.018 C 
ENDBRANCH   1   8
TORSDOF 1
ENDMDL
