MODEL 1
REMARK minimizedAffinity 9.21310425
REMARK minimizedRMSD -1
REMARK  1 active torsions:
REMARK  status: ('A' for Active; 'I' for Inactive)
REMARK    1  A    between atoms: C1_2  and  C2_3 
ROOT
ATOM      1  C2  UNL d   1      -4.513  -3.782   4.652  0.00  0.00    -0.073 A 
ATOM      2  C3  UNL d   1      -4.485  -2.755   5.602  0.00  0.00    -0.002 A 
ATOM      3  C4  UNL d   1      -3.271  -2.195   5.999  0.00  0.00     0.004 A 
ATOM      4  C5  UNL d   1      -2.074  -2.650   5.447  0.00  0.00    -0.004 A 
ATOM      5  C6  UNL d   1      -2.081  -3.667   4.487  0.00  0.00    -0.075 A 
ATOM      6  C7  UNL d   1      -0.802  -4.169   3.885  0.00  0.00     0.076 C 
ATOM      7  C8  UNL d   1      -3.305  -4.226   4.095  0.00  0.00     0.001 A 
ENDROOT
BRANCH   1   8
ATOM      8  C1  UNL d   1      -5.822  -4.386   4.215  0.00  0.00     0.053 C 
ATOM      9  C   UNL d   1      -5.961  -5.832   4.663  0.00  0.00     0.018 C 
ENDBRANCH   1   8
TORSDOF 1
ENDMDL
