MODEL 1
REMARK minimizedAffinity 10.8251638
REMARK minimizedRMSD -1
REMARK  1 active torsions:
REMARK  status: ('A' for Active; 'I' for Inactive)
REMARK    1  A    between atoms: C1_2  and  C2_3 
ROOT
ATOM      1  C2  UNL d   1      -3.339   2.650  -4.187  0.00  0.00    -0.073 A 
ATOM      2  C3  UNL d   1      -2.249   2.821  -3.327  0.00  0.00    -0.002 A 
ATOM      3  C4  UNL d   1      -1.522   4.013  -3.338  0.00  0.00     0.004 A 
ATOM      4  C5  UNL d   1      -1.882   5.046  -4.203  0.00  0.00    -0.004 A 
ATOM      5  C6  UNL d   1      -2.976   4.899  -5.062  0.00  0.00    -0.075 A 
ATOM      6  C7  UNL d   1      -3.374   6.000  -6.000  0.00  0.00     0.076 C 
ATOM      7  C8  UNL d   1      -3.699   3.698  -5.047  0.00  0.00     0.001 A 
ENDROOT
BRANCH   1   8
ATOM      8  C1  UNL d   1      -4.130   1.368  -4.174  0.00  0.00     0.053 C 
ATOM      9  C   UNL d   1      -5.488   1.529  -4.840  0.00  0.00     0.018 C 
ENDBRANCH   1   8
TORSDOF 1
ENDMDL
