MODEL 1
REMARK minimizedAffinity 17.6100636
REMARK minimizedRMSD -1
REMARK  1 active torsions:
REMARK  status: ('A' for Active; 'I' for Inactive)
REMARK    1  A    between atoms: C1_2  and  C2_3 
ROOT
ATOM      1  C2  UNL d   1      -2.716   3.649  -4.542  0.00  0.00    -0.073 A 
ATOM      2  C3  UNL d   1      -3.734   4.259  -5.284  0.00  0.00    -0.002 A 
ATOM      3  C4  UNL d   1      -3.479   5.430  -5.999  0.00  0.00     0.004 A 
ATOM      4  C5  UNL d   1      -2.205   5.998  -5.985  0.00  0.00    -0.004 A 
ATOM      5  C6  UNL d   1      -1.173   5.396  -5.259  0.00  0.00    -0.075 A 
ATOM      6  C7  UNL d   1       0.203   5.996  -5.232  0.00  0.00     0.076 C 
ATOM      7  C8  UNL d   1      -1.437   4.222  -4.541  0.00  0.00     0.001 A 
ENDROOT
BRANCH   1   8
ATOM      8  C1  UNL d   1      -2.985   2.381  -3.773  0.00  0.00     0.053 C 
ATOM      9  C   UNL d   1      -4.081   1.545  -4.416  0.00  0.00     0.018 C 
ENDBRANCH   1   8
TORSDOF 1
ENDMDL
