MODEL 1
REMARK minimizedAffinity 2.23099852
REMARK minimizedRMSD -1
REMARK  1 active torsions:
REMARK  status: ('A' for Active; 'I' for Inactive)
REMARK    1  A    between atoms: C1_2  and  C2_3 
ROOT
ATOM      1  C2  UNL d   1      -4.322   2.983  -5.358  0.00  0.00    -0.073 A 
ATOM      2  C3  UNL d   1      -3.750   2.414  -4.214  0.00  0.00    -0.002 A 
ATOM      3  C4  UNL d   1      -2.631   3.000  -3.621  0.00  0.00     0.004 A 
ATOM      4  C5  UNL d   1      -2.078   4.162  -4.160  0.00  0.00    -0.004 A 
ATOM      5  C6  UNL d   1      -2.643   4.751  -5.295  0.00  0.00    -0.075 A 
ATOM      6  C7  UNL d   1      -2.059   6.000  -5.888  0.00  0.00     0.076 C 
ATOM      7  C8  UNL d   1      -3.765   4.156  -5.887  0.00  0.00     0.001 A 
ENDROOT
BRANCH   1   8
ATOM      8  C1  UNL d   1      -5.535   2.357  -5.998  0.00  0.00     0.053 C 
ATOM      9  C   UNL d   1      -5.672   0.886  -5.642  0.00  0.00     0.018 C 
ENDBRANCH   1   8
TORSDOF 1
ENDMDL
