MODEL 1
REMARK minimizedAffinity 0.310860366
REMARK minimizedRMSD -1
REMARK  1 active torsions:
REMARK  status: ('A' for Active; 'I' for Inactive)
REMARK    1  A    between atoms: C1_2  and  C2_3 
ROOT
ATOM      1  C2  UNL d   1      -0.729   2.791  -1.261  0.00  0.00    -0.073 A 
ATOM      2  C3  UNL d   1       0.101   3.913  -1.167  0.00  0.00    -0.002 A 
ATOM      3  C4  UNL d   1       0.559   4.349   0.078  0.00  0.00     0.004 A 
ATOM      4  C5  UNL d   1       0.198   3.663   1.237  0.00  0.00    -0.004 A 
ATOM      5  C6  UNL d   1      -0.622   2.533   1.162  0.00  0.00    -0.075 A 
ATOM      6  C7  UNL d   1      -1.022   1.786   2.401  0.00  0.00     0.076 C 
ATOM      7  C8  UNL d   1      -1.080   2.104  -0.091  0.00  0.00     0.001 A 
ENDROOT
BRANCH   1   8
ATOM      8  C1  UNL d   1      -1.221   2.314  -2.603  0.00  0.00     0.053 C 
ATOM      9  C   UNL d   1      -2.461   1.442  -2.479  0.00  0.00     0.018 C 
ENDBRANCH   1   8
TORSDOF 1
ENDMDL
