MODEL 1
REMARK minimizedAffinity 12.7253685
REMARK minimizedRMSD -1
REMARK  1 active torsions:
REMARK  status: ('A' for Active; 'I' for Inactive)
REMARK    1  A    between atoms: C1_2  and  C2_3 
ROOT
ATOM      1  C2  UNL d   1      -0.786   1.127   1.941  0.00  0.00    -0.073 A 
ATOM      2  C3  UNL d   1      -1.786   1.595   1.081  0.00  0.00    -0.002 A 
ATOM      3  C4  UNL d   1      -3.124   1.275   1.316  0.00  0.00     0.004 A 
ATOM      4  C5  UNL d   1      -3.476   0.491   2.415  0.00  0.00    -0.004 A 
ATOM      5  C6  UNL d   1      -2.492   0.024   3.292  0.00  0.00    -0.075 A 
ATOM      6  C7  UNL d   1      -2.854  -0.822   4.478  0.00  0.00     0.076 C 
ATOM      7  C8  UNL d   1      -1.150   0.347   3.048  0.00  0.00     0.001 A 
ENDROOT
BRANCH   1   8
ATOM      8  C1  UNL d   1       0.660   1.475   1.695  0.00  0.00     0.053 C 
ATOM      9  C   UNL d   1       1.440   1.618   2.992  0.00  0.00     0.018 C 
ENDBRANCH   1   8
TORSDOF 1
ENDMDL
