MODEL 1
REMARK minimizedAffinity 12.9984474
REMARK minimizedRMSD -1
REMARK  1 active torsions:
REMARK  status: ('A' for Active; 'I' for Inactive)
REMARK    1  A    between atoms: C1_2  and  C2_3 
ROOT
ATOM      1  C2  UNL d   1      -1.765  -0.209   3.568  0.00  0.00    -0.073 A 
ATOM      2  C3  UNL d   1      -0.413  -0.159   3.207  0.00  0.00    -0.002 A 
ATOM      3  C4  UNL d   1       0.035   0.785   2.282  0.00  0.00     0.004 A 
ATOM      4  C5  UNL d   1      -0.860   1.692   1.716  0.00  0.00    -0.004 A 
ATOM      5  C6  UNL d   1      -2.212   1.667   2.073  0.00  0.00    -0.075 A 
ATOM      6  C7  UNL d   1      -3.188   2.634   1.470  0.00  0.00     0.076 C 
ATOM      7  C8  UNL d   1      -2.655   0.714   3.000  0.00  0.00     0.001 A 
ENDROOT
BRANCH   1   8
ATOM      8  C1  UNL d   1      -2.252  -1.222   4.571  0.00  0.00     0.053 C 
ATOM      9  C   UNL d   1      -1.407  -2.486   4.561  0.00  0.00     0.018 C 
ENDBRANCH   1   8
TORSDOF 1
ENDMDL
