MODEL 1
REMARK minimizedAffinity 16.1457195
REMARK minimizedRMSD -1
REMARK  1 active torsions:
REMARK  status: ('A' for Active; 'I' for Inactive)
REMARK    1  A    between atoms: C1_2  and  C2_3 
ROOT
ATOM      1  C2  UNL d   1      -4.772  -3.914   4.928  0.00  0.00    -0.073 A 
ATOM      2  C3  UNL d   1      -5.082  -2.763   5.663  0.00  0.00    -0.002 A 
ATOM      3  C4  UNL d   1      -4.082  -1.850   5.998  0.00  0.00     0.004 A 
ATOM      4  C5  UNL d   1      -2.765  -2.073   5.596  0.00  0.00    -0.004 A 
ATOM      5  C6  UNL d   1      -2.437  -3.210   4.851  0.00  0.00    -0.075 A 
ATOM      6  C7  UNL d   1      -1.025  -3.465   4.414  0.00  0.00     0.076 C 
ATOM      7  C8  UNL d   1      -3.447  -4.124   4.522  0.00  0.00     0.001 A 
ENDROOT
BRANCH   1   8
ATOM      8  C1  UNL d   1      -5.850  -4.900   4.559  0.00  0.00     0.053 C 
ATOM      9  C   UNL d   1      -5.997  -5.999   5.599  0.00  0.00     0.018 C 
ENDBRANCH   1   8
TORSDOF 1
ENDMDL
