MODEL 1
REMARK minimizedAffinity 17.1724033
REMARK minimizedRMSD -1
REMARK  1 active torsions:
REMARK  status: ('A' for Active; 'I' for Inactive)
REMARK    1  A    between atoms: C1_2  and  C2_3 
ROOT
ATOM      1  C2  UNL d   1      -0.800   3.047  -0.270  0.00  0.00    -0.073 A 
ATOM      2  C3  UNL d   1      -1.094   1.785   0.259  0.00  0.00    -0.002 A 
ATOM      3  C4  UNL d   1      -2.284   1.573   0.957  0.00  0.00     0.004 A 
ATOM      4  C5  UNL d   1      -3.193   2.617   1.127  0.00  0.00    -0.004 A 
ATOM      5  C6  UNL d   1      -2.923   3.882   0.595  0.00  0.00    -0.075 A 
ATOM      6  C7  UNL d   1      -3.890   5.016   0.771  0.00  0.00     0.076 C 
ATOM      7  C8  UNL d   1      -1.725   4.087  -0.102  0.00  0.00     0.001 A 
ENDROOT
BRANCH   1   8
ATOM      8  C1  UNL d   1       0.480   3.278  -1.030  0.00  0.00     0.053 C 
ATOM      9  C   UNL d   1       1.253   4.474  -0.495  0.00  0.00     0.018 C 
ENDBRANCH   1   8
TORSDOF 1
ENDMDL
