MODEL 1
REMARK minimizedAffinity 1.94517553
REMARK minimizedRMSD -1
REMARK  2 active torsions:
REMARK  status: ('A' for Active; 'I' for Inactive)
REMARK    1  A    between atoms: C1_2  and  C2_3 
REMARK    2  A    between atoms: C2_3  and  C3_4 
ROOT
ATOM      1  C3  UNL d   1       0.235   0.385  -0.277  0.00  0.00    -0.075 A 
ATOM      2  C4  UNL d   1      -0.429   0.140  -1.488  0.00  0.00     0.002 A 
ATOM      3  C5  UNL d   1       0.294  -0.104  -2.656  0.00  0.00     0.002 A 
ATOM      4  C6  UNL d   1       1.687  -0.096  -2.631  0.00  0.00    -0.004 A 
ATOM      5  C7  UNL d   1       2.357   0.164  -1.437  0.00  0.00     0.002 A 
ATOM      6  C8  UNL d   1       1.636   0.404  -0.266  0.00  0.00     0.002 A 
ENDROOT
BRANCH   1   7
ATOM      7  C2  UNL d   1      -0.542   0.621   0.996  0.00  0.00     0.056 C 
BRANCH   7   8
ATOM      8  C1  UNL d   1      -1.742  -0.315   1.177  0.00  0.00     0.007 C 
ATOM      9  C   UNL d   1      -1.353  -1.786   1.237  0.00  0.00     0.009 C 
ENDBRANCH   7   8
ENDBRANCH   1   7
TORSDOF 2
ENDMDL
