MODEL 1
REMARK minimizedAffinity 3.16670728
REMARK minimizedRMSD -1
REMARK  2 active torsions:
REMARK  status: ('A' for Active; 'I' for Inactive)
REMARK    1  A    between atoms: C1_2  and  C2_3 
REMARK    2  A    between atoms: C2_3  and  C3_4 
ROOT
ATOM      1  C3  UNL d   1      -0.337  -0.292   0.033  0.00  0.00    -0.075 A 
ATOM      2  C4  UNL d   1      -0.352  -0.015   1.407  0.00  0.00     0.002 A 
ATOM      3  C5  UNL d   1      -0.749  -0.991   2.322  0.00  0.00     0.002 A 
ATOM      4  C6  UNL d   1      -1.146  -2.249   1.876  0.00  0.00    -0.004 A 
ATOM      5  C7  UNL d   1      -1.151  -2.530   0.511  0.00  0.00     0.002 A 
ATOM      6  C8  UNL d   1      -0.750  -1.557  -0.407  0.00  0.00     0.002 A 
ENDROOT
BRANCH   1   7
ATOM      7  C2  UNL d   1       0.119   0.749  -0.961  0.00  0.00     0.056 C 
BRANCH   7   8
ATOM      8  C1  UNL d   1      -0.145   0.375  -2.423  0.00  0.00     0.007 C 
ATOM      9  C   UNL d   1       1.012  -0.376  -3.069  0.00  0.00     0.009 C 
ENDBRANCH   7   8
ENDBRANCH   1   7
TORSDOF 2
ENDMDL
