MODEL 1
REMARK minimizedAffinity 2.74983978
REMARK minimizedRMSD -1
REMARK  2 active torsions:
REMARK  status: ('A' for Active; 'I' for Inactive)
REMARK    1  A    between atoms: C1_2  and  C2_3 
REMARK    2  A    between atoms: C2_3  and  C3_4 
ROOT
ATOM      1  C3  UNL d   1       0.106   0.928   0.900  0.00  0.00    -0.075 A 
ATOM      2  C4  UNL d   1       0.265   0.181   2.076  0.00  0.00     0.002 A 
ATOM      3  C5  UNL d   1      -0.650  -0.818   2.409  0.00  0.00     0.002 A 
ATOM      4  C6  UNL d   1      -1.738  -1.076   1.578  0.00  0.00    -0.004 A 
ATOM      5  C7  UNL d   1      -1.915  -0.328   0.416  0.00  0.00     0.002 A 
ATOM      6  C8  UNL d   1      -0.999   0.669   0.078  0.00  0.00     0.002 A 
ENDROOT
BRANCH   1   7
ATOM      7  C2  UNL d   1       1.109   1.991   0.518  0.00  0.00     0.056 C 
BRANCH   7   8
ATOM      8  C1  UNL d   1       0.701   3.410   0.928  0.00  0.00     0.007 C 
ATOM      9  C   UNL d   1       1.775   4.136   1.727  0.00  0.00     0.009 C 
ENDBRANCH   7   8
ENDBRANCH   1   7
TORSDOF 2
ENDMDL
