MODEL 1
REMARK minimizedAffinity -2.23826551
REMARK minimizedRMSD -1
REMARK  2 active torsions:
REMARK  status: ('A' for Active; 'I' for Inactive)
REMARK    1  A    between atoms: C1_2  and  C2_3 
REMARK    2  A    between atoms: C2_3  and  C3_4 
ROOT
ATOM      1  C3  UNL d   1       0.659   1.490   0.168  0.00  0.00    -0.075 A 
ATOM      2  C4  UNL d   1       0.485   2.655   0.930  0.00  0.00     0.002 A 
ATOM      3  C5  UNL d   1       1.580   3.453   1.263  0.00  0.00     0.002 A 
ATOM      4  C6  UNL d   1       2.860   3.093   0.849  0.00  0.00    -0.004 A 
ATOM      5  C7  UNL d   1       3.046   1.929   0.105  0.00  0.00     0.002 A 
ATOM      6  C8  UNL d   1       1.952   1.131  -0.233  0.00  0.00     0.002 A 
ENDROOT
BRANCH   1   7
ATOM      7  C2  UNL d   1      -0.525   0.637  -0.220  0.00  0.00     0.056 C 
BRANCH   7   8
ATOM      8  C1  UNL d   1      -1.465   0.306   0.944  0.00  0.00     0.007 C 
ATOM      9  C   UNL d   1      -0.764  -0.394   2.100  0.00  0.00     0.009 C 
ENDBRANCH   7   8
ENDBRANCH   1   7
TORSDOF 2
ENDMDL
