MODEL 1
REMARK minimizedAffinity -1.88428903
REMARK minimizedRMSD -1
REMARK  2 active torsions:
REMARK  status: ('A' for Active; 'I' for Inactive)
REMARK    1  A    between atoms: C1_2  and  C2_3 
REMARK    2  A    between atoms: C2_3  and  C3_4 
ROOT
ATOM      1  C3  UNL d   1       0.738   1.851   0.432  0.00  0.00    -0.075 A 
ATOM      2  C4  UNL d   1       2.067   2.119   0.791  0.00  0.00     0.002 A 
ATOM      3  C5  UNL d   1       2.410   3.338   1.377  0.00  0.00     0.002 A 
ATOM      4  C6  UNL d   1       1.433   4.305   1.602  0.00  0.00    -0.004 A 
ATOM      5  C7  UNL d   1       0.113   4.056   1.234  0.00  0.00     0.002 A 
ATOM      6  C8  UNL d   1      -0.234   2.835   0.651  0.00  0.00     0.002 A 
ENDROOT
BRANCH   1   7
ATOM      7  C2  UNL d   1       0.356   0.522  -0.177  0.00  0.00     0.056 C 
BRANCH   7   8
ATOM      8  C1  UNL d   1      -0.947  -0.065   0.376  0.00  0.00     0.007 C 
ATOM      9  C   UNL d   1      -0.731  -0.987   1.569  0.00  0.00     0.009 C 
ENDBRANCH   7   8
ENDBRANCH   1   7
TORSDOF 2
ENDMDL
