MODEL 1
REMARK minimizedAffinity -5.81301212
REMARK minimizedRMSD -1
REMARK  2 active torsions:
REMARK  status: ('A' for Active; 'I' for Inactive)
REMARK    1  A    between atoms: C1_2  and  C2_3 
REMARK    2  A    between atoms: C2_3  and  C3_4 
ROOT
ATOM      1  C3  UNL d   1      -0.164  -0.191   0.233  0.00  0.00    -0.075 A 
ATOM      2  C4  UNL d   1      -0.298  -0.949   1.405  0.00  0.00     0.002 A 
ATOM      3  C5  UNL d   1      -0.251  -2.343   1.357  0.00  0.00     0.002 A 
ATOM      4  C6  UNL d   1      -0.080  -2.995   0.138  0.00  0.00    -0.004 A 
ATOM      5  C7  UNL d   1       0.037  -2.252  -1.035  0.00  0.00     0.002 A 
ATOM      6  C8  UNL d   1      -0.006  -0.858  -0.989  0.00  0.00     0.002 A 
ENDROOT
BRANCH   1   7
ATOM      7  C2  UNL d   1      -0.185   1.318   0.282  0.00  0.00     0.056 C 
BRANCH   7   8
ATOM      8  C1  UNL d   1       1.154   1.947   0.682  0.00  0.00     0.007 C 
ATOM      9  C   UNL d   1       1.057   3.443   0.953  0.00  0.00     0.009 C 
ENDBRANCH   7   8
ENDBRANCH   1   7
TORSDOF 2
ENDMDL
