MODEL 1
REMARK minimizedAffinity -1.85482919
REMARK minimizedRMSD -1
REMARK  2 active torsions:
REMARK  status: ('A' for Active; 'I' for Inactive)
REMARK    1  A    between atoms: C1_2  and  C2_3 
REMARK    2  A    between atoms: C2_3  and  C3_4 
ROOT
ATOM      1  C3  UNL d   1      -0.649  -0.080  -0.263  0.00  0.00    -0.075 A 
ATOM      2  C4  UNL d   1      -0.364   0.446   1.005  0.00  0.00     0.002 A 
ATOM      3  C5  UNL d   1      -0.635  -0.294   2.157  0.00  0.00     0.002 A 
ATOM      4  C6  UNL d   1      -1.202  -1.562   2.055  0.00  0.00    -0.004 A 
ATOM      5  C7  UNL d   1      -1.504  -2.088   0.801  0.00  0.00     0.002 A 
ATOM      6  C8  UNL d   1      -1.230  -1.352  -0.353  0.00  0.00     0.002 A 
ENDROOT
BRANCH   1   7
ATOM      7  C2  UNL d   1      -0.330   0.704  -1.514  0.00  0.00     0.056 C 
BRANCH   7   8
ATOM      8  C1  UNL d   1       0.889   0.184  -2.282  0.00  0.00     0.007 C 
ATOM      9  C   UNL d   1       0.523  -0.732  -3.442  0.00  0.00     0.009 C 
ENDBRANCH   7   8
ENDBRANCH   1   7
TORSDOF 2
ENDMDL
