MODEL 1
REMARK minimizedAffinity -4.87017775
REMARK minimizedRMSD -1
REMARK  2 active torsions:
REMARK  status: ('A' for Active; 'I' for Inactive)
REMARK    1  A    between atoms: C1_2  and  C2_3 
REMARK    2  A    between atoms: C2_3  and  C3_4 
ROOT
ATOM      1  C3  UNL d   1      -0.532  -0.852  -0.202  0.00  0.00    -0.075 A 
ATOM      2  C4  UNL d   1      -0.088  -1.153  -1.498  0.00  0.00     0.002 A 
ATOM      3  C5  UNL d   1       0.340  -0.137  -2.353  0.00  0.00     0.002 A 
ATOM      4  C6  UNL d   1       0.319   1.190  -1.929  0.00  0.00    -0.004 A 
ATOM      5  C7  UNL d   1      -0.137   1.501  -0.650  0.00  0.00     0.002 A 
ATOM      6  C8  UNL d   1      -0.561   0.487   0.210  0.00  0.00     0.002 A 
ENDROOT
BRANCH   1   7
ATOM      7  C2  UNL d   1      -0.968  -1.950   0.739  0.00  0.00     0.056 C 
BRANCH   7   8
ATOM      8  C1  UNL d   1      -1.364  -3.253   0.037  0.00  0.00     0.007 C 
ATOM      9  C   UNL d   1      -0.262  -4.304   0.055  0.00  0.00     0.009 C 
ENDBRANCH   7   8
ENDBRANCH   1   7
TORSDOF 2
ENDMDL
