MODEL 1
REMARK minimizedAffinity -4.61241913
REMARK minimizedRMSD -1
REMARK  2 active torsions:
REMARK  status: ('A' for Active; 'I' for Inactive)
REMARK    1  A    between atoms: C1_2  and  C2_3 
REMARK    2  A    between atoms: C2_3  and  C3_4 
ROOT
ATOM      1  C3  UNL d   1      -0.239  -0.256  -0.722  0.00  0.00    -0.075 A 
ATOM      2  C4  UNL d   1       0.131  -0.832  -1.946  0.00  0.00     0.002 A 
ATOM      3  C5  UNL d   1       0.143  -2.219  -2.101  0.00  0.00     0.002 A 
ATOM      4  C6  UNL d   1      -0.203  -3.045  -1.034  0.00  0.00    -0.004 A 
ATOM      5  C7  UNL d   1      -0.556  -2.484   0.191  0.00  0.00     0.002 A 
ATOM      6  C8  UNL d   1      -0.574  -1.097   0.347  0.00  0.00     0.002 A 
ENDROOT
BRANCH   1   7
ATOM      7  C2  UNL d   1      -0.283   1.244  -0.557  0.00  0.00     0.056 C 
BRANCH   7   8
ATOM      8  C1  UNL d   1       1.046   1.862  -0.109  0.00  0.00     0.007 C 
ATOM      9  C   UNL d   1       0.942   3.349   0.203  0.00  0.00     0.009 C 
ENDBRANCH   7   8
ENDBRANCH   1   7
TORSDOF 2
ENDMDL
