MODEL 1
REMARK minimizedAffinity 3.15563607
REMARK minimizedRMSD -1
REMARK  1 active torsions:
REMARK  status: ('A' for Active; 'I' for Inactive)
REMARK    1  A    between atoms: N_2  and  C1_3 
ROOT
ATOM      1  C1  UNL d   1      -1.873  -0.808  -0.659  0.00  0.00     0.143 A 
ATOM      2  C2  UNL d   1      -1.441  -1.628   0.389  0.00  0.00    -0.057 A 
ATOM      3  C3  UNL d   1      -0.677  -2.775   0.146  0.00  0.00     0.033 A 
ATOM      4  C4  UNL d   1      -0.355  -3.140  -1.158  0.00  0.00    -0.042 A 
ATOM      5  C5  UNL d   1      -0.795  -2.354  -2.216  0.00  0.00     0.033 A 
ATOM      6  C6  UNL d   1      -1.552  -1.205  -1.966  0.00  0.00    -0.057 A 
ENDROOT
BRANCH   1   7
ATOM      7  N   UNL d   1      -2.718   0.292  -0.489  0.00  0.00    -0.732 N 
ATOM      8  C   UNL d   1      -3.897   0.193   0.344  0.00  0.00     0.284 C 
ATOM      9  H3  UNL d   1      -2.204   1.163  -0.380  0.00  0.00     0.395 HD
ENDBRANCH   1   7
TORSDOF 1
ENDMDL
