MODEL 1
REMARK minimizedAffinity 3.21605444
REMARK minimizedRMSD -1
REMARK  1 active torsions:
REMARK  status: ('A' for Active; 'I' for Inactive)
REMARK    1  A    between atoms: N_2  and  C1_3 
ROOT
ATOM      1  C1  UNL d   1       1.233   1.529  -3.553  0.00  0.00     0.143 A 
ATOM      2  C2  UNL d   1       0.363   2.567  -3.903  0.00  0.00    -0.057 A 
ATOM      3  C3  UNL d   1       0.495   3.245  -5.121  0.00  0.00     0.033 A 
ATOM      4  C4  UNL d   1       1.522   2.915  -6.000  0.00  0.00    -0.042 A 
ATOM      5  C5  UNL d   1       2.413   1.903  -5.661  0.00  0.00     0.033 A 
ATOM      6  C6  UNL d   1       2.271   1.225  -4.447  0.00  0.00    -0.057 A 
ENDROOT
BRANCH   1   7
ATOM      7  N   UNL d   1       1.213   0.882  -2.315  0.00  0.00    -0.732 N 
ATOM      8  C   UNL d   1       0.006   0.853  -1.517  0.00  0.00     0.284 C 
ATOM      9  H3  UNL d   1       1.724   0.003  -2.327  0.00  0.00     0.395 HD
ENDBRANCH   1   7
TORSDOF 1
ENDMDL
