MODEL 1
REMARK minimizedAffinity -0.216864169
REMARK minimizedRMSD -1
REMARK  1 active torsions:
REMARK  status: ('A' for Active; 'I' for Inactive)
REMARK    1  A    between atoms: N_2  and  C1_3 
ROOT
ATOM      1  C1  UNL d   1      -1.162   0.183   2.500  0.00  0.00     0.143 A 
ATOM      2  C2  UNL d   1      -1.425   0.275   1.129  0.00  0.00    -0.057 A 
ATOM      3  C3  UNL d   1      -2.711   0.561   0.654  0.00  0.00     0.033 A 
ATOM      4  C4  UNL d   1      -3.766   0.733   1.544  0.00  0.00    -0.042 A 
ATOM      5  C5  UNL d   1      -3.532   0.622   2.910  0.00  0.00     0.033 A 
ATOM      6  C6  UNL d   1      -2.245   0.342   3.379  0.00  0.00    -0.057 A 
ENDROOT
BRANCH   1   7
ATOM      7  N   UNL d   1       0.073  -0.196   3.031  0.00  0.00    -0.732 N 
ATOM      8  C   UNL d   1       1.304   0.151   2.355  0.00  0.00     0.284 C 
ATOM      9  H3  UNL d   1       0.110  -0.090   4.042  0.00  0.00     0.395 HD
ENDBRANCH   1   7
TORSDOF 1
ENDMDL
