MODEL 1
REMARK minimizedAffinity 6.34941435
REMARK minimizedRMSD -1
REMARK  1 active torsions:
REMARK  status: ('A' for Active; 'I' for Inactive)
REMARK    1  A    between atoms: N_2  and  C1_3 
ROOT
ATOM      1  C1  UNL d   1      -1.282   0.356   1.931  0.00  0.00     0.143 A 
ATOM      2  C2  UNL d   1      -1.074  -0.827   2.647  0.00  0.00    -0.057 A 
ATOM      3  C3  UNL d   1       0.142  -1.080   3.295  0.00  0.00     0.033 A 
ATOM      4  C4  UNL d   1       1.184  -0.163   3.214  0.00  0.00    -0.042 A 
ATOM      5  C5  UNL d   1       1.009   1.009   2.487  0.00  0.00     0.033 A 
ATOM      6  C6  UNL d   1      -0.210   1.259   1.847  0.00  0.00    -0.057 A 
ENDROOT
BRANCH   1   7
ATOM      7  N   UNL d   1      -2.432   0.622   1.184  0.00  0.00    -0.732 N 
ATOM      8  C   UNL d   1      -3.731   0.190   1.652  0.00  0.00     0.284 C 
ATOM      9  H3  UNL d   1      -2.425   1.555   0.778  0.00  0.00     0.395 HD
ENDBRANCH   1   7
TORSDOF 1
ENDMDL
