MODEL 1
REMARK minimizedAffinity -1.97029114
REMARK minimizedRMSD -1
REMARK  1 active torsions:
REMARK  status: ('A' for Active; 'I' for Inactive)
REMARK    1  A    between atoms: N_2  and  C1_3 
ROOT
ATOM      1  C1  UNL d   1      -1.675  -0.206   2.524  0.00  0.00     0.143 A 
ATOM      2  C2  UNL d   1      -1.337   0.353   1.286  0.00  0.00    -0.057 A 
ATOM      3  C3  UNL d   1      -2.322   0.699   0.352  0.00  0.00     0.033 A 
ATOM      4  C4  UNL d   1      -3.664   0.464   0.629  0.00  0.00    -0.042 A 
ATOM      5  C5  UNL d   1      -4.022  -0.113   1.843  0.00  0.00     0.033 A 
ATOM      6  C6  UNL d   1      -3.035  -0.450   2.774  0.00  0.00    -0.057 A 
ENDROOT
BRANCH   1   7
ATOM      7  N   UNL d   1      -0.738  -0.662   3.453  0.00  0.00    -0.732 N 
ATOM      8  C   UNL d   1      -0.677  -2.062   3.813  0.00  0.00     0.284 C 
ATOM      9  H3  UNL d   1       0.173  -0.223   3.334  0.00  0.00     0.395 HD
ENDBRANCH   1   7
TORSDOF 1
ENDMDL
