MODEL 1
REMARK minimizedAffinity 0.899693251
REMARK minimizedRMSD -1
REMARK  1 active torsions:
REMARK  status: ('A' for Active; 'I' for Inactive)
REMARK    1  A    between atoms: N_2  and  C1_3 
ROOT
ATOM      1  C1  UNL d   1      -2.100   0.350   0.824  0.00  0.00     0.143 A 
ATOM      2  C2  UNL d   1      -3.076   0.587   1.799  0.00  0.00    -0.057 A 
ATOM      3  C3  UNL d   1      -2.804   0.398   3.159  0.00  0.00     0.033 A 
ATOM      4  C4  UNL d   1      -1.556  -0.060   3.568  0.00  0.00    -0.042 A 
ATOM      5  C5  UNL d   1      -0.579  -0.326   2.615  0.00  0.00     0.033 A 
ATOM      6  C6  UNL d   1      -0.855  -0.129   1.259  0.00  0.00    -0.057 A 
ENDROOT
BRANCH   1   7
ATOM      7  N   UNL d   1      -2.340   0.425  -0.550  0.00  0.00    -0.732 N 
ATOM      8  C   UNL d   1      -1.242   0.388  -1.492  0.00  0.00     0.284 C 
ATOM      9  H3  UNL d   1      -3.149  -0.122  -0.834  0.00  0.00     0.395 HD
ENDBRANCH   1   7
TORSDOF 1
ENDMDL
