MODEL 1
REMARK minimizedAffinity 1.01038396
REMARK minimizedRMSD -1
REMARK  1 active torsions:
REMARK  status: ('A' for Active; 'I' for Inactive)
REMARK    1  A    between atoms: N_2  and  C1_3 
ROOT
ATOM      1  C1  UNL d   1      -2.214  -0.478  -0.852  0.00  0.00     0.143 A 
ATOM      2  C2  UNL d   1      -3.605  -0.347  -0.790  0.00  0.00    -0.057 A 
ATOM      3  C3  UNL d   1      -4.219   0.429   0.201  0.00  0.00     0.033 A 
ATOM      4  C4  UNL d   1      -3.449   1.065   1.169  0.00  0.00    -0.042 A 
ATOM      5  C5  UNL d   1      -2.066   0.928   1.143  0.00  0.00     0.033 A 
ATOM      6  C6  UNL d   1      -1.459   0.158   0.147  0.00  0.00    -0.057 A 
ENDROOT
BRANCH   1   7
ATOM      7  N   UNL d   1      -1.551  -1.314  -1.753  0.00  0.00    -0.732 N 
ATOM      8  C   UNL d   1      -1.313  -2.705  -1.430  0.00  0.00     0.284 C 
ATOM      9  H3  UNL d   1      -1.839  -1.154  -2.716  0.00  0.00     0.395 HD
ENDBRANCH   1   7
TORSDOF 1
ENDMDL
