MODEL 1
REMARK minimizedAffinity 14.0773983
REMARK minimizedRMSD -1
REMARK  1 active torsions:
REMARK  status: ('A' for Active; 'I' for Inactive)
REMARK    1  A    between atoms: N_2  and  C1_3 
ROOT
ATOM      1  C1  UNL d   1       0.504   1.511   1.880  0.00  0.00     0.143 A 
ATOM      2  C2  UNL d   1       0.513   0.212   2.401  0.00  0.00    -0.057 A 
ATOM      3  C3  UNL d   1      -0.374  -0.170   3.414  0.00  0.00     0.033 A 
ATOM      4  C4  UNL d   1      -1.270   0.752   3.947  0.00  0.00    -0.042 A 
ATOM      5  C5  UNL d   1      -1.279   2.055   3.462  0.00  0.00     0.033 A 
ATOM      6  C6  UNL d   1      -0.395   2.428   2.445  0.00  0.00    -0.057 A 
ENDROOT
BRANCH   1   7
ATOM      7  N   UNL d   1       1.427   1.979   0.942  0.00  0.00    -0.732 N 
ATOM      8  C   UNL d   1       0.987   2.733  -0.212  0.00  0.00     0.284 C 
ATOM      9  H3  UNL d   1       2.274   2.339   1.376  0.00  0.00     0.395 HD
ENDBRANCH   1   7
TORSDOF 1
ENDMDL
