MODEL 1
REMARK minimizedAffinity 4.87738323
REMARK minimizedRMSD -1
REMARK  1 active torsions:
REMARK  status: ('A' for Active; 'I' for Inactive)
REMARK    1  A    between atoms: N_2  and  C1_3 
ROOT
ATOM      1  C1  UNL d   1      -2.004  -0.071   0.795  0.00  0.00     0.143 A 
ATOM      2  C2  UNL d   1      -0.981  -0.867   0.269  0.00  0.00    -0.057 A 
ATOM      3  C3  UNL d   1      -1.062  -1.391  -1.027  0.00  0.00     0.033 A 
ATOM      4  C4  UNL d   1      -2.185  -1.152  -1.812  0.00  0.00    -0.042 A 
ATOM      5  C5  UNL d   1      -3.226  -0.385  -1.300  0.00  0.00     0.033 A 
ATOM      6  C6  UNL d   1      -3.136   0.142  -0.008  0.00  0.00    -0.057 A 
ENDROOT
BRANCH   1   7
ATOM      7  N   UNL d   1      -2.027   0.398   2.110  0.00  0.00    -0.732 N 
ATOM      8  C   UNL d   1      -0.943   0.094   3.020  0.00  0.00     0.284 C 
ATOM      9  H3  UNL d   1      -2.370   1.353   2.176  0.00  0.00     0.395 HD
ENDBRANCH   1   7
TORSDOF 1
ENDMDL
