MODEL 1
REMARK minimizedAffinity 6.74646139
REMARK minimizedRMSD -1
REMARK  1 active torsions:
REMARK  status: ('A' for Active; 'I' for Inactive)
REMARK    1  A    between atoms: N_2  and  C1_3 
ROOT
ATOM      1  C1  UNL d   1       3.321   4.084  -4.069  0.00  0.00     0.143 A 
ATOM      2  C2  UNL d   1       4.655   4.333  -4.408  0.00  0.00    -0.057 A 
ATOM      3  C3  UNL d   1       5.643   3.356  -4.233  0.00  0.00     0.033 A 
ATOM      4  C4  UNL d   1       5.317   2.119  -3.688  0.00  0.00    -0.042 A 
ATOM      5  C5  UNL d   1       4.002   1.858  -3.321  0.00  0.00     0.033 A 
ATOM      6  C6  UNL d   1       3.019   2.836  -3.503  0.00  0.00    -0.057 A 
ENDROOT
BRANCH   1   7
ATOM      7  N   UNL d   1       2.311   5.048  -4.126  0.00  0.00    -0.732 N 
ATOM      8  C   UNL d   1       0.962   4.727  -3.714  0.00  0.00     0.284 C 
ATOM      9  H3  UNL d   1       2.631   5.965  -3.823  0.00  0.00     0.395 HD
ENDBRANCH   1   7
TORSDOF 1
ENDMDL
