MODEL 1
REMARK minimizedAffinity 2.99957299
REMARK minimizedRMSD -1
REMARK  1 active torsions:
REMARK  status: ('A' for Active; 'I' for Inactive)
REMARK    1  A    between atoms: N_2  and  C1_3 
ROOT
ATOM      1  C1  UNL d   1      -2.308  -0.768   0.040  0.00  0.00     0.143 A 
ATOM      2  C2  UNL d   1      -2.163  -2.144   0.249  0.00  0.00    -0.057 A 
ATOM      3  C3  UNL d   1      -1.326  -2.918  -0.564  0.00  0.00     0.033 A 
ATOM      4  C4  UNL d   1      -0.640  -2.332  -1.623  0.00  0.00    -0.042 A 
ATOM      5  C5  UNL d   1      -0.788  -0.971  -1.865  0.00  0.00     0.033 A 
ATOM      6  C6  UNL d   1      -1.620  -0.202  -1.045  0.00  0.00    -0.057 A 
ENDROOT
BRANCH   1   7
ATOM      7  N   UNL d   1      -3.200   0.037   0.752  0.00  0.00    -0.732 N 
ATOM      8  C   UNL d   1      -4.624  -0.219   0.704  0.00  0.00     0.284 C 
ATOM      9  H3  UNL d   1      -2.852   0.278   1.678  0.00  0.00     0.395 HD
ENDBRANCH   1   7
TORSDOF 1
ENDMDL
