MODEL 1
REMARK minimizedAffinity 6.02291727
REMARK minimizedRMSD -1
REMARK  1 active torsions:
REMARK  status: ('A' for Active; 'I' for Inactive)
REMARK    1  A    between atoms: N_2  and  C1_3 
ROOT
ATOM      1  C1  UNL d   1      -2.589  -0.885  -0.908  0.00  0.00     0.143 A 
ATOM      2  C2  UNL d   1      -1.630  -1.760  -0.386  0.00  0.00    -0.057 A 
ATOM      3  C3  UNL d   1      -0.883  -2.600  -1.222  0.00  0.00     0.033 A 
ATOM      4  C4  UNL d   1      -1.103  -2.600  -2.595  0.00  0.00    -0.042 A 
ATOM      5  C5  UNL d   1      -2.070  -1.757  -3.132  0.00  0.00     0.033 A 
ATOM      6  C6  UNL d   1      -2.808  -0.916  -2.294  0.00  0.00    -0.057 A 
ENDROOT
BRANCH   1   7
ATOM      7  N   UNL d   1      -3.433  -0.098  -0.121  0.00  0.00    -0.732 N 
ATOM      8  C   UNL d   1      -4.757  -0.562   0.233  0.00  0.00     0.284 C 
ATOM      9  H3  UNL d   1      -2.937   0.363   0.639  0.00  0.00     0.395 HD
ENDBRANCH   1   7
TORSDOF 1
ENDMDL
