MODEL 1
REMARK minimizedAffinity 1.85839844
REMARK minimizedRMSD -1
REMARK  1 active torsions:
REMARK  status: ('A' for Active; 'I' for Inactive)
REMARK    1  A    between atoms: N_2  and  C1_3 
ROOT
ATOM      1  C1  UNL d   1       1.493   3.660  -3.438  0.00  0.00     0.143 A 
ATOM      2  C2  UNL d   1       1.660   4.868  -4.123  0.00  0.00    -0.057 A 
ATOM      3  C3  UNL d   1       2.486   4.956  -5.250  0.00  0.00     0.033 A 
ATOM      4  C4  UNL d   1       3.184   3.838  -5.697  0.00  0.00    -0.042 A 
ATOM      5  C5  UNL d   1       3.052   2.633  -5.017  0.00  0.00     0.033 A 
ATOM      6  C6  UNL d   1       2.221   2.551  -3.895  0.00  0.00    -0.057 A 
ENDROOT
BRANCH   1   7
ATOM      7  N   UNL d   1       0.764   3.532  -2.253  0.00  0.00    -0.732 N 
ATOM      8  C   UNL d   1       1.169   2.585  -1.237  0.00  0.00     0.284 C 
ATOM      9  H3  UNL d   1       0.459   4.431  -1.886  0.00  0.00     0.395 HD
ENDBRANCH   1   7
TORSDOF 1
ENDMDL
