MODEL 1
REMARK minimizedAffinity -3.81082416
REMARK minimizedRMSD -1
REMARK  0 active torsions:
REMARK  status: ('A' for Active; 'I' for Inactive)
ROOT
ATOM      1  C   UNL d   1       1.175   0.117  -0.581  0.00  0.00     0.020 A 
ATOM      2  C1  UNL d   1       1.584   0.565  -1.837  0.00  0.00     0.020 A 
ATOM      3  C2  UNL d   1       1.694   1.934  -2.089  0.00  0.00     0.034 A 
ATOM      4  C3  UNL d   1       1.394   2.861  -1.083  0.00  0.00     0.017 A 
ATOM      5  C4  UNL d   1       0.983   2.411   0.177  0.00  0.00     0.017 A 
ATOM      6  C5  UNL d   1       0.875   1.039   0.423  0.00  0.00     0.034 A 
ATOM      7 Cl   UNL d   1       0.597   3.494   1.467  0.00  0.00    -0.070 Cl
ATOM      8 Cl1  UNL d   1       1.552   4.539  -1.465  0.00  0.00    -0.070 Cl
ENDROOT
TORSDOF 0
ENDMDL
