MODEL 1
REMARK minimizedAffinity -3.60442114
REMARK minimizedRMSD -1
REMARK  0 active torsions:
REMARK  status: ('A' for Active; 'I' for Inactive)
ROOT
ATOM      1  C   UNL d   1       1.164   0.769   0.880  0.00  0.00     0.020 A 
ATOM      2  C1  UNL d   1       0.702   0.019  -0.201  0.00  0.00     0.020 A 
ATOM      3  C2  UNL d   1       0.645   0.590  -1.474  0.00  0.00     0.034 A 
ATOM      4  C3  UNL d   1       1.052   1.915  -1.670  0.00  0.00     0.017 A 
ATOM      5  C4  UNL d   1       1.516   2.667  -0.584  0.00  0.00     0.017 A 
ATOM      6  C5  UNL d   1       1.571   2.090   0.688  0.00  0.00     0.034 A 
ATOM      7 Cl   UNL d   1       2.036   4.307  -0.748  0.00  0.00    -0.070 Cl
ATOM      8 Cl1  UNL d   1       0.956   2.556  -3.271  0.00  0.00    -0.070 Cl
ENDROOT
TORSDOF 0
ENDMDL
