MODEL 1
REMARK minimizedAffinity 0.320530146
REMARK minimizedRMSD -1
REMARK  0 active torsions:
REMARK  status: ('A' for Active; 'I' for Inactive)
ROOT
ATOM      1  C   UNL d   1       1.146   0.902  -2.057  0.00  0.00     0.020 A 
ATOM      2  C1  UNL d   1       0.776   0.446  -0.792  0.00  0.00     0.020 A 
ATOM      3  C2  UNL d   1       0.748   1.331   0.288  0.00  0.00     0.034 A 
ATOM      4  C3  UNL d   1       1.090   2.676   0.106  0.00  0.00     0.017 A 
ATOM      5  C4  UNL d   1       1.461   3.132  -1.164  0.00  0.00     0.017 A 
ATOM      6  C5  UNL d   1       1.487   2.243  -2.242  0.00  0.00     0.034 A 
ATOM      7 Cl   UNL d   1       1.896   4.778  -1.467  0.00  0.00    -0.070 Cl
ATOM      8 Cl1  UNL d   1       1.033   3.714   1.486  0.00  0.00    -0.070 Cl
ENDROOT
TORSDOF 0
ENDMDL
