MODEL 1
REMARK minimizedAffinity 1.16154575
REMARK minimizedRMSD -1
REMARK  0 active torsions:
REMARK  status: ('A' for Active; 'I' for Inactive)
ROOT
ATOM      1  C   UNL d   1       1.838   3.673   0.149  0.00  0.00     0.020 A 
ATOM      2  C1  UNL d   1       1.595   4.760  -0.689  0.00  0.00     0.020 A 
ATOM      3  C2  UNL d   1       1.012   4.560  -1.942  0.00  0.00     0.034 A 
ATOM      4  C3  UNL d   1       0.671   3.269  -2.362  0.00  0.00     0.017 A 
ATOM      5  C4  UNL d   1       0.916   2.178  -1.520  0.00  0.00     0.017 A 
ATOM      6  C5  UNL d   1       1.499   2.384  -0.266  0.00  0.00     0.034 A 
ATOM      7 Cl   UNL d   1       0.522   0.556  -1.969  0.00  0.00    -0.070 Cl
ATOM      8 Cl1  UNL d   1      -0.046   3.095  -3.924  0.00  0.00    -0.070 Cl
ENDROOT
TORSDOF 0
ENDMDL
