MODEL 1
REMARK minimizedAffinity 4.07490063
REMARK minimizedRMSD -1
REMARK  0 active torsions:
REMARK  status: ('A' for Active; 'I' for Inactive)
ROOT
ATOM      1  C   UNL d   1       1.550  -0.999  -0.953  0.00  0.00     0.020 A 
ATOM      2  C1  UNL d   1       0.916  -0.765   0.267  0.00  0.00     0.020 A 
ATOM      3  C2  UNL d   1       0.730   0.543   0.717  0.00  0.00     0.034 A 
ATOM      4  C3  UNL d   1       1.178   1.623  -0.052  0.00  0.00     0.017 A 
ATOM      5  C4  UNL d   1       1.814   1.387  -1.277  0.00  0.00     0.017 A 
ATOM      6  C5  UNL d   1       1.998   0.075  -1.723  0.00  0.00     0.034 A 
ATOM      7 Cl   UNL d   1       2.393   2.668  -2.282  0.00  0.00    -0.070 Cl
ATOM      8 Cl1  UNL d   1       0.913   3.215   0.566  0.00  0.00    -0.070 Cl
ENDROOT
TORSDOF 0
ENDMDL
