MODEL 1
REMARK minimizedAffinity -0.237400249
REMARK minimizedRMSD -1
REMARK  0 active torsions:
REMARK  status: ('A' for Active; 'I' for Inactive)
ROOT
ATOM      1  C   UNL d   1       1.475   0.665  -1.433  0.00  0.00     0.020 A 
ATOM      2  C1  UNL d   1       0.946   0.397  -0.171  0.00  0.00     0.020 A 
ATOM      3  C2  UNL d   1       0.825   1.425   0.767  0.00  0.00     0.034 A 
ATOM      4  C3  UNL d   1       1.234   2.724   0.445  0.00  0.00     0.017 A 
ATOM      5  C4  UNL d   1       1.765   2.991  -0.822  0.00  0.00     0.017 A 
ATOM      6  C5  UNL d   1       1.884   1.959  -1.758  0.00  0.00     0.034 A 
ATOM      7 Cl   UNL d   1       2.291   4.569  -1.293  0.00  0.00    -0.070 Cl
ATOM      8 Cl1  UNL d   1       1.055   3.945   1.654  0.00  0.00    -0.070 Cl
ENDROOT
TORSDOF 0
ENDMDL
