MODEL 1
REMARK minimizedAffinity 9.60568142
REMARK minimizedRMSD -1
REMARK  0 active torsions:
REMARK  status: ('A' for Active; 'I' for Inactive)
ROOT
ATOM      1  C   UNL d   1       0.822   2.487  -2.209  0.00  0.00     0.020 A 
ATOM      2  C1  UNL d   1       1.614   3.048  -1.207  0.00  0.00     0.020 A 
ATOM      3  C2  UNL d   1       2.125   2.241  -0.188  0.00  0.00     0.034 A 
ATOM      4  C3  UNL d   1       1.845   0.870  -0.168  0.00  0.00     0.017 A 
ATOM      5  C4  UNL d   1       1.050   0.308  -1.174  0.00  0.00     0.017 A 
ATOM      6  C5  UNL d   1       0.541   1.120  -2.192  0.00  0.00     0.034 A 
ATOM      7 Cl   UNL d   1       0.662  -1.375  -1.216  0.00  0.00    -0.070 Cl
ATOM      8 Cl1  UNL d   1       2.510  -0.067   1.123  0.00  0.00    -0.070 Cl
ENDROOT
TORSDOF 0
ENDMDL
