MODEL 1
REMARK minimizedAffinity -1.65011215
REMARK minimizedRMSD -1
REMARK  0 active torsions:
REMARK  status: ('A' for Active; 'I' for Inactive)
ROOT
ATOM      1  C   UNL d   1       1.458  -0.022  -1.438  0.00  0.00     0.020 A 
ATOM      2  C1  UNL d   1       1.921   1.093  -2.134  0.00  0.00     0.020 A 
ATOM      3  C2  UNL d   1       1.847   2.360  -1.552  0.00  0.00     0.034 A 
ATOM      4  C3  UNL d   1       1.309   2.515  -0.269  0.00  0.00     0.017 A 
ATOM      5  C4  UNL d   1       0.845   1.394   0.430  0.00  0.00     0.017 A 
ATOM      6  C5  UNL d   1       0.922   0.128  -0.159  0.00  0.00     0.034 A 
ATOM      7 Cl   UNL d   1       0.168   1.505   2.016  0.00  0.00    -0.070 Cl
ATOM      8 Cl1  UNL d   1       1.249   4.110   0.391  0.00  0.00    -0.070 Cl
ENDROOT
TORSDOF 0
ENDMDL
