MODEL 1
REMARK minimizedAffinity 6.90866232
REMARK minimizedRMSD -1
REMARK  0 active torsions:
REMARK  status: ('A' for Active; 'I' for Inactive)
ROOT
ATOM      1  C   UNL d   1       0.926   3.631  -1.273  0.00  0.00     0.020 A 
ATOM      2  C1  UNL d   1       1.187   3.952   0.059  0.00  0.00     0.020 A 
ATOM      3  C2  UNL d   1       1.698   2.982   0.923  0.00  0.00     0.034 A 
ATOM      4  C3  UNL d   1       1.951   1.687   0.458  0.00  0.00     0.017 A 
ATOM      5  C4  UNL d   1       1.688   1.366  -0.879  0.00  0.00     0.017 A 
ATOM      6  C5  UNL d   1       1.176   2.341  -1.741  0.00  0.00     0.034 A 
ATOM      7 Cl   UNL d   1       1.974  -0.211  -1.527  0.00  0.00    -0.070 Cl
ATOM      8 Cl1  UNL d   1       2.584   0.538   1.582  0.00  0.00    -0.070 Cl
ENDROOT
TORSDOF 0
ENDMDL
