MODEL 1
REMARK minimizedAffinity 5.38699198
REMARK minimizedRMSD -1
REMARK  0 active torsions:
REMARK  status: ('A' for Active; 'I' for Inactive)
ROOT
ATOM      1  C   UNL d   1       0.524   3.847  -1.216  0.00  0.00     0.020 A 
ATOM      2  C1  UNL d   1       0.786   4.236   0.098  0.00  0.00     0.020 A 
ATOM      3  C2  UNL d   1       1.374   3.335   0.988  0.00  0.00     0.034 A 
ATOM      4  C3  UNL d   1       1.703   2.042   0.567  0.00  0.00     0.017 A 
ATOM      5  C4  UNL d   1       1.441   1.653  -0.752  0.00  0.00     0.017 A 
ATOM      6  C5  UNL d   1       0.851   2.559  -1.639  0.00  0.00     0.034 A 
ATOM      7 Cl   UNL d   1       1.818   0.074  -1.345  0.00  0.00    -0.070 Cl
ATOM      8 Cl1  UNL d   1       2.429   0.981   1.721  0.00  0.00    -0.070 Cl
ENDROOT
TORSDOF 0
ENDMDL
