MODEL 1
REMARK minimizedAffinity 1.24761355
REMARK minimizedRMSD -1
REMARK  0 active torsions:
REMARK  status: ('A' for Active; 'I' for Inactive)
ROOT
ATOM      1  C   UNL d   1       0.785   0.301  -1.830  0.00  0.00     0.020 A 
ATOM      2  C1  UNL d   1       0.901   1.283  -2.813  0.00  0.00     0.020 A 
ATOM      3  C2  UNL d   1       1.098   2.616  -2.449  0.00  0.00     0.034 A 
ATOM      4  C3  UNL d   1       1.180   2.972  -1.098  0.00  0.00     0.017 A 
ATOM      5  C4  UNL d   1       1.063   1.986  -0.111  0.00  0.00     0.017 A 
ATOM      6  C5  UNL d   1       0.866   0.652  -0.482  0.00  0.00     0.034 A 
ATOM      7 Cl   UNL d   1       1.154   2.348   1.576  0.00  0.00    -0.070 Cl
ATOM      8 Cl1  UNL d   1       1.425   4.640  -0.719  0.00  0.00    -0.070 Cl
ENDROOT
TORSDOF 0
ENDMDL
