MODEL 1
REMARK minimizedAffinity 1.95765662
REMARK minimizedRMSD -1
REMARK  0 active torsions:
REMARK  status: ('A' for Active; 'I' for Inactive)
ROOT
ATOM      1  C   UNL d   1       1.216  -0.499  -1.147  0.00  0.00     0.020 A 
ATOM      2  C1  UNL d   1       1.053  -0.524   0.238  0.00  0.00     0.020 A 
ATOM      3  C2  UNL d   1       0.994   0.672   0.956  0.00  0.00     0.034 A 
ATOM      4  C3  UNL d   1       1.098   1.898   0.289  0.00  0.00     0.017 A 
ATOM      5  C4  UNL d   1       1.261   1.922  -1.101  0.00  0.00     0.017 A 
ATOM      6  C5  UNL d   1       1.319   0.721  -1.814  0.00  0.00     0.034 A 
ATOM      7 Cl   UNL d   1       1.396   3.397  -1.993  0.00  0.00    -0.070 Cl
ATOM      8 Cl1  UNL d   1       1.017   3.339   1.240  0.00  0.00    -0.070 Cl
ENDROOT
TORSDOF 0
ENDMDL
