MODEL 1
REMARK minimizedAffinity -0.351980299
REMARK minimizedRMSD -1
REMARK  0 active torsions:
REMARK  status: ('A' for Active; 'I' for Inactive)
ROOT
ATOM      1  C   UNL d   1       1.266   0.683   0.887  0.00  0.00     0.020 A 
ATOM      2  C1  UNL d   1       1.305  -0.160  -0.223  0.00  0.00     0.020 A 
ATOM      3  C2  UNL d   1       1.289   0.380  -1.511  0.00  0.00     0.034 A 
ATOM      4  C3  UNL d   1       1.233   1.767  -1.692  0.00  0.00     0.017 A 
ATOM      5  C4  UNL d   1       1.195   2.612  -0.577  0.00  0.00     0.017 A 
ATOM      6  C5  UNL d   1       1.211   2.066   0.710  0.00  0.00     0.034 A 
ATOM      7 Cl   UNL d   1       1.126   4.333  -0.721  0.00  0.00    -0.070 Cl
ATOM      8 Cl1  UNL d   1       1.216   2.365  -3.313  0.00  0.00    -0.070 Cl
ENDROOT
TORSDOF 0
ENDMDL
