MODEL 1
REMARK minimizedAffinity 0.576494753
REMARK minimizedRMSD -1
REMARK  0 active torsions:
REMARK  status: ('A' for Active; 'I' for Inactive)
ROOT
ATOM      1  C   UNL d   1       0.938   0.787  -0.509  0.00  0.00     0.020 A 
ATOM      2  C1  UNL d   1       1.204   1.226  -1.805  0.00  0.00     0.020 A 
ATOM      3  C2  UNL d   1       1.501   2.570  -2.040  0.00  0.00     0.034 A 
ATOM      4  C3  UNL d   1       1.532   3.480  -0.978  0.00  0.00     0.017 A 
ATOM      5  C4  UNL d   1       1.264   3.039   0.323  0.00  0.00     0.017 A 
ATOM      6  C5  UNL d   1       0.967   1.692   0.553  0.00  0.00     0.034 A 
ATOM      7 Cl   UNL d   1       1.283   4.103   1.685  0.00  0.00    -0.070 Cl
ATOM      8 Cl1  UNL d   1       1.906   5.127  -1.341  0.00  0.00    -0.070 Cl
ENDROOT
TORSDOF 0
ENDMDL
