MODEL 1
REMARK minimizedAffinity 8.26643467
REMARK minimizedRMSD -1
REMARK  0 active torsions:
REMARK  status: ('A' for Active; 'I' for Inactive)
ROOT
ATOM      1  C2' OXE d   1       5.305   3.283  -0.631  0.00  0.00     0.078 C 
ATOM      2  C1' OXE d   1       6.000   6.000  -0.507  0.00  0.00     0.078 C 
ATOM      3  C1  OXE d   1       5.605   5.315   0.778  0.00  0.00    -0.078 A 
ATOM      4  C2  OXE d   1       5.221   3.998   0.700  0.00  0.00    -0.078 A 
ATOM      5  C3  OXE d   1       4.900   3.304   1.863  0.00  0.00     0.003 A 
ATOM      6  C4  OXE d   1       4.816   3.976   3.089  0.00  0.00    -0.002 A 
ATOM      7  C5  OXE d   1       5.164   5.328   3.183  0.00  0.00    -0.002 A 
ATOM      8  C6  OXE d   1       5.601   6.000   2.047  0.00  0.00     0.003 A 
ENDROOT
TORSDOF 0
ENDMDL
