MODEL 1
REMARK minimizedAffinity 16.5716934
REMARK minimizedRMSD -1
REMARK  0 active torsions:
REMARK  status: ('A' for Active; 'I' for Inactive)
ROOT
ATOM      1  C2' OXE d   1      -2.267  -0.848   1.751  0.00  0.00     0.078 C 
ATOM      2  C1' OXE d   1      -1.060  -3.381   1.849  0.00  0.00     0.078 C 
ATOM      3  C1  OXE d   1      -0.216  -2.216   1.393  0.00  0.00    -0.078 A 
ATOM      4  C2  OXE d   1      -0.828  -0.989   1.303  0.00  0.00    -0.078 A 
ATOM      5  C3  OXE d   1      -0.082   0.128   0.941  0.00  0.00     0.003 A 
ATOM      6  C4  OXE d   1       1.246  -0.012   0.519  0.00  0.00    -0.002 A 
ATOM      7  C5  OXE d   1       1.877  -1.260   0.564  0.00  0.00    -0.002 A 
ATOM      8  C6  OXE d   1       1.174  -2.362   1.038  0.00  0.00     0.003 A 
ENDROOT
TORSDOF 0
ENDMDL
