MODEL 1
REMARK minimizedAffinity 0.771599114
REMARK minimizedRMSD -1
REMARK  0 active torsions:
REMARK  status: ('A' for Active; 'I' for Inactive)
ROOT
ATOM      1  C2' OXE d   1      -4.474   2.805  -5.883  0.00  0.00     0.078 C 
ATOM      2  C1' OXE d   1      -2.547   4.837  -5.689  0.00  0.00     0.078 C 
ATOM      3  C1  OXE d   1      -3.739   4.907  -4.768  0.00  0.00    -0.078 A 
ATOM      4  C2  OXE d   1      -4.700   3.935  -4.902  0.00  0.00    -0.078 A 
ATOM      5  C3  OXE d   1      -5.793   3.922  -4.040  0.00  0.00     0.003 A 
ATOM      6  C4  OXE d   1      -6.000   4.976  -3.142  0.00  0.00    -0.002 A 
ATOM      7  C5  OXE d   1      -5.053   5.998  -3.017  0.00  0.00    -0.002 A 
ATOM      8  C6  OXE d   1      -3.898   5.956  -3.791  0.00  0.00     0.003 A 
ENDROOT
TORSDOF 0
ENDMDL
