MODEL 1
REMARK minimizedAffinity -2.23787737
REMARK minimizedRMSD -1
REMARK  0 active torsions:
REMARK  status: ('A' for Active; 'I' for Inactive)
ROOT
ATOM      1  C2' OXE d   1      -5.843   2.449  -2.789  0.00  0.00     0.078 C 
ATOM      2  C1' OXE d   1      -6.000   5.076  -1.812  0.00  0.00     0.078 C 
ATOM      3  C1  OXE d   1      -5.723   4.888  -3.283  0.00  0.00    -0.078 A 
ATOM      4  C2  OXE d   1      -5.601   3.599  -3.743  0.00  0.00    -0.078 A 
ATOM      5  C3  OXE d   1      -5.401   3.368  -5.101  0.00  0.00     0.003 A 
ATOM      6  C4  OXE d   1      -5.168   4.437  -5.975  0.00  0.00    -0.002 A 
ATOM      7  C5  OXE d   1      -5.248   5.757  -5.519  0.00  0.00    -0.002 A 
ATOM      8  C6  OXE d   1      -5.566   6.000  -4.187  0.00  0.00     0.003 A 
ENDROOT
TORSDOF 0
ENDMDL
