MODEL 1
REMARK minimizedAffinity -3.12175226
REMARK minimizedRMSD -1
REMARK  0 active torsions:
REMARK  status: ('A' for Active; 'I' for Inactive)
ROOT
ATOM      1  C2' OXE d   1      -4.695   2.240  -5.237  0.00  0.00     0.078 C 
ATOM      2  C1' OXE d   1      -3.201   4.491  -6.000  0.00  0.00     0.078 C 
ATOM      3  C1  OXE d   1      -4.163   4.642  -4.848  0.00  0.00    -0.078 A 
ATOM      4  C2  OXE d   1      -4.923   3.548  -4.511  0.00  0.00    -0.078 A 
ATOM      5  C3  OXE d   1      -5.786   3.617  -3.421  0.00  0.00     0.003 A 
ATOM      6  C4  OXE d   1      -5.999   4.834  -2.762  0.00  0.00    -0.002 A 
ATOM      7  C5  OXE d   1      -5.264   5.971  -3.114  0.00  0.00    -0.002 A 
ATOM      8  C6  OXE d   1      -4.313   5.881  -4.125  0.00  0.00     0.003 A 
ENDROOT
TORSDOF 0
ENDMDL
