MODEL 1
REMARK minimizedAffinity -3.9741931
REMARK minimizedRMSD -1
REMARK  0 active torsions:
REMARK  status: ('A' for Active; 'I' for Inactive)
ROOT
ATOM      1  C2' OXE d   1      -3.011   3.641  -5.251  0.00  0.00     0.078 C 
ATOM      2  C1' OXE d   1      -4.509   5.983  -4.867  0.00  0.00     0.078 C 
ATOM      3  C1  OXE d   1      -4.781   4.816  -3.951  0.00  0.00    -0.078 A 
ATOM      4  C2  OXE d   1      -4.076   3.658  -4.176  0.00  0.00    -0.078 A 
ATOM      5  C3  OXE d   1      -4.248   2.570  -3.326  0.00  0.00     0.003 A 
ATOM      6  C4  OXE d   1      -5.242   2.591  -2.340  0.00  0.00    -0.002 A 
ATOM      7  C5  OXE d   1      -5.999   3.746  -2.120  0.00  0.00    -0.002 A 
ATOM      8  C6  OXE d   1      -5.752   4.879  -2.887  0.00  0.00     0.003 A 
ENDROOT
TORSDOF 0
ENDMDL
