MODEL 1
REMARK minimizedAffinity 12.1221895
REMARK minimizedRMSD -1
REMARK  0 active torsions:
REMARK  status: ('A' for Active; 'I' for Inactive)
ROOT
ATOM      1  C2' OXE d   1      -2.626  -6.000  -0.419  0.00  0.00     0.078 C 
ATOM      2  C1' OXE d   1      -2.037  -5.398  -3.097  0.00  0.00     0.078 C 
ATOM      3  C1  OXE d   1      -3.238  -4.731  -2.474  0.00  0.00    -0.078 A 
ATOM      4  C2  OXE d   1      -3.546  -5.067  -1.177  0.00  0.00    -0.078 A 
ATOM      5  C3  OXE d   1      -4.610  -4.439  -0.537  0.00  0.00     0.003 A 
ATOM      6  C4  OXE d   1      -5.461  -3.585  -1.248  0.00  0.00    -0.002 A 
ATOM      7  C5  OXE d   1      -5.189  -3.260  -2.581  0.00  0.00    -0.002 A 
ATOM      8  C6  OXE d   1      -4.059  -3.790  -3.195  0.00  0.00     0.003 A 
ENDROOT
TORSDOF 0
ENDMDL
