MODEL 1
REMARK minimizedAffinity 2.91838145
REMARK minimizedRMSD -1
REMARK  0 active torsions:
REMARK  status: ('A' for Active; 'I' for Inactive)
ROOT
ATOM      1  C2' OXE d   1       0.002  -0.667   1.053  0.00  0.00     0.078 C 
ATOM      2  C1' OXE d   1      -2.624  -0.502   2.032  0.00  0.00     0.078 C 
ATOM      3  C1  OXE d   1      -2.364  -1.425   0.867  0.00  0.00    -0.078 A 
ATOM      4  C2  OXE d   1      -1.086  -1.464   0.365  0.00  0.00    -0.078 A 
ATOM      5  C3  OXE d   1      -0.780  -2.339  -0.674  0.00  0.00     0.003 A 
ATOM      6  C4  OXE d   1      -1.793  -3.065  -1.311  0.00  0.00    -0.002 A 
ATOM      7  C5  OXE d   1      -3.110  -3.009  -0.840  0.00  0.00    -0.002 A 
ATOM      8  C6  OXE d   1      -3.403  -2.228   0.272  0.00  0.00     0.003 A 
ENDROOT
TORSDOF 0
ENDMDL
