MODEL 1
REMARK minimizedAffinity -0.0401398093
REMARK minimizedRMSD -1
REMARK  0 active torsions:
REMARK  status: ('A' for Active; 'I' for Inactive)
ROOT
ATOM      1  C2' OXE d   1      -6.000   4.071   1.559  0.00  0.00     0.078 C 
ATOM      2  C1' OXE d   1      -5.985   4.460  -1.221  0.00  0.00     0.078 C 
ATOM      3  C1  OXE d   1      -5.974   3.041  -0.709  0.00  0.00    -0.078 A 
ATOM      4  C2  OXE d   1      -5.934   2.861   0.652  0.00  0.00    -0.078 A 
ATOM      5  C3  OXE d   1      -5.978   1.573   1.179  0.00  0.00     0.003 A 
ATOM      6  C4  OXE d   1      -5.907   0.459   0.333  0.00  0.00    -0.002 A 
ATOM      7  C5  OXE d   1      -5.906   0.621  -1.056  0.00  0.00    -0.002 A 
ATOM      8  C6  OXE d   1      -5.983   1.902  -1.593  0.00  0.00     0.003 A 
ENDROOT
TORSDOF 0
ENDMDL
