MODEL 1
REMARK minimizedAffinity -2.00312638
REMARK minimizedRMSD -1
REMARK  0 active torsions:
REMARK  status: ('A' for Active; 'I' for Inactive)
ROOT
ATOM      1  C2' OXE d   1       3.382   2.749  -5.990  0.00  0.00     0.078 C 
ATOM      2  C1' OXE d   1       2.391   2.505  -3.375  0.00  0.00     0.078 C 
ATOM      3  C1  OXE d   1       3.648   1.747  -3.725  0.00  0.00    -0.078 A 
ATOM      4  C2  OXE d   1       4.099   1.835  -5.019  0.00  0.00    -0.078 A 
ATOM      5  C3  OXE d   1       5.284   1.200  -5.381  0.00  0.00     0.003 A 
ATOM      6  C4  OXE d   1       5.935   0.348  -4.480  0.00  0.00    -0.002 A 
ATOM      7  C5  OXE d   1       5.470   0.213  -3.168  0.00  0.00    -0.002 A 
ATOM      8  C6  OXE d   1       4.354   0.937  -2.763  0.00  0.00     0.003 A 
ENDROOT
TORSDOF 0
ENDMDL
