MODEL 1
REMARK minimizedAffinity 10.8436003
REMARK minimizedRMSD -1
REMARK  0 active torsions:
REMARK  status: ('A' for Active; 'I' for Inactive)
ROOT
ATOM      1  C2' OXE d   1       4.334   3.206  -0.794  0.00  0.00     0.078 C 
ATOM      2  C1' OXE d   1       4.075   5.997  -0.640  0.00  0.00     0.078 C 
ATOM      3  C1  OXE d   1       4.729   5.287   0.519  0.00  0.00    -0.078 A 
ATOM      4  C2  OXE d   1       4.809   3.916   0.456  0.00  0.00    -0.078 A 
ATOM      5  C3  OXE d   1       5.452   3.216   1.473  0.00  0.00     0.003 A 
ATOM      6  C4  OXE d   1       5.880   3.879   2.629  0.00  0.00    -0.002 A 
ATOM      7  C5  OXE d   1       5.771   5.270   2.731  0.00  0.00    -0.002 A 
ATOM      8  C6  OXE d   1       5.238   5.992   1.669  0.00  0.00     0.003 A 
ENDROOT
TORSDOF 0
ENDMDL
