MODEL 1
REMARK minimizedAffinity 16.8945999
REMARK minimizedRMSD -1
REMARK  0 active torsions:
REMARK  status: ('A' for Active; 'I' for Inactive)
ROOT
ATOM      1  C2' OXE d   1      -1.881  -5.231  -3.813  0.00  0.00     0.078 C 
ATOM      2  C1' OXE d   1      -2.988  -2.680  -3.431  0.00  0.00     0.078 C 
ATOM      3  C1  OXE d   1      -3.295  -3.741  -2.404  0.00  0.00    -0.078 A 
ATOM      4  C2  OXE d   1      -2.788  -4.999  -2.623  0.00  0.00    -0.078 A 
ATOM      5  C3  OXE d   1      -2.995  -6.000  -1.679  0.00  0.00     0.003 A 
ATOM      6  C4  OXE d   1      -3.842  -5.779  -0.587  0.00  0.00    -0.002 A 
ATOM      7  C5  OXE d   1      -4.402  -4.516  -0.366  0.00  0.00    -0.002 A 
ATOM      8  C6  OXE d   1      -4.104  -3.477  -1.240  0.00  0.00     0.003 A 
ENDROOT
TORSDOF 0
ENDMDL
