MODEL 1
REMARK minimizedAffinity 11.1808691
REMARK minimizedRMSD -1
REMARK  0 active torsions:
REMARK  status: ('A' for Active; 'I' for Inactive)
ROOT
ATOM      1  C2' OXE d   1       1.578   3.092  -6.000  0.00  0.00     0.078 C 
ATOM      2  C1' OXE d   1      -0.482   1.854  -4.549  0.00  0.00     0.078 C 
ATOM      3  C1  OXE d   1      -0.655   3.306  -4.916  0.00  0.00    -0.078 A 
ATOM      4  C2  OXE d   1       0.378   3.917  -5.586  0.00  0.00    -0.078 A 
ATOM      5  C3  OXE d   1       0.247   5.240  -5.997  0.00  0.00     0.003 A 
ATOM      6  C4  OXE d   1      -0.861   5.999  -5.602  0.00  0.00    -0.002 A 
ATOM      7  C5  OXE d   1      -1.907   5.407  -4.885  0.00  0.00    -0.002 A 
ATOM      8  C6  OXE d   1      -1.839   4.054  -4.572  0.00  0.00     0.003 A 
ENDROOT
TORSDOF 0
ENDMDL
