MODEL 1
REMARK minimizedAffinity 5.56628466
REMARK minimizedRMSD -1
REMARK  0 active torsions:
REMARK  status: ('A' for Active; 'I' for Inactive)
ROOT
ATOM      1  C2' OXE d   1       3.229   2.082  -5.971  0.00  0.00     0.078 C 
ATOM      2  C1' OXE d   1       1.637   4.394  -5.999  0.00  0.00     0.078 C 
ATOM      3  C1  OXE d   1       3.134   4.571  -5.973  0.00  0.00    -0.078 A 
ATOM      4  C2  OXE d   1       3.905   3.435  -5.912  0.00  0.00    -0.078 A 
ATOM      5  C3  OXE d   1       5.292   3.540  -5.941  0.00  0.00     0.003 A 
ATOM      6  C4  OXE d   1       5.909   4.795  -5.876  0.00  0.00    -0.002 A 
ATOM      7  C5  OXE d   1       5.142   5.965  -5.897  0.00  0.00    -0.002 A 
ATOM      8  C6  OXE d   1       3.758   5.871  -5.988  0.00  0.00     0.003 A 
ENDROOT
TORSDOF 0
ENDMDL
