MODEL 1
REMARK minimizedAffinity 15.9621344
REMARK minimizedRMSD -1
REMARK  0 active torsions:
REMARK  status: ('A' for Active; 'I' for Inactive)
ROOT
ATOM      1  C2' OXE d   1      -2.811   0.142   1.455  0.00  0.00     0.078 C 
ATOM      2  C1' OXE d   1      -2.366  -1.721   3.507  0.00  0.00     0.078 C 
ATOM      3  C1  OXE d   1      -2.390  -2.230   2.087  0.00  0.00    -0.078 A 
ATOM      4  C2  OXE d   1      -2.655  -1.319   1.093  0.00  0.00    -0.078 A 
ATOM      5  C3  OXE d   1      -2.635  -1.726  -0.238  0.00  0.00     0.003 A 
ATOM      6  C4  OXE d   1      -2.500  -3.081  -0.563  0.00  0.00    -0.002 A 
ATOM      7  C5  OXE d   1      -2.268  -4.032   0.437  0.00  0.00    -0.002 A 
ATOM      8  C6  OXE d   1      -2.168  -3.617   1.761  0.00  0.00     0.003 A 
ENDROOT
TORSDOF 0
ENDMDL
