MODEL 1
REMARK minimizedAffinity 4.66585064
REMARK minimizedRMSD -1
REMARK  0 active torsions:
REMARK  status: ('A' for Active; 'I' for Inactive)
ROOT
ATOM      1  C2' OXE d   1       1.847   3.815  -5.969  0.00  0.00     0.078 C 
ATOM      2  C1' OXE d   1       3.854   1.853  -5.973  0.00  0.00     0.078 C 
ATOM      3  C1  OXE d   1       4.283   3.299  -5.954  0.00  0.00    -0.078 A 
ATOM      4  C2  OXE d   1       3.295   4.252  -5.999  0.00  0.00    -0.078 A 
ATOM      5  C3  OXE d   1       3.634   5.600  -5.929  0.00  0.00     0.003 A 
ATOM      6  C4  OXE d   1       4.977   5.997  -5.967  0.00  0.00    -0.002 A 
ATOM      7  C5  OXE d   1       5.999   5.042  -5.961  0.00  0.00    -0.002 A 
ATOM      8  C6  OXE d   1       5.670   3.692  -5.912  0.00  0.00     0.003 A 
ENDROOT
TORSDOF 0
ENDMDL
