MODEL 1
REMARK minimizedAffinity 4.27420187
REMARK minimizedRMSD -1
REMARK  0 active torsions:
REMARK  status: ('A' for Active; 'I' for Inactive)
ROOT
ATOM      1  C2' OXE d   1      -2.259   5.965  -5.999  0.00  0.00     0.078 C 
ATOM      2  C1' OXE d   1      -2.209   4.872  -3.414  0.00  0.00     0.078 C 
ATOM      3  C1  OXE d   1      -3.555   5.173  -4.024  0.00  0.00    -0.078 A 
ATOM      4  C2  OXE d   1      -3.568   5.751  -5.271  0.00  0.00    -0.078 A 
ATOM      5  C3  OXE d   1      -4.784   6.000  -5.903  0.00  0.00     0.003 A 
ATOM      6  C4  OXE d   1      -5.990   5.808  -5.218  0.00  0.00    -0.002 A 
ATOM      7  C5  OXE d   1      -5.997   5.258  -3.932  0.00  0.00    -0.002 A 
ATOM      8  C6  OXE d   1      -4.793   4.896  -3.339  0.00  0.00     0.003 A 
ENDROOT
TORSDOF 0
ENDMDL
