MODEL 1
REMARK minimizedAffinity 5.22367573
REMARK minimizedRMSD -1
REMARK  0 active torsions:
REMARK  status: ('A' for Active; 'I' for Inactive)
ROOT
ATOM      1  C2' OXE d   1       2.453   1.951  -5.967  0.00  0.00     0.078 C 
ATOM      2  C1' OXE d   1       5.227   2.320  -5.746  0.00  0.00     0.078 C 
ATOM      3  C1  OXE d   1       4.357   3.550  -5.806  0.00  0.00    -0.078 A 
ATOM      4  C2  OXE d   1       3.005   3.360  -5.961  0.00  0.00    -0.078 A 
ATOM      5  C3  OXE d   1       2.151   4.460  -5.968  0.00  0.00     0.003 A 
ATOM      6  C4  OXE d   1       2.670   5.760  -5.972  0.00  0.00    -0.002 A 
ATOM      7  C5  OXE d   1       4.047   5.975  -5.855  0.00  0.00    -0.002 A 
ATOM      8  C6  OXE d   1       4.899   4.884  -5.728  0.00  0.00     0.003 A 
ENDROOT
TORSDOF 0
ENDMDL
