MODEL 1
REMARK minimizedAffinity 8.47695923
REMARK minimizedRMSD -1
REMARK  0 active torsions:
REMARK  status: ('A' for Active; 'I' for Inactive)
ROOT
ATOM      1  C2' OXE d   1       3.291  -2.489  -2.206  0.00  0.00     0.078 C 
ATOM      2  C1' OXE d   1       1.394  -0.617  -3.088  0.00  0.00     0.078 C 
ATOM      3  C1  OXE d   1       1.569  -0.794  -1.600  0.00  0.00    -0.078 A 
ATOM      4  C2  OXE d   1       2.466  -1.745  -1.178  0.00  0.00    -0.078 A 
ATOM      5  C3  OXE d   1       2.706  -1.911   0.183  0.00  0.00     0.003 A 
ATOM      6  C4  OXE d   1       1.931  -1.226   1.128  0.00  0.00    -0.002 A 
ATOM      7  C5  OXE d   1       0.984  -0.281   0.719  0.00  0.00    -0.002 A 
ATOM      8  C6  OXE d   1       0.821  -0.023  -0.638  0.00  0.00     0.003 A 
ENDROOT
TORSDOF 0
ENDMDL
