MODEL 1
REMARK minimizedAffinity 6.44189453
REMARK minimizedRMSD -1
REMARK  0 active torsions:
REMARK  status: ('A' for Active; 'I' for Inactive)
ROOT
ATOM      1  C2' OXE d   1       1.195  -1.727   0.219  0.00  0.00     0.078 C 
ATOM      2  C1' OXE d   1       0.655   0.937  -0.484  0.00  0.00     0.078 C 
ATOM      3  C1  OXE d   1      -0.199   0.305   0.586  0.00  0.00    -0.078 A 
ATOM      4  C2  OXE d   1       0.041  -1.013   0.890  0.00  0.00    -0.078 A 
ATOM      5  C3  OXE d   1      -0.682  -1.629   1.908  0.00  0.00     0.003 A 
ATOM      6  C4  OXE d   1      -1.753  -0.966   2.517  0.00  0.00    -0.002 A 
ATOM      7  C5  OXE d   1      -2.041   0.365   2.194  0.00  0.00    -0.002 A 
ATOM      8  C6  OXE d   1      -1.248   1.026   1.263  0.00  0.00     0.003 A 
ENDROOT
TORSDOF 0
ENDMDL
