MODEL 1
REMARK minimizedAffinity 2.18710208
REMARK minimizedRMSD -1
REMARK  0 active torsions:
REMARK  status: ('A' for Active; 'I' for Inactive)
ROOT
ATOM      1  O1  BZF d   1       4.517   5.622  -1.351  0.00  0.00    -0.204 OA
ATOM      2  C2  BZF d   1       3.205   5.252  -1.126  0.00  0.00     0.174 A 
ATOM      3  C3  BZF d   1       2.631   4.809  -2.263  0.00  0.00    -0.012 A 
ATOM      4  C3A BZF d   1       3.675   4.822  -3.241  0.00  0.00    -0.107 A 
ATOM      5  C4  BZF d   1       3.730   4.477  -4.561  0.00  0.00     0.055 A 
ATOM      6  C5  BZF d   1       4.884   4.678  -5.250  0.00  0.00    -0.016 A 
ATOM      7  C6  BZF d   1       6.000   5.226  -4.652  0.00  0.00     0.022 A 
ATOM      8  C7  BZF d   1       5.996   5.580  -3.343  0.00  0.00     0.029 A 
ATOM      9  C7A BZF d   1       4.841   5.347  -2.637  0.00  0.00     0.058 A 
ENDROOT
TORSDOF 0
ENDMDL
