MODEL 1
REMARK minimizedAffinity 2.33952379
REMARK minimizedRMSD -1
REMARK  0 active torsions:
REMARK  status: ('A' for Active; 'I' for Inactive)
ROOT
ATOM      1  O1  BZF d   1       5.993   5.265  -2.401  0.00  0.00    -0.204 OA
ATOM      2  C2  BZF d   1       5.022   5.510  -1.449  0.00  0.00     0.174 A 
ATOM      3  C3  BZF d   1       3.850   5.833  -2.033  0.00  0.00    -0.012 A 
ATOM      4  C3A BZF d   1       4.080   5.697  -3.439  0.00  0.00    -0.107 A 
ATOM      5  C4  BZF d   1       3.290   5.866  -4.540  0.00  0.00     0.055 A 
ATOM      6  C5  BZF d   1       3.840   5.726  -5.775  0.00  0.00    -0.016 A 
ATOM      7  C6  BZF d   1       5.175   5.423  -5.945  0.00  0.00     0.022 A 
ATOM      8  C7  BZF d   1       5.997   5.242  -4.883  0.00  0.00     0.029 A 
ATOM      9  C7A BZF d   1       5.437   5.350  -3.634  0.00  0.00     0.058 A 
ENDROOT
TORSDOF 0
ENDMDL
