MODEL 1
REMARK minimizedAffinity 1.34510016
REMARK minimizedRMSD -1
REMARK  0 active torsions:
REMARK  status: ('A' for Active; 'I' for Inactive)
ROOT
ATOM      1  O1  BZF d   1      -3.202  -2.040  -2.050  0.00  0.00    -0.204 OA
ATOM      2  C2  BZF d   1      -3.567  -2.206  -0.728  0.00  0.00     0.174 A 
ATOM      3  C3  BZF d   1      -2.487  -2.465   0.038  0.00  0.00    -0.012 A 
ATOM      4  C3A BZF d   1      -1.367  -2.370  -0.847  0.00  0.00    -0.107 A 
ATOM      5  C4  BZF d   1      -0.019  -2.509  -0.674  0.00  0.00     0.055 A 
ATOM      6  C5  BZF d   1       0.797  -2.426  -1.757  0.00  0.00    -0.016 A 
ATOM      7  C6  BZF d   1       0.301  -2.210  -3.026  0.00  0.00     0.022 A 
ATOM      8  C7  BZF d   1      -1.028  -2.061  -3.247  0.00  0.00     0.029 A 
ATOM      9  C7A BZF d   1      -1.853  -2.112  -2.150  0.00  0.00     0.058 A 
ENDROOT
TORSDOF 0
ENDMDL
