MODEL 1
REMARK minimizedAffinity 19.8436241
REMARK minimizedRMSD -1
REMARK  0 active torsions:
REMARK  status: ('A' for Active; 'I' for Inactive)
ROOT
ATOM      1  O1  BZF d   1       4.316  -1.391   3.821  0.00  0.00    -0.204 OA
ATOM      2  C2  BZF d   1       3.132  -1.730   3.195  0.00  0.00     0.174 A 
ATOM      3  C3  BZF d   1       2.789  -3.003   3.479  0.00  0.00    -0.012 A 
ATOM      4  C3A BZF d   1       3.775  -3.461   4.409  0.00  0.00    -0.107 A 
ATOM      5  C4  BZF d   1       3.965  -4.640   5.071  0.00  0.00     0.055 A 
ATOM      6  C5  BZF d   1       5.067  -4.788   5.853  0.00  0.00    -0.016 A 
ATOM      7  C6  BZF d   1       6.000  -3.781   5.991  0.00  0.00     0.022 A 
ATOM      8  C7  BZF d   1       5.851  -2.592   5.358  0.00  0.00     0.029 A 
ATOM      9  C7A BZF d   1       4.722  -2.427   4.594  0.00  0.00     0.058 A 
ENDROOT
TORSDOF 0
ENDMDL
