MODEL 1
REMARK minimizedAffinity 27.3389339
REMARK minimizedRMSD -1
REMARK  0 active torsions:
REMARK  status: ('A' for Active; 'I' for Inactive)
ROOT
ATOM      1  O1  BZF d   1      -1.926  -2.332  -3.725  0.00  0.00    -0.204 OA
ATOM      2  C2  BZF d   1      -1.036  -2.168  -4.769  0.00  0.00     0.174 A 
ATOM      3  C3  BZF d   1       0.199  -1.889  -4.305  0.00  0.00    -0.012 A 
ATOM      4  C3A BZF d   1       0.093  -1.970  -2.881  0.00  0.00    -0.107 A 
ATOM      5  C4  BZF d   1       0.989  -1.810  -1.862  0.00  0.00     0.055 A 
ATOM      6  C5  BZF d   1       0.549  -1.884  -0.578  0.00  0.00    -0.016 A 
ATOM      7  C6  BZF d   1      -0.778  -2.110  -0.277  0.00  0.00     0.022 A 
ATOM      8  C7  BZF d   1      -1.703  -2.280  -1.254  0.00  0.00     0.029 A 
ATOM      9  C7A BZF d   1      -1.255  -2.239  -2.552  0.00  0.00     0.058 A 
ENDROOT
TORSDOF 0
ENDMDL
