MODEL 1
REMARK minimizedAffinity 14.6325741
REMARK minimizedRMSD -1
REMARK  0 active torsions:
REMARK  status: ('A' for Active; 'I' for Inactive)
ROOT
ATOM      1  O1  BZF d   1      -0.032  -1.337  -3.464  0.00  0.00    -0.204 OA
ATOM      2  C2  BZF d   1       1.199  -1.887  -3.768  0.00  0.00     0.174 A 
ATOM      3  C3  BZF d   1       1.722  -2.512  -2.694  0.00  0.00    -0.012 A 
ATOM      4  C3A BZF d   1       0.716  -2.424  -1.680  0.00  0.00    -0.107 A 
ATOM      5  C4  BZF d   1       0.639  -2.872  -0.392  0.00  0.00     0.055 A 
ATOM      6  C5  BZF d   1      -0.452  -2.555   0.354  0.00  0.00    -0.016 A 
ATOM      7  C6  BZF d   1      -1.481  -1.788  -0.154  0.00  0.00     0.022 A 
ATOM      8  C7  BZF d   1      -1.451  -1.325  -1.428  0.00  0.00     0.029 A 
ATOM      9  C7A BZF d   1      -0.365  -1.672  -2.194  0.00  0.00     0.058 A 
ENDROOT
TORSDOF 0
ENDMDL
