MODEL 1
REMARK minimizedAffinity 10.5538092
REMARK minimizedRMSD -1
REMARK  0 active torsions:
REMARK  status: ('A' for Active; 'I' for Inactive)
ROOT
ATOM      1  O1  BZF d   1       2.211  -1.736  -4.505  0.00  0.00    -0.204 OA
ATOM      2  C2  BZF d   1       3.391  -2.286  -4.042  0.00  0.00     0.174 A 
ATOM      3  C3  BZF d   1       3.281  -2.632  -2.743  0.00  0.00    -0.012 A 
ATOM      4  C3A BZF d   1       1.919  -2.361  -2.396  0.00  0.00    -0.107 A 
ATOM      5  C4  BZF d   1       1.195  -2.512  -1.248  0.00  0.00     0.055 A 
ATOM      6  C5  BZF d   1      -0.094  -2.083  -1.219  0.00  0.00    -0.016 A 
ATOM      7  C6  BZF d   1      -0.688  -1.495  -2.316  0.00  0.00     0.022 A 
ATOM      8  C7  BZF d   1      -0.012  -1.328  -3.479  0.00  0.00     0.029 A 
ATOM      9  C7A BZF d   1       1.281  -1.791  -3.521  0.00  0.00     0.058 A 
ENDROOT
TORSDOF 0
ENDMDL
