MODEL 1
REMARK minimizedAffinity 6.54045343
REMARK minimizedRMSD -1
REMARK  0 active torsions:
REMARK  status: ('A' for Active; 'I' for Inactive)
ROOT
ATOM      1  O1  BZF d   1       4.657   5.975  -1.293  0.00  0.00    -0.204 OA
ATOM      2  C2  BZF d   1       5.593   5.162  -0.685  0.00  0.00     0.174 A 
ATOM      3  C3  BZF d   1       5.962   4.159  -1.508  0.00  0.00    -0.012 A 
ATOM      4  C3A BZF d   1       5.278   4.412  -2.739  0.00  0.00    -0.107 A 
ATOM      5  C4  BZF d   1       5.251   3.774  -3.946  0.00  0.00     0.055 A 
ATOM      6  C5  BZF d   1       4.422   4.237  -4.919  0.00  0.00    -0.016 A 
ATOM      7  C6  BZF d   1       3.604   5.329  -4.717  0.00  0.00     0.022 A 
ATOM      8  C7  BZF d   1       3.600   5.998  -3.538  0.00  0.00     0.029 A 
ATOM      9  C7A BZF d   1       4.461   5.553  -2.565  0.00  0.00     0.058 A 
ENDROOT
TORSDOF 0
ENDMDL
