MODEL 1
REMARK minimizedAffinity 7.78537273
REMARK minimizedRMSD -1
REMARK  0 active torsions:
REMARK  status: ('A' for Active; 'I' for Inactive)
ROOT
ATOM      1  O1  BZF d   1      -2.928  -1.894  -2.869  0.00  0.00    -0.204 OA
ATOM      2  C2  BZF d   1      -2.550  -2.660  -3.955  0.00  0.00     0.174 A 
ATOM      3  C3  BZF d   1      -1.307  -3.154  -3.782  0.00  0.00    -0.012 A 
ATOM      4  C3A BZF d   1      -0.917  -2.742  -2.468  0.00  0.00    -0.107 A 
ATOM      5  C4  BZF d   1       0.206  -2.939  -1.717  0.00  0.00     0.055 A 
ATOM      6  C5  BZF d   1       0.300  -2.340  -0.501  0.00  0.00    -0.016 A 
ATOM      7  C6  BZF d   1      -0.706  -1.536  -0.007  0.00  0.00     0.022 A 
ATOM      8  C7  BZF d   1      -1.842  -1.315  -0.714  0.00  0.00     0.029 A 
ATOM      9  C7A BZF d   1      -1.954  -1.945  -1.929  0.00  0.00     0.058 A 
ENDROOT
TORSDOF 0
ENDMDL
