MODEL 1
REMARK minimizedAffinity 17.3602982
REMARK minimizedRMSD -1
REMARK  0 active torsions:
REMARK  status: ('A' for Active; 'I' for Inactive)
ROOT
ATOM      1  O1  BZF d   1      -5.631  -4.516  -4.189  0.00  0.00    -0.204 OA
ATOM      2  C2  BZF d   1      -5.882  -5.699  -4.857  0.00  0.00     0.174 A 
ATOM      3  C3  BZF d   1      -4.869  -5.999  -5.696  0.00  0.00    -0.012 A 
ATOM      4  C3A BZF d   1      -3.884  -4.985  -5.474  0.00  0.00    -0.107 A 
ATOM      5  C4  BZF d   1      -2.646  -4.748  -6.000  0.00  0.00     0.055 A 
ATOM      6  C5  BZF d   1      -1.972  -3.629  -5.623  0.00  0.00    -0.016 A 
ATOM      7  C6  BZF d   1      -2.507  -2.725  -4.729  0.00  0.00     0.022 A 
ATOM      8  C7  BZF d   1      -3.730  -2.920  -4.177  0.00  0.00     0.029 A 
ATOM      9  C7A BZF d   1      -4.399  -4.066  -4.531  0.00  0.00     0.058 A 
ENDROOT
TORSDOF 0
ENDMDL
