MODEL 1
REMARK minimizedAffinity 14.1283092
REMARK minimizedRMSD -1
REMARK  0 active torsions:
REMARK  status: ('A' for Active; 'I' for Inactive)
ROOT
ATOM      1  O1  BZF d   1      -2.723  -2.352  -3.443  0.00  0.00    -0.204 OA
ATOM      2  C2  BZF d   1      -2.672  -3.482  -4.236  0.00  0.00     0.174 A 
ATOM      3  C3  BZF d   1      -1.618  -4.254  -3.901  0.00  0.00    -0.012 A 
ATOM      4  C3A BZF d   1      -1.024  -3.609  -2.770  0.00  0.00    -0.107 A 
ATOM      5  C4  BZF d   1       0.048  -3.904  -1.977  0.00  0.00     0.055 A 
ATOM      6  C5  BZF d   1       0.407  -3.030  -1.001  0.00  0.00    -0.016 A 
ATOM      7  C6  BZF d   1      -0.278  -1.851  -0.793  0.00  0.00     0.022 A 
ATOM      8  C7  BZF d   1      -1.351  -1.517  -1.551  0.00  0.00     0.029 A 
ATOM      9  C7A BZF d   1      -1.737  -2.414  -2.517  0.00  0.00     0.058 A 
ENDROOT
TORSDOF 0
ENDMDL
