MODEL 1
REMARK minimizedAffinity 15.072608
REMARK minimizedRMSD -1
REMARK  0 active torsions:
REMARK  status: ('A' for Active; 'I' for Inactive)
ROOT
ATOM      1  O1  BZF d   1       0.088  -3.131   0.730  0.00  0.00    -0.204 OA
ATOM      2  C2  BZF d   1       0.569  -4.396   0.451  0.00  0.00     0.174 A 
ATOM      3  C3  BZF d   1       0.514  -4.646  -0.873  0.00  0.00    -0.012 A 
ATOM      4  C3A BZF d   1       0.051  -3.430  -1.468  0.00  0.00    -0.107 A 
ATOM      5  C4  BZF d   1      -0.193  -3.048  -2.756  0.00  0.00     0.055 A 
ATOM      6  C5  BZF d   1      -0.710  -1.814  -2.992  0.00  0.00    -0.016 A 
ATOM      7  C6  BZF d   1      -0.999  -0.939  -1.965  0.00  0.00     0.022 A 
ATOM      8  C7  BZF d   1      -0.769  -1.271  -0.672  0.00  0.00     0.029 A 
ATOM      9  C7A BZF d   1      -0.216  -2.505  -0.432  0.00  0.00     0.058 A 
ENDROOT
TORSDOF 0
ENDMDL
