MODEL 1
REMARK minimizedAffinity 14.8798618
REMARK minimizedRMSD -1
REMARK  0 active torsions:
REMARK  status: ('A' for Active; 'I' for Inactive)
ROOT
ATOM      1  O1  BZF d   1      -1.013  -0.542  -2.754  0.00  0.00    -0.204 OA
ATOM      2  C2  BZF d   1      -1.286   0.294  -1.688  0.00  0.00     0.174 A 
ATOM      3  C3  BZF d   1      -0.970  -0.301  -0.520  0.00  0.00    -0.012 A 
ATOM      4  C3A BZF d   1      -0.382  -1.554  -0.883  0.00  0.00    -0.107 A 
ATOM      5  C4  BZF d   1       0.147  -2.587  -0.163  0.00  0.00     0.055 A 
ATOM      6  C5  BZF d   1       0.572  -3.699  -0.818  0.00  0.00    -0.016 A 
ATOM      7  C6  BZF d   1       0.478  -3.815  -2.189  0.00  0.00     0.022 A 
ATOM      8  C7  BZF d   1      -0.034  -2.815  -2.947  0.00  0.00     0.029 A 
ATOM      9  C7A BZF d   1      -0.434  -1.676  -2.291  0.00  0.00     0.058 A 
ENDROOT
TORSDOF 0
ENDMDL
