MODEL 1
REMARK minimizedAffinity 11.3529854
REMARK minimizedRMSD -1
REMARK  0 active torsions:
REMARK  status: ('A' for Active; 'I' for Inactive)
ROOT
ATOM      1  O1  BZF d   1       0.642   5.985  -2.148  0.00  0.00    -0.204 OA
ATOM      2  C2  BZF d   1       1.489   5.180  -2.886  0.00  0.00     0.174 A 
ATOM      3  C3  BZF d   1       2.026   4.214  -2.112  0.00  0.00    -0.012 A 
ATOM      4  C3A BZF d   1       1.408   4.373  -0.831  0.00  0.00    -0.107 A 
ATOM      5  C4  BZF d   1       1.518   3.701   0.354  0.00  0.00     0.055 A 
ATOM      6  C5  BZF d   1       0.832   4.155   1.435  0.00  0.00    -0.016 A 
ATOM      7  C6  BZF d   1       0.033   5.277   1.370  0.00  0.00     0.022 A 
ATOM      8  C7  BZF d   1      -0.111   5.973   0.216  0.00  0.00     0.029 A 
ATOM      9  C7A BZF d   1       0.555   5.498  -0.887  0.00  0.00     0.058 A 
ENDROOT
TORSDOF 0
ENDMDL
