MODEL 1
REMARK minimizedAffinity 14.9626732
REMARK minimizedRMSD -1
REMARK  0 active torsions:
REMARK  status: ('A' for Active; 'I' for Inactive)
ROOT
ATOM      1  O1  BZF d   1      -2.605  -2.441  -3.848  0.00  0.00    -0.204 OA
ATOM      2  C2  BZF d   1      -2.385  -3.547  -4.645  0.00  0.00     0.174 A 
ATOM      3  C3  BZF d   1      -1.181  -4.095  -4.382  0.00  0.00    -0.012 A 
ATOM      4  C3A BZF d   1      -0.653  -3.335  -3.291  0.00  0.00    -0.107 A 
ATOM      5  C4  BZF d   1       0.506  -3.406  -2.571  0.00  0.00     0.055 A 
ATOM      6  C5  BZF d   1       0.750  -2.468  -1.618  0.00  0.00    -0.016 A 
ATOM      7  C6  BZF d   1      -0.138  -1.444  -1.363  0.00  0.00     0.022 A 
ATOM      8  C7  BZF d   1      -1.302  -1.334  -2.048  0.00  0.00     0.029 A 
ATOM      9  C7A BZF d   1      -1.567  -2.300  -2.989  0.00  0.00     0.058 A 
ENDROOT
TORSDOF 0
ENDMDL
