MODEL 1
REMARK minimizedAffinity 2.45553613
REMARK minimizedRMSD -1
REMARK  0 active torsions:
REMARK  status: ('A' for Active; 'I' for Inactive)
ROOT
ATOM      1  O1  BZF d   1      -1.679  -1.737  -2.843  0.00  0.00    -0.204 OA
ATOM      2  C2  BZF d   1      -0.862  -1.736  -1.729  0.00  0.00     0.174 A 
ATOM      3  C3  BZF d   1       0.321  -2.324  -2.003  0.00  0.00    -0.012 A 
ATOM      4  C3A BZF d   1       0.273  -2.633  -3.399  0.00  0.00    -0.107 A 
ATOM      5  C4  BZF d   1       1.158  -3.212  -4.263  0.00  0.00     0.055 A 
ATOM      6  C5  BZF d   1       0.776  -3.436  -5.548  0.00  0.00    -0.016 A 
ATOM      7  C6  BZF d   1      -0.483  -3.100  -6.000  0.00  0.00     0.022 A 
ATOM      8  C7  BZF d   1      -1.394  -2.519  -5.181  0.00  0.00     0.029 A 
ATOM      9  C7A BZF d   1      -0.999  -2.260  -3.891  0.00  0.00     0.058 A 
ENDROOT
TORSDOF 0
ENDMDL
