MODEL 1
REMARK minimizedAffinity 12.890626
REMARK minimizedRMSD -1
REMARK  0 active torsions:
REMARK  status: ('A' for Active; 'I' for Inactive)
ROOT
ATOM      1  O1  BZF d   1       0.291  -2.656  -0.081  0.00  0.00    -0.204 OA
ATOM      2  C2  BZF d   1      -0.665  -1.818   0.459  0.00  0.00     0.174 A 
ATOM      3  C3  BZF d   1      -1.498  -1.361  -0.498  0.00  0.00    -0.012 A 
ATOM      4  C3A BZF d   1      -1.090  -2.023  -1.699  0.00  0.00    -0.107 A 
ATOM      5  C4  BZF d   1      -1.543  -1.996  -2.987  0.00  0.00     0.055 A 
ATOM      6  C5  BZF d   1      -0.878  -2.704  -3.936  0.00  0.00    -0.016 A 
ATOM      7  C6  BZF d   1       0.245  -3.446  -3.635  0.00  0.00     0.022 A 
ATOM      8  C7  BZF d   1       0.730  -3.508  -2.371  0.00  0.00     0.029 A 
ATOM      9  C7A BZF d   1       0.041  -2.819  -1.403  0.00  0.00     0.058 A 
ENDROOT
TORSDOF 0
ENDMDL
