MODEL 1
REMARK minimizedAffinity 18.209734
REMARK minimizedRMSD -1
REMARK  0 active torsions:
REMARK  status: ('A' for Active; 'I' for Inactive)
ROOT
ATOM      1  O1  BZF d   1       5.259   0.237  -3.875  0.00  0.00    -0.204 OA
ATOM      2  C2  BZF d   1       5.148   0.661  -5.185  0.00  0.00     0.174 A 
ATOM      3  C3  BZF d   1       4.860  -0.375  -6.000  0.00  0.00    -0.012 A 
ATOM      4  C3A BZF d   1       4.696  -1.501  -5.133  0.00  0.00    -0.107 A 
ATOM      5  C4  BZF d   1       4.386  -2.814  -5.348  0.00  0.00     0.055 A 
ATOM      6  C5  BZF d   1       4.376  -3.671  -4.293  0.00  0.00    -0.016 A 
ATOM      7  C6  BZF d   1       4.677  -3.252  -3.014  0.00  0.00     0.022 A 
ATOM      8  C7  BZF d   1       4.985  -1.959  -2.751  0.00  0.00     0.029 A 
ATOM      9  C7A BZF d   1       4.964  -1.083  -3.809  0.00  0.00     0.058 A 
ENDROOT
TORSDOF 0
ENDMDL
