MODEL 1
REMARK minimizedAffinity 8.31531429
REMARK minimizedRMSD -1
REMARK  0 active torsions:
REMARK  status: ('A' for Active; 'I' for Inactive)
ROOT
ATOM      1  O1  BZF d   1       0.498  -4.756  -0.165  0.00  0.00    -0.204 OA
ATOM      2  C2  BZF d   1       0.792  -5.980  -0.735  0.00  0.00     0.174 A 
ATOM      3  C3  BZF d   1       0.485  -5.982  -2.048  0.00  0.00    -0.012 A 
ATOM      4  C3A BZF d   1       0.052  -4.648  -2.335  0.00  0.00    -0.107 A 
ATOM      5  C4  BZF d   1      -0.371  -4.023  -3.473  0.00  0.00     0.055 A 
ATOM      6  C5  BZF d   1      -0.792  -2.733  -3.401  0.00  0.00    -0.016 A 
ATOM      7  C6  BZF d   1      -0.809  -2.041  -2.208  0.00  0.00     0.022 A 
ATOM      8  C7  BZF d   1      -0.394  -2.617  -1.053  0.00  0.00     0.029 A 
ATOM      9  C7A BZF d   1       0.063  -3.910  -1.129  0.00  0.00     0.058 A 
ENDROOT
TORSDOF 0
ENDMDL
