MODEL 1
REMARK minimizedAffinity 1.55537713
REMARK minimizedRMSD -1
REMARK  0 active torsions:
REMARK  status: ('A' for Active; 'I' for Inactive)
ROOT
ATOM      1  C2' OXE d   1       2.401   0.739   1.496  0.00  0.00     0.078 C 
ATOM      2  C1' OXE d   1       0.120   2.375   1.462  0.00  0.00     0.078 C 
ATOM      3  C1  OXE d   1       0.056   1.063   0.721  0.00  0.00    -0.078 A 
ATOM      4  C2  OXE d   1       1.192   0.290   0.704  0.00  0.00    -0.078 A 
ATOM      5  C3  OXE d   1       1.170  -0.954   0.081  0.00  0.00     0.003 A 
ATOM      6  C4  OXE d   1       0.051  -1.357  -0.658  0.00  0.00    -0.002 A 
ATOM      7  C5  OXE d   1      -1.103  -0.567  -0.687  0.00  0.00    -0.002 A 
ATOM      8  C6  OXE d   1      -1.132   0.624   0.031  0.00  0.00     0.003 A 
ENDROOT
TORSDOF 0
ENDMDL
