MODEL 1
REMARK minimizedAffinity 6.05625343
REMARK minimizedRMSD -1
REMARK  0 active torsions:
REMARK  status: ('A' for Active; 'I' for Inactive)
ROOT
ATOM      1  C2' OXE d   1      -0.232  -0.536  -1.120  0.00  0.00     0.078 C 
ATOM      2  C1' OXE d   1       1.567  -0.483   1.035  0.00  0.00     0.078 C 
ATOM      3  C1  OXE d   1       0.095  -0.374   1.344  0.00  0.00    -0.078 A 
ATOM      4  C2  OXE d   1      -0.775  -0.354   0.281  0.00  0.00    -0.078 A 
ATOM      5  C3  OXE d   1      -2.147  -0.309   0.513  0.00  0.00     0.003 A 
ATOM      6  C4  OXE d   1      -2.641  -0.131   1.810  0.00  0.00    -0.002 A 
ATOM      7  C5  OXE d   1      -1.770  -0.109   2.905  0.00  0.00    -0.002 A 
ATOM      8  C6  OXE d   1      -0.405  -0.272   2.693  0.00  0.00     0.003 A 
ENDROOT
TORSDOF 0
ENDMDL
