MODEL 1
REMARK minimizedAffinity -3.04686022
REMARK minimizedRMSD -1
REMARK  0 active torsions:
REMARK  status: ('A' for Active; 'I' for Inactive)
ROOT
ATOM      1  C2' OXE d   1       1.539  -1.803  -0.808  0.00  0.00     0.078 C 
ATOM      2  C1' OXE d   1      -0.518   0.027  -0.260  0.00  0.00     0.078 C 
ATOM      3  C1  OXE d   1       0.288   0.231  -1.518  0.00  0.00    -0.078 A 
ATOM      4  C2  OXE d   1       1.322  -0.642  -1.755  0.00  0.00    -0.078 A 
ATOM      5  C3  OXE d   1       2.062  -0.532  -2.929  0.00  0.00     0.003 A 
ATOM      6  C4  OXE d   1       1.861   0.550  -3.795  0.00  0.00    -0.002 A 
ATOM      7  C5  OXE d   1       0.839   1.474  -3.552  0.00  0.00    -0.002 A 
ATOM      8  C6  OXE d   1       0.017   1.304  -2.443  0.00  0.00     0.003 A 
ENDROOT
TORSDOF 0
ENDMDL
