MODEL 1
REMARK minimizedAffinity -4.14211702
REMARK minimizedRMSD -1
REMARK  0 active torsions:
REMARK  status: ('A' for Active; 'I' for Inactive)
ROOT
ATOM      1  C2' OXE d   1      -0.747   0.872   2.620  0.00  0.00     0.078 C 
ATOM      2  C1' OXE d   1       1.616  -0.237   1.587  0.00  0.00     0.078 C 
ATOM      3  C1  OXE d   1       0.460  -0.036   0.639  0.00  0.00    -0.078 A 
ATOM      4  C2  OXE d   1      -0.708   0.464   1.163  0.00  0.00    -0.078 A 
ATOM      5  C3  OXE d   1      -1.787   0.721   0.322  0.00  0.00     0.003 A 
ATOM      6  C4  OXE d   1      -1.746   0.331  -1.022  0.00  0.00    -0.002 A 
ATOM      7  C5  OXE d   1      -0.580  -0.216  -1.567  0.00  0.00    -0.002 A 
ATOM      8  C6  OXE d   1       0.543  -0.367  -0.762  0.00  0.00     0.003 A 
ENDROOT
TORSDOF 0
ENDMDL
