MODEL 1
REMARK minimizedAffinity -2.37684751
REMARK minimizedRMSD -1
REMARK  0 active torsions:
REMARK  status: ('A' for Active; 'I' for Inactive)
ROOT
ATOM      1  C2' OXE d   1      -0.091   1.417  -1.030  0.00  0.00     0.078 C 
ATOM      2  C1' OXE d   1       0.138   3.213   1.116  0.00  0.00     0.078 C 
ATOM      3  C1  OXE d   1      -0.392   1.831   1.408  0.00  0.00    -0.078 A 
ATOM      4  C2  OXE d   1      -0.545   0.975   0.345  0.00  0.00    -0.078 A 
ATOM      5  C3  OXE d   1      -0.979  -0.329   0.566  0.00  0.00     0.003 A 
ATOM      6  C4  OXE d   1      -1.406  -0.727   1.839  0.00  0.00    -0.002 A 
ATOM      7  C5  OXE d   1      -1.296   0.142   2.929  0.00  0.00    -0.002 A 
ATOM      8  C6  OXE d   1      -0.753   1.408   2.739  0.00  0.00     0.003 A 
ENDROOT
TORSDOF 0
ENDMDL
