MODEL 1
REMARK minimizedAffinity -1.4317162
REMARK minimizedRMSD -1
REMARK  0 active torsions:
REMARK  status: ('A' for Active; 'I' for Inactive)
ROOT
ATOM      1  C2' OXE d   1      -1.962   0.721   2.227  0.00  0.00     0.078 C 
ATOM      2  C1' OXE d   1      -0.144   2.688   1.387  0.00  0.00     0.078 C 
ATOM      3  C1  OXE d   1      -0.197   1.399   0.604  0.00  0.00    -0.078 A 
ATOM      4  C2  OXE d   1      -1.057   0.424   1.051  0.00  0.00    -0.078 A 
ATOM      5  C3  OXE d   1      -1.185  -0.762   0.334  0.00  0.00     0.003 A 
ATOM      6  C4  OXE d   1      -0.337  -1.033  -0.747  0.00  0.00    -0.002 A 
ATOM      7  C5  OXE d   1       0.573  -0.069  -1.194  0.00  0.00    -0.002 A 
ATOM      8  C6  OXE d   1       0.625   1.166  -0.557  0.00  0.00     0.003 A 
ENDROOT
TORSDOF 0
ENDMDL
