MODEL 1
REMARK minimizedAffinity -3.84211326
REMARK minimizedRMSD -1
REMARK  0 active torsions:
REMARK  status: ('A' for Active; 'I' for Inactive)
ROOT
ATOM      1  C2' OXE d   1       0.414   0.840  -1.793  0.00  0.00     0.078 C 
ATOM      2  C1' OXE d   1      -0.887  -1.230  -0.416  0.00  0.00     0.078 C 
ATOM      3  C1  OXE d   1      -0.659   0.068   0.318  0.00  0.00    -0.078 A 
ATOM      4  C2  OXE d   1       0.020   1.059  -0.349  0.00  0.00    -0.078 A 
ATOM      5  C3  OXE d   1       0.209   2.295   0.263  0.00  0.00     0.003 A 
ATOM      6  C4  OXE d   1      -0.150   2.486   1.602  0.00  0.00    -0.002 A 
ATOM      7  C5  OXE d   1      -0.808   1.476   2.312  0.00  0.00    -0.002 A 
ATOM      8  C6  OXE d   1      -1.107   0.278   1.672  0.00  0.00     0.003 A 
ENDROOT
TORSDOF 0
ENDMDL
