MODEL 1
REMARK minimizedAffinity -4.90089655
REMARK minimizedRMSD -1
REMARK  0 active torsions:
REMARK  status: ('A' for Active; 'I' for Inactive)
ROOT
ATOM      1  C2' OXE d   1       0.720   0.532  -1.097  0.00  0.00     0.078 C 
ATOM      2  C1' OXE d   1       1.698  -1.469   0.611  0.00  0.00     0.078 C 
ATOM      3  C1  OXE d   1       0.853  -0.377   1.218  0.00  0.00    -0.078 A 
ATOM      4  C2  OXE d   1       0.417   0.623   0.383  0.00  0.00    -0.078 A 
ATOM      5  C3  OXE d   1      -0.411   1.625   0.881  0.00  0.00     0.003 A 
ATOM      6  C4  OXE d   1      -0.679   1.707   2.252  0.00  0.00    -0.002 A 
ATOM      7  C5  OXE d   1      -0.212   0.720   3.127  0.00  0.00    -0.002 A 
ATOM      8  C6  OXE d   1       0.518  -0.349   2.621  0.00  0.00     0.003 A 
ENDROOT
TORSDOF 0
ENDMDL
