MODEL 1
REMARK minimizedAffinity -4.48086691
REMARK minimizedRMSD -1
REMARK  0 active torsions:
REMARK  status: ('A' for Active; 'I' for Inactive)
ROOT
ATOM      1  C2' OXE d   1       1.596   0.042   1.879  0.00  0.00     0.078 C 
ATOM      2  C1' OXE d   1      -0.778   1.142   2.896  0.00  0.00     0.078 C 
ATOM      3  C1  OXE d   1      -0.774   0.682   1.459  0.00  0.00    -0.078 A 
ATOM      4  C2  OXE d   1       0.405   0.188   0.956  0.00  0.00    -0.078 A 
ATOM      5  C3  OXE d   1       0.448  -0.300  -0.346  0.00  0.00     0.003 A 
ATOM      6  C4  OXE d   1      -0.655  -0.152  -1.196  0.00  0.00    -0.002 A 
ATOM      7  C5  OXE d   1      -1.854   0.385  -0.715  0.00  0.00    -0.002 A 
ATOM      8  C6  OXE d   1      -1.943   0.767   0.619  0.00  0.00     0.003 A 
ENDROOT
TORSDOF 0
ENDMDL
