MODEL 1
REMARK minimizedAffinity 1.8536886
REMARK minimizedRMSD -1
REMARK  1 active torsions:
REMARK  status: ('A' for Active; 'I' for Inactive)
REMARK    1  A    between atoms: N_2  and  C1_3 
ROOT
ATOM      1  C1  UNL d   1       5.056  -3.562  -5.240  0.00  0.00     0.143 A 
ATOM      2  C2  UNL d   1       5.198  -2.395  -5.999  0.00  0.00    -0.057 A 
ATOM      3  C3  UNL d   1       4.564  -1.204  -5.624  0.00  0.00     0.033 A 
ATOM      4  C4  UNL d   1       3.750  -1.167  -4.496  0.00  0.00    -0.042 A 
ATOM      5  C5  UNL d   1       3.574  -2.322  -3.742  0.00  0.00     0.033 A 
ATOM      6  C6  UNL d   1       4.216  -3.506  -4.117  0.00  0.00    -0.057 A 
ENDROOT
BRANCH   1   7
ATOM      7  N   UNL d   1       5.580  -4.802  -5.614  0.00  0.00    -0.732 N 
ATOM      8  C   UNL d   1       5.238  -6.000  -4.878  0.00  0.00     0.284 C 
ATOM      9  H3  UNL d   1       5.601  -4.926  -6.624  0.00  0.00     0.395 HD
ENDBRANCH   1   7
TORSDOF 1
ENDMDL
