MODEL 1
REMARK minimizedAffinity 5.46588945
REMARK minimizedRMSD -1
REMARK  1 active torsions:
REMARK  status: ('A' for Active; 'I' for Inactive)
REMARK    1  A    between atoms: N_2  and  C1_3 
ROOT
ATOM      1  C1  UNL d   1       4.126  -3.291  -5.226  0.00  0.00     0.143 A 
ATOM      2  C2  UNL d   1       2.999  -3.694  -4.501  0.00  0.00    -0.057 A 
ATOM      3  C3  UNL d   1       2.813  -5.032  -4.134  0.00  0.00     0.033 A 
ATOM      4  C4  UNL d   1       3.739  -5.999  -4.512  0.00  0.00    -0.042 A 
ATOM      5  C5  UNL d   1       4.854  -5.625  -5.254  0.00  0.00     0.033 A 
ATOM      6  C6  UNL d   1       5.038  -4.286  -5.612  0.00  0.00    -0.057 A 
ENDROOT
BRANCH   1   7
ATOM      7  N   UNL d   1       4.319  -1.993  -5.705  0.00  0.00    -0.732 N 
ATOM      8  C   UNL d   1       5.650  -1.506  -6.000  0.00  0.00     0.284 C 
ATOM      9  H3  UNL d   1       3.617  -1.723  -6.391  0.00  0.00     0.395 HD
ENDBRANCH   1   7
TORSDOF 1
ENDMDL
