MODEL 1
REMARK minimizedAffinity 8.8771162
REMARK minimizedRMSD -1
REMARK  1 active torsions:
REMARK  status: ('A' for Active; 'I' for Inactive)
REMARK    1  A    between atoms: N_2  and  C1_3 
ROOT
ATOM      1  C1  UNL d   1      -3.420   1.469  -3.092  0.00  0.00     0.143 A 
ATOM      2  C2  UNL d   1      -3.739   2.189  -1.936  0.00  0.00    -0.057 A 
ATOM      3  C3  UNL d   1      -4.201   3.509  -2.008  0.00  0.00     0.033 A 
ATOM      4  C4  UNL d   1      -4.325   4.144  -3.239  0.00  0.00    -0.042 A 
ATOM      5  C5  UNL d   1      -3.989   3.455  -4.400  0.00  0.00     0.033 A 
ATOM      6  C6  UNL d   1      -3.535   2.135  -4.322  0.00  0.00    -0.057 A 
ENDROOT
BRANCH   1   7
ATOM      7  N   UNL d   1      -2.862   0.188  -3.081  0.00  0.00    -0.732 N 
ATOM      8  C   UNL d   1      -1.512  -0.024  -2.604  0.00  0.00     0.284 C 
ATOM      9  H3  UNL d   1      -3.526  -0.522  -2.781  0.00  0.00     0.395 HD
ENDBRANCH   1   7
TORSDOF 1
ENDMDL
