MODEL 1
REMARK minimizedAffinity -4.70395327
REMARK minimizedRMSD -1
REMARK  1 active torsions:
REMARK  status: ('A' for Active; 'I' for Inactive)
REMARK    1  A    between atoms: N_2  and  C1_3 
ROOT
ATOM      1  C1  UNL d   1       1.276  -0.152   0.472  0.00  0.00     0.143 A 
ATOM      2  C2  UNL d   1       2.610   0.269   0.488  0.00  0.00    -0.057 A 
ATOM      3  C3  UNL d   1       3.575  -0.407   1.245  0.00  0.00     0.033 A 
ATOM      4  C4  UNL d   1       3.216  -1.502   2.024  0.00  0.00    -0.042 A 
ATOM      5  C5  UNL d   1       1.891  -1.922   2.043  0.00  0.00     0.033 A 
ATOM      6  C6  UNL d   1       0.933  -1.248   1.280  0.00  0.00    -0.057 A 
ENDROOT
BRANCH   1   7
ATOM      7  N   UNL d   1       0.251   0.536  -0.182  0.00  0.00    -0.732 N 
ATOM      8  C   UNL d   1      -0.987  -0.132  -0.519  0.00  0.00     0.284 C 
ATOM      9  H3  UNL d   1       0.130   1.482   0.174  0.00  0.00     0.395 HD
ENDBRANCH   1   7
TORSDOF 1
ENDMDL
