MODEL 1
REMARK minimizedAffinity 8.31798363
REMARK minimizedRMSD -1
REMARK  0 active torsions:
REMARK  status: ('A' for Active; 'I' for Inactive)
ROOT
ATOM      1  C   UNL d   1       5.143   5.253   5.116  0.00  0.00     0.023 A 
ATOM      2  C1  UNL d   1       4.131   4.879   6.000  0.00  0.00     0.003 A 
ATOM      3  C2  UNL d   1       3.060   4.105   5.549  0.00  0.00     0.048 A 
ATOM      4  C3  UNL d   1       3.008   3.707   4.213  0.00  0.00     0.023 A 
ATOM      5  C4  UNL d   1       4.019   4.078   3.326  0.00  0.00     0.048 A 
ATOM      6  C5  UNL d   1       5.088   4.853   3.781  0.00  0.00     0.003 A 
ATOM      7  I   UNL d   1       1.415   2.555   3.540  0.00  0.00    -0.146 I 
ENDROOT
TORSDOF 0
ENDMDL
