MODEL 1
REMARK minimizedAffinity 5.6550827
REMARK minimizedRMSD -1
REMARK  0 active torsions:
REMARK  status: ('A' for Active; 'I' for Inactive)
ROOT
ATOM      1  C   UNL d   1       3.462  -0.073  -2.593  0.00  0.00     0.023 A 
ATOM      2  C1  UNL d   1       4.520   0.833  -2.661  0.00  0.00     0.003 A 
ATOM      3  C2  UNL d   1       4.931   1.517  -1.514  0.00  0.00     0.048 A 
ATOM      4  C3  UNL d   1       4.279   1.289  -0.303  0.00  0.00     0.023 A 
ATOM      5  C4  UNL d   1       3.220   0.383  -0.230  0.00  0.00     0.048 A 
ATOM      6  C5  UNL d   1       2.812  -0.298  -1.379  0.00  0.00     0.003 A 
ATOM      7  I   UNL d   1       4.887   2.306   1.405  0.00  0.00    -0.146 I 
ENDROOT
TORSDOF 0
ENDMDL
