MODEL 1
REMARK minimizedAffinity 3.45000076
REMARK minimizedRMSD -1
REMARK  0 active torsions:
REMARK  status: ('A' for Active; 'I' for Inactive)
ROOT
ATOM      1  C   UNL d   1       3.978  -0.259  -0.613  0.00  0.00     0.023 A 
ATOM      2  C1  UNL d   1       3.925  -0.104  -1.998  0.00  0.00     0.003 A 
ATOM      3  C2  UNL d   1       4.504   1.016  -2.599  0.00  0.00     0.048 A 
ATOM      4  C3  UNL d   1       5.135   1.976  -1.809  0.00  0.00     0.023 A 
ATOM      5  C4  UNL d   1       5.192   1.824  -0.422  0.00  0.00     0.048 A 
ATOM      6  C5  UNL d   1       4.611   0.703   0.174  0.00  0.00     0.003 A 
ATOM      7  I   UNL d   1       5.998   3.643  -2.701  0.00  0.00    -0.146 I 
ENDROOT
TORSDOF 0
ENDMDL
