MODEL 1
REMARK minimizedAffinity 5.22479391
REMARK minimizedRMSD -1
REMARK  0 active torsions:
REMARK  status: ('A' for Active; 'I' for Inactive)
ROOT
ATOM      1  C   UNL d   1      -2.065   0.006  -4.271  0.00  0.00     0.023 A 
ATOM      2  C1  UNL d   1      -2.246   0.388  -2.941  0.00  0.00     0.003 A 
ATOM      3  C2  UNL d   1      -3.374   1.122  -2.571  0.00  0.00     0.048 A 
ATOM      4  C3  UNL d   1      -4.319   1.470  -3.536  0.00  0.00     0.023 A 
ATOM      5  C4  UNL d   1      -4.144   1.089  -4.867  0.00  0.00     0.048 A 
ATOM      6  C5  UNL d   1      -3.013   0.356  -5.232  0.00  0.00     0.003 A 
ATOM      7  I   UNL d   1      -6.000   2.563  -2.988  0.00  0.00    -0.146 I 
ENDROOT
TORSDOF 0
ENDMDL
