MODEL 1
REMARK minimizedAffinity 7.02380705
REMARK minimizedRMSD -1
REMARK  0 active torsions:
REMARK  status: ('A' for Active; 'I' for Inactive)
ROOT
ATOM      1  C   UNL d   1      -5.665   0.774  -4.396  0.00  0.00     0.023 A 
ATOM      2  C1  UNL d   1      -4.453   0.914  -5.073  0.00  0.00     0.003 A 
ATOM      3  C2  UNL d   1      -3.252   0.934  -4.360  0.00  0.00     0.048 A 
ATOM      4  C3  UNL d   1      -3.270   0.813  -2.971  0.00  0.00     0.023 A 
ATOM      5  C4  UNL d   1      -4.480   0.672  -2.290  0.00  0.00     0.048 A 
ATOM      6  C5  UNL d   1      -5.678   0.653  -3.006  0.00  0.00     0.003 A 
ATOM      7  I   UNL d   1      -1.484   0.843  -1.909  0.00  0.00    -0.146 I 
ENDROOT
TORSDOF 0
ENDMDL
