MODEL 1
REMARK minimizedAffinity 11.5606909
REMARK minimizedRMSD -1
REMARK  0 active torsions:
REMARK  status: ('A' for Active; 'I' for Inactive)
ROOT
ATOM      1  C   UNL d   1       5.274   5.443   4.106  0.00  0.00     0.023 A 
ATOM      2  C1  UNL d   1       4.907   5.492   5.451  0.00  0.00     0.003 A 
ATOM      3  C2  UNL d   1       4.106   4.486   5.995  0.00  0.00     0.048 A 
ATOM      4  C3  UNL d   1       3.677   3.433   5.189  0.00  0.00     0.023 A 
ATOM      5  C4  UNL d   1       4.042   3.378   3.843  0.00  0.00     0.048 A 
ATOM      6  C5  UNL d   1       4.842   4.387   3.303  0.00  0.00     0.003 A 
ATOM      7  I   UNL d   1       2.485   1.933   5.997  0.00  0.00    -0.146 I 
ENDROOT
TORSDOF 0
ENDMDL
