MODEL 1
REMARK minimizedAffinity 12.715704
REMARK minimizedRMSD -1
REMARK  0 active torsions:
REMARK  status: ('A' for Active; 'I' for Inactive)
ROOT
ATOM      1  C   UNL d   1      -4.128   0.746  -5.537  0.00  0.00     0.023 A 
ATOM      2  C1  UNL d   1      -4.857   0.007  -4.606  0.00  0.00     0.003 A 
ATOM      3  C2  UNL d   1      -5.394   0.635  -3.480  0.00  0.00     0.048 A 
ATOM      4  C3  UNL d   1      -5.199   2.003  -3.293  0.00  0.00     0.023 A 
ATOM      5  C4  UNL d   1      -4.471   2.747  -4.223  0.00  0.00     0.048 A 
ATOM      6  C5  UNL d   1      -3.935   2.114  -5.346  0.00  0.00     0.003 A 
ATOM      7  I   UNL d   1      -5.998   2.940  -1.619  0.00  0.00    -0.146 I 
ENDROOT
TORSDOF 0
ENDMDL
