MODEL 1
REMARK minimizedAffinity 2.97179437
REMARK minimizedRMSD -1
REMARK  0 active torsions:
REMARK  status: ('A' for Active; 'I' for Inactive)
ROOT
ATOM      1  C   UNL d   1       0.439  -2.566  -1.715  0.00  0.00     0.023 A 
ATOM      2  C1  UNL d   1       1.619  -2.164  -1.089  0.00  0.00     0.003 A 
ATOM      3  C2  UNL d   1       1.697  -0.907  -0.485  0.00  0.00     0.048 A 
ATOM      4  C3  UNL d   1       0.590  -0.059  -0.509  0.00  0.00     0.023 A 
ATOM      5  C4  UNL d   1      -0.593  -0.458  -1.134  0.00  0.00     0.048 A 
ATOM      6  C5  UNL d   1      -0.665  -1.714  -1.737  0.00  0.00     0.003 A 
ATOM      7  I   UNL d   1       0.704   1.812   0.389  0.00  0.00    -0.146 I 
ENDROOT
TORSDOF 0
ENDMDL
