MODEL 1
REMARK minimizedAffinity 4.44666195
REMARK minimizedRMSD -1
REMARK  0 active torsions:
REMARK  status: ('A' for Active; 'I' for Inactive)
ROOT
ATOM      1  C   UNL d   1      -3.001  -4.871  -1.323  0.00  0.00     0.023 A 
ATOM      2  C1  UNL d   1      -3.629  -3.774  -0.734  0.00  0.00     0.003 A 
ATOM      3  C2  UNL d   1      -3.483  -2.502  -1.291  0.00  0.00     0.048 A 
ATOM      4  C3  UNL d   1      -2.708  -2.335  -2.439  0.00  0.00     0.023 A 
ATOM      5  C4  UNL d   1      -2.079  -3.430  -3.032  0.00  0.00     0.048 A 
ATOM      6  C5  UNL d   1      -2.227  -4.700  -2.471  0.00  0.00     0.003 A 
ATOM      7  I   UNL d   1      -2.490  -0.443  -3.270  0.00  0.00    -0.146 I 
ENDROOT
TORSDOF 0
ENDMDL
