MODEL 1
REMARK minimizedAffinity -3.5758214
REMARK minimizedRMSD -1
REMARK  0 active torsions:
REMARK  status: ('A' for Active; 'I' for Inactive)
ROOT
ATOM      1  C   UNL d   1       0.370   1.465   0.137  0.00  0.00     0.023 A 
ATOM      2  C1  UNL d   1      -0.567   2.489   0.281  0.00  0.00     0.003 A 
ATOM      3  C2  UNL d   1      -1.901   2.182   0.556  0.00  0.00     0.048 A 
ATOM      4  C3  UNL d   1      -2.292   0.850   0.686  0.00  0.00     0.023 A 
ATOM      5  C4  UNL d   1      -1.359  -0.177   0.543  0.00  0.00     0.048 A 
ATOM      6  C5  UNL d   1      -0.026   0.133   0.268  0.00  0.00     0.003 A 
ATOM      7  I   UNL d   1      -4.278   0.392   1.095  0.00  0.00    -0.146 I 
ENDROOT
TORSDOF 0
ENDMDL
