MODEL 1
REMARK minimizedAffinity -1.21961212
REMARK minimizedRMSD -1
REMARK  0 active torsions:
REMARK  status: ('A' for Active; 'I' for Inactive)
ROOT
ATOM      1  C   UNL d   1      -2.104   1.356   0.738  0.00  0.00     0.023 A 
ATOM      2  C1  UNL d   1      -1.413   0.362   1.431  0.00  0.00     0.003 A 
ATOM      3  C2  UNL d   1      -0.018   0.325   1.394  0.00  0.00     0.048 A 
ATOM      4  C3  UNL d   1       0.680   1.286   0.664  0.00  0.00     0.023 A 
ATOM      5  C4  UNL d   1      -0.007   2.284  -0.029  0.00  0.00     0.048 A 
ATOM      6  C5  UNL d   1      -1.402   2.316   0.009  0.00  0.00     0.003 A 
ATOM      7  I   UNL d   1       2.757   1.234   0.609  0.00  0.00    -0.146 I 
ENDROOT
TORSDOF 0
ENDMDL
