MODEL 1
REMARK minimizedAffinity 2.34395719
REMARK minimizedRMSD -1
REMARK  0 active torsions:
REMARK  status: ('A' for Active; 'I' for Inactive)
ROOT
ATOM      1  C   UNL d   1      -0.790   2.241  -0.128  0.00  0.00     0.023 A 
ATOM      2  C1  UNL d   1      -1.714   2.201  -1.172  0.00  0.00     0.003 A 
ATOM      3  C2  UNL d   1      -3.080   2.107  -0.895  0.00  0.00     0.048 A 
ATOM      4  C3  UNL d   1      -3.514   2.053   0.429  0.00  0.00     0.023 A 
ATOM      5  C4  UNL d   1      -2.594   2.093   1.477  0.00  0.00     0.048 A 
ATOM      6  C5  UNL d   1      -1.230   2.186   1.195  0.00  0.00     0.003 A 
ATOM      7  I   UNL d   1      -5.546   1.913   0.844  0.00  0.00    -0.146 I 
ENDROOT
TORSDOF 0
ENDMDL
