MODEL 1
REMARK minimizedAffinity -3.27715015
REMARK minimizedRMSD -1
REMARK  0 active torsions:
REMARK  status: ('A' for Active; 'I' for Inactive)
ROOT
ATOM      1  C   UNL d   1      -0.630   0.411   0.520  0.00  0.00     0.023 A 
ATOM      2  C1  UNL d   1      -0.919   1.743   0.223  0.00  0.00     0.003 A 
ATOM      3  C2  UNL d   1      -2.241   2.193   0.246  0.00  0.00     0.048 A 
ATOM      4  C3  UNL d   1      -3.268   1.307   0.567  0.00  0.00     0.023 A 
ATOM      5  C4  UNL d   1      -2.983  -0.026   0.866  0.00  0.00     0.048 A 
ATOM      6  C5  UNL d   1      -1.661  -0.473   0.841  0.00  0.00     0.003 A 
ATOM      7  I   UNL d   1      -5.236   1.976   0.602  0.00  0.00    -0.146 I 
ENDROOT
TORSDOF 0
ENDMDL
