MODEL 1
REMARK minimizedAffinity 6.69719267
REMARK minimizedRMSD -1
REMARK  0 active torsions:
REMARK  status: ('A' for Active; 'I' for Inactive)
ROOT
ATOM      1  C   UNL d   1       4.012  -3.412  -0.254  0.00  0.00     0.023 A 
ATOM      2  C1  UNL d   1       3.372  -2.619   0.698  0.00  0.00     0.003 A 
ATOM      3  C2  UNL d   1       2.115  -2.986   1.183  0.00  0.00     0.048 A 
ATOM      4  C3  UNL d   1       1.505  -4.149   0.714  0.00  0.00     0.023 A 
ATOM      5  C4  UNL d   1       2.143  -4.947  -0.238  0.00  0.00     0.048 A 
ATOM      6  C5  UNL d   1       3.399  -4.575  -0.721  0.00  0.00     0.003 A 
ATOM      7  I   UNL d   1      -0.365  -4.698   1.436  0.00  0.00    -0.146 I 
ENDROOT
TORSDOF 0
ENDMDL
