MODEL 1
REMARK minimizedAffinity -0.111034513
REMARK minimizedRMSD -1
REMARK  0 active torsions:
REMARK  status: ('A' for Active; 'I' for Inactive)
ROOT
ATOM      1  C   UNL d   1      -0.534   1.747   0.323  0.00  0.00     0.023 A 
ATOM      2  C1  UNL d   1      -1.052   3.020   0.084  0.00  0.00     0.003 A 
ATOM      3  C2  UNL d   1      -2.428   3.241   0.160  0.00  0.00     0.048 A 
ATOM      4  C3  UNL d   1      -3.281   2.184   0.477  0.00  0.00     0.023 A 
ATOM      5  C4  UNL d   1      -2.768   0.909   0.718  0.00  0.00     0.048 A 
ATOM      6  C5  UNL d   1      -1.391   0.693   0.640  0.00  0.00     0.003 A 
ATOM      7  I   UNL d   1      -5.331   2.511   0.591  0.00  0.00    -0.146 I 
ENDROOT
TORSDOF 0
ENDMDL
