MODEL 1
REMARK minimizedAffinity -0.998143435
REMARK minimizedRMSD -1
REMARK  0 active torsions:
REMARK  status: ('A' for Active; 'I' for Inactive)
ROOT
ATOM      1  C   UNL d   1       0.404   1.773   2.685  0.00  0.00     0.023 A 
ATOM      2  C1  UNL d   1       0.014   1.852   1.348  0.00  0.00     0.003 A 
ATOM      3  C2  UNL d   1       0.914   1.514   0.335  0.00  0.00     0.048 A 
ATOM      4  C3  UNL d   1       2.202   1.097   0.666  0.00  0.00     0.023 A 
ATOM      5  C4  UNL d   1       2.597   1.015   2.003  0.00  0.00     0.048 A 
ATOM      6  C5  UNL d   1       1.694   1.355   3.012  0.00  0.00     0.003 A 
ATOM      7  I   UNL d   1       3.544   0.593  -0.839  0.00  0.00    -0.146 I 
ENDROOT
TORSDOF 0
ENDMDL
