MODEL 1
REMARK minimizedAffinity -4.1267128
REMARK minimizedRMSD -1
REMARK  0 active torsions:
REMARK  status: ('A' for Active; 'I' for Inactive)
ROOT
ATOM      1  C   UNL d   1      -0.969   0.701   0.427  0.00  0.00     0.023 A 
ATOM      2  C1  UNL d   1      -1.265   1.953  -0.112  0.00  0.00     0.003 A 
ATOM      3  C2  UNL d   1      -2.574   2.436  -0.082  0.00  0.00     0.048 A 
ATOM      4  C3  UNL d   1      -3.584   1.662   0.489  0.00  0.00     0.023 A 
ATOM      5  C4  UNL d   1      -3.293   0.409   1.030  0.00  0.00     0.048 A 
ATOM      6  C5  UNL d   1      -1.982  -0.070   0.998  0.00  0.00     0.003 A 
ATOM      7  I   UNL d   1      -5.534   2.380   0.534  0.00  0.00    -0.146 I 
ENDROOT
TORSDOF 0
ENDMDL
