MODEL 1
REMARK minimizedAffinity 4.56784105
REMARK minimizedRMSD -1
REMARK  0 active torsions:
REMARK  status: ('A' for Active; 'I' for Inactive)
ROOT
ATOM      1  C   UNL d   1      -1.336   1.944  -0.655  0.00  0.00     0.023 A 
ATOM      2  C1  UNL d   1      -1.869   2.589   0.461  0.00  0.00     0.003 A 
ATOM      3  C2  UNL d   1      -1.300   2.393   1.721  0.00  0.00     0.048 A 
ATOM      4  C3  UNL d   1      -0.197   1.551   1.858  0.00  0.00     0.023 A 
ATOM      5  C4  UNL d   1       0.340   0.904   0.744  0.00  0.00     0.048 A 
ATOM      6  C5  UNL d   1      -0.233   1.102  -0.513  0.00  0.00     0.003 A 
ATOM      7  I   UNL d   1       0.651   1.257   3.732  0.00  0.00    -0.146 I 
ENDROOT
TORSDOF 0
ENDMDL
