MODEL 1
REMARK minimizedAffinity -2.30298948
REMARK minimizedRMSD -1
REMARK  0 active torsions:
REMARK  status: ('A' for Active; 'I' for Inactive)
ROOT
ATOM      1  C   UNL d   1      -0.794   0.735   0.431  0.00  0.00     0.023 A 
ATOM      2  C1  UNL d   1      -1.590  -0.266   0.989  0.00  0.00     0.003 A 
ATOM      3  C2  UNL d   1      -2.956  -0.049   1.180  0.00  0.00     0.048 A 
ATOM      4  C3  UNL d   1      -3.521   1.171   0.811  0.00  0.00     0.023 A 
ATOM      5  C4  UNL d   1      -2.729   2.175   0.252  0.00  0.00     0.048 A 
ATOM      6  C5  UNL d   1      -1.363   1.955   0.063  0.00  0.00     0.003 A 
ATOM      7  I   UNL d   1      -5.554   1.496   1.094  0.00  0.00    -0.146 I 
ENDROOT
TORSDOF 0
ENDMDL
