MODEL 1
REMARK minimizedAffinity -1.39762235
REMARK minimizedRMSD -1
REMARK  0 active torsions:
REMARK  status: ('A' for Active; 'I' for Inactive)
ROOT
ATOM      1  C   UNL d   1       0.386   0.995   0.776  0.00  0.00     0.023 A 
ATOM      2  C1  UNL d   1      -0.528   0.346   1.607  0.00  0.00     0.003 A 
ATOM      3  C2  UNL d   1      -1.897   0.566   1.448  0.00  0.00     0.048 A 
ATOM      4  C3  UNL d   1      -2.347   1.436   0.455  0.00  0.00     0.023 A 
ATOM      5  C4  UNL d   1      -1.437   2.086  -0.380  0.00  0.00     0.048 A 
ATOM      6  C5  UNL d   1      -0.068   1.864  -0.216  0.00  0.00     0.003 A 
ATOM      7  I   UNL d   1      -4.385   1.764   0.215  0.00  0.00    -0.146 I 
ENDROOT
TORSDOF 0
ENDMDL
