MODEL 1
REMARK minimizedAffinity -0.551533878
REMARK minimizedRMSD -1
REMARK  0 active torsions:
REMARK  status: ('A' for Active; 'I' for Inactive)
ROOT
ATOM      1  C   UNL d   1      -0.771   0.975   1.227  0.00  0.00     0.023 A 
ATOM      2  C1  UNL d   1      -1.066   2.274   0.813  0.00  0.00     0.003 A 
ATOM      3  C2  UNL d   1      -2.392   2.706   0.754  0.00  0.00     0.048 A 
ATOM      4  C3  UNL d   1      -3.420   1.834   1.112  0.00  0.00     0.023 A 
ATOM      5  C4  UNL d   1      -3.130   0.533   1.527  0.00  0.00     0.048 A 
ATOM      6  C5  UNL d   1      -1.802   0.105   1.583  0.00  0.00     0.003 A 
ATOM      7  I   UNL d   1      -5.395   2.474   1.025  0.00  0.00    -0.146 I 
ENDROOT
TORSDOF 0
ENDMDL
