MODEL 1
REMARK minimizedAffinity -2.30760241
REMARK minimizedRMSD -1
REMARK  0 active torsions:
REMARK  status: ('A' for Active; 'I' for Inactive)
ROOT
ATOM      1  C   UNL d   1      -4.360   0.859   0.343  0.00  0.00     0.023 A 
ATOM      2  C1  UNL d   1      -3.806   2.117   0.106  0.00  0.00     0.003 A 
ATOM      3  C2  UNL d   1      -2.425   2.301   0.195  0.00  0.00     0.048 A 
ATOM      4  C3  UNL d   1      -1.603   1.223   0.522  0.00  0.00     0.023 A 
ATOM      5  C4  UNL d   1      -2.153  -0.038   0.759  0.00  0.00     0.048 A 
ATOM      6  C5  UNL d   1      -3.534  -0.217   0.669  0.00  0.00     0.003 A 
ATOM      7  I   UNL d   1       0.453   1.495   0.656  0.00  0.00    -0.146 I 
ENDROOT
TORSDOF 0
ENDMDL
