MODEL 1
REMARK minimizedAffinity 2.72038555
REMARK minimizedRMSD -1
REMARK  0 active torsions:
REMARK  status: ('A' for Active; 'I' for Inactive)
ROOT
ATOM      1  C   UNL d   1      -0.748   2.711   2.190  0.00  0.00     0.078 C 
ATOM      2  C1  UNL d   1      -1.085   1.601   1.240  0.00  0.00    -0.077 A 
ATOM      3  C2  UNL d   1      -0.605   0.302   1.449  0.00  0.00    -0.001 A 
ATOM      4  C3  UNL d   1      -0.918  -0.719   0.551  0.00  0.00     0.003 A 
ATOM      5  C4  UNL d   1      -1.711  -0.452  -0.564  0.00  0.00    -0.005 A 
ATOM      6  C5  UNL d   1      -2.192   0.838  -0.781  0.00  0.00     0.003 A 
ATOM      7  C6  UNL d   1      -1.879   1.860   0.116  0.00  0.00    -0.001 A 
ENDROOT
TORSDOF 0
ENDMDL
