MODEL 1
REMARK minimizedAffinity -5.02369547
REMARK minimizedRMSD -1
REMARK  0 active torsions:
REMARK  status: ('A' for Active; 'I' for Inactive)
ROOT
ATOM      1  C   UNL d   1      -1.929   1.586   0.989  0.00  0.00     0.078 C 
ATOM      2  C1  UNL d   1      -0.470   1.740   0.680  0.00  0.00    -0.077 A 
ATOM      3  C2  UNL d   1       0.294   0.649   0.247  0.00  0.00    -0.001 A 
ATOM      4  C3  UNL d   1       1.654   0.805  -0.028  0.00  0.00     0.003 A 
ATOM      5  C4  UNL d   1       2.262   2.049   0.129  0.00  0.00    -0.005 A 
ATOM      6  C5  UNL d   1       1.510   3.139   0.562  0.00  0.00     0.003 A 
ATOM      7  C6  UNL d   1       0.150   2.986   0.837  0.00  0.00    -0.001 A 
ENDROOT
TORSDOF 0
ENDMDL
