MODEL 1
REMARK minimizedAffinity -4.11896706
REMARK minimizedRMSD -1
REMARK  0 active torsions:
REMARK  status: ('A' for Active; 'I' for Inactive)
ROOT
ATOM      1  C   UNL d   1       1.516   4.194   0.363  0.00  0.00     0.078 C 
ATOM      2  C1  UNL d   1       0.973   2.797   0.407  0.00  0.00    -0.077 A 
ATOM      3  C2  UNL d   1      -0.397   2.561   0.570  0.00  0.00    -0.001 A 
ATOM      4  C3  UNL d   1      -0.887   1.255   0.619  0.00  0.00     0.003 A 
ATOM      5  C4  UNL d   1      -0.014   0.175   0.507  0.00  0.00    -0.005 A 
ATOM      6  C5  UNL d   1       1.352   0.400   0.346  0.00  0.00     0.003 A 
ATOM      7  C6  UNL d   1       1.844   1.705   0.297  0.00  0.00    -0.001 A 
ENDROOT
TORSDOF 0
ENDMDL
