MODEL 1
REMARK minimizedAffinity -4.28379059
REMARK minimizedRMSD -1
REMARK  0 active torsions:
REMARK  status: ('A' for Active; 'I' for Inactive)
ROOT
ATOM      1  C   UNL d   1       1.320  -0.715   0.026  0.00  0.00     0.078 C 
ATOM      2  C1  UNL d   1       0.468  -1.744  -0.654  0.00  0.00    -0.077 A 
ATOM      3  C2  UNL d   1       0.301  -1.738  -2.045  0.00  0.00    -0.001 A 
ATOM      4  C3  UNL d   1      -0.503  -2.697  -2.663  0.00  0.00     0.003 A 
ATOM      5  C4  UNL d   1      -1.148  -3.668  -1.900  0.00  0.00    -0.005 A 
ATOM      6  C5  UNL d   1      -0.990  -3.680  -0.515  0.00  0.00     0.003 A 
ATOM      7  C6  UNL d   1      -0.186  -2.723   0.105  0.00  0.00    -0.001 A 
ENDROOT
TORSDOF 0
ENDMDL
