MODEL 1
REMARK minimizedAffinity -3.73077416
REMARK minimizedRMSD -1
REMARK  0 active torsions:
REMARK  status: ('A' for Active; 'I' for Inactive)
ROOT
ATOM      1  C   UNL d   1      -0.150  -1.856  -0.185  0.00  0.00     0.078 C 
ATOM      2  C1  UNL d   1      -0.056  -0.397   0.147  0.00  0.00    -0.077 A 
ATOM      3  C2  UNL d   1       1.158   0.176   0.545  0.00  0.00    -0.001 A 
ATOM      4  C3  UNL d   1       1.229   1.534   0.860  0.00  0.00     0.003 A 
ATOM      5  C4  UNL d   1       0.088   2.330   0.782  0.00  0.00    -0.005 A 
ATOM      6  C5  UNL d   1      -1.125   1.769   0.389  0.00  0.00     0.003 A 
ATOM      7  C6  UNL d   1      -1.198   0.411   0.073  0.00  0.00    -0.001 A 
ENDROOT
TORSDOF 0
ENDMDL
