MODEL 1
REMARK minimizedAffinity -3.72251868
REMARK minimizedRMSD -1
REMARK  0 active torsions:
REMARK  status: ('A' for Active; 'I' for Inactive)
ROOT
ATOM      1  C   UNL d   1       2.683  -0.507   0.606  0.00  0.00     0.078 C 
ATOM      2  C1  UNL d   1       1.209  -0.248   0.691  0.00  0.00    -0.077 A 
ATOM      3  C2  UNL d   1       0.661   0.956   0.233  0.00  0.00    -0.001 A 
ATOM      4  C3  UNL d   1      -0.713   1.188   0.328  0.00  0.00     0.003 A 
ATOM      5  C4  UNL d   1      -1.549   0.219   0.880  0.00  0.00    -0.005 A 
ATOM      6  C5  UNL d   1      -1.012  -0.981   1.340  0.00  0.00     0.003 A 
ATOM      7  C6  UNL d   1       0.361  -1.214   1.246  0.00  0.00    -0.001 A 
ENDROOT
TORSDOF 0
ENDMDL
