MODEL 1
REMARK minimizedAffinity -5.38026524
REMARK minimizedRMSD -1
REMARK  0 active torsions:
REMARK  status: ('A' for Active; 'I' for Inactive)
ROOT
ATOM      1  C   UNL d   1       2.928  -0.142  -0.175  0.00  0.00     0.078 C 
ATOM      2  C1  UNL d   1       2.024   1.054  -0.144  0.00  0.00    -0.077 A 
ATOM      3  C2  UNL d   1       0.679   0.951  -0.520  0.00  0.00    -0.001 A 
ATOM      4  C3  UNL d   1      -0.149   2.074  -0.495  0.00  0.00     0.003 A 
ATOM      5  C4  UNL d   1       0.358   3.309  -0.096  0.00  0.00    -0.005 A 
ATOM      6  C5  UNL d   1       1.696   3.422   0.278  0.00  0.00     0.003 A 
ATOM      7  C6  UNL d   1       2.526   2.299   0.254  0.00  0.00    -0.001 A 
ENDROOT
TORSDOF 0
ENDMDL
