MODEL 1
REMARK minimizedAffinity 0.665648758
REMARK minimizedRMSD -1
REMARK  0 active torsions:
REMARK  status: ('A' for Active; 'I' for Inactive)
ROOT
ATOM      1  C   UNL d   1       1.557  -2.013  -2.935  0.00  0.00     0.078 C 
ATOM      2  C1  UNL d   1       1.466  -1.370  -1.584  0.00  0.00    -0.077 A 
ATOM      3  C2  UNL d   1       2.598  -0.825  -0.966  0.00  0.00    -0.001 A 
ATOM      4  C3  UNL d   1       2.501  -0.238   0.297  0.00  0.00     0.003 A 
ATOM      5  C4  UNL d   1       1.273  -0.192   0.953  0.00  0.00    -0.005 A 
ATOM      6  C5  UNL d   1       0.141  -0.734   0.348  0.00  0.00     0.003 A 
ATOM      7  C6  UNL d   1       0.237  -1.321  -0.915  0.00  0.00    -0.001 A 
ENDROOT
TORSDOF 0
ENDMDL
