MODEL 1
REMARK minimizedAffinity -4.89094734
REMARK minimizedRMSD -1
REMARK  0 active torsions:
REMARK  status: ('A' for Active; 'I' for Inactive)
ROOT
ATOM      1  C   UNL d   1      -0.034   3.202   0.848  0.00  0.00     0.078 C 
ATOM      2  C1  UNL d   1       0.244   1.733   0.739  0.00  0.00    -0.077 A 
ATOM      3  C2  UNL d   1      -0.800   0.800   0.738  0.00  0.00    -0.001 A 
ATOM      4  C3  UNL d   1      -0.527  -0.566   0.646  0.00  0.00     0.003 A 
ATOM      5  C4  UNL d   1       0.791  -1.011   0.555  0.00  0.00    -0.005 A 
ATOM      6  C5  UNL d   1       1.836  -0.090   0.557  0.00  0.00     0.003 A 
ATOM      7  C6  UNL d   1       1.565   1.276   0.650  0.00  0.00    -0.001 A 
ENDROOT
TORSDOF 0
ENDMDL
