MODEL 1
REMARK minimizedAffinity 0.301708937
REMARK minimizedRMSD -1
REMARK  0 active torsions:
REMARK  status: ('A' for Active; 'I' for Inactive)
ROOT
ATOM      1  C   UNL d   1       1.969  -2.934  -3.291  0.00  0.00     0.078 C 
ATOM      2  C1  UNL d   1       0.699  -2.965  -2.494  0.00  0.00    -0.077 A 
ATOM      3  C2  UNL d   1      -0.457  -3.569  -3.003  0.00  0.00    -0.001 A 
ATOM      4  C3  UNL d   1      -1.635  -3.582  -2.254  0.00  0.00     0.003 A 
ATOM      5  C4  UNL d   1      -1.668  -2.991  -0.993  0.00  0.00    -0.005 A 
ATOM      6  C5  UNL d   1      -0.523  -2.385  -0.479  0.00  0.00     0.003 A 
ATOM      7  C6  UNL d   1       0.655  -2.372  -1.226  0.00  0.00    -0.001 A 
ENDROOT
TORSDOF 0
ENDMDL
