MODEL 1
REMARK minimizedAffinity -4.17984104
REMARK minimizedRMSD -1
REMARK  0 active torsions:
REMARK  status: ('A' for Active; 'I' for Inactive)
ROOT
ATOM      1  C   UNL d   1       2.498   2.241   0.769  0.00  0.00     0.078 C 
ATOM      2  C1  UNL d   1       1.103   1.712   0.616  0.00  0.00    -0.077 A 
ATOM      3  C2  UNL d   1      -0.008   2.512   0.908  0.00  0.00    -0.001 A 
ATOM      4  C3  UNL d   1      -1.300   2.004   0.770  0.00  0.00     0.003 A 
ATOM      5  C4  UNL d   1      -1.494   0.693   0.340  0.00  0.00    -0.005 A 
ATOM      6  C5  UNL d   1      -0.394  -0.112   0.050  0.00  0.00     0.003 A 
ATOM      7  C6  UNL d   1       0.899   0.394   0.187  0.00  0.00    -0.001 A 
ENDROOT
TORSDOF 0
ENDMDL
