MODEL 1
REMARK minimizedAffinity -5.30754471
REMARK minimizedRMSD -1
REMARK  0 active torsions:
REMARK  status: ('A' for Active; 'I' for Inactive)
ROOT
ATOM      1  C   UNL d   1      -0.239  -1.035   0.414  0.00  0.00     0.078 C 
ATOM      2  C1  UNL d   1       0.196   0.399   0.351  0.00  0.00    -0.077 A 
ATOM      3  C2  UNL d   1       1.535   0.737   0.118  0.00  0.00    -0.001 A 
ATOM      4  C3  UNL d   1       1.927   2.075   0.072  0.00  0.00     0.003 A 
ATOM      5  C4  UNL d   1       0.987   3.087   0.259  0.00  0.00    -0.005 A 
ATOM      6  C5  UNL d   1      -0.347   2.760   0.493  0.00  0.00     0.003 A 
ATOM      7  C6  UNL d   1      -0.741   1.422   0.540  0.00  0.00    -0.001 A 
ENDROOT
TORSDOF 0
ENDMDL
