MODEL 1
REMARK minimizedAffinity -5.18655062
REMARK minimizedRMSD -1
REMARK  0 active torsions:
REMARK  status: ('A' for Active; 'I' for Inactive)
ROOT
ATOM      1  C   UNL d   1       0.370   3.764   0.021  0.00  0.00     0.078 C 
ATOM      2  C1  UNL d   1       0.426   2.268   0.112  0.00  0.00    -0.077 A 
ATOM      3  C2  UNL d   1      -0.739   1.513   0.294  0.00  0.00    -0.001 A 
ATOM      4  C3  UNL d   1      -0.671   0.122   0.387  0.00  0.00     0.003 A 
ATOM      5  C4  UNL d   1       0.559  -0.526   0.300  0.00  0.00    -0.005 A 
ATOM      6  C5  UNL d   1       1.724   0.217   0.121  0.00  0.00     0.003 A 
ATOM      7  C6  UNL d   1       1.658   1.608   0.028  0.00  0.00    -0.001 A 
ENDROOT
TORSDOF 0
ENDMDL
