MODEL 1
REMARK minimizedAffinity 2.55904746
REMARK minimizedRMSD -1
REMARK  0 active torsions:
REMARK  status: ('A' for Active; 'I' for Inactive)
ROOT
ATOM      1  C1  DEN d   1      -2.307   3.754  -5.999  0.00  0.00     0.130 A 
ATOM      2  C2  DEN d   1      -1.345   3.041  -5.163  0.00  0.00    -0.031 A 
ATOM      3  C3  DEN d   1      -2.102   2.223  -4.194  0.00  0.00     0.027 A 
ATOM      4  C4  DEN d   1      -4.655   1.988  -3.912  0.00  0.00     0.027 A 
ATOM      5  C5  DEN d   1      -5.879   2.407  -4.383  0.00  0.00    -0.003 A 
ATOM      6  C6  DEN d   1      -5.998   3.322  -5.395  0.00  0.00     0.001 A 
ATOM      7  C7  DEN d   1      -4.872   3.816  -6.000  0.00  0.00     0.017 A 
ATOM      8  C8  DEN d   1      -3.634   3.404  -5.525  0.00  0.00    -0.094 A 
ATOM      9  C9  DEN d   1      -3.535   2.468  -4.509  0.00  0.00    -0.072 A 
ENDROOT
TORSDOF 0
ENDMDL
