MODEL 1
REMARK minimizedAffinity 12.0892372
REMARK minimizedRMSD -1
REMARK  0 active torsions:
REMARK  status: ('A' for Active; 'I' for Inactive)
ROOT
ATOM      1  C1  DEN d   1       1.602  -5.507  -2.490  0.00  0.00     0.130 A 
ATOM      2  C2  DEN d   1       2.499  -5.702  -1.355  0.00  0.00    -0.031 A 
ATOM      3  C3  DEN d   1       3.860  -5.926  -1.882  0.00  0.00     0.027 A 
ATOM      4  C4  DEN d   1       4.662  -5.984  -4.332  0.00  0.00     0.027 A 
ATOM      5  C5  DEN d   1       4.263  -5.882  -5.647  0.00  0.00    -0.003 A 
ATOM      6  C6  DEN d   1       2.955  -5.684  -5.999  0.00  0.00     0.001 A 
ATOM      7  C7  DEN d   1       2.004  -5.536  -5.024  0.00  0.00     0.017 A 
ATOM      8  C8  DEN d   1       2.397  -5.645  -3.697  0.00  0.00    -0.094 A 
ATOM      9  C9  DEN d   1       3.727  -5.833  -3.361  0.00  0.00    -0.072 A 
ENDROOT
TORSDOF 0
ENDMDL
