MODEL 1
REMARK minimizedAffinity 3.10456729
REMARK minimizedRMSD -1
REMARK  0 active torsions:
REMARK  status: ('A' for Active; 'I' for Inactive)
ROOT
ATOM      1  C1  DEN d   1       4.423  -4.407  -2.378  0.00  0.00     0.130 A 
ATOM      2  C2  DEN d   1       3.239  -4.644  -1.557  0.00  0.00    -0.031 A 
ATOM      3  C3  DEN d   1       2.226  -5.311  -2.399  0.00  0.00     0.027 A 
ATOM      4  C4  DEN d   1       2.376  -5.998  -4.880  0.00  0.00     0.027 A 
ATOM      5  C5  DEN d   1       3.178  -5.993  -6.000  0.00  0.00    -0.003 A 
ATOM      6  C6  DEN d   1       4.428  -5.434  -6.000  0.00  0.00     0.001 A 
ATOM      7  C7  DEN d   1       4.931  -4.895  -4.845  0.00  0.00     0.017 A 
ATOM      8  C8  DEN d   1       4.125  -4.890  -3.714  0.00  0.00    -0.094 A 
ATOM      9  C9  DEN d   1       2.869  -5.471  -3.731  0.00  0.00    -0.072 A 
ENDROOT
TORSDOF 0
ENDMDL
