MODEL 1
REMARK minimizedAffinity 3.58709669
REMARK minimizedRMSD -1
REMARK  0 active torsions:
REMARK  status: ('A' for Active; 'I' for Inactive)
ROOT
ATOM      1  C1  DEN d   1       2.078   5.477   0.011  0.00  0.00     0.130 A 
ATOM      2  C2  DEN d   1       3.362   5.999   0.470  0.00  0.00    -0.031 A 
ATOM      3  C3  DEN d   1       4.071   4.912   1.175  0.00  0.00     0.027 A 
ATOM      4  C4  DEN d   1       3.310   2.483   1.594  0.00  0.00     0.027 A 
ATOM      5  C5  DEN d   1       2.290   1.578   1.403  0.00  0.00    -0.003 A 
ATOM      6  C6  DEN d   1       1.123   1.915   0.770  0.00  0.00     0.001 A 
ATOM      7  C7  DEN d   1       0.966   3.179   0.265  0.00  0.00     0.017 A 
ATOM      8  C8  DEN d   1       1.987   4.099   0.460  0.00  0.00    -0.094 A 
ATOM      9  C9  DEN d   1       3.164   3.735   1.092  0.00  0.00    -0.072 A 
ENDROOT
TORSDOF 0
ENDMDL
