MODEL 1
REMARK minimizedAffinity 2.29321074
REMARK minimizedRMSD -1
REMARK  0 active torsions:
REMARK  status: ('A' for Active; 'I' for Inactive)
ROOT
ATOM      1  C1  DEN d   1       3.493  -5.615  -2.219  0.00  0.00     0.130 A 
ATOM      2  C2  DEN d   1       2.117  -5.961  -2.563  0.00  0.00    -0.031 A 
ATOM      3  C3  DEN d   1       2.010  -6.000  -4.035  0.00  0.00     0.027 A 
ATOM      4  C4  DEN d   1       3.834  -5.565  -5.806  0.00  0.00     0.027 A 
ATOM      5  C5  DEN d   1       5.156  -5.226  -5.997  0.00  0.00    -0.003 A 
ATOM      6  C6  DEN d   1       6.000  -4.962  -4.951  0.00  0.00     0.001 A 
ATOM      7  C7  DEN d   1       5.544  -5.077  -3.665  0.00  0.00     0.017 A 
ATOM      8  C8  DEN d   1       4.211  -5.411  -3.465  0.00  0.00    -0.094 A 
ATOM      9  C9  DEN d   1       3.376  -5.686  -4.535  0.00  0.00    -0.072 A 
ENDROOT
TORSDOF 0
ENDMDL
