MODEL 1
REMARK minimizedAffinity -0.952115059
REMARK minimizedRMSD -1
REMARK  0 active torsions:
REMARK  status: ('A' for Active; 'I' for Inactive)
ROOT
ATOM      1  C1  DEN d   1       1.880  -5.252  -3.910  0.00  0.00     0.130 A 
ATOM      2  C2  DEN d   1       1.497  -5.656  -5.260  0.00  0.00    -0.031 A 
ATOM      3  C3  DEN d   1       2.729  -6.000  -5.999  0.00  0.00     0.027 A 
ATOM      4  C4  DEN d   1       5.176  -5.950  -5.188  0.00  0.00     0.027 A 
ATOM      5  C5  DEN d   1       6.000  -5.663  -4.121  0.00  0.00    -0.003 A 
ATOM      6  C6  DEN d   1       5.515  -5.191  -2.931  0.00  0.00     0.001 A 
ATOM      7  C7  DEN d   1       4.164  -5.034  -2.762  0.00  0.00     0.017 A 
ATOM      8  C8  DEN d   1       3.328  -5.314  -3.835  0.00  0.00    -0.094 A 
ATOM      9  C9  DEN d   1       3.837  -5.802  -5.027  0.00  0.00    -0.072 A 
ENDROOT
TORSDOF 0
ENDMDL
