MODEL 1
REMARK minimizedAffinity 2.48433685
REMARK minimizedRMSD -1
REMARK  0 active torsions:
REMARK  status: ('A' for Active; 'I' for Inactive)
ROOT
ATOM      1  C1  DEN d   1       1.573   1.604  -0.518  0.00  0.00     0.130 A 
ATOM      2  C2  DEN d   1       2.965   1.589  -0.076  0.00  0.00    -0.031 A 
ATOM      3  C3  DEN d   1       3.003   2.041   1.329  0.00  0.00     0.027 A 
ATOM      4  C4  DEN d   1       1.052   2.755   2.858  0.00  0.00     0.027 A 
ATOM      5  C5  DEN d   1      -0.311   2.943   2.924  0.00  0.00    -0.003 A 
ATOM      6  C6  DEN d   1      -1.131   2.732   1.847  0.00  0.00     0.001 A 
ATOM      7  C7  DEN d   1      -0.600   2.277   0.669  0.00  0.00     0.017 A 
ATOM      8  C8  DEN d   1       0.774   2.092   0.592  0.00  0.00    -0.094 A 
ATOM      9  C9  DEN d   1       1.584   2.299   1.696  0.00  0.00    -0.072 A 
ENDROOT
TORSDOF 0
ENDMDL
