MODEL 1
REMARK minimizedAffinity -0.00887052808
REMARK minimizedRMSD -1
REMARK  0 active torsions:
REMARK  status: ('A' for Active; 'I' for Inactive)
ROOT
ATOM      1  C1  DEN d   1       2.178  -5.724  -3.645  0.00  0.00     0.130 A 
ATOM      2  C2  DEN d   1       1.412  -5.991  -4.859  0.00  0.00    -0.031 A 
ATOM      3  C3  DEN d   1       2.351  -6.000  -5.999  0.00  0.00     0.027 A 
ATOM      4  C4  DEN d   1       4.904  -5.633  -6.000  0.00  0.00     0.027 A 
ATOM      5  C5  DEN d   1       6.000  -5.361  -5.210  0.00  0.00    -0.003 A 
ATOM      6  C6  DEN d   1       5.894  -5.159  -3.859  0.00  0.00     0.001 A 
ATOM      7  C7  DEN d   1       4.672  -5.271  -3.250  0.00  0.00     0.017 A 
ATOM      8  C8  DEN d   1       3.562  -5.537  -4.040  0.00  0.00    -0.094 A 
ATOM      9  C9  DEN d   1       3.691  -5.750  -5.402  0.00  0.00    -0.072 A 
ENDROOT
TORSDOF 0
ENDMDL
