MODEL 1
REMARK minimizedAffinity 2.6471889
REMARK minimizedRMSD -1
REMARK  0 active torsions:
REMARK  status: ('A' for Active; 'I' for Inactive)
ROOT
ATOM      1  C1  DEN d   1       4.126   6.000   4.968  0.00  0.00     0.130 A 
ATOM      2  C2  DEN d   1       5.087   5.574   5.982  0.00  0.00    -0.031 A 
ATOM      3  C3  DEN d   1       5.991   4.582   5.366  0.00  0.00     0.027 A 
ATOM      4  C4  DEN d   1       5.999   3.671   2.953  0.00  0.00     0.027 A 
ATOM      5  C5  DEN d   1       5.367   3.726   1.731  0.00  0.00    -0.003 A 
ATOM      6  C6  DEN d   1       4.265   4.511   1.512  0.00  0.00     0.001 A 
ATOM      7  C7  DEN d   1       3.789   5.307   2.520  0.00  0.00     0.017 A 
ATOM      8  C8  DEN d   1       4.416   5.251   3.758  0.00  0.00    -0.094 A 
ATOM      9  C9  DEN d   1       5.536   4.461   3.955  0.00  0.00    -0.072 A 
ENDROOT
TORSDOF 0
ENDMDL
