MODEL 1
REMARK minimizedAffinity 1.3786751
REMARK minimizedRMSD -1
REMARK  0 active torsions:
REMARK  status: ('A' for Active; 'I' for Inactive)
ROOT
ATOM      1  C1  DEN d   1      -2.096   2.356  -4.355  0.00  0.00     0.130 A 
ATOM      2  C2  DEN d   1      -1.365   3.306  -5.190  0.00  0.00    -0.031 A 
ATOM      3  C3  DEN d   1      -2.350   4.066  -5.985  0.00  0.00     0.027 A 
ATOM      4  C4  DEN d   1      -4.922   3.871  -5.999  0.00  0.00     0.027 A 
ATOM      5  C5  DEN d   1      -6.000   3.199  -5.467  0.00  0.00    -0.003 A 
ATOM      6  C6  DEN d   1      -5.851   2.183  -4.560  0.00  0.00     0.001 A 
ATOM      7  C7  DEN d   1      -4.599   1.842  -4.123  0.00  0.00     0.017 A 
ATOM      8  C8  DEN d   1      -3.507   2.510  -4.660  0.00  0.00    -0.094 A 
ATOM      9  C9  DEN d   1      -3.678   3.542  -5.567  0.00  0.00    -0.072 A 
ENDROOT
TORSDOF 0
ENDMDL
