MODEL 1
REMARK minimizedAffinity -2.62732959
REMARK minimizedRMSD -1
REMARK  0 active torsions:
REMARK  status: ('A' for Active; 'I' for Inactive)
ROOT
ATOM      1  C1  DEN d   1       0.161   3.539   1.781  0.00  0.00     0.130 A 
ATOM      2  C2  DEN d   1      -0.628   2.420   1.275  0.00  0.00    -0.031 A 
ATOM      3  C3  DEN d   1       0.307   1.392   0.774  0.00  0.00     0.027 A 
ATOM      4  C4  DEN d   1       2.886   1.423   0.740  0.00  0.00     0.027 A 
ATOM      5  C5  DEN d   1       4.004   2.165   1.051  0.00  0.00    -0.003 A 
ATOM      6  C6  DEN d   1       3.919   3.421   1.592  0.00  0.00     0.001 A 
ATOM      7  C7  DEN d   1       2.691   3.955   1.880  0.00  0.00     0.017 A 
ATOM      8  C8  DEN d   1       1.559   3.216   1.562  0.00  0.00    -0.094 A 
ATOM      9  C9  DEN d   1       1.666   1.943   1.027  0.00  0.00    -0.072 A 
ENDROOT
TORSDOF 0
ENDMDL
