MODEL 1
REMARK minimizedAffinity -0.529104769
REMARK minimizedRMSD -1
REMARK  0 active torsions:
REMARK  status: ('A' for Active; 'I' for Inactive)
ROOT
ATOM      1  C1  DEN d   1       4.630  -5.299  -2.513  0.00  0.00     0.130 A 
ATOM      2  C2  DEN d   1       5.999  -5.396  -3.010  0.00  0.00    -0.031 A 
ATOM      3  C3  DEN d   1       5.940  -5.682  -4.458  0.00  0.00     0.027 A 
ATOM      4  C4  DEN d   1       3.872  -5.979  -5.971  0.00  0.00     0.027 A 
ATOM      5  C5  DEN d   1       2.495  -5.997  -5.998  0.00  0.00    -0.003 A 
ATOM      6  C6  DEN d   1       1.740  -5.820  -4.870  0.00  0.00     0.001 A 
ATOM      7  C7  DEN d   1       2.357  -5.570  -3.672  0.00  0.00     0.017 A 
ATOM      8  C8  DEN d   1       3.745  -5.558  -3.635  0.00  0.00    -0.094 A 
ATOM      9  C9  DEN d   1       4.491  -5.728  -4.789  0.00  0.00    -0.072 A 
ENDROOT
TORSDOF 0
ENDMDL
