MODEL 1
REMARK minimizedAffinity 6.08289814
REMARK minimizedRMSD -1
REMARK  0 active torsions:
REMARK  status: ('A' for Active; 'I' for Inactive)
ROOT
ATOM      1  C1  DEN d   1       4.638   2.016  -0.087  0.00  0.00     0.130 A 
ATOM      2  C2  DEN d   1       3.702   1.356   0.820  0.00  0.00    -0.031 A 
ATOM      3  C3  DEN d   1       2.947   2.403   1.537  0.00  0.00     0.027 A 
ATOM      4  C4  DEN d   1       3.132   4.968   1.329  0.00  0.00     0.027 A 
ATOM      5  C5  DEN d   1       3.793   5.998   0.698  0.00  0.00    -0.003 A 
ATOM      6  C6  DEN d   1       4.798   5.775  -0.206  0.00  0.00     0.001 A 
ATOM      7  C7  DEN d   1       5.140   4.491  -0.539  0.00  0.00     0.017 A 
ATOM      8  C8  DEN d   1       4.482   3.447   0.099  0.00  0.00    -0.094 A 
ATOM      9  C9  DEN d   1       3.461   3.693   1.001  0.00  0.00    -0.072 A 
ENDROOT
TORSDOF 0
ENDMDL
