MODEL 1
REMARK minimizedAffinity -0.775273263
REMARK minimizedRMSD -1
REMARK  0 active torsions:
REMARK  status: ('A' for Active; 'I' for Inactive)
ROOT
ATOM      1  C1  DEN d   1       2.304  -5.972  -3.650  0.00  0.00     0.130 A 
ATOM      2  C2  DEN d   1       1.510  -6.000  -4.875  0.00  0.00    -0.031 A 
ATOM      3  C3  DEN d   1       2.392  -5.629  -6.000  0.00  0.00     0.027 A 
ATOM      4  C4  DEN d   1       4.898  -5.021  -5.964  0.00  0.00     0.027 A 
ATOM      5  C5  DEN d   1       6.000  -4.849  -5.155  0.00  0.00    -0.003 A 
ATOM      6  C6  DEN d   1       5.939  -5.004  -3.796  0.00  0.00     0.001 A 
ATOM      7  C7  DEN d   1       4.762  -5.386  -3.208  0.00  0.00     0.017 A 
ATOM      8  C8  DEN d   1       3.646  -5.555  -4.015  0.00  0.00    -0.094 A 
ATOM      9  C9  DEN d   1       3.730  -5.405  -5.389  0.00  0.00    -0.072 A 
ENDROOT
TORSDOF 0
ENDMDL
