MODEL 1
REMARK minimizedAffinity 5.87242985
REMARK minimizedRMSD -1
REMARK  0 active torsions:
REMARK  status: ('A' for Active; 'I' for Inactive)
ROOT
ATOM      1  C1  DEN d   1      -2.333   3.433  -5.967  0.00  0.00     0.130 A 
ATOM      2  C2  DEN d   1      -1.345   2.999  -4.983  0.00  0.00    -0.031 A 
ATOM      3  C3  DEN d   1      -2.068   2.374  -3.857  0.00  0.00     0.027 A 
ATOM      4  C4  DEN d   1      -4.606   2.034  -3.546  0.00  0.00     0.027 A 
ATOM      5  C5  DEN d   1      -5.844   2.248  -4.110  0.00  0.00    -0.003 A 
ATOM      6  C6  DEN d   1      -6.000   2.897  -5.306  0.00  0.00     0.001 A 
ATOM      7  C7  DEN d   1      -4.895   3.315  -6.000  0.00  0.00     0.017 A 
ATOM      8  C8  DEN d   1      -3.644   3.109  -5.435  0.00  0.00    -0.094 A 
ATOM      9  C9  DEN d   1      -3.507   2.440  -4.230  0.00  0.00    -0.072 A 
ENDROOT
TORSDOF 0
ENDMDL
