MODEL 1
REMARK minimizedAffinity 2.51725793
REMARK minimizedRMSD -1
REMARK  0 active torsions:
REMARK  status: ('A' for Active; 'I' for Inactive)
ROOT
ATOM      1  C1  DEN d   1       1.480  -5.980  -4.622  0.00  0.00     0.130 A 
ATOM      2  C2  DEN d   1       1.962  -5.998  -6.000  0.00  0.00    -0.031 A 
ATOM      3  C3  DEN d   1       3.368  -5.544  -5.998  0.00  0.00     0.027 A 
ATOM      4  C4  DEN d   1       4.838  -4.825  -4.005  0.00  0.00     0.027 A 
ATOM      5  C5  DEN d   1       4.864  -4.633  -2.641  0.00  0.00    -0.003 A 
ATOM      6  C6  DEN d   1       3.764  -4.843  -1.853  0.00  0.00     0.001 A 
ATOM      7  C7  DEN d   1       2.602  -5.300  -2.416  0.00  0.00     0.017 A 
ATOM      8  C8  DEN d   1       2.566  -5.489  -3.792  0.00  0.00    -0.094 A 
ATOM      9  C9  DEN d   1       3.692  -5.283  -4.570  0.00  0.00    -0.072 A 
ENDROOT
TORSDOF 0
ENDMDL
