MODEL 1
REMARK minimizedAffinity 6.47569084
REMARK minimizedRMSD -1
REMARK  1 active torsions:
REMARK  status: ('A' for Active; 'I' for Inactive)
REMARK    1  A    between atoms: N_2  and  C1_3 
ROOT
ATOM      1  C1  UNL d   1       0.285   1.379   1.152  0.00  0.00     0.143 A 
ATOM      2  C2  UNL d   1       1.100   1.314   2.287  0.00  0.00    -0.057 A 
ATOM      3  C3  UNL d   1       1.532   2.475   2.938  0.00  0.00     0.033 A 
ATOM      4  C4  UNL d   1       1.179   3.728   2.446  0.00  0.00    -0.042 A 
ATOM      5  C5  UNL d   1       0.390   3.817   1.305  0.00  0.00     0.033 A 
ATOM      6  C6  UNL d   1      -0.044   2.653   0.663  0.00  0.00    -0.057 A 
ENDROOT
BRANCH   1   7
ATOM      7  N   UNL d   1      -0.096   0.263   0.403  0.00  0.00    -0.732 N 
ATOM      8  C   UNL d   1       0.528  -1.024   0.628  0.00  0.00     0.284 C 
ATOM      9  H3  UNL d   1      -1.103   0.217   0.259  0.00  0.00     0.395 HD
ENDBRANCH   1   7
TORSDOF 1
ENDMDL
