MODEL 1
REMARK minimizedAffinity 1.47030842
REMARK minimizedRMSD -1
REMARK  1 active torsions:
REMARK  status: ('A' for Active; 'I' for Inactive)
REMARK    1  A    between atoms: N_2  and  C1_3 
ROOT
ATOM      1  C1  UNL d   1      -1.099   3.578   1.055  0.00  0.00     0.143 A 
ATOM      2  C2  UNL d   1      -0.284   3.624  -0.081  0.00  0.00    -0.057 A 
ATOM      3  C3  UNL d   1      -0.153   4.798  -0.833  0.00  0.00     0.033 A 
ATOM      4  C4  UNL d   1      -0.859   5.942  -0.477  0.00  0.00    -0.042 A 
ATOM      5  C5  UNL d   1      -1.694   5.912   0.634  0.00  0.00     0.033 A 
ATOM      6  C6  UNL d   1      -1.816   4.739   1.385  0.00  0.00    -0.057 A 
ENDROOT
BRANCH   1   7
ATOM      7  N   UNL d   1      -1.348   2.414   1.787  0.00  0.00    -0.732 N 
ATOM      8  C   UNL d   1      -0.282   1.757   2.512  0.00  0.00     0.284 C 
ATOM      9  H3  UNL d   1      -2.231   2.454   2.291  0.00  0.00     0.395 HD
ENDBRANCH   1   7
TORSDOF 1
ENDMDL
