MODEL 1
REMARK minimizedAffinity 0.149114043
REMARK minimizedRMSD -1
REMARK  1 active torsions:
REMARK  status: ('A' for Active; 'I' for Inactive)
REMARK    1  A    between atoms: N_2  and  C1_3 
ROOT
ATOM      1  C1  UNL d   1      -0.771   2.346  -1.810  0.00  0.00     0.143 A 
ATOM      2  C2  UNL d   1      -0.799   3.492  -2.612  0.00  0.00    -0.057 A 
ATOM      3  C3  UNL d   1      -0.369   4.732  -2.123  0.00  0.00     0.033 A 
ATOM      4  C4  UNL d   1       0.071   4.853  -0.809  0.00  0.00    -0.042 A 
ATOM      5  C5  UNL d   1       0.083   3.732   0.015  0.00  0.00     0.033 A 
ATOM      6  C6  UNL d   1      -0.341   2.496  -0.482  0.00  0.00    -0.057 A 
ENDROOT
BRANCH   1   7
ATOM      7  N   UNL d   1      -1.277   1.106  -2.207  0.00  0.00    -0.732 N 
ATOM      8  C   UNL d   1      -0.427  -0.065  -2.228  0.00  0.00     0.284 C 
ATOM      9  H3  UNL d   1      -2.212   0.935  -1.844  0.00  0.00     0.395 HD
ENDBRANCH   1   7
TORSDOF 1
ENDMDL
