MODEL 1
REMARK minimizedAffinity 2.06258702
REMARK minimizedRMSD -1
REMARK  1 active torsions:
REMARK  status: ('A' for Active; 'I' for Inactive)
REMARK    1  A    between atoms: N_2  and  C1_3 
ROOT
ATOM      1  C1  UNL d   1      -0.423   2.068  -1.497  0.00  0.00     0.143 A 
ATOM      2  C2  UNL d   1       0.206   0.850  -1.776  0.00  0.00    -0.057 A 
ATOM      3  C3  UNL d   1      -0.512  -0.238  -2.286  0.00  0.00     0.033 A 
ATOM      4  C4  UNL d   1      -1.883  -0.137  -2.498  0.00  0.00    -0.042 A 
ATOM      5  C5  UNL d   1      -2.534   1.056  -2.203  0.00  0.00     0.033 A 
ATOM      6  C6  UNL d   1      -1.810   2.142  -1.701  0.00  0.00    -0.057 A 
ENDROOT
BRANCH   1   7
ATOM      7  N   UNL d   1       0.217   3.155  -0.897  0.00  0.00    -0.732 N 
ATOM      8  C   UNL d   1      -0.045   4.505  -1.347  0.00  0.00     0.284 C 
ATOM      9  H3  UNL d   1       0.281   3.059   0.114  0.00  0.00     0.395 HD
ENDBRANCH   1   7
TORSDOF 1
ENDMDL
