MODEL 1
REMARK minimizedAffinity -2.16860271
REMARK minimizedRMSD -1
REMARK  1 active torsions:
REMARK  status: ('A' for Active; 'I' for Inactive)
REMARK    1  A    between atoms: N_2  and  C1_3 
ROOT
ATOM      1  C1  UNL d   1       0.186   1.980  -0.009  0.00  0.00     0.143 A 
ATOM      2  C2  UNL d   1       0.189   1.339   1.234  0.00  0.00    -0.057 A 
ATOM      3  C3  UNL d   1       0.584   2.012   2.397  0.00  0.00     0.033 A 
ATOM      4  C4  UNL d   1       1.012   3.334   2.332  0.00  0.00    -0.042 A 
ATOM      5  C5  UNL d   1       1.041   3.983   1.103  0.00  0.00     0.033 A 
ATOM      6  C6  UNL d   1       0.639   3.308  -0.054  0.00  0.00    -0.057 A 
ENDROOT
BRANCH   1   7
ATOM      7  N   UNL d   1      -0.101   1.336  -1.215  0.00  0.00    -0.732 N 
ATOM      8  C   UNL d   1      -1.446   1.342  -1.752  0.00  0.00     0.284 C 
ATOM      9  H3  UNL d   1       0.625   1.477  -1.914  0.00  0.00     0.395 HD
ENDBRANCH   1   7
TORSDOF 1
ENDMDL
