MODEL 1
REMARK minimizedAffinity 1.28503716
REMARK minimizedRMSD -1
REMARK  1 active torsions:
REMARK  status: ('A' for Active; 'I' for Inactive)
REMARK    1  A    between atoms: N_2  and  C1_3 
ROOT
ATOM      1  C1  UNL d   1      -5.897  -1.174   2.039  0.00  0.00     0.143 A 
ATOM      2  C2  UNL d   1      -5.856  -0.238   3.078  0.00  0.00    -0.057 A 
ATOM      3  C3  UNL d   1      -5.858  -0.641   4.419  0.00  0.00     0.033 A 
ATOM      4  C4  UNL d   1      -5.930  -1.992   4.746  0.00  0.00    -0.042 A 
ATOM      5  C5  UNL d   1      -5.997  -2.938   3.730  0.00  0.00     0.033 A 
ATOM      6  C6  UNL d   1      -5.988  -2.530   2.392  0.00  0.00    -0.057 A 
ENDROOT
BRANCH   1   7
ATOM      7  N   UNL d   1      -5.997  -0.833   0.688  0.00  0.00    -0.732 N 
ATOM      8  C   UNL d   1      -5.997  -1.858  -0.333  0.00  0.00     0.284 C 
ATOM      9  H3  UNL d   1      -6.666  -0.084   0.526  0.00  0.00     0.395 HD
ENDBRANCH   1   7
TORSDOF 1
ENDMDL
