MODEL 1
REMARK minimizedAffinity 0.614242136
REMARK minimizedRMSD -1
REMARK  1 active torsions:
REMARK  status: ('A' for Active; 'I' for Inactive)
REMARK    1  A    between atoms: N_2  and  C1_3 
ROOT
ATOM      1  C1  UNL d   1       0.651   0.668   1.115  0.00  0.00     0.143 A 
ATOM      2  C2  UNL d   1       1.345  -0.430   0.595  0.00  0.00    -0.057 A 
ATOM      3  C3  UNL d   1       1.373  -0.686  -0.781  0.00  0.00     0.033 A 
ATOM      4  C4  UNL d   1       0.680   0.138  -1.662  0.00  0.00    -0.042 A 
ATOM      5  C5  UNL d   1      -0.037   1.220  -1.166  0.00  0.00     0.033 A 
ATOM      6  C6  UNL d   1      -0.056   1.475   0.209  0.00  0.00    -0.057 A 
ENDROOT
BRANCH   1   7
ATOM      7  N   UNL d   1       0.504   0.920   2.481  0.00  0.00    -0.732 N 
ATOM      8  C   UNL d   1       0.605  -0.155   3.444  0.00  0.00     0.284 C 
ATOM      9  H3  UNL d   1       0.963   1.781   2.769  0.00  0.00     0.395 HD
ENDBRANCH   1   7
TORSDOF 1
ENDMDL
