MODEL 1
REMARK minimizedAffinity 3.01515913
REMARK minimizedRMSD -1
REMARK  1 active torsions:
REMARK  status: ('A' for Active; 'I' for Inactive)
REMARK    1  A    between atoms: N_2  and  C1_3 
ROOT
ATOM      1  C1  UNL d   1       0.291   3.126  -0.116  0.00  0.00     0.143 A 
ATOM      2  C2  UNL d   1       0.476   2.697   1.203  0.00  0.00    -0.057 A 
ATOM      3  C3  UNL d   1       0.167   1.387   1.590  0.00  0.00     0.033 A 
ATOM      4  C4  UNL d   1      -0.362   0.490   0.669  0.00  0.00    -0.042 A 
ATOM      5  C5  UNL d   1      -0.577   0.902  -0.641  0.00  0.00     0.033 A 
ATOM      6  C6  UNL d   1      -0.260   2.209  -1.024  0.00  0.00    -0.057 A 
ENDROOT
BRANCH   1   7
ATOM      7  N   UNL d   1       0.487   4.443  -0.540  0.00  0.00    -0.732 N 
ATOM      8  C   UNL d   1       0.035   4.872  -1.846  0.00  0.00     0.284 C 
ATOM      9  H3  UNL d   1       0.317   5.119   0.202  0.00  0.00     0.395 HD
ENDBRANCH   1   7
TORSDOF 1
ENDMDL
