MODEL 1
REMARK minimizedAffinity 0.935808897
REMARK minimizedRMSD -1
REMARK  1 active torsions:
REMARK  status: ('A' for Active; 'I' for Inactive)
REMARK    1  A    between atoms: C1_2  and  C2_3 
ROOT
ATOM      1  C2  UNL d   1       2.363  -0.886  -0.687  0.00  0.00    -0.076 A 
ATOM      2  C3  UNL d   1       1.505  -1.644   0.129  0.00  0.00     0.004 A 
ATOM      3  C4  UNL d   1       0.679  -1.029   1.068  0.00  0.00    -0.003 A 
ATOM      4  C5  UNL d   1       0.697   0.354   1.207  0.00  0.00     0.000 A 
ATOM      5  C6  UNL d   1       1.528   1.124   0.394  0.00  0.00     0.000 A 
ATOM      6  C7  UNL d   1       2.355   0.521  -0.569  0.00  0.00    -0.073 A 
ATOM      7  C8  UNL d   1       3.237   1.398  -1.415  0.00  0.00     0.078 C 
ENDROOT
BRANCH   1   8
ATOM      8  C1  UNL d   1       3.256  -1.610  -1.669  0.00  0.00     0.053 C 
ATOM      9  C   UNL d   1       4.604  -0.927  -1.843  0.00  0.00     0.018 C 
ENDBRANCH   1   8
TORSDOF 1
ENDMDL
