MODEL 1
REMARK minimizedAffinity 5.04371405
REMARK minimizedRMSD -1
REMARK  1 active torsions:
REMARK  status: ('A' for Active; 'I' for Inactive)
REMARK    1  A    between atoms: C1_2  and  C2_3 
ROOT
ATOM      1  C2  UNL d   1       2.567  -0.856  -1.159  0.00  0.00    -0.076 A 
ATOM      2  C3  UNL d   1       1.585  -1.440  -0.341  0.00  0.00     0.004 A 
ATOM      3  C4  UNL d   1       0.797  -0.659   0.503  0.00  0.00    -0.003 A 
ATOM      4  C5  UNL d   1       0.978   0.719   0.541  0.00  0.00     0.000 A 
ATOM      5  C6  UNL d   1       1.936   1.317  -0.277  0.00  0.00     0.000 A 
ATOM      6  C7  UNL d   1       2.728   0.546  -1.145  0.00  0.00    -0.073 A 
ATOM      7  C8  UNL d   1       3.750   1.243  -2.001  0.00  0.00     0.078 C 
ENDROOT
BRANCH   1   8
ATOM      8  C1  UNL d   1       3.410  -1.757  -2.034  0.00  0.00     0.053 C 
ATOM      9  C   UNL d   1       2.618  -2.359  -3.184  0.00  0.00     0.018 C 
ENDBRANCH   1   8
TORSDOF 1
ENDMDL
