MODEL 1
REMARK minimizedAffinity 0.419287324
REMARK minimizedRMSD -1
REMARK  1 active torsions:
REMARK  status: ('A' for Active; 'I' for Inactive)
REMARK    1  A    between atoms: C1_2  and  C2_3 
ROOT
ATOM      1  C2  UNL d   1       2.117   0.176  -0.632  0.00  0.00    -0.076 A 
ATOM      2  C3  UNL d   1       1.465   0.963   0.332  0.00  0.00     0.004 A 
ATOM      3  C4  UNL d   1       0.797   0.376   1.405  0.00  0.00    -0.003 A 
ATOM      4  C5  UNL d   1       0.770  -1.008   1.531  0.00  0.00     0.000 A 
ATOM      5  C6  UNL d   1       1.427  -1.804   0.594  0.00  0.00     0.000 A 
ATOM      6  C7  UNL d   1       2.119  -1.228  -0.485  0.00  0.00    -0.073 A 
ATOM      7  C8  UNL d   1       2.805  -2.134  -1.470  0.00  0.00     0.078 C 
ENDROOT
BRANCH   1   8
ATOM      8  C1  UNL d   1       2.803   0.867  -1.789  0.00  0.00     0.053 C 
ATOM      9  C   UNL d   1       4.114   0.199  -2.173  0.00  0.00     0.018 C 
ENDBRANCH   1   8
TORSDOF 1
ENDMDL
