MODEL 1
REMARK minimizedAffinity 1.51912129
REMARK minimizedRMSD -1
REMARK  1 active torsions:
REMARK  status: ('A' for Active; 'I' for Inactive)
REMARK    1  A    between atoms: C1_2  and  C2_3 
ROOT
ATOM      1  C2  UNL d   1       2.338  -0.737  -0.778  0.00  0.00    -0.076 A 
ATOM      2  C3  UNL d   1       2.611  -1.645   0.260  0.00  0.00     0.004 A 
ATOM      3  C4  UNL d   1       1.851  -1.649   1.429  0.00  0.00    -0.003 A 
ATOM      4  C5  UNL d   1       0.805  -0.744   1.578  0.00  0.00     0.000 A 
ATOM      5  C6  UNL d   1       0.509   0.152   0.551  0.00  0.00     0.000 A 
ATOM      6  C7  UNL d   1       1.255   0.157  -0.640  0.00  0.00    -0.073 A 
ATOM      7  C8  UNL d   1       0.896   1.149  -1.712  0.00  0.00     0.078 C 
ENDROOT
BRANCH   1   8
ATOM      8  C1  UNL d   1       3.213  -0.762  -2.011  0.00  0.00     0.053 C 
ATOM      9  C   UNL d   1       4.176   0.414  -2.066  0.00  0.00     0.018 C 
ENDBRANCH   1   8
TORSDOF 1
ENDMDL
