MODEL 1
REMARK minimizedAffinity 3.80691934
REMARK minimizedRMSD -1
REMARK  1 active torsions:
REMARK  status: ('A' for Active; 'I' for Inactive)
REMARK    1  A    between atoms: C1_2  and  C2_3 
ROOT
ATOM      1  C2  UNL d   1       2.295  -0.587  -0.265  0.00  0.00    -0.076 A 
ATOM      2  C3  UNL d   1       2.832   0.712  -0.301  0.00  0.00     0.004 A 
ATOM      3  C4  UNL d   1       2.188   1.772   0.334  0.00  0.00    -0.003 A 
ATOM      4  C5  UNL d   1       0.996   1.551   1.016  0.00  0.00     0.000 A 
ATOM      5  C6  UNL d   1       0.458   0.265   1.076  0.00  0.00     0.000 A 
ATOM      6  C7  UNL d   1       1.104  -0.818   0.455  0.00  0.00    -0.073 A 
ATOM      7  C8  UNL d   1       0.476  -2.181   0.547  0.00  0.00     0.078 C 
ENDROOT
BRANCH   1   8
ATOM      8  C1  UNL d   1       3.024  -1.692  -0.995  0.00  0.00     0.053 C 
ATOM      9  C   UNL d   1       4.446  -1.304  -1.370  0.00  0.00     0.018 C 
ENDBRANCH   1   8
TORSDOF 1
ENDMDL
