MODEL 1
REMARK minimizedAffinity 1.22059131
REMARK minimizedRMSD -1
REMARK  1 active torsions:
REMARK  status: ('A' for Active; 'I' for Inactive)
REMARK    1  A    between atoms: C1_2  and  C2_3 
ROOT
ATOM      1  C2  UNL d   1       2.823   0.181  -0.815  0.00  0.00    -0.076 A 
ATOM      2  C3  UNL d   1       2.244   1.043   0.132  0.00  0.00     0.004 A 
ATOM      3  C4  UNL d   1       1.299   0.577   1.044  0.00  0.00    -0.003 A 
ATOM      4  C5  UNL d   1       0.918  -0.760   1.025  0.00  0.00     0.000 A 
ATOM      5  C6  UNL d   1       1.495  -1.634   0.104  0.00  0.00     0.000 A 
ATOM      6  C7  UNL d   1       2.461  -1.183  -0.812  0.00  0.00    -0.073 A 
ATOM      7  C8  UNL d   1       3.046  -2.168  -1.787  0.00  0.00     0.078 C 
ENDROOT
BRANCH   1   8
ATOM      8  C1  UNL d   1       3.822   0.749  -1.797  0.00  0.00     0.053 C 
ATOM      9  C   UNL d   1       5.008  -0.176  -2.023  0.00  0.00     0.018 C 
ENDBRANCH   1   8
TORSDOF 1
ENDMDL
