MODEL 1
REMARK minimizedAffinity 1.19184351
REMARK minimizedRMSD -1
REMARK  1 active torsions:
REMARK  status: ('A' for Active; 'I' for Inactive)
REMARK    1  A    between atoms: C1_2  and  C2_3 
ROOT
ATOM      1  C2  UNL d   1       2.234   1.051  -0.538  0.00  0.00    -0.076 A 
ATOM      2  C3  UNL d   1       3.259   1.256  -1.477  0.00  0.00     0.004 A 
ATOM      3  C4  UNL d   1       4.135   0.227  -1.820  0.00  0.00    -0.003 A 
ATOM      4  C5  UNL d   1       4.000  -1.024  -1.228  0.00  0.00     0.000 A 
ATOM      5  C6  UNL d   1       2.977  -1.250  -0.307  0.00  0.00     0.000 A 
ATOM      6  C7  UNL d   1       2.076  -0.228   0.037  0.00  0.00    -0.073 A 
ATOM      7  C8  UNL d   1       0.996  -0.527   1.041  0.00  0.00     0.078 C 
ENDROOT
BRANCH   1   8
ATOM      8  C1  UNL d   1       1.330   2.211  -0.186  0.00  0.00     0.053 C 
ATOM      9  C   UNL d   1       0.452   2.640  -1.351  0.00  0.00     0.018 C 
ENDBRANCH   1   8
TORSDOF 1
ENDMDL
