MODEL 1
REMARK minimizedAffinity -0.342084438
REMARK minimizedRMSD -1
REMARK  1 active torsions:
REMARK  status: ('A' for Active; 'I' for Inactive)
REMARK    1  A    between atoms: C1_2  and  C2_3 
ROOT
ATOM      1  C2  UNL d   1       2.351  -0.720  -0.938  0.00  0.00    -0.076 A 
ATOM      2  C3  UNL d   1       1.847  -1.610   0.026  0.00  0.00     0.004 A 
ATOM      3  C4  UNL d   1       1.092  -1.149   1.103  0.00  0.00    -0.003 A 
ATOM      4  C5  UNL d   1       0.828   0.210   1.233  0.00  0.00     0.000 A 
ATOM      5  C6  UNL d   1       1.306   1.105   0.276  0.00  0.00     0.000 A 
ATOM      6  C7  UNL d   1       2.055   0.655  -0.824  0.00  0.00    -0.073 A 
ATOM      7  C8  UNL d   1       2.550   1.665  -1.822  0.00  0.00     0.078 C 
ENDROOT
BRANCH   1   8
ATOM      8  C1  UNL d   1       3.187  -1.276  -2.069  0.00  0.00     0.053 C 
ATOM      9  C   UNL d   1       4.462  -0.479  -2.297  0.00  0.00     0.018 C 
ENDBRANCH   1   8
TORSDOF 1
ENDMDL
