MODEL 1
REMARK minimizedAffinity -0.708684564
REMARK minimizedRMSD -1
REMARK  1 active torsions:
REMARK  status: ('A' for Active; 'I' for Inactive)
REMARK    1  A    between atoms: C1_2  and  C2_3 
ROOT
ATOM      1  C2  UNL d   1       2.898  -0.592  -1.379  0.00  0.00    -0.076 A 
ATOM      2  C3  UNL d   1       2.311  -1.654  -0.670  0.00  0.00     0.004 A 
ATOM      3  C4  UNL d   1       1.537  -1.418   0.465  0.00  0.00    -0.003 A 
ATOM      4  C5  UNL d   1       1.338  -0.116   0.910  0.00  0.00     0.000 A 
ATOM      5  C6  UNL d   1       1.899   0.951   0.209  0.00  0.00     0.000 A 
ATOM      6  C7  UNL d   1       2.667   0.732  -0.947  0.00  0.00    -0.073 A 
ATOM      7  C8  UNL d   1       3.253   1.920  -1.660  0.00  0.00     0.078 C 
ENDROOT
BRANCH   1   8
ATOM      8  C1  UNL d   1       3.749  -0.910  -2.587  0.00  0.00     0.053 C 
ATOM      9  C   UNL d   1       5.181  -0.419  -2.438  0.00  0.00     0.018 C 
ENDBRANCH   1   8
TORSDOF 1
ENDMDL
