MODEL 1
REMARK minimizedAffinity 1.89170277
REMARK minimizedRMSD -1
REMARK  1 active torsions:
REMARK  status: ('A' for Active; 'I' for Inactive)
REMARK    1  A    between atoms: C1_2  and  C2_3 
ROOT
ATOM      1  C2  UNL d   1       2.497   0.552  -0.947  0.00  0.00    -0.076 A 
ATOM      2  C3  UNL d   1       1.404   0.132  -0.169  0.00  0.00     0.004 A 
ATOM      3  C4  UNL d   1       1.181  -1.221   0.083  0.00  0.00    -0.003 A 
ATOM      4  C5  UNL d   1       2.048  -2.175  -0.438  0.00  0.00     0.000 A 
ATOM      5  C6  UNL d   1       3.147  -1.775  -1.197  0.00  0.00     0.000 A 
ATOM      6  C7  UNL d   1       3.396  -0.415  -1.447  0.00  0.00    -0.073 A 
ATOM      7  C8  UNL d   1       4.593  -0.040  -2.276  0.00  0.00     0.078 C 
ENDROOT
BRANCH   1   8
ATOM      8  C1  UNL d   1       2.673   2.031  -1.209  0.00  0.00     0.053 C 
ATOM      9  C   UNL d   1       2.260   2.886  -0.021  0.00  0.00     0.018 C 
ENDBRANCH   1   8
TORSDOF 1
ENDMDL
