MODEL 1
REMARK minimizedAffinity 9.32377529
REMARK minimizedRMSD -1
REMARK  1 active torsions:
REMARK  status: ('A' for Active; 'I' for Inactive)
REMARK    1  A    between atoms: C1_2  and  C2_3 
ROOT
ATOM      1  C2  UNL d   1      -0.395   2.958  -3.580  0.00  0.00    -0.076 A 
ATOM      2  C3  UNL d   1      -1.740   2.994  -3.173  0.00  0.00     0.004 A 
ATOM      3  C4  UNL d   1      -2.235   4.060  -2.424  0.00  0.00    -0.003 A 
ATOM      4  C5  UNL d   1      -1.393   5.108  -2.070  0.00  0.00     0.000 A 
ATOM      5  C6  UNL d   1      -0.060   5.097  -2.479  0.00  0.00     0.000 A 
ATOM      6  C7  UNL d   1       0.451   4.038  -3.249  0.00  0.00    -0.073 A 
ATOM      7  C8  UNL d   1       1.898   4.075  -3.659  0.00  0.00     0.078 C 
ENDROOT
BRANCH   1   8
ATOM      8  C1  UNL d   1       0.091   1.762  -4.367  0.00  0.00     0.053 C 
ATOM      9  C   UNL d   1      -0.010   0.465  -3.580  0.00  0.00     0.018 C 
ENDBRANCH   1   8
TORSDOF 1
ENDMDL
