MODEL 1
REMARK minimizedAffinity 3.69514275
REMARK minimizedRMSD -1
REMARK  1 active torsions:
REMARK  status: ('A' for Active; 'I' for Inactive)
REMARK    1  A    between atoms: C1_2  and  C2_3 
ROOT
ATOM      1  C2  UNL d   1       0.514  -0.492   1.449  0.00  0.00    -0.076 A 
ATOM      2  C3  UNL d   1       0.552  -1.799   0.932  0.00  0.00     0.004 A 
ATOM      3  C4  UNL d   1       1.534  -2.181   0.019  0.00  0.00    -0.003 A 
ATOM      4  C5  UNL d   1       2.494  -1.262  -0.391  0.00  0.00     0.000 A 
ATOM      5  C6  UNL d   1       2.482   0.033   0.125  0.00  0.00     0.000 A 
ATOM      6  C7  UNL d   1       1.509   0.430   1.059  0.00  0.00    -0.073 A 
ATOM      7  C8  UNL d   1       1.539   1.841   1.578  0.00  0.00     0.078 C 
ENDROOT
BRANCH   1   8
ATOM      8  C1  UNL d   1      -0.591  -0.128   2.415  0.00  0.00     0.053 C 
ATOM      9  C   UNL d   1      -1.889  -0.863   2.120  0.00  0.00     0.018 C 
ENDBRANCH   1   8
TORSDOF 1
ENDMDL
