MODEL 1
REMARK minimizedAffinity -3.74520087
REMARK minimizedRMSD -1
REMARK  1 active torsions:
REMARK  status: ('A' for Active; 'I' for Inactive)
REMARK    1  A    between atoms: C1_2  and  C2_3 
ROOT
ATOM      1  C2  UNL d   1       2.174  -0.231  -1.052  0.00  0.00    -0.076 A 
ATOM      2  C3  UNL d   1       2.463   1.142  -1.139  0.00  0.00     0.004 A 
ATOM      3  C4  UNL d   1       3.594   1.596  -1.815  0.00  0.00    -0.003 A 
ATOM      4  C5  UNL d   1       4.455   0.684  -2.416  0.00  0.00     0.000 A 
ATOM      5  C6  UNL d   1       4.175  -0.681  -2.354  0.00  0.00     0.000 A 
ATOM      6  C7  UNL d   1       3.030  -1.154  -1.690  0.00  0.00    -0.073 A 
ATOM      7  C8  UNL d   1       2.780  -2.637  -1.650  0.00  0.00     0.078 C 
ENDROOT
BRANCH   1   8
ATOM      8  C1  UNL d   1       0.947  -0.666  -0.282  0.00  0.00     0.053 C 
ATOM      9  C   UNL d   1       0.789   0.082   1.032  0.00  0.00     0.018 C 
ENDBRANCH   1   8
TORSDOF 1
ENDMDL
