MODEL 1
REMARK minimizedAffinity -1.66787481
REMARK minimizedRMSD -1
REMARK  1 active torsions:
REMARK  status: ('A' for Active; 'I' for Inactive)
REMARK    1  A    between atoms: C1_2  and  C2_3 
ROOT
ATOM      1  C2  UNL d   1       0.219  -0.411   0.070  0.00  0.00    -0.081 A 
ATOM      2  C3  UNL d   1      -0.005  -0.190   1.435  0.00  0.00     0.006 A 
ATOM      3  C4  UNL d   1      -0.972   0.727   1.854  0.00  0.00     0.002 A 
ATOM      4  C5  UNL d   1      -1.736   1.431   0.917  0.00  0.00    -0.080 A 
ATOM      5  C6  UNL d   1      -2.798   2.396   1.354  0.00  0.00     0.076 C 
ATOM      6  C7  UNL d   1      -1.500   1.223  -0.446  0.00  0.00     0.002 A 
ATOM      7  C8  UNL d   1      -0.533   0.307  -0.866  0.00  0.00     0.006 A 
ENDROOT
BRANCH   1   8
ATOM      8  C1  UNL d   1       1.216  -1.446  -0.384  0.00  0.00     0.054 C 
ATOM      9  C   UNL d   1       0.561  -2.489  -1.279  0.00  0.00     0.018 C 
ENDBRANCH   1   8
TORSDOF 1
ENDMDL
