MODEL 1
REMARK minimizedAffinity -5.55102062
REMARK minimizedRMSD -1
REMARK  1 active torsions:
REMARK  status: ('A' for Active; 'I' for Inactive)
REMARK    1  A    between atoms: C1_2  and  C2_3 
ROOT
ATOM      1  C2  UNL d   1       0.527  -0.391  -0.343  0.00  0.00    -0.081 A 
ATOM      2  C3  UNL d   1       0.225   0.796  -1.022  0.00  0.00     0.006 A 
ATOM      3  C4  UNL d   1      -0.571   1.773  -0.420  0.00  0.00     0.002 A 
ATOM      4  C5  UNL d   1      -1.071   1.585   0.872  0.00  0.00    -0.080 A 
ATOM      5  C6  UNL d   1      -1.901   2.639   1.542  0.00  0.00     0.076 C 
ATOM      6  C7  UNL d   1      -0.784   0.392   1.544  0.00  0.00     0.002 A 
ATOM      7  C8  UNL d   1       0.011  -0.587   0.943  0.00  0.00     0.006 A 
ENDROOT
BRANCH   1   8
ATOM      8  C1  UNL d   1       1.438  -1.419  -0.964  0.00  0.00     0.054 C 
ATOM      9  C   UNL d   1       0.648  -2.454  -1.753  0.00  0.00     0.018 C 
ENDBRANCH   1   8
TORSDOF 1
ENDMDL
