MODEL 1
REMARK minimizedAffinity -5.4173975
REMARK minimizedRMSD -1
REMARK  1 active torsions:
REMARK  status: ('A' for Active; 'I' for Inactive)
REMARK    1  A    between atoms: C1_2  and  C2_3 
ROOT
ATOM      1  C2  UNL d   1       0.196  -1.030  -0.485  0.00  0.00    -0.081 A 
ATOM      2  C3  UNL d   1       0.303  -0.854   0.900  0.00  0.00     0.006 A 
ATOM      3  C4  UNL d   1      -0.401   0.168   1.541  0.00  0.00     0.002 A 
ATOM      4  C5  UNL d   1      -1.230   1.025   0.810  0.00  0.00    -0.080 A 
ATOM      5  C6  UNL d   1      -2.016   2.106   1.490  0.00  0.00     0.076 C 
ATOM      6  C7  UNL d   1      -1.324   0.860  -0.576  0.00  0.00     0.002 A 
ATOM      7  C8  UNL d   1      -0.620  -0.160  -1.217  0.00  0.00     0.006 A 
ENDROOT
BRANCH   1   8
ATOM      8  C1  UNL d   1       0.904  -2.171  -1.170  0.00  0.00     0.054 C 
ATOM      9  C   UNL d   1       0.400  -2.360  -2.593  0.00  0.00     0.018 C 
ENDBRANCH   1   8
TORSDOF 1
ENDMDL
