MODEL 1
REMARK minimizedAffinity -3.64005446
REMARK minimizedRMSD -1
REMARK  1 active torsions:
REMARK  status: ('A' for Active; 'I' for Inactive)
REMARK    1  A    between atoms: C1_2  and  C2_3 
ROOT
ATOM      1  C2  UNL d   1      -0.954   2.349  -0.297  0.00  0.00    -0.081 A 
ATOM      2  C3  UNL d   1      -1.179   2.641   1.053  0.00  0.00     0.006 A 
ATOM      3  C4  UNL d   1      -0.906   1.689   2.039  0.00  0.00     0.002 A 
ATOM      4  C5  UNL d   1      -0.398   0.433   1.691  0.00  0.00    -0.080 A 
ATOM      5  C6  UNL d   1      -0.072  -0.587   2.741  0.00  0.00     0.076 C 
ATOM      6  C7  UNL d   1      -0.190   0.135   0.340  0.00  0.00     0.002 A 
ATOM      7  C8  UNL d   1      -0.463   1.086  -0.646  0.00  0.00     0.006 A 
ENDROOT
BRANCH   1   8
ATOM      8  C1  UNL d   1      -1.186   3.396  -1.357  0.00  0.00     0.054 C 
ATOM      9  C   UNL d   1       0.104   3.736  -2.090  0.00  0.00     0.018 C 
ENDBRANCH   1   8
TORSDOF 1
ENDMDL
