MODEL 1
REMARK minimizedAffinity -1.21961713
REMARK minimizedRMSD -1
REMARK  1 active torsions:
REMARK  status: ('A' for Active; 'I' for Inactive)
REMARK    1  A    between atoms: C1_2  and  C2_3 
ROOT
ATOM      1  C2  UNL d   1      -0.774   0.935  -0.295  0.00  0.00    -0.081 A 
ATOM      2  C3  UNL d   1      -0.301   0.641  -1.580  0.00  0.00     0.006 A 
ATOM      3  C4  UNL d   1       0.384  -0.551  -1.826  0.00  0.00     0.002 A 
ATOM      4  C5  UNL d   1       0.600  -1.472  -0.795  0.00  0.00    -0.080 A 
ATOM      5  C6  UNL d   1       1.308  -2.769  -1.053  0.00  0.00     0.076 C 
ATOM      6  C7  UNL d   1       0.143  -1.170   0.492  0.00  0.00     0.002 A 
ATOM      7  C8  UNL d   1      -0.542   0.022   0.739  0.00  0.00     0.006 A 
ENDROOT
BRANCH   1   8
ATOM      8  C1  UNL d   1      -1.570   2.190  -0.040  0.00  0.00     0.054 C 
ATOM      9  C   UNL d   1      -2.022   2.273   1.411  0.00  0.00     0.018 C 
ENDBRANCH   1   8
TORSDOF 1
ENDMDL
