MODEL 1
REMARK minimizedAffinity -3.38711667
REMARK minimizedRMSD -1
REMARK  1 active torsions:
REMARK  status: ('A' for Active; 'I' for Inactive)
REMARK    1  A    between atoms: C1_2  and  C2_3 
ROOT
ATOM      1  C2  UNL d   1      -0.643  -0.239   0.239  0.00  0.00    -0.081 A 
ATOM      2  C3  UNL d   1      -1.219   0.963   0.669  0.00  0.00     0.006 A 
ATOM      3  C4  UNL d   1      -0.872   1.512   1.906  0.00  0.00     0.002 A 
ATOM      4  C5  UNL d   1       0.061   0.873   2.730  0.00  0.00    -0.080 A 
ATOM      5  C6  UNL d   1       0.465   1.466   4.046  0.00  0.00     0.076 C 
ATOM      6  C7  UNL d   1       0.623  -0.337   2.308  0.00  0.00     0.002 A 
ATOM      7  C8  UNL d   1       0.276  -0.886   1.071  0.00  0.00     0.006 A 
ENDROOT
BRANCH   1   8
ATOM      8  C1  UNL d   1      -0.967  -0.799  -1.122  0.00  0.00     0.054 C 
ATOM      9  C   UNL d   1       0.223  -1.543  -1.711  0.00  0.00     0.018 C 
ENDBRANCH   1   8
TORSDOF 1
ENDMDL
