MODEL 1
REMARK minimizedAffinity -4.98856544
REMARK minimizedRMSD -1
REMARK  1 active torsions:
REMARK  status: ('A' for Active; 'I' for Inactive)
REMARK    1  A    between atoms: C1_2  and  C2_3 
ROOT
ATOM      1  C2  UNL d   1       0.067  -0.951  -1.041  0.00  0.00    -0.081 A 
ATOM      2  C3  UNL d   1      -1.077  -0.145  -1.068  0.00  0.00     0.006 A 
ATOM      3  C4  UNL d   1      -1.350   0.733  -0.016  0.00  0.00     0.002 A 
ATOM      4  C5  UNL d   1      -0.480   0.825   1.075  0.00  0.00    -0.080 A 
ATOM      5  C6  UNL d   1      -0.745   1.786   2.196  0.00  0.00     0.076 C 
ATOM      6  C7  UNL d   1       0.655   0.007   1.110  0.00  0.00     0.002 A 
ATOM      7  C8  UNL d   1       0.927  -0.872   0.060  0.00  0.00     0.006 A 
ENDROOT
BRANCH   1   8
ATOM      8  C1  UNL d   1       0.398  -1.852  -2.204  0.00  0.00     0.054 C 
ATOM      9  C   UNL d   1       0.386  -3.317  -1.790  0.00  0.00     0.018 C 
ENDBRANCH   1   8
TORSDOF 1
ENDMDL
