MODEL 1
REMARK minimizedAffinity -5.42544603
REMARK minimizedRMSD -1
REMARK  1 active torsions:
REMARK  status: ('A' for Active; 'I' for Inactive)
REMARK    1  A    between atoms: C1_2  and  C2_3 
ROOT
ATOM      1  C2  UNL d   1       0.351  -0.782  -0.275  0.00  0.00    -0.081 A 
ATOM      2  C3  UNL d   1       0.343  -0.748   1.125  0.00  0.00     0.006 A 
ATOM      3  C4  UNL d   1      -0.353   0.255   1.805  0.00  0.00     0.002 A 
ATOM      4  C5  UNL d   1      -1.058   1.234   1.097  0.00  0.00    -0.080 A 
ATOM      5  C6  UNL d   1      -1.834   2.299   1.815  0.00  0.00     0.076 C 
ATOM      6  C7  UNL d   1      -1.035   1.211  -0.302  0.00  0.00     0.002 A 
ATOM      7  C8  UNL d   1      -0.339   0.209  -0.982  0.00  0.00     0.006 A 
ENDROOT
BRANCH   1   8
ATOM      8  C1  UNL d   1       1.047  -1.899  -1.010  0.00  0.00     0.054 C 
ATOM      9  C   UNL d   1       0.088  -2.633  -1.937  0.00  0.00     0.018 C 
ENDBRANCH   1   8
TORSDOF 1
ENDMDL
