MODEL 1
REMARK minimizedAffinity -4.09435749
REMARK minimizedRMSD -1
REMARK  1 active torsions:
REMARK  status: ('A' for Active; 'I' for Inactive)
REMARK    1  A    between atoms: C1_2  and  C2_3 
ROOT
ATOM      1  C2  UNL d   1       0.579  -0.453  -0.406  0.00  0.00    -0.081 A 
ATOM      2  C3  UNL d   1      -0.476   0.342  -0.870  0.00  0.00     0.006 A 
ATOM      3  C4  UNL d   1      -1.208   1.135   0.016  0.00  0.00     0.002 A 
ATOM      4  C5  UNL d   1      -0.893   1.153   1.379  0.00  0.00    -0.080 A 
ATOM      5  C6  UNL d   1      -1.652   2.023   2.337  0.00  0.00     0.076 C 
ATOM      6  C7  UNL d   1       0.149   0.345   1.846  0.00  0.00     0.002 A 
ATOM      7  C8  UNL d   1       0.881  -0.449   0.960  0.00  0.00     0.006 A 
ENDROOT
BRANCH   1   8
ATOM      8  C1  UNL d   1       1.412  -1.260  -1.369  0.00  0.00     0.054 C 
ATOM      9  C   UNL d   1       0.813  -2.640  -1.597  0.00  0.00     0.018 C 
ENDBRANCH   1   8
TORSDOF 1
ENDMDL
