MODEL 1
REMARK minimizedAffinity -3.78637195
REMARK minimizedRMSD -1
REMARK  1 active torsions:
REMARK  status: ('A' for Active; 'I' for Inactive)
REMARK    1  A    between atoms: C1_2  and  C2_3 
ROOT
ATOM      1  C2  UNL d   1       0.588  -1.604  -1.320  0.00  0.00    -0.081 A 
ATOM      2  C3  UNL d   1       1.325  -2.769  -1.076  0.00  0.00     0.006 A 
ATOM      3  C4  UNL d   1       1.418  -3.766  -2.050  0.00  0.00     0.002 A 
ATOM      4  C5  UNL d   1       0.783  -3.611  -3.287  0.00  0.00    -0.080 A 
ATOM      5  C6  UNL d   1       0.900  -4.659  -4.352  0.00  0.00     0.076 C 
ATOM      6  C7  UNL d   1       0.032  -2.454  -3.525  0.00  0.00     0.002 A 
ATOM      7  C8  UNL d   1      -0.062  -1.458  -2.550  0.00  0.00     0.006 A 
ENDROOT
BRANCH   1   8
ATOM      8  C1  UNL d   1       0.540  -0.499  -0.296  0.00  0.00     0.054 C 
ATOM      9  C   UNL d   1      -0.711   0.353  -0.460  0.00  0.00     0.018 C 
ENDBRANCH   1   8
TORSDOF 1
ENDMDL
