MODEL 1
REMARK minimizedAffinity 6.37580061
REMARK minimizedRMSD -1
REMARK  1 active torsions:
REMARK  status: ('A' for Active; 'I' for Inactive)
REMARK    1  A    between atoms: N_2  and  C1_3 
ROOT
ATOM      1  C1  UNL d   1       2.320   1.296   1.573  0.00  0.00     0.143 A 
ATOM      2  C2  UNL d   1       3.364   1.599   0.693  0.00  0.00    -0.057 A 
ATOM      3  C3  UNL d   1       4.614   0.978   0.807  0.00  0.00     0.033 A 
ATOM      4  C4  UNL d   1       4.851   0.062   1.827  0.00  0.00    -0.042 A 
ATOM      5  C5  UNL d   1       3.835  -0.236   2.728  0.00  0.00     0.033 A 
ATOM      6  C6  UNL d   1       2.587   0.382   2.604  0.00  0.00    -0.057 A 
ENDROOT
BRANCH   1   7
ATOM      7  N   UNL d   1       1.086   1.951   1.571  0.00  0.00    -0.732 N 
ATOM      8  C   UNL d   1       0.151   1.766   2.660  0.00  0.00     0.284 C 
ATOM      9  H3  UNL d   1       1.157   2.912   1.243  0.00  0.00     0.395 HD
ENDBRANCH   1   7
TORSDOF 1
ENDMDL
