MODEL 1
REMARK minimizedAffinity 12.7164059
REMARK minimizedRMSD -1
REMARK  1 active torsions:
REMARK  status: ('A' for Active; 'I' for Inactive)
REMARK    1  A    between atoms: N_2  and  C1_3 
ROOT
ATOM      1  C1  UNL d   1      -3.686  -3.928  -2.751  0.00  0.00     0.143 A 
ATOM      2  C2  UNL d   1      -3.646  -5.007  -1.861  0.00  0.00    -0.057 A 
ATOM      3  C3  UNL d   1      -2.663  -5.998  -1.965  0.00  0.00     0.033 A 
ATOM      4  C4  UNL d   1      -1.716  -5.943  -2.983  0.00  0.00    -0.042 A 
ATOM      5  C5  UNL d   1      -1.752  -4.893  -3.894  0.00  0.00     0.033 A 
ATOM      6  C6  UNL d   1      -2.732  -3.903  -3.780  0.00  0.00    -0.057 A 
ENDROOT
BRANCH   1   7
ATOM      7  N   UNL d   1      -4.697  -2.964  -2.760  0.00  0.00    -0.732 N 
ATOM      8  C   UNL d   1      -5.994  -3.261  -3.330  0.00  0.00     0.284 C 
ATOM      9  H3  UNL d   1      -4.736  -2.434  -1.892  0.00  0.00     0.395 HD
ENDBRANCH   1   7
TORSDOF 1
ENDMDL
