MODEL 1
REMARK minimizedAffinity 12.7975359
REMARK minimizedRMSD -1
REMARK  1 active torsions:
REMARK  status: ('A' for Active; 'I' for Inactive)
REMARK    1  A    between atoms: N_2  and  C1_3 
ROOT
ATOM      1  C1  UNL d   1      -4.737   3.613   3.965  0.00  0.00     0.143 A 
ATOM      2  C2  UNL d   1      -5.428   4.479   3.110  0.00  0.00    -0.057 A 
ATOM      3  C3  UNL d   1      -5.998   5.666   3.585  0.00  0.00     0.033 A 
ATOM      4  C4  UNL d   1      -5.912   5.995   4.934  0.00  0.00    -0.042 A 
ATOM      5  C5  UNL d   1      -5.252   5.137   5.807  0.00  0.00     0.033 A 
ATOM      6  C6  UNL d   1      -4.679   3.956   5.325  0.00  0.00    -0.057 A 
ENDROOT
BRANCH   1   7
ATOM      7  N   UNL d   1      -4.234   2.370   3.573  0.00  0.00    -0.732 N 
ATOM      8  C   UNL d   1      -3.535   2.222   2.314  0.00  0.00     0.284 C 
ATOM      9  H3  UNL d   1      -3.812   1.861   4.345  0.00  0.00     0.395 HD
ENDBRANCH   1   7
TORSDOF 1
ENDMDL
