MODEL 1
REMARK minimizedAffinity 2.30923557
REMARK minimizedRMSD -1
REMARK  1 active torsions:
REMARK  status: ('A' for Active; 'I' for Inactive)
REMARK    1  A    between atoms: N_2  and  C1_3 
ROOT
ATOM      1  C1  UNL d   1       2.697   3.195   1.281  0.00  0.00     0.143 A 
ATOM      2  C2  UNL d   1       3.814   2.364   1.143  0.00  0.00    -0.057 A 
ATOM      3  C3  UNL d   1       3.677   0.976   1.026  0.00  0.00     0.033 A 
ATOM      4  C4  UNL d   1       2.417   0.389   1.076  0.00  0.00    -0.042 A 
ATOM      5  C5  UNL d   1       1.294   1.192   1.238  0.00  0.00     0.033 A 
ATOM      6  C6  UNL d   1       1.437   2.579   1.347  0.00  0.00    -0.057 A 
ENDROOT
BRANCH   1   7
ATOM      7  N   UNL d   1       2.774   4.572   1.500  0.00  0.00    -0.732 N 
ATOM      8  C   UNL d   1       4.053   5.248   1.501  0.00  0.00     0.284 C 
ATOM      9  H3  UNL d   1       2.034   5.083   1.023  0.00  0.00     0.395 HD
ENDBRANCH   1   7
TORSDOF 1
ENDMDL
