MODEL 1
REMARK minimizedAffinity 9.05797482
REMARK minimizedRMSD -1
REMARK  1 active torsions:
REMARK  status: ('A' for Active; 'I' for Inactive)
REMARK    1  A    between atoms: N_2  and  C1_3 
ROOT
ATOM      1  C1  UNL d   1      -0.535   3.561  -1.910  0.00  0.00     0.143 A 
ATOM      2  C2  UNL d   1      -0.383   2.174  -2.010  0.00  0.00    -0.057 A 
ATOM      3  C3  UNL d   1       0.742   1.609  -2.622  0.00  0.00     0.033 A 
ATOM      4  C4  UNL d   1       1.725   2.425  -3.173  0.00  0.00    -0.042 A 
ATOM      5  C5  UNL d   1       1.582   3.807  -3.108  0.00  0.00     0.033 A 
ATOM      6  C6  UNL d   1       0.460   4.365  -2.489  0.00  0.00    -0.057 A 
ENDROOT
BRANCH   1   7
ATOM      7  N   UNL d   1      -1.678   4.184  -1.401  0.00  0.00    -0.732 N 
ATOM      8  C   UNL d   1      -1.850   5.616  -1.516  0.00  0.00     0.284 C 
ATOM      9  H3  UNL d   1      -2.524   3.648  -1.579  0.00  0.00     0.395 HD
ENDBRANCH   1   7
TORSDOF 1
ENDMDL
