MODEL 1
REMARK minimizedAffinity 8.98911667
REMARK minimizedRMSD -1
REMARK  1 active torsions:
REMARK  status: ('A' for Active; 'I' for Inactive)
REMARK    1  A    between atoms: N_2  and  C1_3 
ROOT
ATOM      1  C1  UNL d   1      -3.016  -3.317  -0.795  0.00  0.00     0.143 A 
ATOM      2  C2  UNL d   1      -3.028  -4.660  -1.187  0.00  0.00    -0.057 A 
ATOM      3  C3  UNL d   1      -3.319  -5.028  -2.506  0.00  0.00     0.033 A 
ATOM      4  C4  UNL d   1      -3.632  -4.059  -3.452  0.00  0.00    -0.042 A 
ATOM      5  C5  UNL d   1      -3.651  -2.720  -3.079  0.00  0.00     0.033 A 
ATOM      6  C6  UNL d   1      -3.353  -2.357  -1.762  0.00  0.00    -0.057 A 
ENDROOT
BRANCH   1   7
ATOM      7  N   UNL d   1      -2.831  -2.893   0.524  0.00  0.00    -0.732 N 
ATOM      8  C   UNL d   1      -1.509  -2.570   1.016  0.00  0.00     0.284 C 
ATOM      9  H3  UNL d   1      -3.557  -2.249   0.830  0.00  0.00     0.395 HD
ENDBRANCH   1   7
TORSDOF 1
ENDMDL
