MODEL 1
REMARK minimizedAffinity -0.981449902
REMARK minimizedRMSD -1
REMARK  1 active torsions:
REMARK  status: ('A' for Active; 'I' for Inactive)
REMARK    1  A    between atoms: N_2  and  C1_3 
ROOT
ATOM      1  C1  UNL d   1       2.973   4.902  -5.281  0.00  0.00     0.143 A 
ATOM      2  C2  UNL d   1       3.707   3.893  -4.647  0.00  0.00    -0.057 A 
ATOM      3  C3  UNL d   1       5.104   3.947  -4.578  0.00  0.00     0.033 A 
ATOM      4  C4  UNL d   1       5.796   4.999  -5.168  0.00  0.00    -0.042 A 
ATOM      5  C5  UNL d   1       5.089   6.000  -5.825  0.00  0.00     0.033 A 
ATOM      6  C6  UNL d   1       3.693   5.944  -5.885  0.00  0.00    -0.057 A 
ENDROOT
BRANCH   1   7
ATOM      7  N   UNL d   1       1.589   4.855  -5.469  0.00  0.00    -0.732 N 
ATOM      8  C   UNL d   1       0.879   5.999  -6.000  0.00  0.00     0.284 C 
ATOM      9  H3  UNL d   1       1.278   3.962  -5.844  0.00  0.00     0.395 HD
ENDBRANCH   1   7
TORSDOF 1
ENDMDL
