MODEL 1
REMARK minimizedAffinity 8.02950287
REMARK minimizedRMSD -1
REMARK  1 active torsions:
REMARK  status: ('A' for Active; 'I' for Inactive)
REMARK    1  A    between atoms: N_2  and  C1_3 
ROOT
ATOM      1  C1  UNL d   1       1.595   0.873   2.516  0.00  0.00     0.143 A 
ATOM      2  C2  UNL d   1       2.752   0.130   2.773  0.00  0.00    -0.057 A 
ATOM      3  C3  UNL d   1       3.623  -0.237   1.739  0.00  0.00     0.033 A 
ATOM      4  C4  UNL d   1       3.336   0.110   0.423  0.00  0.00    -0.042 A 
ATOM      5  C5  UNL d   1       2.178   0.827   0.142  0.00  0.00     0.033 A 
ATOM      6  C6  UNL d   1       1.316   1.196   1.179  0.00  0.00    -0.057 A 
ENDROOT
BRANCH   1   7
ATOM      7  N   UNL d   1       0.639   1.183   3.487  0.00  0.00    -0.732 N 
ATOM      8  C   UNL d   1       0.614   0.476   4.750  0.00  0.00     0.284 C 
ATOM      9  H3  UNL d   1       0.479   2.185   3.568  0.00  0.00     0.395 HD
ENDBRANCH   1   7
TORSDOF 1
ENDMDL
