MODEL 1
REMARK minimizedAffinity 13.8665895
REMARK minimizedRMSD -1
REMARK  1 active torsions:
REMARK  status: ('A' for Active; 'I' for Inactive)
REMARK    1  A    between atoms: N_2  and  C1_3 
ROOT
ATOM      1  C1  UNL d   1       2.804   4.014   1.520  0.00  0.00     0.143 A 
ATOM      2  C2  UNL d   1       1.408   4.055   1.604  0.00  0.00    -0.057 A 
ATOM      3  C3  UNL d   1       0.641   2.886   1.533  0.00  0.00     0.033 A 
ATOM      4  C4  UNL d   1       1.258   1.653   1.349  0.00  0.00    -0.042 A 
ATOM      5  C5  UNL d   1       2.642   1.590   1.238  0.00  0.00     0.033 A 
ATOM      6  C6  UNL d   1       3.403   2.761   1.315  0.00  0.00    -0.057 A 
ENDROOT
BRANCH   1   7
ATOM      7  N   UNL d   1       3.615   5.151   1.484  0.00  0.00    -0.732 N 
ATOM      8  C   UNL d   1       4.439   5.504   2.620  0.00  0.00     0.284 C 
ATOM      9  H3  UNL d   1       4.073   5.272   0.584  0.00  0.00     0.395 HD
ENDBRANCH   1   7
TORSDOF 1
ENDMDL
