MODEL 1
REMARK minimizedAffinity 6.81273031
REMARK minimizedRMSD -1
REMARK  1 active torsions:
REMARK  status: ('A' for Active; 'I' for Inactive)
REMARK    1  A    between atoms: N_2  and  C1_3 
ROOT
ATOM      1  C1  UNL d   1      -3.682  -3.876  -2.351  0.00  0.00     0.143 A 
ATOM      2  C2  UNL d   1      -3.094  -3.108  -1.340  0.00  0.00    -0.057 A 
ATOM      3  C3  UNL d   1      -2.005  -2.269  -1.606  0.00  0.00     0.033 A 
ATOM      4  C4  UNL d   1      -1.466  -2.204  -2.887  0.00  0.00    -0.042 A 
ATOM      5  C5  UNL d   1      -2.019  -2.977  -3.902  0.00  0.00     0.033 A 
ATOM      6  C6  UNL d   1      -3.110  -3.809  -3.631  0.00  0.00    -0.057 A 
ENDROOT
BRANCH   1   7
ATOM      7  N   UNL d   1      -4.703  -4.804  -2.129  0.00  0.00    -0.732 N 
ATOM      8  C   UNL d   1      -5.969  -4.686  -2.821  0.00  0.00     0.284 C 
ATOM      9  H3  UNL d   1      -4.353  -5.757  -2.061  0.00  0.00     0.395 HD
ENDBRANCH   1   7
TORSDOF 1
ENDMDL
