MODEL 1
REMARK minimizedAffinity 13.4448214
REMARK minimizedRMSD -1
REMARK  1 active torsions:
REMARK  status: ('A' for Active; 'I' for Inactive)
REMARK    1  A    between atoms: N_2  and  C1_3 
ROOT
ATOM      1  C1  UNL d   1       4.635   0.726  -5.219  0.00  0.00     0.143 A 
ATOM      2  C2  UNL d   1       3.509   1.544  -5.366  0.00  0.00    -0.057 A 
ATOM      3  C3  UNL d   1       3.265   2.608  -4.489  0.00  0.00     0.033 A 
ATOM      4  C4  UNL d   1       4.131   2.855  -3.428  0.00  0.00    -0.042 A 
ATOM      5  C5  UNL d   1       5.243   2.040  -3.249  0.00  0.00     0.033 A 
ATOM      6  C6  UNL d   1       5.484   0.983  -4.132  0.00  0.00    -0.057 A 
ENDROOT
BRANCH   1   7
ATOM      7  N   UNL d   1       4.879  -0.407  -5.999  0.00  0.00    -0.732 N 
ATOM      8  C   UNL d   1       5.992  -1.282  -5.698  0.00  0.00     0.284 C 
ATOM      9  H3  UNL d   1       4.024  -0.895  -6.255  0.00  0.00     0.395 HD
ENDBRANCH   1   7
TORSDOF 1
ENDMDL
