MODEL 1
REMARK minimizedAffinity 8.85500431
REMARK minimizedRMSD -1
REMARK  1 active torsions:
REMARK  status: ('A' for Active; 'I' for Inactive)
REMARK    1  A    between atoms: N_2  and  C1_3 
ROOT
ATOM      1  C1  UNL d   1       3.548   1.213  -0.695  0.00  0.00     0.143 A 
ATOM      2  C2  UNL d   1       3.878   0.097   0.082  0.00  0.00    -0.057 A 
ATOM      3  C3  UNL d   1       3.258  -0.138   1.315  0.00  0.00     0.033 A 
ATOM      4  C4  UNL d   1       2.313   0.757   1.807  0.00  0.00    -0.042 A 
ATOM      5  C5  UNL d   1       1.988   1.885   1.063  0.00  0.00     0.033 A 
ATOM      6  C6  UNL d   1       2.606   2.111  -0.170  0.00  0.00    -0.057 A 
ENDROOT
BRANCH   1   7
ATOM      7  N   UNL d   1       4.200   1.554  -1.882  0.00  0.00    -0.732 N 
ATOM      8  C   UNL d   1       5.568   2.026  -1.863  0.00  0.00     0.284 C 
ATOM      9  H3  UNL d   1       3.995   0.905  -2.639  0.00  0.00     0.395 HD
ENDBRANCH   1   7
TORSDOF 1
ENDMDL
