MODEL 1
REMARK minimizedAffinity 9.74973869
REMARK minimizedRMSD -1
REMARK  1 active torsions:
REMARK  status: ('A' for Active; 'I' for Inactive)
REMARK    1  A    between atoms: N_2  and  C1_3 
ROOT
ATOM      1  C1  UNL d   1      -2.234  -3.037  -3.663  0.00  0.00     0.143 A 
ATOM      2  C2  UNL d   1      -2.401  -3.691  -4.888  0.00  0.00    -0.057 A 
ATOM      3  C3  UNL d   1      -1.612  -3.367  -5.998  0.00  0.00     0.033 A 
ATOM      4  C4  UNL d   1      -0.658  -2.358  -5.910  0.00  0.00    -0.042 A 
ATOM      5  C5  UNL d   1      -0.492  -1.677  -4.710  0.00  0.00     0.033 A 
ATOM      6  C6  UNL d   1      -1.278  -2.010  -3.603  0.00  0.00    -0.057 A 
ENDROOT
BRANCH   1   7
ATOM      7  N   UNL d   1      -3.054  -3.246  -2.551  0.00  0.00    -0.732 N 
ATOM      8  C   UNL d   1      -4.291  -3.985  -2.677  0.00  0.00     0.284 C 
ATOM      9  H3  UNL d   1      -2.522  -3.465  -1.712  0.00  0.00     0.395 HD
ENDBRANCH   1   7
TORSDOF 1
ENDMDL
