MODEL 1
REMARK minimizedAffinity 8.41793156
REMARK minimizedRMSD -1
REMARK  1 active torsions:
REMARK  status: ('A' for Active; 'I' for Inactive)
REMARK    1  A    between atoms: N_2  and  C1_3 
ROOT
ATOM      1  C1  UNL d   1      -1.819  -2.214  -3.757  0.00  0.00     0.143 A 
ATOM      2  C2  UNL d   1      -1.072  -1.660  -2.711  0.00  0.00    -0.057 A 
ATOM      3  C3  UNL d   1      -1.417  -1.887  -1.373  0.00  0.00     0.033 A 
ATOM      4  C4  UNL d   1      -2.536  -2.651  -1.057  0.00  0.00    -0.042 A 
ATOM      5  C5  UNL d   1      -3.307  -3.191  -2.080  0.00  0.00     0.033 A 
ATOM      6  C6  UNL d   1      -2.954  -2.966  -3.414  0.00  0.00    -0.057 A 
ENDROOT
BRANCH   1   7
ATOM      7  N   UNL d   1      -1.585  -1.945  -5.107  0.00  0.00    -0.732 N 
ATOM      8  C   UNL d   1      -1.133  -2.990  -6.000  0.00  0.00     0.284 C 
ATOM      9  H3  UNL d   1      -2.291  -1.332  -5.509  0.00  0.00     0.395 HD
ENDBRANCH   1   7
TORSDOF 1
ENDMDL
