MODEL 1
REMARK minimizedAffinity -3.10551381
REMARK minimizedRMSD -1
REMARK  2 active torsions:
REMARK  status: ('A' for Active; 'I' for Inactive)
REMARK    1  A    between atoms: C2'_3  and  C1'_4 
REMARK    2  A    between atoms: C1'_4  and  C1_5 
ROOT
ATOM      1  C1  I4B d   1       5.359  -3.591  -5.436  0.00  0.00    -0.075 A 
ATOM      2  C2  I4B d   1       4.209  -4.095  -5.992  0.00  0.00     0.003 A 
ATOM      3  C3  I4B d   1       3.654  -5.304  -5.508  0.00  0.00     0.002 A 
ATOM      4  C4  I4B d   1       4.304  -5.998  -4.508  0.00  0.00    -0.004 A 
ATOM      5  C5  I4B d   1       5.457  -5.475  -3.931  0.00  0.00     0.002 A 
ATOM      6  C6  I4B d   1       5.981  -4.257  -4.388  0.00  0.00     0.003 A 
ENDROOT
BRANCH   1   7
ATOM      7  C1' I4B d   1       5.936  -2.329  -5.993  0.00  0.00     0.060 C 
BRANCH   7   8
ATOM      8  C2' I4B d   1       5.290  -1.162  -5.273  0.00  0.00    -0.013 C 
ATOM      9  C4' I4B d   1       5.657  -1.153  -3.813  0.00  0.00     0.013 C 
ATOM     10  C3' I4B d   1       5.730   0.101  -5.951  0.00  0.00     0.013 C 
ENDBRANCH   7   8
ENDBRANCH   1   7
TORSDOF 2
ENDMDL
