MODEL 1
REMARK minimizedAffinity -2.8632338
REMARK minimizedRMSD -1
REMARK  2 active torsions:
REMARK  status: ('A' for Active; 'I' for Inactive)
REMARK    1  A    between atoms: C2'_3  and  C1'_4 
REMARK    2  A    between atoms: C1'_4  and  C1_5 
ROOT
ATOM      1  C1  I4B d   1       5.238  -2.757  -5.778  0.00  0.00    -0.075 A 
ATOM      2  C2  I4B d   1       5.999  -1.624  -5.917  0.00  0.00     0.003 A 
ATOM      3  C3  I4B d   1       5.382  -0.350  -5.955  0.00  0.00     0.002 A 
ATOM      4  C4  I4B d   1       4.006  -0.260  -5.901  0.00  0.00    -0.004 A 
ATOM      5  C5  I4B d   1       3.237  -1.408  -5.737  0.00  0.00     0.002 A 
ATOM      6  C6  I4B d   1       3.857  -2.664  -5.663  0.00  0.00     0.003 A 
ENDROOT
BRANCH   1   7
ATOM      7  C1' I4B d   1       5.920  -4.088  -5.775  0.00  0.00     0.060 C 
BRANCH   7   8
ATOM      8  C2' I4B d   1       5.080  -5.041  -4.949  0.00  0.00    -0.013 C 
ATOM      9  C4' I4B d   1       4.294  -5.977  -5.828  0.00  0.00     0.013 C 
ATOM     10  C3' I4B d   1       6.000  -5.798  -4.038  0.00  0.00     0.013 C 
ENDBRANCH   7   8
ENDBRANCH   1   7
TORSDOF 2
ENDMDL
