MODEL 1
REMARK minimizedAffinity -3.82800984
REMARK minimizedRMSD -1
REMARK  2 active torsions:
REMARK  status: ('A' for Active; 'I' for Inactive)
REMARK    1  A    between atoms: C2'_3  and  C1'_4 
REMARK    2  A    between atoms: C1'_4  and  C1_5 
ROOT
ATOM      1  C1  I4B d   1       5.200  -1.855  -4.535  0.00  0.00    -0.075 A 
ATOM      2  C2  I4B d   1       5.983  -0.962  -3.847  0.00  0.00     0.003 A 
ATOM      3  C3  I4B d   1       5.999   0.404  -4.218  0.00  0.00     0.002 A 
ATOM      4  C4  I4B d   1       5.261   0.822  -5.306  0.00  0.00    -0.004 A 
ATOM      5  C5  I4B d   1       4.450  -0.080  -5.988  0.00  0.00     0.002 A 
ATOM      6  C6  I4B d   1       4.409  -1.425  -5.593  0.00  0.00     0.003 A 
ENDROOT
BRANCH   1   7
ATOM      7  C1' I4B d   1       5.233  -3.297  -4.138  0.00  0.00     0.060 C 
BRANCH   7   8
ATOM      8  C2' I4B d   1       4.684  -4.112  -5.292  0.00  0.00    -0.013 C 
ATOM      9  C4' I4B d   1       5.736  -5.025  -5.863  0.00  0.00     0.013 C 
ATOM     10  C3' I4B d   1       3.505  -4.891  -4.789  0.00  0.00     0.013 C 
ENDBRANCH   7   8
ENDBRANCH   1   7
TORSDOF 2
ENDMDL
