MODEL 1
REMARK minimizedAffinity -0.290631622
REMARK minimizedRMSD -1
REMARK  2 active torsions:
REMARK  status: ('A' for Active; 'I' for Inactive)
REMARK    1  A    between atoms: C2'_3  and  C1'_4 
REMARK    2  A    between atoms: C1'_4  and  C1_5 
ROOT
ATOM      1  C1  I4B d   1       4.475  -3.240  -5.463  0.00  0.00    -0.075 A 
ATOM      2  C2  I4B d   1       3.494  -4.087  -5.012  0.00  0.00     0.003 A 
ATOM      3  C3  I4B d   1       3.696  -5.488  -5.036  0.00  0.00     0.002 A 
ATOM      4  C4  I4B d   1       4.865  -5.997  -5.563  0.00  0.00    -0.004 A 
ATOM      5  C5  I4B d   1       5.868  -5.136  -5.999  0.00  0.00     0.002 A 
ATOM      6  C6  I4B d   1       5.677  -3.748  -5.938  0.00  0.00     0.003 A 
ENDROOT
BRANCH   1   7
ATOM      7  C1' I4B d   1       4.215  -1.767  -5.454  0.00  0.00     0.060 C 
BRANCH   7   8
ATOM      8  C2' I4B d   1       5.048  -1.153  -4.348  0.00  0.00    -0.013 C 
ATOM      9  C4' I4B d   1       5.861  -2.199  -3.632  0.00  0.00     0.013 C 
ATOM     10  C3' I4B d   1       5.930  -0.105  -4.959  0.00  0.00     0.013 C 
ENDBRANCH   7   8
ENDBRANCH   1   7
TORSDOF 2
ENDMDL
