MODEL 1
REMARK minimizedAffinity 2.05587077
REMARK minimizedRMSD -1
REMARK  2 active torsions:
REMARK  status: ('A' for Active; 'I' for Inactive)
REMARK    1  A    between atoms: C2'_3  and  C1'_4 
REMARK    2  A    between atoms: C1'_4  and  C1_5 
ROOT
ATOM      1  C1  I4B d   1       4.418  -2.761  -4.757  0.00  0.00    -0.075 A 
ATOM      2  C2  I4B d   1       5.702  -2.409  -5.090  0.00  0.00     0.003 A 
ATOM      3  C3  I4B d   1       5.998  -1.080  -5.481  0.00  0.00     0.002 A 
ATOM      4  C4  I4B d   1       4.979  -0.156  -5.573  0.00  0.00    -0.004 A 
ATOM      5  C5  I4B d   1       3.681  -0.508  -5.213  0.00  0.00     0.002 A 
ATOM      6  C6  I4B d   1       3.400  -1.816  -4.791  0.00  0.00     0.003 A 
ENDROOT
BRANCH   1   7
ATOM      7  C1' I4B d   1       4.134  -4.181  -4.381  0.00  0.00     0.060 C 
BRANCH   7   8
ATOM      8  C2' I4B d   1       5.092  -5.068  -5.150  0.00  0.00    -0.013 C 
ATOM      9  C4' I4B d   1       5.996  -5.830  -4.218  0.00  0.00     0.013 C 
ATOM     10  C3' I4B d   1       4.280  -5.999  -5.999  0.00  0.00     0.013 C 
ENDBRANCH   7   8
ENDBRANCH   1   7
TORSDOF 2
ENDMDL
