MODEL 1
REMARK minimizedAffinity -0.993061543
REMARK minimizedRMSD -1
REMARK  2 active torsions:
REMARK  status: ('A' for Active; 'I' for Inactive)
REMARK    1  A    between atoms: C2'_3  and  C1'_4 
REMARK    2  A    between atoms: C1'_4  and  C1_5 
ROOT
ATOM      1  C1  I4B d   1       5.390  -3.111  -4.926  0.00  0.00    -0.075 A 
ATOM      2  C2  I4B d   1       5.986  -3.983  -5.803  0.00  0.00     0.003 A 
ATOM      3  C3  I4B d   1       5.584  -5.340  -5.844  0.00  0.00     0.002 A 
ATOM      4  C4  I4B d   1       4.624  -5.791  -4.961  0.00  0.00    -0.004 A 
ATOM      5  C5  I4B d   1       4.004  -4.901  -4.089  0.00  0.00     0.002 A 
ATOM      6  C6  I4B d   1       4.380  -3.550  -4.079  0.00  0.00     0.003 A 
ENDROOT
BRANCH   1   7
ATOM      7  C1' I4B d   1       5.862  -1.693  -4.887  0.00  0.00     0.060 C 
BRANCH   7   8
ATOM      8  C2' I4B d   1       5.163  -0.937  -5.999  0.00  0.00    -0.013 C 
ATOM      9  C4' I4B d   1       3.681  -1.204  -5.992  0.00  0.00     0.013 C 
ATOM     10  C3' I4B d   1       5.451   0.524  -5.818  0.00  0.00     0.013 C 
ENDBRANCH   7   8
ENDBRANCH   1   7
TORSDOF 2
ENDMDL
