MODEL 1
REMARK minimizedAffinity -2.85733867
REMARK minimizedRMSD -1
REMARK  2 active torsions:
REMARK  status: ('A' for Active; 'I' for Inactive)
REMARK    1  A    between atoms: C2'_3  and  C1'_4 
REMARK    2  A    between atoms: C1'_4  and  C1_5 
ROOT
ATOM      1  C1  I4B d   1       5.094  -3.888  -5.344  0.00  0.00    -0.075 A 
ATOM      2  C2  I4B d   1       3.950  -3.466  -5.975  0.00  0.00     0.003 A 
ATOM      3  C3  I4B d   1       3.561  -2.106  -5.910  0.00  0.00     0.002 A 
ATOM      4  C4  I4B d   1       4.312  -1.219  -5.166  0.00  0.00    -0.004 A 
ATOM      5  C5  I4B d   1       5.483  -1.644  -4.545  0.00  0.00     0.002 A 
ATOM      6  C6  I4B d   1       5.884  -2.985  -4.645  0.00  0.00     0.003 A 
ENDROOT
BRANCH   1   7
ATOM      7  C1' I4B d   1       5.458  -5.338  -5.406  0.00  0.00     0.060 C 
BRANCH   7   8
ATOM      8  C2' I4B d   1       4.957  -5.999  -4.138  0.00  0.00    -0.013 C 
ATOM      9  C4' I4B d   1       5.999  -5.955  -3.051  0.00  0.00     0.013 C 
ATOM     10  C3' I4B d   1       3.702  -5.297  -3.713  0.00  0.00     0.013 C 
ENDBRANCH   7   8
ENDBRANCH   1   7
TORSDOF 2
ENDMDL
