MODEL 1
REMARK minimizedAffinity -1.89119732
REMARK minimizedRMSD -1
REMARK  2 active torsions:
REMARK  status: ('A' for Active; 'I' for Inactive)
REMARK    1  A    between atoms: C2'_3  and  C1'_4 
REMARK    2  A    between atoms: C1'_4  and  C1_5 
ROOT
ATOM      1  C1  I4B d   1       5.608  -2.957  -4.805  0.00  0.00    -0.075 A 
ATOM      2  C2  I4B d   1       4.870  -3.487  -3.776  0.00  0.00     0.003 A 
ATOM      3  C3  I4B d   1       4.466  -4.844  -3.814  0.00  0.00     0.002 A 
ATOM      4  C4  I4B d   1       4.776  -5.615  -4.915  0.00  0.00    -0.004 A 
ATOM      5  C5  I4B d   1       5.544  -5.083  -5.947  0.00  0.00     0.002 A 
ATOM      6  C6  I4B d   1       5.973  -3.749  -5.886  0.00  0.00     0.003 A 
ENDROOT
BRANCH   1   7
ATOM      7  C1' I4B d   1       5.989  -1.512  -4.749  0.00  0.00     0.060 C 
BRANCH   7   8
ATOM      8  C2' I4B d   1       5.311  -0.805  -5.904  0.00  0.00    -0.013 C 
ATOM      9  C4' I4B d   1       3.817  -0.766  -5.719  0.00  0.00     0.013 C 
ATOM     10  C3' I4B d   1       5.881   0.579  -5.998  0.00  0.00     0.013 C 
ENDBRANCH   7   8
ENDBRANCH   1   7
TORSDOF 2
ENDMDL
