MODEL 1
REMARK minimizedAffinity -4.27506828
REMARK minimizedRMSD -1
REMARK  2 active torsions:
REMARK  status: ('A' for Active; 'I' for Inactive)
REMARK    1  A    between atoms: C2'_3  and  C1'_4 
REMARK    2  A    between atoms: C1'_4  and  C1_5 
ROOT
ATOM      1  C1  I4B d   1       0.119  -0.053  -0.356  0.00  0.00    -0.075 A 
ATOM      2  C2  I4B d   1      -0.927   0.357   0.431  0.00  0.00     0.003 A 
ATOM      3  C3  I4B d   1      -0.959   0.021   1.806  0.00  0.00     0.002 A 
ATOM      4  C4  I4B d   1       0.044  -0.764   2.338  0.00  0.00    -0.004 A 
ATOM      5  C5  I4B d   1       1.117  -1.159   1.543  0.00  0.00     0.002 A 
ATOM      6  C6  I4B d   1       1.161  -0.791   0.190  0.00  0.00     0.003 A 
ENDROOT
BRANCH   1   7
ATOM      7  C1' I4B d   1       0.104   0.292  -1.812  0.00  0.00     0.060 C 
BRANCH   7   8
ATOM      8  C2' I4B d   1      -0.696   1.567  -1.981  0.00  0.00    -0.013 C 
ATOM      9  C4' I4B d   1       0.073   2.592  -2.772  0.00  0.00     0.013 C 
ATOM     10  C3' I4B d   1      -1.987   1.217  -2.660  0.00  0.00     0.013 C 
ENDBRANCH   7   8
ENDBRANCH   1   7
TORSDOF 2
ENDMDL
