MODEL 1
REMARK minimizedAffinity -1.57470775
REMARK minimizedRMSD -1
REMARK  2 active torsions:
REMARK  status: ('A' for Active; 'I' for Inactive)
REMARK    1  A    between atoms: C2'_3  and  C1'_4 
REMARK    2  A    between atoms: C1'_4  and  C1_5 
ROOT
ATOM      1  C1  I4B d   1      -3.849   2.369   4.810  0.00  0.00    -0.075 A 
ATOM      2  C2  I4B d   1      -4.566   2.187   5.966  0.00  0.00     0.003 A 
ATOM      3  C3  I4B d   1      -5.644   1.269   5.999  0.00  0.00     0.002 A 
ATOM      4  C4  I4B d   1      -6.000   0.597   4.848  0.00  0.00    -0.004 A 
ATOM      5  C5  I4B d   1      -5.257   0.765   3.683  0.00  0.00     0.002 A 
ATOM      6  C6  I4B d   1      -4.167   1.647   3.666  0.00  0.00     0.003 A 
ENDROOT
BRANCH   1   7
ATOM      7  C1' I4B d   1      -2.738   3.370   4.801  0.00  0.00     0.060 C 
BRANCH   7   8
ATOM      8  C2' I4B d   1      -1.813   3.030   3.650  0.00  0.00    -0.013 C 
ATOM      9  C4' I4B d   1      -2.474   3.295   2.323  0.00  0.00     0.013 C 
ATOM     10  C3' I4B d   1      -0.564   3.846   3.804  0.00  0.00     0.013 C 
ENDBRANCH   7   8
ENDBRANCH   1   7
TORSDOF 2
ENDMDL
