MODEL 1
REMARK minimizedAffinity -2.42425704
REMARK minimizedRMSD -1
REMARK  0 active torsions:
REMARK  status: ('A' for Active; 'I' for Inactive)
ROOT
ATOM      1  C4' PXY d   1      -0.894  -3.330  -2.497  0.00  0.00     0.077 C 
ATOM      2  C1' PXY d   1      -0.867  -0.163   2.339  0.00  0.00     0.077 C 
ATOM      3  C1  PXY d   1      -0.874  -0.983   1.064  0.00  0.00    -0.082 A 
ATOM      4  C2  PXY d   1      -1.384  -2.203   1.074  0.00  0.00     0.003 A 
ATOM      5  C3  PXY d   1      -1.369  -2.970  -0.063  0.00  0.00     0.003 A 
ATOM      6  C4  PXY d   1      -0.875  -2.463  -1.235  0.00  0.00    -0.082 A 
ATOM      7  C5  PXY d   1      -0.362  -1.214  -1.255  0.00  0.00     0.003 A 
ATOM      8  C6  PXY d   1      -0.349  -0.467  -0.081  0.00  0.00     0.003 A 
ENDROOT
TORSDOF 0
ENDMDL
