MODEL 1
REMARK minimizedAffinity -4.6897316
REMARK minimizedRMSD -1
REMARK  0 active torsions:
REMARK  status: ('A' for Active; 'I' for Inactive)
ROOT
ATOM      1  C4' PXY d   1       2.362   2.743   0.360  0.00  0.00     0.077 C 
ATOM      2  C1' PXY d   1      -1.368  -1.530   1.479  0.00  0.00     0.077 C 
ATOM      3  C1  PXY d   1      -0.386  -0.410   1.198  0.00  0.00    -0.082 A 
ATOM      4  C2  PXY d   1      -0.618   0.429   0.201  0.00  0.00     0.003 A 
ATOM      5  C3  PXY d   1       0.276   1.428  -0.087  0.00  0.00     0.003 A 
ATOM      6  C4  PXY d   1       1.393   1.603   0.686  0.00  0.00    -0.082 A 
ATOM      7  C5  PXY d   1       1.631   0.758   1.711  0.00  0.00     0.003 A 
ATOM      8  C6  PXY d   1       0.732  -0.275   1.961  0.00  0.00     0.003 A 
ENDROOT
TORSDOF 0
ENDMDL
