MODEL 1
REMARK minimizedAffinity -4.21412086
REMARK minimizedRMSD -1
REMARK  0 active torsions:
REMARK  status: ('A' for Active; 'I' for Inactive)
ROOT
ATOM      1  C4' PXY d   1       0.308  -2.707  -2.920  0.00  0.00     0.077 C 
ATOM      2  C1' PXY d   1      -1.108   0.276   1.825  0.00  0.00     0.077 C 
ATOM      3  C1  PXY d   1      -0.738  -0.496   0.573  0.00  0.00    -0.082 A 
ATOM      4  C2  PXY d   1      -0.946  -1.801   0.525  0.00  0.00     0.003 A 
ATOM      5  C3  PXY d   1      -0.587  -2.520  -0.587  0.00  0.00     0.003 A 
ATOM      6  C4  PXY d   1      -0.060  -1.886  -1.681  0.00  0.00    -0.082 A 
ATOM      7  C5  PXY d   1       0.145  -0.553  -1.642  0.00  0.00     0.003 A 
ATOM      8  C6  PXY d   1      -0.187   0.152  -0.489  0.00  0.00     0.003 A 
ENDROOT
TORSDOF 0
ENDMDL
