MODEL 1
REMARK minimizedAffinity -2.4943378
REMARK minimizedRMSD -1
REMARK  0 active torsions:
REMARK  status: ('A' for Active; 'I' for Inactive)
ROOT
ATOM      1  C4' PXY d   1      -0.348  -4.052  -0.225  0.00  0.00     0.077 C 
ATOM      2  C1' PXY d   1      -0.725   1.715  -0.364  0.00  0.00     0.077 C 
ATOM      3  C1  PXY d   1      -0.627   0.203  -0.314  0.00  0.00    -0.082 A 
ATOM      4  C2  PXY d   1      -0.082  -0.450  -1.328  0.00  0.00     0.003 A 
ATOM      5  C3  PXY d   1      -0.014  -1.820  -1.314  0.00  0.00     0.003 A 
ATOM      6  C4  PXY d   1      -0.460  -2.524  -0.228  0.00  0.00    -0.082 A 
ATOM      7  C5  PXY d   1      -1.007  -1.864   0.814  0.00  0.00     0.003 A 
ATOM      8  C6  PXY d   1      -1.105  -0.477   0.763  0.00  0.00     0.003 A 
ENDROOT
TORSDOF 0
ENDMDL
