MODEL 1
REMARK minimizedAffinity -4.80361509
REMARK minimizedRMSD -1
REMARK  0 active torsions:
REMARK  status: ('A' for Active; 'I' for Inactive)
ROOT
ATOM      1  C4' PXY d   1       0.976  -2.587  -2.641  0.00  0.00     0.077 C 
ATOM      2  C1' PXY d   1      -1.406  -1.101   2.411  0.00  0.00     0.077 C 
ATOM      3  C1  PXY d   1      -0.782  -1.478   1.082  0.00  0.00    -0.082 A 
ATOM      4  C2  PXY d   1      -0.893  -2.718   0.636  0.00  0.00     0.003 A 
ATOM      5  C3  PXY d   1      -0.308  -3.085  -0.548  0.00  0.00     0.003 A 
ATOM      6  C4  PXY d   1       0.354  -2.158  -1.309  0.00  0.00    -0.082 A 
ATOM      7  C5  PXY d   1       0.463  -0.888  -0.866  0.00  0.00     0.003 A 
ATOM      8  C6  PXY d   1      -0.104  -0.547   0.359  0.00  0.00     0.003 A 
ENDROOT
TORSDOF 0
ENDMDL
