MODEL 1
REMARK minimizedAffinity -5.13242579
REMARK minimizedRMSD -1
REMARK  0 active torsions:
REMARK  status: ('A' for Active; 'I' for Inactive)
ROOT
ATOM      1  C4' PXY d   1       1.311  -2.262  -2.252  0.00  0.00     0.077 C 
ATOM      2  C1' PXY d   1      -1.705  -0.508   2.356  0.00  0.00     0.077 C 
ATOM      3  C1  PXY d   1      -0.913  -0.979   1.153  0.00  0.00    -0.082 A 
ATOM      4  C2  PXY d   1      -0.268  -0.097   0.408  0.00  0.00     0.003 A 
ATOM      5  C3  PXY d   1       0.427  -0.503  -0.702  0.00  0.00     0.003 A 
ATOM      6  C4  PXY d   1       0.506  -1.832  -1.023  0.00  0.00    -0.082 A 
ATOM      7  C5  PXY d   1      -0.140  -2.739  -0.261  0.00  0.00     0.003 A 
ATOM      8  C6  PXY d   1      -0.874  -2.303   0.838  0.00  0.00     0.003 A 
ENDROOT
TORSDOF 0
ENDMDL
