MODEL 1
REMARK minimizedAffinity -5.36324644
REMARK minimizedRMSD -1
REMARK  0 active torsions:
REMARK  status: ('A' for Active; 'I' for Inactive)
ROOT
ATOM      1  C4' PXY d   1      -0.194   2.186   0.013  0.00  0.00     0.077 C 
ATOM      2  C1' PXY d   1       0.163  -3.582   0.127  0.00  0.00     0.077 C 
ATOM      3  C1  PXY d   1       0.057  -2.070   0.103  0.00  0.00    -0.082 A 
ATOM      4  C2  PXY d   1       0.744  -1.381  -0.794  0.00  0.00     0.003 A 
ATOM      5  C3  PXY d   1       0.686  -0.011  -0.809  0.00  0.00     0.003 A 
ATOM      6  C4  PXY d   1      -0.126   0.658   0.068  0.00  0.00    -0.082 A 
ATOM      7  C5  PXY d   1      -0.838  -0.039   0.979  0.00  0.00     0.003 A 
ATOM      8  C6  PXY d   1      -0.733  -1.427   1.005  0.00  0.00     0.003 A 
ENDROOT
TORSDOF 0
ENDMDL
