MODEL 1
REMARK minimizedAffinity -5.4231987
REMARK minimizedRMSD -1
REMARK  0 active torsions:
REMARK  status: ('A' for Active; 'I' for Inactive)
ROOT
ATOM      1  C4' PXY d   1       0.380   2.184   0.282  0.00  0.00     0.077 C 
ATOM      2  C1' PXY d   1       0.000  -3.402  -1.156  0.00  0.00     0.077 C 
ATOM      3  C1  PXY d   1       0.105  -1.935  -0.790  0.00  0.00    -0.082 A 
ATOM      4  C2  PXY d   1       0.192  -1.582   0.482  0.00  0.00     0.003 A 
ATOM      5  C3  PXY d   1       0.255  -0.258   0.832  0.00  0.00     0.003 A 
ATOM      6  C4  PXY d   1       0.282   0.713  -0.133  0.00  0.00    -0.082 A 
ATOM      7  C5  PXY d   1       0.204   0.361  -1.434  0.00  0.00     0.003 A 
ATOM      8  C6  PXY d   1       0.099  -0.987  -1.767  0.00  0.00     0.003 A 
ENDROOT
TORSDOF 0
ENDMDL
