MODEL 1
REMARK minimizedAffinity -3.88537908
REMARK minimizedRMSD -1
REMARK  0 active torsions:
REMARK  status: ('A' for Active; 'I' for Inactive)
ROOT
ATOM      1  C4' PXY d   1       0.505  -1.480  -3.061  0.00  0.00     0.077 C 
ATOM      2  C1' PXY d   1      -1.484  -1.134   2.355  0.00  0.00     0.077 C 
ATOM      3  C1  PXY d   1      -0.964  -1.212   0.933  0.00  0.00    -0.082 A 
ATOM      4  C2  PXY d   1      -1.052  -2.351   0.266  0.00  0.00     0.003 A 
ATOM      5  C3  PXY d   1      -0.558  -2.448  -1.009  0.00  0.00     0.003 A 
ATOM      6  C4  PXY d   1      -0.016  -1.353  -1.627  0.00  0.00    -0.082 A 
ATOM      7  C5  PXY d   1       0.068  -0.184  -0.957  0.00  0.00     0.003 A 
ATOM      8  C6  PXY d   1      -0.402  -0.118   0.352  0.00  0.00     0.003 A 
ENDROOT
TORSDOF 0
ENDMDL
