MODEL 1
REMARK minimizedAffinity -4.18725538
REMARK minimizedRMSD -1
REMARK  0 active torsions:
REMARK  status: ('A' for Active; 'I' for Inactive)
ROOT
ATOM      1  C4' PXY d   1      -0.136   1.809   0.021  0.00  0.00     0.077 C 
ATOM      2  C1' PXY d   1       0.255  -3.933   0.564  0.00  0.00     0.077 C 
ATOM      3  C1  PXY d   1       0.140  -2.428   0.425  0.00  0.00    -0.082 A 
ATOM      4  C2  PXY d   1       0.979  -1.778  -0.364  0.00  0.00     0.003 A 
ATOM      5  C3  PXY d   1       0.910  -0.413  -0.477  0.00  0.00     0.003 A 
ATOM      6  C4  PXY d   1      -0.063   0.288   0.185  0.00  0.00    -0.082 A 
ATOM      7  C5  PXY d   1      -0.930  -0.369   0.984  0.00  0.00     0.003 A 
ATOM      8  C6  PXY d   1      -0.816  -1.750   1.116  0.00  0.00     0.003 A 
ENDROOT
TORSDOF 0
ENDMDL
