MODEL 1
REMARK minimizedAffinity -4.51204538
REMARK minimizedRMSD -1
REMARK  0 active torsions:
REMARK  status: ('A' for Active; 'I' for Inactive)
ROOT
ATOM      1  C4' PXY d   1       0.112  -2.077  -2.488  0.00  0.00     0.077 C 
ATOM      2  C1' PXY d   1      -1.908  -1.237   2.862  0.00  0.00     0.077 C 
ATOM      3  C1  PXY d   1      -1.378  -1.470   1.461  0.00  0.00    -0.082 A 
ATOM      4  C2  PXY d   1      -0.748  -0.493   0.829  0.00  0.00     0.003 A 
ATOM      5  C3  PXY d   1      -0.290  -0.676  -0.450  0.00  0.00     0.003 A 
ATOM      6  C4  PXY d   1      -0.432  -1.889  -1.069  0.00  0.00    -0.082 A 
ATOM      7  C5  PXY d   1      -1.064  -2.894  -0.427  0.00  0.00     0.003 A 
ATOM      8  C6  PXY d   1      -1.558  -2.675   0.856  0.00  0.00     0.003 A 
ENDROOT
TORSDOF 0
ENDMDL
