MODEL 1
REMARK minimizedAffinity -5.90496778
REMARK minimizedRMSD -1
REMARK  0 active torsions:
REMARK  status: ('A' for Active; 'I' for Inactive)
ROOT
ATOM      1  C4' PXY d   1       0.826  -2.043  -2.369  0.00  0.00     0.077 C 
ATOM      2  C1' PXY d   1      -1.952  -1.696   2.688  0.00  0.00     0.077 C 
ATOM      3  C1  PXY d   1      -1.227  -1.775   1.359  0.00  0.00    -0.082 A 
ATOM      4  C2  PXY d   1      -1.004  -2.955   0.805  0.00  0.00     0.003 A 
ATOM      5  C3  PXY d   1      -0.322  -3.047  -0.381  0.00  0.00     0.003 A 
ATOM      6  C4  PXY d   1       0.090  -1.915  -1.033  0.00  0.00    -0.082 A 
ATOM      7  C5  PXY d   1      -0.143  -0.706  -0.479  0.00  0.00     0.003 A 
ATOM      8  C6  PXY d   1      -0.801  -0.637   0.746  0.00  0.00     0.003 A 
ENDROOT
TORSDOF 0
ENDMDL
