MODEL 1
REMARK minimizedAffinity -2.52573705
REMARK minimizedRMSD -1
REMARK  0 active torsions:
REMARK  status: ('A' for Active; 'I' for Inactive)
ROOT
ATOM      1  C4' PXY d   1       0.151  -1.842  -3.199  0.00  0.00     0.077 C 
ATOM      2  C1' PXY d   1      -1.652  -1.634   2.289  0.00  0.00     0.077 C 
ATOM      3  C1  PXY d   1      -1.179  -1.702   0.851  0.00  0.00    -0.082 A 
ATOM      4  C2  PXY d   1      -0.594  -0.648   0.304  0.00  0.00     0.003 A 
ATOM      5  C3  PXY d   1      -0.189  -0.681  -1.005  0.00  0.00     0.003 A 
ATOM      6  C4  PXY d   1      -0.335  -1.822  -1.747  0.00  0.00    -0.082 A 
ATOM      7  C5  PXY d   1      -0.920  -2.905  -1.193  0.00  0.00     0.003 A 
ATOM      8  C6  PXY d   1      -1.362  -2.838   0.125  0.00  0.00     0.003 A 
ENDROOT
TORSDOF 0
ENDMDL
