MODEL 1
REMARK minimizedAffinity -4.19723415
REMARK minimizedRMSD -1
REMARK  0 active torsions:
REMARK  status: ('A' for Active; 'I' for Inactive)
ROOT
ATOM      1  C4' PXY d   1      -2.367   5.454   3.342  0.00  0.00     0.077 C 
ATOM      2  C1' PXY d   1       2.373   3.157   0.961  0.00  0.00     0.077 C 
ATOM      3  C1  PXY d   1       1.136   3.759   1.597  0.00  0.00    -0.082 A 
ATOM      4  C2  PXY d   1      -0.033   3.648   0.987  0.00  0.00     0.003 A 
ATOM      5  C3  PXY d   1      -1.157   4.214   1.533  0.00  0.00     0.003 A 
ATOM      6  C4  PXY d   1      -1.093   4.854   2.741  0.00  0.00    -0.082 A 
ATOM      7  C5  PXY d   1       0.094   4.962   3.375  0.00  0.00     0.003 A 
ATOM      8  C6  PXY d   1       1.230   4.417   2.785  0.00  0.00     0.003 A 
ENDROOT
TORSDOF 0
ENDMDL
