MODEL 1
REMARK minimizedAffinity -5.44693756
REMARK minimizedRMSD -1
REMARK  0 active torsions:
REMARK  status: ('A' for Active; 'I' for Inactive)
ROOT
ATOM      1  C4' PXY d   1       0.240  -1.937  -3.152  0.00  0.00     0.077 C 
ATOM      2  C1' PXY d   1      -1.330  -0.678   2.266  0.00  0.00     0.077 C 
ATOM      3  C1  PXY d   1      -0.916  -1.021   0.849  0.00  0.00    -0.082 A 
ATOM      4  C2  PXY d   1      -0.460  -0.068   0.052  0.00  0.00     0.003 A 
ATOM      5  C3  PXY d   1      -0.112  -0.354  -1.243  0.00  0.00     0.003 A 
ATOM      6  C4  PXY d   1      -0.180  -1.639  -1.711  0.00  0.00    -0.082 A 
ATOM      7  C5  PXY d   1      -0.634  -2.619  -0.901  0.00  0.00     0.003 A 
ATOM      8  C6  PXY d   1      -1.022  -2.300   0.397  0.00  0.00     0.003 A 
ENDROOT
TORSDOF 0
ENDMDL
