MODEL 1
REMARK minimizedAffinity -1.32618606
REMARK minimizedRMSD -1
REMARK  0 active torsions:
REMARK  status: ('A' for Active; 'I' for Inactive)
ROOT
ATOM      1  C4' PXY d   1       0.287   2.832   0.017  0.00  0.00     0.077 C 
ATOM      2  C1' PXY d   1      -1.438  -2.639   0.730  0.00  0.00     0.077 C 
ATOM      3  C1  PXY d   1      -0.977  -1.208   0.534  0.00  0.00    -0.082 A 
ATOM      4  C2  PXY d   1      -1.155  -0.325   1.503  0.00  0.00     0.003 A 
ATOM      5  C3  PXY d   1      -0.773   0.980   1.331  0.00  0.00     0.003 A 
ATOM      6  C4  PXY d   1      -0.154   1.374   0.175  0.00  0.00    -0.082 A 
ATOM      7  C5  PXY d   1       0.041   0.477  -0.815  0.00  0.00     0.003 A 
ATOM      8  C6  PXY d   1      -0.392  -0.834  -0.636  0.00  0.00     0.003 A 
ENDROOT
TORSDOF 0
ENDMDL
