MODEL 1
REMARK minimizedAffinity -4.84667349
REMARK minimizedRMSD -1
REMARK  0 active torsions:
REMARK  status: ('A' for Active; 'I' for Inactive)
ROOT
ATOM      1  C4' PXY d   1       1.049  -1.534  -2.643  0.00  0.00     0.077 C 
ATOM      2  C1' PXY d   1      -1.901  -1.612   2.328  0.00  0.00     0.077 C 
ATOM      3  C1  PXY d   1      -1.134  -1.581   1.021  0.00  0.00    -0.082 A 
ATOM      4  C2  PXY d   1      -0.635  -2.703   0.528  0.00  0.00     0.003 A 
ATOM      5  C3  PXY d   1       0.089  -2.688  -0.636  0.00  0.00     0.003 A 
ATOM      6  C4  PXY d   1       0.259  -1.520  -1.331  0.00  0.00    -0.082 A 
ATOM      7  C5  PXY d   1      -0.256  -0.373  -0.840  0.00  0.00     0.003 A 
ATOM      8  C6  PXY d   1      -0.953  -0.403   0.364  0.00  0.00     0.003 A 
ENDROOT
TORSDOF 0
ENDMDL
