MODEL 1
REMARK minimizedAffinity -3.47410941
REMARK minimizedRMSD -1
REMARK  0 active torsions:
REMARK  status: ('A' for Active; 'I' for Inactive)
ROOT
ATOM      1  C4' PXY d   1      -0.117  -3.821   0.129  0.00  0.00     0.077 C 
ATOM      2  C1' PXY d   1      -0.532   1.928  -0.307  0.00  0.00     0.077 C 
ATOM      3  C1  PXY d   1      -0.425   0.421  -0.180  0.00  0.00    -0.082 A 
ATOM      4  C2  PXY d   1       0.223  -0.269  -1.104  0.00  0.00     0.003 A 
ATOM      5  C3  PXY d   1       0.302  -1.636  -1.022  0.00  0.00     0.003 A 
ATOM      6  C4  PXY d   1      -0.242  -2.298   0.047  0.00  0.00    -0.082 A 
ATOM      7  C5  PXY d   1      -0.895  -1.599   0.999  0.00  0.00     0.003 A 
ATOM      8  C6  PXY d   1      -1.000  -0.217   0.875  0.00  0.00     0.003 A 
ENDROOT
TORSDOF 0
ENDMDL
