MODEL 1
REMARK minimizedAffinity -0.585341036
REMARK minimizedRMSD -1
REMARK  0 active torsions:
REMARK  status: ('A' for Active; 'I' for Inactive)
ROOT
ATOM      1  C4' PXY d   1       1.201   2.561  -0.060  0.00  0.00     0.077 C 
ATOM      2  C1' PXY d   1      -1.390  -2.524   0.858  0.00  0.00     0.077 C 
ATOM      3  C1  PXY d   1      -0.705  -1.195   0.606  0.00  0.00    -0.082 A 
ATOM      4  C2  PXY d   1      -0.431  -0.397   1.625  0.00  0.00     0.003 A 
ATOM      5  C3  PXY d   1       0.158   0.823   1.412  0.00  0.00     0.003 A 
ATOM      6  C4  PXY d   1       0.520   1.206   0.148  0.00  0.00    -0.082 A 
ATOM      7  C5  PXY d   1       0.253   0.392  -0.896  0.00  0.00     0.003 A 
ATOM      8  C6  PXY d   1      -0.383  -0.823  -0.662  0.00  0.00     0.003 A 
ENDROOT
TORSDOF 0
ENDMDL
