MODEL 1
REMARK minimizedAffinity 3.01796246
REMARK minimizedRMSD -1
REMARK  2 active torsions:
REMARK  status: ('A' for Active; 'I' for Inactive)
REMARK    1  A    between atoms: C2'_3  and  C1'_4 
REMARK    2  A    between atoms: C1'_4  and  C1_5 
ROOT
ATOM      1  C1  I4B d   1      -0.404  -0.404  -0.665  0.00  0.00    -0.075 A 
ATOM      2  C2  I4B d   1       0.124  -1.656  -0.468  0.00  0.00     0.003 A 
ATOM      3  C3  I4B d   1       1.150  -2.138  -1.316  0.00  0.00     0.002 A 
ATOM      4  C4  I4B d   1       1.580  -1.362  -2.373  0.00  0.00    -0.004 A 
ATOM      5  C5  I4B d   1       1.060  -0.084  -2.557  0.00  0.00     0.002 A 
ATOM      6  C6  I4B d   1       0.070   0.403  -1.691  0.00  0.00     0.003 A 
ENDROOT
BRANCH   1   7
ATOM      7  C1' I4B d   1      -1.510   0.060   0.229  0.00  0.00     0.060 C 
BRANCH   7   8
ATOM      8  C2' I4B d   1      -0.885   0.762   1.417  0.00  0.00    -0.013 C 
ATOM      9  C4' I4B d   1      -1.160   2.242   1.384  0.00  0.00     0.013 C 
ATOM     10  C3' I4B d   1      -1.434   0.137   2.665  0.00  0.00     0.013 C 
ENDBRANCH   7   8
ENDBRANCH   1   7
TORSDOF 2
ENDMDL
