MODEL 1
REMARK minimizedAffinity 12.5359497
REMARK minimizedRMSD -1
REMARK  2 active torsions:
REMARK  status: ('A' for Active; 'I' for Inactive)
REMARK    1  A    between atoms: C2'_3  and  C1'_4 
REMARK    2  A    between atoms: C1'_4  and  C1_5 
ROOT
ATOM      1  C1  I4B d   1      -1.299  -0.581   0.259  0.00  0.00    -0.075 A 
ATOM      2  C2  I4B d   1      -0.373  -1.566   0.022  0.00  0.00     0.003 A 
ATOM      3  C3  I4B d   1       0.846  -1.256  -0.628  0.00  0.00     0.002 A 
ATOM      4  C4  I4B d   1       1.076   0.032  -1.065  0.00  0.00    -0.004 A 
ATOM      5  C5  I4B d   1       0.146   1.034  -0.803  0.00  0.00     0.002 A 
ATOM      6  C6  I4B d   1      -1.044   0.729  -0.125  0.00  0.00     0.003 A 
ENDROOT
BRANCH   1   7
ATOM      7  C1' I4B d   1      -2.590  -0.949   0.918  0.00  0.00     0.060 C 
BRANCH   7   8
ATOM      8  C2' I4B d   1      -2.399  -0.836   2.417  0.00  0.00    -0.013 C 
ATOM      9  C4' I4B d   1      -2.265   0.602   2.842  0.00  0.00     0.013 C 
ATOM     10  C3' I4B d   1      -3.571  -1.491   3.084  0.00  0.00     0.013 C 
ENDBRANCH   7   8
ENDBRANCH   1   7
TORSDOF 2
ENDMDL
