MODEL 1
REMARK minimizedAffinity 5.62364864
REMARK minimizedRMSD -1
REMARK  2 active torsions:
REMARK  status: ('A' for Active; 'I' for Inactive)
REMARK    1  A    between atoms: C2'_3  and  C1'_4 
REMARK    2  A    between atoms: C1'_4  and  C1_5 
ROOT
ATOM      1  C1  I4B d   1       5.124   1.594   4.597  0.00  0.00    -0.075 A 
ATOM      2  C2  I4B d   1       5.723   2.705   5.137  0.00  0.00     0.003 A 
ATOM      3  C3  I4B d   1       5.999   3.831   4.324  0.00  0.00     0.002 A 
ATOM      4  C4  I4B d   1       5.708   3.785   2.976  0.00  0.00    -0.004 A 
ATOM      5  C5  I4B d   1       5.081   2.666   2.435  0.00  0.00     0.002 A 
ATOM      6  C6  I4B d   1       4.775   1.568   3.253  0.00  0.00     0.003 A 
ENDROOT
BRANCH   1   7
ATOM      7  C1' I4B d   1       4.877   0.409   5.476  0.00  0.00     0.060 C 
BRANCH   7   8
ATOM      8  C2' I4B d   1       5.668  -0.758   4.921  0.00  0.00    -0.013 C 
ATOM      9  C4' I4B d   1       5.996  -1.756   6.000  0.00  0.00     0.013 C 
ATOM     10  C3' I4B d   1       4.858  -1.388   3.828  0.00  0.00     0.013 C 
ENDBRANCH   7   8
ENDBRANCH   1   7
TORSDOF 2
ENDMDL
