MODEL 1
REMARK minimizedAffinity 3.7690568
REMARK minimizedRMSD -1
REMARK  2 active torsions:
REMARK  status: ('A' for Active; 'I' for Inactive)
REMARK    1  A    between atoms: C2'_3  and  C1'_4 
REMARK    2  A    between atoms: C1'_4  and  C1_5 
ROOT
ATOM      1  C1  I4B d   1       0.679   3.212   1.554  0.00  0.00    -0.075 A 
ATOM      2  C2  I4B d   1      -0.416   3.575   0.810  0.00  0.00     0.003 A 
ATOM      3  C3  I4B d   1      -1.666   3.790   1.440  0.00  0.00     0.002 A 
ATOM      4  C4  I4B d   1      -1.786   3.584   2.799  0.00  0.00    -0.004 A 
ATOM      5  C5  I4B d   1      -0.670   3.239   3.555  0.00  0.00     0.002 A 
ATOM      6  C6  I4B d   1       0.574   3.064   2.930  0.00  0.00     0.003 A 
ENDROOT
BRANCH   1   7
ATOM      7  C1' I4B d   1       1.976   2.960   0.852  0.00  0.00     0.060 C 
BRANCH   7   8
ATOM      8  C2' I4B d   1       2.834   4.200   0.998  0.00  0.00    -0.013 C 
ATOM      9  C4' I4B d   1       3.724   4.107   2.210  0.00  0.00     0.013 C 
ATOM     10  C3' I4B d   1       3.642   4.355  -0.256  0.00  0.00     0.013 C 
ENDBRANCH   7   8
ENDBRANCH   1   7
TORSDOF 2
ENDMDL
