MODEL 1
REMARK minimizedAffinity 7.51287079
REMARK minimizedRMSD -1
REMARK  2 active torsions:
REMARK  status: ('A' for Active; 'I' for Inactive)
REMARK    1  A    between atoms: C2'_3  and  C1'_4 
REMARK    2  A    between atoms: C1'_4  and  C1_5 
ROOT
ATOM      1  C1  I4B d   1       1.463  -1.509  -2.449  0.00  0.00    -0.075 A 
ATOM      2  C2  I4B d   1       0.632  -2.601  -2.488  0.00  0.00     0.003 A 
ATOM      3  C3  I4B d   1       0.892  -3.663  -3.387  0.00  0.00     0.002 A 
ATOM      4  C4  I4B d   1       1.957  -3.570  -4.259  0.00  0.00    -0.004 A 
ATOM      5  C5  I4B d   1       2.812  -2.473  -4.203  0.00  0.00     0.002 A 
ATOM      6  C6  I4B d   1       2.571  -1.441  -3.284  0.00  0.00     0.003 A 
ENDROOT
BRANCH   1   7
ATOM      7  C1' I4B d   1       1.140  -0.390  -1.510  0.00  0.00     0.060 C 
BRANCH   7   8
ATOM      8  C2' I4B d   1       0.172  -0.918  -0.471  0.00  0.00    -0.013 C 
ATOM      9  C4' I4B d   1       0.888  -1.292   0.800  0.00  0.00     0.013 C 
ATOM     10  C3' I4B d   1      -0.860   0.141  -0.219  0.00  0.00     0.013 C 
ENDBRANCH   7   8
ENDBRANCH   1   7
TORSDOF 2
ENDMDL
