MODEL 1
REMARK minimizedAffinity 4.30078125
REMARK minimizedRMSD -1
REMARK  2 active torsions:
REMARK  status: ('A' for Active; 'I' for Inactive)
REMARK    1  A    between atoms: C2'_3  and  C1'_4 
REMARK    2  A    between atoms: C1'_4  and  C1_5 
ROOT
ATOM      1  C1  I4B d   1      -1.330  -3.701  -0.355  0.00  0.00    -0.075 A 
ATOM      2  C2  I4B d   1      -2.072  -2.742  -0.999  0.00  0.00     0.003 A 
ATOM      3  C3  I4B d   1      -3.311  -3.081  -1.596  0.00  0.00     0.002 A 
ATOM      4  C4  I4B d   1      -3.741  -4.392  -1.570  0.00  0.00    -0.004 A 
ATOM      5  C5  I4B d   1      -2.999  -5.358  -0.897  0.00  0.00     0.002 A 
ATOM      6  C6  I4B d   1      -1.791  -5.008  -0.275  0.00  0.00     0.003 A 
ENDROOT
BRANCH   1   7
ATOM      7  C1' I4B d   1      -0.011  -3.315   0.236  0.00  0.00     0.060 C 
BRANCH   7   8
ATOM      8  C2' I4B d   1       0.184  -1.829   0.012  0.00  0.00    -0.013 C 
ATOM      9  C4' I4B d   1       0.881  -1.188   1.183  0.00  0.00     0.013 C 
ATOM     10  C3' I4B d   1       0.971  -1.651  -1.251  0.00  0.00     0.013 C 
ENDBRANCH   7   8
ENDBRANCH   1   7
TORSDOF 2
ENDMDL
