MODEL 1
REMARK minimizedAffinity -4.05996466
REMARK minimizedRMSD -1
REMARK  2 active torsions:
REMARK  status: ('A' for Active; 'I' for Inactive)
REMARK    1  A    between atoms: C2'_3  and  C1'_4 
REMARK    2  A    between atoms: C1'_4  and  C1_5 
ROOT
ATOM      1  C1  I4B d   1       5.746   2.047   2.572  0.00  0.00    -0.075 A 
ATOM      2  C2  I4B d   1       5.338   0.781   2.232  0.00  0.00     0.003 A 
ATOM      3  C3  I4B d   1       5.119  -0.191   3.238  0.00  0.00     0.002 A 
ATOM      4  C4  I4B d   1       5.367   0.129   4.558  0.00  0.00    -0.004 A 
ATOM      5  C5  I4B d   1       5.758   1.419   4.902  0.00  0.00     0.002 A 
ATOM      6  C6  I4B d   1       5.937   2.389   3.905  0.00  0.00     0.003 A 
ENDROOT
BRANCH   1   7
ATOM      7  C1' I4B d   1       6.000   3.039   1.482  0.00  0.00     0.060 C 
BRANCH   7   8
ATOM      8  C2' I4B d   1       4.888   4.068   1.518  0.00  0.00    -0.013 C 
ATOM      9  C4' I4B d   1       5.320   5.313   2.247  0.00  0.00     0.013 C 
ATOM     10  C3' I4B d   1       4.496   4.377   0.104  0.00  0.00     0.013 C 
ENDBRANCH   7   8
ENDBRANCH   1   7
TORSDOF 2
ENDMDL
