MODEL 1
REMARK minimizedAffinity -0.32501778
REMARK minimizedRMSD -1
REMARK  2 active torsions:
REMARK  status: ('A' for Active; 'I' for Inactive)
REMARK    1  A    between atoms: C2'_3  and  C1'_4 
REMARK    2  A    between atoms: C1'_4  and  C1_5 
ROOT
ATOM      1  C1  I4B d   1      -1.041  -3.764  -0.483  0.00  0.00    -0.075 A 
ATOM      2  C2  I4B d   1      -1.842  -2.815  -1.068  0.00  0.00     0.003 A 
ATOM      3  C3  I4B d   1      -3.120  -3.168  -1.563  0.00  0.00     0.002 A 
ATOM      4  C4  I4B d   1      -3.534  -4.483  -1.500  0.00  0.00    -0.004 A 
ATOM      5  C5  I4B d   1      -2.729  -5.440  -0.887  0.00  0.00     0.002 A 
ATOM      6  C6  I4B d   1      -1.480  -5.076  -0.364  0.00  0.00     0.003 A 
ENDROOT
BRANCH   1   7
ATOM      7  C1' I4B d   1       0.317  -3.362  -0.000  0.00  0.00     0.060 C 
BRANCH   7   8
ATOM      8  C2' I4B d   1       0.659  -2.026  -0.626  0.00  0.00    -0.013 C 
ATOM      9  C4' I4B d   1       0.909  -0.978   0.427  0.00  0.00     0.013 C 
ATOM     10  C3' I4B d   1       1.865  -2.217  -1.496  0.00  0.00     0.013 C 
ENDBRANCH   7   8
ENDBRANCH   1   7
TORSDOF 2
ENDMDL
