MODEL 1
REMARK minimizedAffinity -1.4047519
REMARK minimizedRMSD -1
REMARK  2 active torsions:
REMARK  status: ('A' for Active; 'I' for Inactive)
REMARK    1  A    between atoms: C2'_3  and  C1'_4 
REMARK    2  A    between atoms: C1'_4  and  C1_5 
ROOT
ATOM      1  C1  I4B d   1       4.758   5.013   1.929  0.00  0.00    -0.075 A 
ATOM      2  C2  I4B d   1       5.298   3.774   2.167  0.00  0.00     0.003 A 
ATOM      3  C3  I4B d   1       5.908   3.489   3.412  0.00  0.00     0.002 A 
ATOM      4  C4  I4B d   1       5.999   4.481   4.367  0.00  0.00    -0.004 A 
ATOM      5  C5  I4B d   1       5.430   5.729   4.134  0.00  0.00     0.002 A 
ATOM      6  C6  I4B d   1       4.795   5.994   2.912  0.00  0.00     0.003 A 
ENDROOT
BRANCH   1   7
ATOM      7  C1' I4B d   1       4.151   5.290   0.591  0.00  0.00     0.060 C 
BRANCH   7   8
ATOM      8  C2' I4B d   1       4.254   4.027  -0.240  0.00  0.00    -0.013 C 
ATOM      9  C4' I4B d   1       3.090   3.108   0.019  0.00  0.00     0.013 C 
ATOM     10  C3' I4B d   1       4.318   4.426  -1.684  0.00  0.00     0.013 C 
ENDBRANCH   7   8
ENDBRANCH   1   7
TORSDOF 2
ENDMDL
