MODEL 1
REMARK minimizedAffinity -4.531003
REMARK minimizedRMSD -1
REMARK  2 active torsions:
REMARK  status: ('A' for Active; 'I' for Inactive)
REMARK    1  A    between atoms: C2'_3  and  C1'_4 
REMARK    2  A    between atoms: C1'_4  and  C1_5 
ROOT
ATOM      1  C1  I4B d   1       4.387   4.794   1.313  0.00  0.00    -0.075 A 
ATOM      2  C2  I4B d   1       5.265   5.621   0.658  0.00  0.00     0.003 A 
ATOM      3  C3  I4B d   1       5.376   5.569  -0.753  0.00  0.00     0.002 A 
ATOM      4  C4  I4B d   1       4.631   4.647  -1.459  0.00  0.00    -0.004 A 
ATOM      5  C5  I4B d   1       3.724   3.825  -0.795  0.00  0.00     0.002 A 
ATOM      6  C6  I4B d   1       3.592   3.908   0.598  0.00  0.00     0.003 A 
ENDROOT
BRANCH   1   7
ATOM      7  C1' I4B d   1       4.320   4.852   2.806  0.00  0.00     0.060 C 
BRANCH   7   8
ATOM      8  C2' I4B d   1       5.738   4.830   3.339  0.00  0.00    -0.013 C 
ATOM      9  C4' I4B d   1       5.996   5.999   4.253  0.00  0.00     0.013 C 
ATOM     10  C3' I4B d   1       5.944   3.528   4.053  0.00  0.00     0.013 C 
ENDBRANCH   7   8
ENDBRANCH   1   7
TORSDOF 2
ENDMDL
