MODEL 1
REMARK minimizedAffinity 4.12845564
REMARK minimizedRMSD -1
REMARK  2 active torsions:
REMARK  status: ('A' for Active; 'I' for Inactive)
REMARK    1  A    between atoms: C2'_3  and  C1'_4 
REMARK    2  A    between atoms: C1'_4  and  C1_5 
ROOT
ATOM      1  C1  I4B d   1       4.875   4.480   2.363  0.00  0.00    -0.075 A 
ATOM      2  C2  I4B d   1       3.923   4.238   3.321  0.00  0.00     0.003 A 
ATOM      3  C3  I4B d   1       3.990   4.894   4.574  0.00  0.00     0.002 A 
ATOM      4  C4  I4B d   1       5.047   5.738   4.844  0.00  0.00    -0.004 A 
ATOM      5  C5  I4B d   1       6.000   6.000   3.863  0.00  0.00     0.002 A 
ATOM      6  C6  I4B d   1       5.907   5.377   2.610  0.00  0.00     0.003 A 
ENDROOT
BRANCH   1   7
ATOM      7  C1' I4B d   1       4.792   3.746   1.062  0.00  0.00     0.060 C 
BRANCH   7   8
ATOM      8  C2' I4B d   1       3.659   4.349   0.257  0.00  0.00    -0.013 C 
ATOM      9  C4' I4B d   1       4.107   4.703  -1.136  0.00  0.00     0.013 C 
ATOM     10  C3' I4B d   1       2.534   3.357   0.228  0.00  0.00     0.013 C 
ENDBRANCH   7   8
ENDBRANCH   1   7
TORSDOF 2
ENDMDL
