MODEL 1
REMARK minimizedAffinity 9.66204548
REMARK minimizedRMSD -1
REMARK  2 active torsions:
REMARK  status: ('A' for Active; 'I' for Inactive)
REMARK    1  A    between atoms: C2'_3  and  C1'_4 
REMARK    2  A    between atoms: C1'_4  and  C1_5 
ROOT
ATOM      1  C1  I4B d   1       4.528   3.800   3.553  0.00  0.00    -0.075 A 
ATOM      2  C2  I4B d   1       5.028   3.772   4.831  0.00  0.00     0.003 A 
ATOM      3  C3  I4B d   1       5.753   4.879   5.337  0.00  0.00     0.002 A 
ATOM      4  C4  I4B d   1       5.997   5.963   4.519  0.00  0.00    -0.004 A 
ATOM      5  C5  I4B d   1       5.469   5.999   3.231  0.00  0.00     0.002 A 
ATOM      6  C6  I4B d   1       4.720   4.916   2.749  0.00  0.00     0.003 A 
ENDROOT
BRANCH   1   7
ATOM      7  C1' I4B d   1       3.795   2.601   3.040  0.00  0.00     0.060 C 
BRANCH   7   8
ATOM      8  C2' I4B d   1       4.350   1.379   3.743  0.00  0.00    -0.013 C 
ATOM      9  C4' I4B d   1       4.048   1.415   5.218  0.00  0.00     0.013 C 
ATOM     10  C3' I4B d   1       3.754   0.163   3.098  0.00  0.00     0.013 C 
ENDBRANCH   7   8
ENDBRANCH   1   7
TORSDOF 2
ENDMDL
