MODEL 1
REMARK minimizedAffinity 3.77880025
REMARK minimizedRMSD -1
REMARK  3 active torsions:
REMARK  status: ('A' for Active; 'I' for Inactive)
REMARK    1  A    between atoms: C3'_2  and  C2'_3 
REMARK    2  A    between atoms: C2'_3  and  C1'_4 
REMARK    3  A    between atoms: C1'_4  and  C1_5 
ROOT
ATOM      1  C1  N4B d   1       1.939  -1.072  -0.766  0.00  0.00    -0.075 A 
ATOM      2  C2  N4B d   1       1.128  -1.919   0.022  0.00  0.00     0.002 A 
ATOM      3  C3  N4B d   1       0.417  -1.401   1.076  0.00  0.00     0.002 A 
ATOM      4  C4  N4B d   1       0.514  -0.050   1.372  0.00  0.00    -0.004 A 
ATOM      5  C5  N4B d   1       1.279   0.766   0.590  0.00  0.00     0.002 A 
ATOM      6  C6  N4B d   1       1.997   0.260  -0.475  0.00  0.00     0.002 A 
ENDROOT
BRANCH   1   7
ATOM      7  C1' N4B d   1       2.802  -1.607  -1.876  0.00  0.00     0.057 C 
BRANCH   7   8
ATOM      8  C2' N4B d   1       3.820  -0.544  -2.276  0.00  0.00     0.009 C 
BRANCH   8   9
ATOM      9  C3' N4B d   1       4.978  -1.133  -3.063  0.00  0.00     0.004 C 
ATOM     10  C4' N4B d   1       5.999  -0.105  -3.451  0.00  0.00     0.003 C 
ENDBRANCH   8   9
ENDBRANCH   7   8
ENDBRANCH   1   7
TORSDOF 3
ENDMDL
