MODEL 1
REMARK minimizedAffinity 4.12887812
REMARK minimizedRMSD -1
REMARK  3 active torsions:
REMARK  status: ('A' for Active; 'I' for Inactive)
REMARK    1  A    between atoms: C3'_2  and  C2'_3 
REMARK    2  A    between atoms: C2'_3  and  C1'_4 
REMARK    3  A    between atoms: C1'_4  and  C1_5 
ROOT
ATOM      1  C1  N4B d   1       2.891  -1.496  -0.487  0.00  0.00    -0.075 A 
ATOM      2  C2  N4B d   1       2.596  -0.729   0.662  0.00  0.00     0.002 A 
ATOM      3  C3  N4B d   1       1.587  -1.119   1.508  0.00  0.00     0.002 A 
ATOM      4  C4  N4B d   1       0.849  -2.257   1.216  0.00  0.00    -0.004 A 
ATOM      5  C5  N4B d   1       1.156  -3.006   0.118  0.00  0.00     0.002 A 
ATOM      6  C6  N4B d   1       2.171  -2.628  -0.738  0.00  0.00     0.002 A 
ENDROOT
BRANCH   1   7
ATOM      7  C1' N4B d   1       3.928  -1.062  -1.486  0.00  0.00     0.057 C 
BRANCH   7   8
ATOM      8  C2' N4B d   1       3.748   0.424  -1.782  0.00  0.00     0.009 C 
BRANCH   8   9
ATOM      9  C3' N4B d   1       4.877   0.973  -2.638  0.00  0.00     0.004 C 
ATOM     10  C4' N4B d   1       6.000  -0.004  -2.816  0.00  0.00     0.003 C 
ENDBRANCH   8   9
ENDBRANCH   7   8
ENDBRANCH   1   7
TORSDOF 3
ENDMDL
