MODEL 1
REMARK minimizedAffinity 2.04973245
REMARK minimizedRMSD -1
REMARK  3 active torsions:
REMARK  status: ('A' for Active; 'I' for Inactive)
REMARK    1  A    between atoms: C3'_2  and  C2'_3 
REMARK    2  A    between atoms: C2'_3  and  C1'_4 
REMARK    3  A    between atoms: C1'_4  and  C1_5 
ROOT
ATOM      1  C1  N4B d   1       2.192  -0.824  -0.367  0.00  0.00    -0.075 A 
ATOM      2  C2  N4B d   1       2.025   0.568  -0.195  0.00  0.00     0.002 A 
ATOM      3  C3  N4B d   1       1.149   1.042   0.751  0.00  0.00     0.002 A 
ATOM      4  C4  N4B d   1       0.418   0.148   1.519  0.00  0.00    -0.004 A 
ATOM      5  C5  N4B d   1       0.605  -1.195   1.364  0.00  0.00     0.002 A 
ATOM      6  C6  N4B d   1       1.485  -1.686   0.421  0.00  0.00     0.002 A 
ENDROOT
BRANCH   1   7
ATOM      7  C1' N4B d   1       3.074  -1.390  -1.446  0.00  0.00     0.057 C 
BRANCH   7   8
ATOM      8  C2' N4B d   1       4.063  -0.320  -1.897  0.00  0.00     0.009 C 
BRANCH   8   9
ATOM      9  C3' N4B d   1       4.984  -0.823  -2.996  0.00  0.00     0.004 C 
ATOM     10  C4' N4B d   1       5.999   0.197  -3.416  0.00  0.00     0.003 C 
ENDBRANCH   8   9
ENDBRANCH   7   8
ENDBRANCH   1   7
TORSDOF 3
ENDMDL
