MODEL 1
REMARK minimizedAffinity 0.729626358
REMARK minimizedRMSD -1
REMARK  3 active torsions:
REMARK  status: ('A' for Active; 'I' for Inactive)
REMARK    1  A    between atoms: C3'_2  and  C2'_3 
REMARK    2  A    between atoms: C2'_3  and  C1'_4 
REMARK    3  A    between atoms: C1'_4  and  C1_5 
ROOT
ATOM      1  C1  N4B d   1       1.281  -0.485   0.925  0.00  0.00    -0.075 A 
ATOM      2  C2  N4B d   1       2.060  -1.434   0.227  0.00  0.00     0.002 A 
ATOM      3  C3  N4B d   1       2.654  -1.093  -0.963  0.00  0.00     0.002 A 
ATOM      4  C4  N4B d   1       2.468   0.179  -1.483  0.00  0.00    -0.004 A 
ATOM      5  C5  N4B d   1       1.735   1.098  -0.790  0.00  0.00     0.002 A 
ATOM      6  C6  N4B d   1       1.136   0.771   0.409  0.00  0.00     0.002 A 
ENDROOT
BRANCH   1   7
ATOM      7  C1' N4B d   1       0.541  -0.837   2.186  0.00  0.00     0.057 C 
BRANCH   7   8
ATOM      8  C2' N4B d   1       0.018  -2.267   2.078  0.00  0.00     0.009 C 
BRANCH   8   9
ATOM      9  C3' N4B d   1      -1.325  -2.328   1.372  0.00  0.00     0.004 C 
ATOM     10  C4' N4B d   1      -2.401  -1.583   2.104  0.00  0.00     0.003 C 
ENDBRANCH   8   9
ENDBRANCH   7   8
ENDBRANCH   1   7
TORSDOF 3
ENDMDL
