MODEL 1
REMARK minimizedAffinity -2.20961523
REMARK minimizedRMSD -1
REMARK  3 active torsions:
REMARK  status: ('A' for Active; 'I' for Inactive)
REMARK    1  A    between atoms: C3'_2  and  C2'_3 
REMARK    2  A    between atoms: C2'_3  and  C1'_4 
REMARK    3  A    between atoms: C1'_4  and  C1_5 
ROOT
ATOM      1  C1  N4B d   1       1.875  -1.387  -0.494  0.00  0.00    -0.075 A 
ATOM      2  C2  N4B d   1       0.847  -2.204   0.026  0.00  0.00     0.002 A 
ATOM      3  C3  N4B d   1       0.041  -1.735   1.034  0.00  0.00     0.002 A 
ATOM      4  C4  N4B d   1       0.257  -0.466   1.550  0.00  0.00    -0.004 A 
ATOM      5  C5  N4B d   1       1.236   0.326   1.026  0.00  0.00     0.002 A 
ATOM      6  C6  N4B d   1       2.050  -0.131   0.009  0.00  0.00     0.002 A 
ENDROOT
BRANCH   1   7
ATOM      7  C1' N4B d   1       2.836  -1.888  -1.538  0.00  0.00     0.057 C 
BRANCH   7   8
ATOM      8  C2' N4B d   1       4.159  -1.140  -1.400  0.00  0.00     0.009 C 
BRANCH   8   9
ATOM      9  C3' N4B d   1       4.557  -0.447  -2.692  0.00  0.00     0.004 C 
ATOM     10  C4' N4B d   1       5.990  -0.687  -3.063  0.00  0.00     0.003 C 
ENDBRANCH   8   9
ENDBRANCH   7   8
ENDBRANCH   1   7
TORSDOF 3
ENDMDL
