MODEL 1
REMARK minimizedAffinity -4.79268408
REMARK minimizedRMSD -1
REMARK  0 active torsions:
REMARK  status: ('A' for Active; 'I' for Inactive)
ROOT
ATOM      1  C2' OXE d   1       2.918   0.878   0.285  0.00  0.00     0.078 C 
ATOM      2  C1' OXE d   1       1.403   3.230   0.516  0.00  0.00     0.078 C 
ATOM      3  C1  OXE d   1       0.660   1.920   0.431  0.00  0.00    -0.078 A 
ATOM      4  C2  OXE d   1       1.407   0.778   0.272  0.00  0.00    -0.078 A 
ATOM      5  C3  OXE d   1       0.775  -0.461   0.243  0.00  0.00     0.003 A 
ATOM      6  C4  OXE d   1      -0.622  -0.544   0.221  0.00  0.00    -0.002 A 
ATOM      7  C5  OXE d   1      -1.404   0.610   0.343  0.00  0.00    -0.002 A 
ATOM      8  C6  OXE d   1      -0.779   1.843   0.492  0.00  0.00     0.003 A 
ENDROOT
TORSDOF 0
ENDMDL
