MODEL 1
REMARK minimizedAffinity -5.17354584
REMARK minimizedRMSD -1
REMARK  0 active torsions:
REMARK  status: ('A' for Active; 'I' for Inactive)
ROOT
ATOM      1  C2' OXE d   1      -2.275   0.225   1.128  0.00  0.00     0.078 C 
ATOM      2  C1' OXE d   1      -0.155  -1.307   0.111  0.00  0.00     0.078 C 
ATOM      3  C1  OXE d   1      -0.021   0.195   0.068  0.00  0.00    -0.078 A 
ATOM      4  C2  OXE d   1      -1.084   0.937   0.525  0.00  0.00    -0.078 A 
ATOM      5  C3  OXE d   1      -0.991   2.325   0.559  0.00  0.00     0.003 A 
ATOM      6  C4  OXE d   1       0.110   2.976  -0.010  0.00  0.00    -0.002 A 
ATOM      7  C5  OXE d   1       1.186   2.240  -0.518  0.00  0.00    -0.002 A 
ATOM      8  C6  OXE d   1       1.155   0.851  -0.448  0.00  0.00     0.003 A 
ENDROOT
TORSDOF 0
ENDMDL
