MODEL 1
REMARK minimizedAffinity -4.66694736
REMARK minimizedRMSD -1
REMARK  0 active torsions:
REMARK  status: ('A' for Active; 'I' for Inactive)
ROOT
ATOM      1  C2' OXE d   1      -0.300  -0.919  -0.135  0.00  0.00     0.078 C 
ATOM      2  C1' OXE d   1      -2.516   0.743   0.318  0.00  0.00     0.078 C 
ATOM      3  C1  OXE d   1      -1.180   1.402   0.083  0.00  0.00    -0.078 A 
ATOM      4  C2  OXE d   1      -0.092   0.580  -0.091  0.00  0.00    -0.078 A 
ATOM      5  C3  OXE d   1       1.154   1.135  -0.366  0.00  0.00     0.003 A 
ATOM      6  C4  OXE d   1       1.339   2.522  -0.313  0.00  0.00    -0.002 A 
ATOM      7  C5  OXE d   1       0.252   3.376  -0.098  0.00  0.00    -0.002 A 
ATOM      8  C6  OXE d   1      -1.019   2.834   0.060  0.00  0.00     0.003 A 
ENDROOT
TORSDOF 0
ENDMDL
