MODEL 1
REMARK minimizedAffinity -5.09208488
REMARK minimizedRMSD -1
REMARK  0 active torsions:
REMARK  status: ('A' for Active; 'I' for Inactive)
ROOT
ATOM      1  C2' OXE d   1       0.455  -1.186   0.442  0.00  0.00     0.078 C 
ATOM      2  C1' OXE d   1       2.811   0.340   0.423  0.00  0.00     0.078 C 
ATOM      3  C1  OXE d   1       1.496   1.078   0.435  0.00  0.00    -0.078 A 
ATOM      4  C2  OXE d   1       0.348   0.324   0.396  0.00  0.00    -0.078 A 
ATOM      5  C3  OXE d   1      -0.892   0.952   0.460  0.00  0.00     0.003 A 
ATOM      6  C4  OXE d   1      -0.983   2.348   0.408  0.00  0.00    -0.002 A 
ATOM      7  C5  OXE d   1       0.174   3.135   0.406  0.00  0.00    -0.002 A 
ATOM      8  C6  OXE d   1       1.418   2.517   0.462  0.00  0.00     0.003 A 
ENDROOT
TORSDOF 0
ENDMDL
