MODEL 1
REMARK minimizedAffinity -4.02434826
REMARK minimizedRMSD -1
REMARK  0 active torsions:
REMARK  status: ('A' for Active; 'I' for Inactive)
ROOT
ATOM      1  C2' OXE d   1      -0.237  -1.046  -0.256  0.00  0.00     0.078 C 
ATOM      2  C1' OXE d   1      -2.268   0.460   0.963  0.00  0.00     0.078 C 
ATOM      3  C1  OXE d   1      -1.065   1.200   0.432  0.00  0.00    -0.078 A 
ATOM      4  C2  OXE d   1      -0.055   0.450  -0.121  0.00  0.00    -0.078 A 
ATOM      5  C3  OXE d   1       1.052   1.087  -0.675  0.00  0.00     0.003 A 
ATOM      6  C4  OXE d   1       1.217   2.470  -0.537  0.00  0.00    -0.002 A 
ATOM      7  C5  OXE d   1       0.218   3.248   0.058  0.00  0.00    -0.002 A 
ATOM      8  C6  OXE d   1      -0.946   2.635   0.509  0.00  0.00     0.003 A 
ENDROOT
TORSDOF 0
ENDMDL
