MODEL 1
REMARK minimizedAffinity -4.25520134
REMARK minimizedRMSD -1
REMARK  0 active torsions:
REMARK  status: ('A' for Active; 'I' for Inactive)
ROOT
ATOM      1  C2' OXE d   1      -2.072   0.402   0.997  0.00  0.00     0.078 C 
ATOM      2  C1' OXE d   1       0.258  -1.015   0.332  0.00  0.00     0.078 C 
ATOM      3  C1  OXE d   1       0.218   0.460   0.020  0.00  0.00    -0.078 A 
ATOM      4  C2  OXE d   1      -0.943   1.136   0.307  0.00  0.00    -0.078 A 
ATOM      5  C3  OXE d   1      -1.013   2.509   0.090  0.00  0.00     0.003 A 
ATOM      6  C4  OXE d   1       0.032   3.178  -0.559  0.00  0.00    -0.002 A 
ATOM      7  C5  OXE d   1       1.209   2.501  -0.895  0.00  0.00    -0.002 A 
ATOM      8  C6  OXE d   1       1.334   1.153  -0.575  0.00  0.00     0.003 A 
ENDROOT
TORSDOF 0
ENDMDL
