MODEL 1
REMARK minimizedAffinity -3.31296873
REMARK minimizedRMSD -1
REMARK  0 active torsions:
REMARK  status: ('A' for Active; 'I' for Inactive)
ROOT
ATOM      1  C2' OXE d   1       0.221  -1.636  -0.079  0.00  0.00     0.078 C 
ATOM      2  C1' OXE d   1       2.183   0.370  -0.134  0.00  0.00     0.078 C 
ATOM      3  C1  OXE d   1       0.766   0.781   0.179  0.00  0.00    -0.078 A 
ATOM      4  C2  OXE d   1      -0.196  -0.201   0.157  0.00  0.00    -0.078 A 
ATOM      5  C3  OXE d   1      -1.510   0.115   0.492  0.00  0.00     0.003 A 
ATOM      6  C4  OXE d   1      -1.888   1.447   0.699  0.00  0.00    -0.002 A 
ATOM      7  C5  OXE d   1      -0.931   2.467   0.686  0.00  0.00    -0.002 A 
ATOM      8  C6  OXE d   1       0.404   2.146   0.470  0.00  0.00     0.003 A 
ENDROOT
TORSDOF 0
ENDMDL
