MODEL 1
REMARK minimizedAffinity -3.314147
REMARK minimizedRMSD -1
REMARK  0 active torsions:
REMARK  status: ('A' for Active; 'I' for Inactive)
ROOT
ATOM      1  C2' OXE d   1      -2.046  -0.023   1.076  0.00  0.00     0.078 C 
ATOM      2  C1' OXE d   1      -0.152  -1.237  -0.603  0.00  0.00     0.078 C 
ATOM      3  C1  OXE d   1      -0.077   0.259  -0.425  0.00  0.00    -0.078 A 
ATOM      4  C2  OXE d   1      -1.036   0.850   0.361  0.00  0.00    -0.078 A 
ATOM      5  C3  OXE d   1      -0.981   2.220   0.603  0.00  0.00     0.003 A 
ATOM      6  C4  OXE d   1      -0.051   3.021  -0.069  0.00  0.00    -0.002 A 
ATOM      7  C5  OXE d   1       0.910   2.444  -0.905  0.00  0.00    -0.002 A 
ATOM      8  C6  OXE d   1       0.938   1.062  -1.060  0.00  0.00     0.003 A 
ENDROOT
TORSDOF 0
ENDMDL
