MODEL 1
REMARK minimizedAffinity -1.35295761
REMARK minimizedRMSD -1
REMARK  0 active torsions:
REMARK  status: ('A' for Active; 'I' for Inactive)
ROOT
ATOM      1  C2' OXE d   1      -0.793   0.218  -0.067  0.00  0.00     0.078 C 
ATOM      2  C1' OXE d   1       1.439  -1.472   0.143  0.00  0.00     0.078 C 
ATOM      3  C1  OXE d   1       0.302  -1.914  -0.745  0.00  0.00    -0.078 A 
ATOM      4  C2  OXE d   1      -0.805  -1.103  -0.805  0.00  0.00    -0.078 A 
ATOM      5  C3  OXE d   1      -1.859  -1.436  -1.651  0.00  0.00     0.003 A 
ATOM      6  C4  OXE d   1      -1.867  -2.665  -2.323  0.00  0.00    -0.002 A 
ATOM      7  C5  OXE d   1      -0.766  -3.524  -2.244  0.00  0.00    -0.002 A 
ATOM      8  C6  OXE d   1       0.342  -3.145  -1.495  0.00  0.00     0.003 A 
ENDROOT
TORSDOF 0
ENDMDL
