MODEL 1
REMARK minimizedAffinity -5.04581022
REMARK minimizedRMSD -1
REMARK  0 active torsions:
REMARK  status: ('A' for Active; 'I' for Inactive)
ROOT
ATOM      1  C2' OXE d   1       2.697   0.330  -0.180  0.00  0.00     0.078 C 
ATOM      2  C1' OXE d   1       0.222  -0.968   0.084  0.00  0.00     0.078 C 
ATOM      3  C1  OXE d   1       0.218   0.535  -0.043  0.00  0.00    -0.078 A 
ATOM      4  C2  OXE d   1       1.436   1.166  -0.124  0.00  0.00    -0.078 A 
ATOM      5  C3  OXE d   1       1.488   2.546  -0.297  0.00  0.00     0.003 A 
ATOM      6  C4  OXE d   1       0.317   3.312  -0.234  0.00  0.00    -0.002 A 
ATOM      7  C5  OXE d   1      -0.931   2.693  -0.112  0.00  0.00    -0.002 A 
ATOM      8  C6  OXE d   1      -1.001   1.305  -0.058  0.00  0.00     0.003 A 
ENDROOT
TORSDOF 0
ENDMDL
