MODEL 1
REMARK minimizedAffinity -5.19917154
REMARK minimizedRMSD -1
REMARK  0 active torsions:
REMARK  status: ('A' for Active; 'I' for Inactive)
ROOT
ATOM      1  C2' OXE d   1       0.314  -0.904   0.300  0.00  0.00     0.078 C 
ATOM      2  C1' OXE d   1       2.526   0.820   0.169  0.00  0.00     0.078 C 
ATOM      3  C1  OXE d   1       1.150   1.437   0.130  0.00  0.00    -0.078 A 
ATOM      4  C2  OXE d   1       0.074   0.583   0.148  0.00  0.00    -0.078 A 
ATOM      5  C3  OXE d   1      -1.217   1.102   0.169  0.00  0.00     0.003 A 
ATOM      6  C4  OXE d   1      -1.431   2.477   0.018  0.00  0.00    -0.002 A 
ATOM      7  C5  OXE d   1      -0.349   3.362  -0.041  0.00  0.00    -0.002 A 
ATOM      8  C6  OXE d   1       0.945   2.862   0.056  0.00  0.00     0.003 A 
ENDROOT
TORSDOF 0
ENDMDL
