MODEL 1
REMARK minimizedAffinity -2.63942766
REMARK minimizedRMSD -1
REMARK  0 active torsions:
REMARK  status: ('A' for Active; 'I' for Inactive)
ROOT
ATOM      1  C2' OXE d   1       0.016   3.469  -0.713  0.00  0.00     0.078 C 
ATOM      2  C1' OXE d   1      -2.304   2.451   0.496  0.00  0.00     0.078 C 
ATOM      3  C1  OXE d   1      -1.176   1.489   0.217  0.00  0.00    -0.078 A 
ATOM      4  C2  OXE d   1      -0.063   1.987  -0.417  0.00  0.00    -0.078 A 
ATOM      5  C3  OXE d   1       1.029   1.155  -0.648  0.00  0.00     0.003 A 
ATOM      6  C4  OXE d   1       0.944  -0.217  -0.381  0.00  0.00    -0.002 A 
ATOM      7  C5  OXE d   1      -0.196  -0.752   0.228  0.00  0.00    -0.002 A 
ATOM      8  C6  OXE d   1      -1.246   0.093   0.572  0.00  0.00     0.003 A 
ENDROOT
TORSDOF 0
ENDMDL
