MODEL 1
REMARK minimizedAffinity -3.73157287
REMARK minimizedRMSD -1
REMARK  0 active torsions:
REMARK  status: ('A' for Active; 'I' for Inactive)
ROOT
ATOM      1  C2' OXE d   1       0.260  -1.384  -0.318  0.00  0.00     0.078 C 
ATOM      2  C1' OXE d   1       2.301   0.400   0.413  0.00  0.00     0.078 C 
ATOM      3  C1  OXE d   1       0.888   0.926   0.373  0.00  0.00    -0.078 A 
ATOM      4  C2  OXE d   1      -0.098   0.058  -0.031  0.00  0.00    -0.078 A 
ATOM      5  C3  OXE d   1      -1.426   0.477  -0.033  0.00  0.00     0.003 A 
ATOM      6  C4  OXE d   1      -1.748   1.815   0.224  0.00  0.00    -0.002 A 
ATOM      7  C5  OXE d   1      -0.754   2.725   0.599  0.00  0.00    -0.002 A 
ATOM      8  C6  OXE d   1       0.560   2.287   0.719  0.00  0.00     0.003 A 
ENDROOT
TORSDOF 0
ENDMDL
