MODEL 1
REMARK minimizedAffinity -2.9964509
REMARK minimizedRMSD -1
REMARK  0 active torsions:
REMARK  status: ('A' for Active; 'I' for Inactive)
ROOT
ATOM      1  C2' OXE d   1       0.225   3.066  -0.404  0.00  0.00     0.078 C 
ATOM      2  C1' OXE d   1      -2.244   1.910   0.265  0.00  0.00     0.078 C 
ATOM      3  C1  OXE d   1      -1.023   1.024   0.288  0.00  0.00    -0.078 A 
ATOM      4  C2  OXE d   1       0.173   1.587  -0.086  0.00  0.00    -0.078 A 
ATOM      5  C3  OXE d   1       1.339   0.829  -0.029  0.00  0.00     0.003 A 
ATOM      6  C4  OXE d   1       1.281  -0.540   0.257  0.00  0.00    -0.002 A 
ATOM      7  C5  OXE d   1       0.066  -1.143   0.602  0.00  0.00    -0.002 A 
ATOM      8  C6  OXE d   1      -1.086  -0.367   0.663  0.00  0.00     0.003 A 
ENDROOT
TORSDOF 0
ENDMDL
