MODEL 1
REMARK minimizedAffinity -2.00408411
REMARK minimizedRMSD -1
REMARK  0 active torsions:
REMARK  status: ('A' for Active; 'I' for Inactive)
ROOT
ATOM      1  C2' OXE d   1      -0.214  -1.078  -0.557  0.00  0.00     0.078 C 
ATOM      2  C1' OXE d   1      -1.633   0.120   1.547  0.00  0.00     0.078 C 
ATOM      3  C1  OXE d   1      -0.616   0.960   0.817  0.00  0.00    -0.078 A 
ATOM      4  C2  OXE d   1       0.107   0.352  -0.181  0.00  0.00    -0.078 A 
ATOM      5  C3  OXE d   1       1.020   1.097  -0.922  0.00  0.00     0.003 A 
ATOM      6  C4  OXE d   1       1.318   2.416  -0.561  0.00  0.00    -0.002 A 
ATOM      7  C5  OXE d   1       0.621   3.042   0.478  0.00  0.00    -0.002 A 
ATOM      8  C6  OXE d   1      -0.377   2.343   1.148  0.00  0.00     0.003 A 
ENDROOT
TORSDOF 0
ENDMDL
