MODEL 1
REMARK minimizedAffinity -4.84628725
REMARK minimizedRMSD -1
REMARK  0 active torsions:
REMARK  status: ('A' for Active; 'I' for Inactive)
ROOT
ATOM      1  C2' OXE d   1      -1.489   0.053   1.415  0.00  0.00     0.078 C 
ATOM      2  C1' OXE d   1       0.593  -1.047  -0.114  0.00  0.00     0.078 C 
ATOM      3  C1  OXE d   1       0.494   0.456  -0.039  0.00  0.00    -0.078 A 
ATOM      4  C2  OXE d   1      -0.555   0.985   0.673  0.00  0.00    -0.078 A 
ATOM      5  C3  OXE d   1      -0.662   2.366   0.820  0.00  0.00     0.003 A 
ATOM      6  C4  OXE d   1       0.200   3.221   0.122  0.00  0.00    -0.002 A 
ATOM      7  C5  OXE d   1       1.251   2.702  -0.640  0.00  0.00    -0.002 A 
ATOM      8  C6  OXE d   1       1.438   1.325  -0.697  0.00  0.00     0.003 A 
ENDROOT
TORSDOF 0
ENDMDL
