MODEL 1
REMARK minimizedAffinity 1.48949957
REMARK minimizedRMSD -1
REMARK  0 active torsions:
REMARK  status: ('A' for Active; 'I' for Inactive)
ROOT
ATOM      1  C2' OXE d   1      -1.559  -2.239   0.294  0.00  0.00     0.078 C 
ATOM      2  C1' OXE d   1       0.795  -0.804  -0.233  0.00  0.00     0.078 C 
ATOM      3  C1  OXE d   1       0.383  -1.867  -1.221  0.00  0.00    -0.078 A 
ATOM      4  C2  OXE d   1      -0.745  -2.597  -0.930  0.00  0.00    -0.078 A 
ATOM      5  C3  OXE d   1      -1.199  -3.552  -1.835  0.00  0.00     0.003 A 
ATOM      6  C4  OXE d   1      -0.435  -3.883  -2.960  0.00  0.00    -0.002 A 
ATOM      7  C5  OXE d   1       0.738  -3.180  -3.254  0.00  0.00    -0.002 A 
ATOM      8  C6  OXE d   1       1.138  -2.143  -2.418  0.00  0.00     0.003 A 
ENDROOT
TORSDOF 0
ENDMDL
