MODEL 1
REMARK minimizedAffinity 0.370009542
REMARK minimizedRMSD -1
REMARK  0 active torsions:
REMARK  status: ('A' for Active; 'I' for Inactive)
ROOT
ATOM      1  C2' OXE d   1      -2.143  -0.168   0.637  0.00  0.00     0.078 C 
ATOM      2  C1' OXE d   1      -0.652  -2.338  -0.336  0.00  0.00     0.078 C 
ATOM      3  C1  OXE d   1       0.050  -1.011  -0.192  0.00  0.00    -0.078 A 
ATOM      4  C2  OXE d   1      -0.700   0.057   0.241  0.00  0.00    -0.078 A 
ATOM      5  C3  OXE d   1      -0.089   1.291   0.444  0.00  0.00     0.003 A 
ATOM      6  C4  OXE d   1       1.244   1.493   0.065  0.00  0.00    -0.002 A 
ATOM      7  C5  OXE d   1       2.014   0.429  -0.415  0.00  0.00    -0.002 A 
ATOM      8  C6  OXE d   1       1.445  -0.837  -0.509  0.00  0.00     0.003 A 
ENDROOT
TORSDOF 0
ENDMDL
