MODEL 1
REMARK minimizedAffinity 0.175089464
REMARK minimizedRMSD -1
REMARK  0 active torsions:
REMARK  status: ('A' for Active; 'I' for Inactive)
ROOT
ATOM      1  C   UNL d   1       0.630  -0.583   1.799  0.00  0.00     0.078 C 
ATOM      2  C1  UNL d   1       0.526   0.860   1.404  0.00  0.00    -0.077 A 
ATOM      3  C2  UNL d   1       0.124   1.228   0.114  0.00  0.00    -0.001 A 
ATOM      4  C3  UNL d   1       0.041   2.575  -0.243  0.00  0.00     0.003 A 
ATOM      5  C4  UNL d   1       0.360   3.565   0.685  0.00  0.00    -0.005 A 
ATOM      6  C5  UNL d   1       0.764   3.208   1.970  0.00  0.00     0.003 A 
ATOM      7  C6  UNL d   1       0.847   1.862   2.328  0.00  0.00    -0.001 A 
ENDROOT
TORSDOF 0
ENDMDL
