MODEL 1
REMARK minimizedAffinity 4.14494801
REMARK minimizedRMSD -1
REMARK  0 active torsions:
REMARK  status: ('A' for Active; 'I' for Inactive)
ROOT
ATOM      1  C   UNL d   1      -5.980  -3.837   5.891  0.00  0.00     0.078 C 
ATOM      2  C1  UNL d   1      -5.621  -2.690   4.994  0.00  0.00    -0.077 A 
ATOM      3  C2  UNL d   1      -5.997  -2.684   3.645  0.00  0.00    -0.001 A 
ATOM      4  C3  UNL d   1      -5.649  -1.614   2.819  0.00  0.00     0.003 A 
ATOM      5  C4  UNL d   1      -4.921  -0.543   3.333  0.00  0.00    -0.005 A 
ATOM      6  C5  UNL d   1      -4.540  -0.541   4.673  0.00  0.00     0.003 A 
ATOM      7  C6  UNL d   1      -4.888  -1.610   5.500  0.00  0.00    -0.001 A 
ENDROOT
TORSDOF 0
ENDMDL
