MODEL 1
REMARK minimizedAffinity 2.13112879
REMARK minimizedRMSD -1
REMARK  0 active torsions:
REMARK  status: ('A' for Active; 'I' for Inactive)
ROOT
ATOM      1  C   UNL d   1      -4.241   3.871  -3.651  0.00  0.00     0.078 C 
ATOM      2  C1  UNL d   1      -3.105   3.061  -3.100  0.00  0.00    -0.077 A 
ATOM      3  C2  UNL d   1      -3.210   1.671  -2.966  0.00  0.00    -0.001 A 
ATOM      4  C3  UNL d   1      -2.148   0.931  -2.443  0.00  0.00     0.003 A 
ATOM      5  C4  UNL d   1      -0.975   1.572  -2.049  0.00  0.00    -0.005 A 
ATOM      6  C5  UNL d   1      -0.863   2.955  -2.177  0.00  0.00     0.003 A 
ATOM      7  C6  UNL d   1      -1.923   3.697  -2.700  0.00  0.00    -0.001 A 
ENDROOT
TORSDOF 0
ENDMDL
