MODEL 1
REMARK minimizedAffinity 1.54658377
REMARK minimizedRMSD -1
REMARK  0 active torsions:
REMARK  status: ('A' for Active; 'I' for Inactive)
ROOT
ATOM      1  C   UNL d   1       0.061   3.414  -0.930  0.00  0.00     0.078 C 
ATOM      2  C1  UNL d   1      -0.539   2.148  -1.464  0.00  0.00    -0.077 A 
ATOM      3  C2  UNL d   1       0.247   1.008  -1.670  0.00  0.00    -0.001 A 
ATOM      4  C3  UNL d   1      -0.323  -0.161  -2.178  0.00  0.00     0.003 A 
ATOM      5  C4  UNL d   1      -1.682  -0.201  -2.484  0.00  0.00    -0.005 A 
ATOM      6  C5  UNL d   1      -2.472   0.929  -2.284  0.00  0.00     0.003 A 
ATOM      7  C6  UNL d   1      -1.904   2.099  -1.777  0.00  0.00    -0.001 A 
ENDROOT
TORSDOF 0
ENDMDL
