MODEL 1
REMARK minimizedAffinity 4.22993326
REMARK minimizedRMSD -1
REMARK  0 active torsions:
REMARK  status: ('A' for Active; 'I' for Inactive)
ROOT
ATOM      1  C   UNL d   1      -3.837   3.259  -2.983  0.00  0.00     0.078 C 
ATOM      2  C1  UNL d   1      -3.040   2.059  -2.567  0.00  0.00    -0.077 A 
ATOM      3  C2  UNL d   1      -3.671   0.855  -2.230  0.00  0.00    -0.001 A 
ATOM      4  C3  UNL d   1      -2.916  -0.251  -1.836  0.00  0.00     0.003 A 
ATOM      5  C4  UNL d   1      -1.527  -0.164  -1.773  0.00  0.00    -0.005 A 
ATOM      6  C5  UNL d   1      -0.890   1.031  -2.105  0.00  0.00     0.003 A 
ATOM      7  C6  UNL d   1      -1.643   2.138  -2.499  0.00  0.00    -0.001 A 
ENDROOT
TORSDOF 0
ENDMDL
