MODEL 1
REMARK minimizedAffinity 3.85194445
REMARK minimizedRMSD -1
REMARK  0 active torsions:
REMARK  status: ('A' for Active; 'I' for Inactive)
ROOT
ATOM      1  C   UNL d   1       5.677  -5.628   0.023  0.00  0.00     0.078 C 
ATOM      2  C1  UNL d   1       4.732  -5.624  -1.141  0.00  0.00    -0.077 A 
ATOM      3  C2  UNL d   1       3.392  -5.998  -0.983  0.00  0.00    -0.001 A 
ATOM      4  C3  UNL d   1       2.525  -5.999  -2.077  0.00  0.00     0.003 A 
ATOM      5  C4  UNL d   1       2.989  -5.628  -3.338  0.00  0.00    -0.005 A 
ATOM      6  C5  UNL d   1       4.321  -5.256  -3.505  0.00  0.00     0.003 A 
ATOM      7  C6  UNL d   1       5.189  -5.254  -2.412  0.00  0.00    -0.001 A 
ENDROOT
TORSDOF 0
ENDMDL
