MODEL 1
REMARK minimizedAffinity 8.8052187
REMARK minimizedRMSD -1
REMARK  0 active torsions:
REMARK  status: ('A' for Active; 'I' for Inactive)
ROOT
ATOM      1  C   UNL d   1      -0.735   2.923  -1.259  0.00  0.00     0.078 C 
ATOM      2  C1  UNL d   1      -1.324   1.650  -1.788  0.00  0.00    -0.077 A 
ATOM      3  C2  UNL d   1      -0.526   0.704  -2.444  0.00  0.00    -0.001 A 
ATOM      4  C3  UNL d   1      -1.090  -0.472  -2.940  0.00  0.00     0.003 A 
ATOM      5  C4  UNL d   1      -2.453  -0.714  -2.787  0.00  0.00    -0.005 A 
ATOM      6  C5  UNL d   1      -3.256   0.223  -2.138  0.00  0.00     0.003 A 
ATOM      7  C6  UNL d   1      -2.694   1.400  -1.641  0.00  0.00    -0.001 A 
ENDROOT
TORSDOF 0
ENDMDL
