MODEL 1
REMARK minimizedAffinity 0.999149978
REMARK minimizedRMSD -1
REMARK  0 active torsions:
REMARK  status: ('A' for Active; 'I' for Inactive)
ROOT
ATOM      1  C   UNL d   1      -1.095   2.387   1.812  0.00  0.00     0.078 C 
ATOM      2  C1  UNL d   1      -1.057   3.651   1.006  0.00  0.00    -0.077 A 
ATOM      3  C2  UNL d   1      -1.806   4.771   1.387  0.00  0.00    -0.001 A 
ATOM      4  C3  UNL d   1      -1.769   5.938   0.622  0.00  0.00     0.003 A 
ATOM      5  C4  UNL d   1      -0.985   5.996  -0.529  0.00  0.00    -0.005 A 
ATOM      6  C5  UNL d   1      -0.238   4.885  -0.917  0.00  0.00     0.003 A 
ATOM      7  C6  UNL d   1      -0.274   3.718  -0.153  0.00  0.00    -0.001 A 
ENDROOT
TORSDOF 0
ENDMDL
