MODEL 1
REMARK minimizedAffinity -0.579613268
REMARK minimizedRMSD -1
REMARK  0 active torsions:
REMARK  status: ('A' for Active; 'I' for Inactive)
ROOT
ATOM      1  C   UNL d   1      -6.000  -1.806   1.703  0.00  0.00     0.078 C 
ATOM      2  C1  UNL d   1      -5.986  -1.731   3.201  0.00  0.00    -0.077 A 
ATOM      3  C2  UNL d   1      -6.000  -2.893   3.981  0.00  0.00    -0.001 A 
ATOM      4  C3  UNL d   1      -5.996  -2.808   5.374  0.00  0.00     0.003 A 
ATOM      5  C4  UNL d   1      -5.981  -1.562   5.999  0.00  0.00    -0.005 A 
ATOM      6  C5  UNL d   1      -5.969  -0.400   5.231  0.00  0.00     0.003 A 
ATOM      7  C6  UNL d   1      -5.972  -0.483   3.837  0.00  0.00    -0.001 A 
ENDROOT
TORSDOF 0
ENDMDL
