MODEL 1
REMARK minimizedAffinity -4.18680954
REMARK minimizedRMSD -1
REMARK  0 active torsions:
REMARK  status: ('A' for Active; 'I' for Inactive)
ROOT
ATOM      1  C   UNL d   1       0.138  -0.187   1.603  0.00  0.00     0.078 C 
ATOM      2  C1  UNL d   1       0.179   1.196   1.026  0.00  0.00    -0.077 A 
ATOM      3  C2  UNL d   1      -0.004   1.412  -0.345  0.00  0.00    -0.001 A 
ATOM      4  C3  UNL d   1       0.046   2.704  -0.869  0.00  0.00     0.003 A 
ATOM      5  C4  UNL d   1       0.279   3.791  -0.030  0.00  0.00    -0.005 A 
ATOM      6  C5  UNL d   1       0.464   3.587   1.336  0.00  0.00     0.003 A 
ATOM      7  C6  UNL d   1       0.414   2.295   1.862  0.00  0.00    -0.001 A 
ENDROOT
TORSDOF 0
ENDMDL
