MODEL 1
REMARK minimizedAffinity -0.530177712
REMARK minimizedRMSD -1
REMARK  0 active torsions:
REMARK  status: ('A' for Active; 'I' for Inactive)
ROOT
ATOM      1  C   UNL d   1       0.416   1.297   2.688  0.00  0.00     0.078 C 
ATOM      2  C1  UNL d   1       0.544   0.834   1.268  0.00  0.00    -0.077 A 
ATOM      3  C2  UNL d   1       1.292  -0.305   0.945  0.00  0.00    -0.001 A 
ATOM      4  C3  UNL d   1       1.411  -0.720  -0.382  0.00  0.00     0.003 A 
ATOM      5  C4  UNL d   1       0.785  -0.001  -1.398  0.00  0.00    -0.005 A 
ATOM      6  C5  UNL d   1       0.040   1.135  -1.088  0.00  0.00     0.003 A 
ATOM      7  C6  UNL d   1      -0.080   1.551   0.239  0.00  0.00    -0.001 A 
ENDROOT
TORSDOF 0
ENDMDL
