MODEL 1
REMARK minimizedAffinity -4.52562714
REMARK minimizedRMSD -1
REMARK  1 active torsions:
REMARK  status: ('A' for Active; 'I' for Inactive)
REMARK    1  A    between atoms: C3_4  and  O_7 
ROOT
ATOM      1  C   UNL d   1       0.505  -0.550   1.274  0.00  0.00    -0.033 A 
ATOM      2  C1  UNL d   1       0.275   0.824   1.183  0.00  0.00     0.039 A 
ATOM      3  C2  UNL d   1       0.142   1.431  -0.067  0.00  0.00    -0.080 A 
ATOM      4  C3  UNL d   1       0.240   0.653  -1.218  0.00  0.00     0.150 A 
ATOM      5  C4  UNL d   1       0.466  -0.717  -1.135  0.00  0.00    -0.007 A 
ATOM      6  C5  UNL d   1       0.599  -1.320   0.115  0.00  0.00     0.039 A 
ENDROOT
BRANCH   4   7
ATOM      7  O   UNL d   1       0.121   1.201  -2.461  0.00  0.00    -0.526 OA
ATOM      8  H5  UNL d   1      -0.003   2.160  -2.364  0.00  0.00     0.418 HD
ENDBRANCH   4   7
TORSDOF 1
ENDMDL
