MODEL 1
REMARK minimizedAffinity -5.41163921
REMARK minimizedRMSD -1
REMARK  1 active torsions:
REMARK  status: ('A' for Active; 'I' for Inactive)
REMARK    1  A    between atoms: C3_4  and  O_7 
ROOT
ATOM      1  C   UNL d   1       0.604  -0.259   0.057  0.00  0.00    -0.033 A 
ATOM      2  C1  UNL d   1      -0.277   0.595  -0.609  0.00  0.00     0.039 A 
ATOM      3  C2  UNL d   1      -1.123   1.434   0.118  0.00  0.00    -0.080 A 
ATOM      4  C3  UNL d   1      -1.079   1.409   1.510  0.00  0.00     0.150 A 
ATOM      5  C4  UNL d   1      -0.202   0.563   2.180  0.00  0.00    -0.007 A 
ATOM      6  C5  UNL d   1       0.642  -0.275   1.452  0.00  0.00     0.039 A 
ENDROOT
BRANCH   4   7
ATOM      7  O   UNL d   1      -1.889   2.206   2.262  0.00  0.00    -0.526 OA
ATOM      8  H5  UNL d   1      -2.461   2.716   1.665  0.00  0.00     0.418 HD
ENDBRANCH   4   7
TORSDOF 1
ENDMDL
