MODEL 1
REMARK minimizedAffinity -2.41842961
REMARK minimizedRMSD -1
REMARK  1 active torsions:
REMARK  status: ('A' for Active; 'I' for Inactive)
REMARK    1  A    between atoms: C3_4  and  O_7 
ROOT
ATOM      1  C   UNL d   1      -0.330  -3.870  -1.736  0.00  0.00    -0.033 A 
ATOM      2  C1  UNL d   1      -1.455  -3.291  -1.145  0.00  0.00     0.039 A 
ATOM      3  C2  UNL d   1      -1.360  -2.035  -0.543  0.00  0.00    -0.080 A 
ATOM      4  C3  UNL d   1      -0.138  -1.369  -0.539  0.00  0.00     0.150 A 
ATOM      5  C4  UNL d   1       0.986  -1.938  -1.130  0.00  0.00    -0.007 A 
ATOM      6  C5  UNL d   1       0.890  -3.193  -1.730  0.00  0.00     0.039 A 
ENDROOT
BRANCH   4   7
ATOM      7  O   UNL d   1       0.004  -0.143   0.040  0.00  0.00    -0.526 OA
ATOM      8  H5  UNL d   1      -0.847   0.112   0.432  0.00  0.00     0.418 HD
ENDBRANCH   4   7
TORSDOF 1
ENDMDL
