MODEL 1
REMARK minimizedAffinity -0.65461421
REMARK minimizedRMSD -1
REMARK  1 active torsions:
REMARK  status: ('A' for Active; 'I' for Inactive)
REMARK    1  A    between atoms: C3_4  and  O_7 
ROOT
ATOM      1  C   UNL d   1       0.691  -0.634   0.267  0.00  0.00    -0.033 A 
ATOM      2  C1  UNL d   1       0.184   0.448   0.991  0.00  0.00     0.039 A 
ATOM      3  C2  UNL d   1      -0.278   1.583   0.321  0.00  0.00    -0.080 A 
ATOM      4  C3  UNL d   1      -0.228   1.623  -1.070  0.00  0.00     0.150 A 
ATOM      5  C4  UNL d   1       0.272   0.548  -1.797  0.00  0.00    -0.007 A 
ATOM      6  C5  UNL d   1       0.734  -0.584  -1.126  0.00  0.00     0.039 A 
ENDROOT
BRANCH   4   7
ATOM      7  O   UNL d   1      -0.663   2.711  -1.767  0.00  0.00    -0.526 OA
ATOM      8  H5  UNL d   1      -0.955   3.387  -1.133  0.00  0.00     0.418 HD
ENDBRANCH   4   7
TORSDOF 1
ENDMDL
