MODEL 1
REMARK minimizedAffinity -5.30440569
REMARK minimizedRMSD -1
REMARK  1 active torsions:
REMARK  status: ('A' for Active; 'I' for Inactive)
REMARK    1  A    between atoms: C3_4  and  O_7 
ROOT
ATOM      1  C   UNL d   1      -1.082   2.978   1.457  0.00  0.00    -0.033 A 
ATOM      2  C1  UNL d   1      -1.399   2.927   0.098  0.00  0.00     0.039 A 
ATOM      3  C2  UNL d   1      -1.048   1.808  -0.660  0.00  0.00    -0.080 A 
ATOM      4  C3  UNL d   1      -0.383   0.749  -0.049  0.00  0.00     0.150 A 
ATOM      5  C4  UNL d   1      -0.067   0.793   1.305  0.00  0.00    -0.007 A 
ATOM      6  C5  UNL d   1      -0.417   1.911   2.061  0.00  0.00     0.039 A 
ENDROOT
BRANCH   4   7
ATOM      7  O   UNL d   1      -0.016  -0.361  -0.749  0.00  0.00    -0.526 OA
ATOM      8  H5  UNL d   1      -0.273  -0.239  -1.678  0.00  0.00     0.418 HD
ENDBRANCH   4   7
TORSDOF 1
ENDMDL
