MODEL 1
REMARK minimizedAffinity -2.94037628
REMARK minimizedRMSD -1
REMARK  1 active torsions:
REMARK  status: ('A' for Active; 'I' for Inactive)
REMARK    1  A    between atoms: C3_4  and  O_7 
ROOT
ATOM      1  C   UNL d   1       0.622  -1.338  -0.624  0.00  0.00    -0.033 A 
ATOM      2  C1  UNL d   1       0.810  -1.479   0.753  0.00  0.00     0.039 A 
ATOM      3  C2  UNL d   1       0.466  -0.437   1.616  0.00  0.00    -0.080 A 
ATOM      4  C3  UNL d   1      -0.065   0.738   1.091  0.00  0.00     0.150 A 
ATOM      5  C4  UNL d   1      -0.259   0.883  -0.279  0.00  0.00    -0.007 A 
ATOM      6  C5  UNL d   1       0.086  -0.158  -1.139  0.00  0.00     0.039 A 
ENDROOT
BRANCH   4   7
ATOM      7  O   UNL d   1      -0.411   1.784   1.894  0.00  0.00    -0.526 OA
ATOM      8  H5  UNL d   1      -0.195   1.552   2.812  0.00  0.00     0.418 HD
ENDBRANCH   4   7
TORSDOF 1
ENDMDL
