MODEL 1
REMARK minimizedAffinity -2.71125841
REMARK minimizedRMSD -1
REMARK  1 active torsions:
REMARK  status: ('A' for Active; 'I' for Inactive)
REMARK    1  A    between atoms: C3_4  and  O_7 
ROOT
ATOM      1  C   UNL d   1       0.351  -0.644   0.329  0.00  0.00    -0.033 A 
ATOM      2  C1  UNL d   1      -0.456   0.207  -0.429  0.00  0.00     0.039 A 
ATOM      3  C2  UNL d   1      -1.005   1.351   0.151  0.00  0.00    -0.080 A 
ATOM      4  C3  UNL d   1      -0.740   1.634   1.488  0.00  0.00     0.150 A 
ATOM      5  C4  UNL d   1       0.066   0.793   2.248  0.00  0.00    -0.007 A 
ATOM      6  C5  UNL d   1       0.613  -0.350   1.668  0.00  0.00     0.039 A 
ENDROOT
BRANCH   4   7
ATOM      7  O   UNL d   1      -1.258   2.737   2.099  0.00  0.00    -0.526 OA
ATOM      8  H5  UNL d   1      -1.817   3.209   1.460  0.00  0.00     0.418 HD
ENDBRANCH   4   7
TORSDOF 1
ENDMDL
