MODEL 1
REMARK minimizedAffinity -5.4556942
REMARK minimizedRMSD -1
REMARK  1 active torsions:
REMARK  status: ('A' for Active; 'I' for Inactive)
REMARK    1  A    between atoms: C3_4  and  O_7 
ROOT
ATOM      1  C   UNL d   1      -1.104   2.845   1.090  0.00  0.00    -0.033 A 
ATOM      2  C1  UNL d   1      -1.011   3.738   0.020  0.00  0.00     0.039 A 
ATOM      3  C2  UNL d   1      -0.446   3.327  -1.188  0.00  0.00    -0.080 A 
ATOM      4  C3  UNL d   1       0.021   2.021  -1.314  0.00  0.00     0.150 A 
ATOM      5  C4  UNL d   1      -0.072   1.125  -0.254  0.00  0.00    -0.007 A 
ATOM      6  C5  UNL d   1      -0.636   1.538   0.952  0.00  0.00     0.039 A 
ENDROOT
BRANCH   4   7
ATOM      7  O   UNL d   1       0.585   1.575  -2.472  0.00  0.00    -0.526 OA
ATOM      8  H5  UNL d   1       0.609   2.311  -3.107  0.00  0.00     0.418 HD
ENDBRANCH   4   7
TORSDOF 1
ENDMDL
