MODEL 1
REMARK minimizedAffinity -5.26317024
REMARK minimizedRMSD -1
REMARK  1 active torsions:
REMARK  status: ('A' for Active; 'I' for Inactive)
REMARK    1  A    between atoms: C3_4  and  O_7 
ROOT
ATOM      1  C   UNL d   1      -0.001   1.118  -1.166  0.00  0.00    -0.033 A 
ATOM      2  C1  UNL d   1       0.178   0.396   0.016  0.00  0.00     0.039 A 
ATOM      3  C2  UNL d   1      -0.286   0.911   1.228  0.00  0.00    -0.080 A 
ATOM      4  C3  UNL d   1      -0.928   2.147   1.245  0.00  0.00     0.150 A 
ATOM      5  C4  UNL d   1      -1.113   2.870   0.071  0.00  0.00    -0.007 A 
ATOM      6  C5  UNL d   1      -0.648   2.354  -1.138  0.00  0.00     0.039 A 
ENDROOT
BRANCH   4   7
ATOM      7  O   UNL d   1      -1.393   2.692   2.404  0.00  0.00    -0.526 OA
ATOM      8  H5  UNL d   1      -1.169   2.095   3.137  0.00  0.00     0.418 HD
ENDBRANCH   4   7
TORSDOF 1
ENDMDL
