MODEL 1
REMARK minimizedAffinity 0.902694285
REMARK minimizedRMSD -1
REMARK  1 active torsions:
REMARK  status: ('A' for Active; 'I' for Inactive)
REMARK    1  A    between atoms: C3_4  and  O_7 
ROOT
ATOM      1  C   UNL d   1      -5.956  -1.209   3.920  0.00  0.00    -0.033 A 
ATOM      2  C1  UNL d   1      -5.985  -1.228   5.316  0.00  0.00     0.039 A 
ATOM      3  C2  UNL d   1      -5.998  -2.445   5.999  0.00  0.00    -0.080 A 
ATOM      4  C3  UNL d   1      -5.982  -3.635   5.276  0.00  0.00     0.150 A 
ATOM      5  C4  UNL d   1      -5.950  -3.623   3.885  0.00  0.00    -0.007 A 
ATOM      6  C5  UNL d   1      -5.937  -2.407   3.205  0.00  0.00     0.039 A 
ENDROOT
BRANCH   4   7
ATOM      7  O   UNL d   1      -5.999  -4.847   5.899  0.00  0.00    -0.526 OA
ATOM      8  H5  UNL d   1      -6.051  -4.700   6.858  0.00  0.00     0.418 HD
ENDBRANCH   4   7
TORSDOF 1
ENDMDL
