MODEL 1
REMARK minimizedAffinity -2.96581626
REMARK minimizedRMSD -1
REMARK  1 active torsions:
REMARK  status: ('A' for Active; 'I' for Inactive)
REMARK    1  A    between atoms: C3_4  and  O_7 
ROOT
ATOM      1  C   UNL d   1      -5.940  -2.707   4.758  0.00  0.00    -0.033 A 
ATOM      2  C1  UNL d   1      -5.648  -2.022   3.577  0.00  0.00     0.039 A 
ATOM      3  C2  UNL d   1      -5.419  -0.645   3.605  0.00  0.00    -0.080 A 
ATOM      4  C3  UNL d   1      -5.484   0.034   4.819  0.00  0.00     0.150 A 
ATOM      5  C4  UNL d   1      -5.771  -0.643   6.000  0.00  0.00    -0.007 A 
ATOM      6  C5  UNL d   1      -6.000  -2.018   5.969  0.00  0.00     0.039 A 
ENDROOT
BRANCH   4   7
ATOM      7  O   UNL d   1      -5.272   1.378   4.896  0.00  0.00    -0.526 OA
ATOM      8  H5  UNL d   1      -5.114   1.717   3.999  0.00  0.00     0.418 HD
ENDBRANCH   4   7
TORSDOF 1
ENDMDL
