MODEL 1
REMARK minimizedAffinity 0.702415645
REMARK minimizedRMSD -1
REMARK  1 active torsions:
REMARK  status: ('A' for Active; 'I' for Inactive)
REMARK    1  A    between atoms: C3_4  and  O_7 
ROOT
ATOM      1  C   UNL d   1       0.762  -0.580  -0.396  0.00  0.00    -0.033 A 
ATOM      2  C1  UNL d   1       0.195   0.666  -0.667  0.00  0.00     0.039 A 
ATOM      3  C2  UNL d   1      -0.070   1.557   0.375  0.00  0.00    -0.080 A 
ATOM      4  C3  UNL d   1       0.237   1.189   1.683  0.00  0.00     0.150 A 
ATOM      5  C4  UNL d   1       0.806  -0.049   1.960  0.00  0.00    -0.007 A 
ATOM      6  C5  UNL d   1       1.070  -0.937   0.918  0.00  0.00     0.039 A 
ENDROOT
BRANCH   4   7
ATOM      7  O   UNL d   1      -0.008   2.023   2.733  0.00  0.00    -0.526 OA
ATOM      8  H5  UNL d   1      -0.428   2.830   2.394  0.00  0.00     0.418 HD
ENDBRANCH   4   7
TORSDOF 1
ENDMDL
