MODEL 1
REMARK minimizedAffinity -3.1741643
REMARK minimizedRMSD -1
REMARK  1 active torsions:
REMARK  status: ('A' for Active; 'I' for Inactive)
REMARK    1  A    between atoms: N_2  and  C1_3 
ROOT
ATOM      1  C1  UNL d   1       0.236   0.065  -0.080  0.00  0.00     0.143 A 
ATOM      2  C2  UNL d   1       0.764   0.054   1.215  0.00  0.00    -0.057 A 
ATOM      3  C3  UNL d   1       0.387   1.014   2.162  0.00  0.00     0.033 A 
ATOM      4  C4  UNL d   1      -0.507   2.023   1.819  0.00  0.00    -0.042 A 
ATOM      5  C5  UNL d   1      -1.026   2.068   0.530  0.00  0.00     0.033 A 
ATOM      6  C6  UNL d   1      -0.650   1.103  -0.409  0.00  0.00    -0.057 A 
ENDROOT
BRANCH   1   7
ATOM      7  N   UNL d   1       0.646  -0.803  -1.095  0.00  0.00    -0.732 N 
ATOM      8  C   UNL d   1       0.085  -2.133  -1.199  0.00  0.00     0.284 C 
ATOM      9  H3  UNL d   1       0.762  -0.329  -1.988  0.00  0.00     0.395 HD
ENDBRANCH   1   7
TORSDOF 1
ENDMDL
