MODEL 1
REMARK minimizedAffinity -5.20440626
REMARK minimizedRMSD -1
REMARK  1 active torsions:
REMARK  status: ('A' for Active; 'I' for Inactive)
REMARK    1  A    between atoms: N_2  and  C1_3 
ROOT
ATOM      1  C1  UNL d   1      -0.487   0.806   0.259  0.00  0.00     0.143 A 
ATOM      2  C2  UNL d   1      -0.667   1.610   1.390  0.00  0.00    -0.057 A 
ATOM      3  C3  UNL d   1      -0.799   2.999   1.279  0.00  0.00     0.033 A 
ATOM      4  C4  UNL d   1      -0.723   3.614   0.034  0.00  0.00    -0.042 A 
ATOM      5  C5  UNL d   1      -0.519   2.838  -1.101  0.00  0.00     0.033 A 
ATOM      6  C6  UNL d   1      -0.395   1.450  -0.985  0.00  0.00    -0.057 A 
ENDROOT
BRANCH   1   7
ATOM      7  N   UNL d   1      -0.251  -0.570   0.312  0.00  0.00    -0.732 N 
ATOM      8  C   UNL d   1       0.217  -1.284  -0.856  0.00  0.00     0.284 C 
ATOM      9  H3  UNL d   1       0.197  -0.854   1.180  0.00  0.00     0.395 HD
ENDBRANCH   1   7
TORSDOF 1
ENDMDL
