MODEL 1
REMARK minimizedAffinity -4.30974913
REMARK minimizedRMSD -1
REMARK  1 active torsions:
REMARK  status: ('A' for Active; 'I' for Inactive)
REMARK    1  A    between atoms: N_2  and  C1_3 
ROOT
ATOM      1  C1  UNL d   1      -0.370   0.828   0.196  0.00  0.00     0.143 A 
ATOM      2  C2  UNL d   1      -0.948   1.194   1.416  0.00  0.00    -0.057 A 
ATOM      3  C3  UNL d   1      -1.469   2.479   1.616  0.00  0.00     0.033 A 
ATOM      4  C4  UNL d   1      -1.393   3.432   0.606  0.00  0.00    -0.042 A 
ATOM      5  C5  UNL d   1      -0.800   3.098  -0.606  0.00  0.00     0.033 A 
ATOM      6  C6  UNL d   1      -0.288   1.812  -0.803  0.00  0.00    -0.057 A 
ENDROOT
BRANCH   1   7
ATOM      7  N   UNL d   1       0.253  -0.401  -0.032  0.00  0.00    -0.732 N 
ATOM      8  C   UNL d   1      -0.528  -1.572  -0.369  0.00  0.00     0.284 C 
ATOM      9  H3  UNL d   1       1.113  -0.308  -0.567  0.00  0.00     0.395 HD
ENDBRANCH   1   7
TORSDOF 1
ENDMDL
