MODEL 1
REMARK minimizedAffinity -4.40671873
REMARK minimizedRMSD -1
REMARK  0 active torsions:
REMARK  status: ('A' for Active; 'I' for Inactive)
ROOT
ATOM      1  C   UNL d   1      -1.311   1.125   2.324  0.00  0.00     0.020 A 
ATOM      2  C1  UNL d   1      -2.035   0.489   1.317  0.00  0.00     0.020 A 
ATOM      3  C2  UNL d   1      -1.372  -0.036   0.206  0.00  0.00     0.034 A 
ATOM      4  C3  UNL d   1       0.019   0.075   0.098  0.00  0.00     0.017 A 
ATOM      5  C4  UNL d   1       0.745   0.714   1.110  0.00  0.00     0.017 A 
ATOM      6  C5  UNL d   1       0.076   1.238   2.221  0.00  0.00     0.034 A 
ATOM      7 Cl   UNL d   1       2.463   0.889   1.048  0.00  0.00    -0.070 Cl
ATOM      8 Cl1  UNL d   1       0.773  -0.597  -1.304  0.00  0.00    -0.070 Cl
ENDROOT
TORSDOF 0
ENDMDL
