MODEL 1
REMARK minimizedAffinity -2.71370029
REMARK minimizedRMSD -1
REMARK  0 active torsions:
REMARK  status: ('A' for Active; 'I' for Inactive)
ROOT
ATOM      1  C   UNL d   1       0.227  -0.963  -0.961  0.00  0.00     0.020 A 
ATOM      2  C1  UNL d   1      -1.044  -0.416  -0.789  0.00  0.00     0.020 A 
ATOM      3  C2  UNL d   1      -1.339   0.316   0.363  0.00  0.00     0.034 A 
ATOM      4  C3  UNL d   1      -0.361   0.503   1.347  0.00  0.00     0.017 A 
ATOM      5  C4  UNL d   1       0.914  -0.046   1.173  0.00  0.00     0.017 A 
ATOM      6  C5  UNL d   1       1.204  -0.778   0.018  0.00  0.00     0.034 A 
ATOM      7 Cl   UNL d   1       2.172   0.143   2.344  0.00  0.00    -0.070 Cl
ATOM      8 Cl1  UNL d   1      -0.795   1.420   2.746  0.00  0.00    -0.070 Cl
ENDROOT
TORSDOF 0
ENDMDL
