MODEL 1
REMARK minimizedAffinity -3.3196764
REMARK minimizedRMSD -1
REMARK  0 active torsions:
REMARK  status: ('A' for Active; 'I' for Inactive)
ROOT
ATOM      1  C   UNL d   1      -0.048   0.280   1.929  0.00  0.00     0.020 A 
ATOM      2  C1  UNL d   1      -1.120   1.141   2.159  0.00  0.00     0.020 A 
ATOM      3  C2  UNL d   1      -1.672   1.865   1.101  0.00  0.00     0.034 A 
ATOM      4  C3  UNL d   1      -1.153   1.731  -0.192  0.00  0.00     0.017 A 
ATOM      5  C4  UNL d   1      -0.076   0.866  -0.421  0.00  0.00     0.017 A 
ATOM      6  C5  UNL d   1       0.473   0.143   0.642  0.00  0.00     0.034 A 
ATOM      7 Cl   UNL d   1       0.619   0.648  -1.988  0.00  0.00    -0.070 Cl
ATOM      8 Cl1  UNL d   1      -1.885   2.657  -1.453  0.00  0.00    -0.070 Cl
ENDROOT
TORSDOF 0
ENDMDL
