MODEL 1
REMARK minimizedAffinity -1.98745012
REMARK minimizedRMSD -1
REMARK  0 active torsions:
REMARK  status: ('A' for Active; 'I' for Inactive)
ROOT
ATOM      1  C   UNL d   1      -1.208   1.017   2.083  0.00  0.00     0.020 A 
ATOM      2  C1  UNL d   1      -1.709   1.422   0.847  0.00  0.00     0.020 A 
ATOM      3  C2  UNL d   1      -1.053   1.047  -0.328  0.00  0.00     0.034 A 
ATOM      4  C3  UNL d   1       0.106   0.266  -0.269  0.00  0.00     0.017 A 
ATOM      5  C4  UNL d   1       0.608  -0.140   0.973  0.00  0.00     0.017 A 
ATOM      6  C5  UNL d   1      -0.052   0.237   2.146  0.00  0.00     0.034 A 
ATOM      7 Cl   UNL d   1       2.033  -1.106   1.126  0.00  0.00    -0.070 Cl
ATOM      8 Cl1  UNL d   1       0.865  -0.161  -1.762  0.00  0.00    -0.070 Cl
ENDROOT
TORSDOF 0
ENDMDL
