MODEL 1
REMARK minimizedAffinity -3.48764133
REMARK minimizedRMSD -1
REMARK  0 active torsions:
REMARK  status: ('A' for Active; 'I' for Inactive)
ROOT
ATOM      1  C   UNL d   1       0.139  -1.113  -0.685  0.00  0.00     0.020 A 
ATOM      2  C1  UNL d   1       1.119  -0.711   0.222  0.00  0.00     0.020 A 
ATOM      3  C2  UNL d   1       0.805   0.202   1.230  0.00  0.00     0.034 A 
ATOM      4  C3  UNL d   1      -0.493   0.716   1.335  0.00  0.00     0.017 A 
ATOM      5  C4  UNL d   1      -1.476   0.312   0.424  0.00  0.00     0.017 A 
ATOM      6  C5  UNL d   1      -1.155  -0.603  -0.584  0.00  0.00     0.034 A 
ATOM      7 Cl   UNL d   1      -3.099   0.903   0.489  0.00  0.00    -0.070 Cl
ATOM      8 Cl1  UNL d   1      -0.811   1.842   2.606  0.00  0.00    -0.070 Cl
ENDROOT
TORSDOF 0
ENDMDL
