MODEL 1
REMARK minimizedAffinity -4.11376143
REMARK minimizedRMSD -1
REMARK  0 active torsions:
REMARK  status: ('A' for Active; 'I' for Inactive)
ROOT
ATOM      1  C   UNL d   1      -0.913   1.060   2.946  0.00  0.00     0.020 A 
ATOM      2  C1  UNL d   1       0.417   1.244   2.570  0.00  0.00     0.020 A 
ATOM      3  C2  UNL d   1       0.842   0.859   1.297  0.00  0.00     0.034 A 
ATOM      4  C3  UNL d   1      -0.063   0.289   0.395  0.00  0.00     0.017 A 
ATOM      5  C4  UNL d   1      -1.398   0.104   0.773  0.00  0.00     0.017 A 
ATOM      6  C5  UNL d   1      -1.818   0.492   2.049  0.00  0.00     0.034 A 
ATOM      7 Cl   UNL d   1      -2.573  -0.593  -0.285  0.00  0.00    -0.070 Cl
ATOM      8 Cl1  UNL d   1       0.532  -0.164  -1.163  0.00  0.00    -0.070 Cl
ENDROOT
TORSDOF 0
ENDMDL
