MODEL 1
REMARK minimizedAffinity -0.372806758
REMARK minimizedRMSD -1
REMARK  1 active torsions:
REMARK  status: ('A' for Active; 'I' for Inactive)
REMARK    1  A    between atoms: C1_2  and  C2_3 
ROOT
ATOM      1  C2  UNL d   1       0.626   1.611   0.956  0.00  0.00    -0.076 A 
ATOM      2  C3  UNL d   1      -0.387   2.580   1.071  0.00  0.00     0.004 A 
ATOM      3  C4  UNL d   1      -1.728   2.239   0.903  0.00  0.00    -0.003 A 
ATOM      4  C5  UNL d   1      -2.079   0.924   0.618  0.00  0.00     0.000 A 
ATOM      5  C6  UNL d   1      -1.089  -0.053   0.518  0.00  0.00     0.000 A 
ATOM      6  C7  UNL d   1       0.267   0.270   0.700  0.00  0.00    -0.073 A 
ATOM      7  C8  UNL d   1       1.293  -0.822   0.575  0.00  0.00     0.078 C 
ENDROOT
BRANCH   1   8
ATOM      8  C1  UNL d   1       2.065   2.044   1.121  0.00  0.00     0.053 C 
ATOM      9  C   UNL d   1       2.260   2.977   2.306  0.00  0.00     0.018 C 
ENDBRANCH   1   8
TORSDOF 1
ENDMDL
