MODEL 1
REMARK minimizedAffinity 1.58192074
REMARK minimizedRMSD -1
REMARK  1 active torsions:
REMARK  status: ('A' for Active; 'I' for Inactive)
REMARK    1  A    between atoms: C1_2  and  C2_3 
ROOT
ATOM      1  C2  UNL d   1      -0.080   3.259   1.912  0.00  0.00    -0.076 A 
ATOM      2  C3  UNL d   1       1.278   3.184   1.559  0.00  0.00     0.004 A 
ATOM      3  C4  UNL d   1       2.277   3.266   2.527  0.00  0.00    -0.003 A 
ATOM      4  C5  UNL d   1       1.934   3.423   3.865  0.00  0.00     0.000 A 
ATOM      5  C6  UNL d   1       0.591   3.481   4.236  0.00  0.00     0.000 A 
ATOM      6  C7  UNL d   1      -0.429   3.384   3.274  0.00  0.00    -0.073 A 
ATOM      7  C8  UNL d   1      -1.860   3.460   3.729  0.00  0.00     0.078 C 
ENDROOT
BRANCH   1   8
ATOM      8  C1  UNL d   1      -1.119   3.192   0.815  0.00  0.00     0.053 C 
ATOM      9  C   UNL d   1      -1.509   1.764   0.469  0.00  0.00     0.018 C 
ENDBRANCH   1   8
TORSDOF 1
ENDMDL
