MODEL 1
REMARK minimizedAffinity 10.209692
REMARK minimizedRMSD -1
REMARK  1 active torsions:
REMARK  status: ('A' for Active; 'I' for Inactive)
REMARK    1  A    between atoms: C1_2  and  C2_3 
ROOT
ATOM      1  C2  UNL d   1      -1.535   1.757   0.513  0.00  0.00    -0.076 A 
ATOM      2  C3  UNL d   1      -2.910   1.824   0.793  0.00  0.00     0.004 A 
ATOM      3  C4  UNL d   1      -3.657   0.666   1.002  0.00  0.00    -0.003 A 
ATOM      4  C5  UNL d   1      -3.040  -0.579   0.935  0.00  0.00     0.000 A 
ATOM      5  C6  UNL d   1      -1.673  -0.663   0.675  0.00  0.00     0.000 A 
ATOM      6  C7  UNL d   1      -0.902   0.495   0.478  0.00  0.00    -0.073 A 
ATOM      7  C8  UNL d   1       0.568   0.345   0.196  0.00  0.00     0.078 C 
ENDROOT
BRANCH   1   8
ATOM      8  C1  UNL d   1      -0.782   3.045   0.268  0.00  0.00     0.053 C 
ATOM      9  C   UNL d   1       0.229   3.346   1.364  0.00  0.00     0.018 C 
ENDBRANCH   1   8
TORSDOF 1
ENDMDL
