MODEL 1
REMARK minimizedAffinity 9.99145031
REMARK minimizedRMSD -1
REMARK  1 active torsions:
REMARK  status: ('A' for Active; 'I' for Inactive)
REMARK    1  A    between atoms: C1_2  and  C2_3 
ROOT
ATOM      1  C2  UNL d   1       1.732   1.665   0.385  0.00  0.00    -0.076 A 
ATOM      2  C3  UNL d   1       2.755   2.355   1.058  0.00  0.00     0.004 A 
ATOM      3  C4  UNL d   1       2.459   3.269   2.068  0.00  0.00    -0.003 A 
ATOM      4  C5  UNL d   1       1.136   3.507   2.422  0.00  0.00     0.000 A 
ATOM      5  C6  UNL d   1       0.109   2.818   1.777  0.00  0.00     0.000 A 
ATOM      6  C7  UNL d   1       0.391   1.881   0.768  0.00  0.00    -0.073 A 
ATOM      7  C8  UNL d   1      -0.756   1.172   0.101  0.00  0.00     0.078 C 
ENDROOT
BRANCH   1   8
ATOM      8  C1  UNL d   1       2.111   0.706  -0.721  0.00  0.00     0.053 C 
ATOM      9  C   UNL d   1       2.543   1.422  -1.991  0.00  0.00     0.018 C 
ENDBRANCH   1   8
TORSDOF 1
ENDMDL
