MODEL 1
REMARK minimizedAffinity 1.96769559
REMARK minimizedRMSD -1
REMARK  1 active torsions:
REMARK  status: ('A' for Active; 'I' for Inactive)
REMARK    1  A    between atoms: C1_2  and  C2_3 
ROOT
ATOM      1  C2  UNL d   1      -1.101   1.724   0.657  0.00  0.00    -0.076 A 
ATOM      2  C3  UNL d   1      -2.488   1.514   0.747  0.00  0.00     0.004 A 
ATOM      3  C4  UNL d   1      -3.019   0.225   0.768  0.00  0.00    -0.003 A 
ATOM      4  C5  UNL d   1      -2.171  -0.875   0.700  0.00  0.00     0.000 A 
ATOM      5  C6  UNL d   1      -0.791  -0.685   0.628  0.00  0.00     0.000 A 
ATOM      6  C7  UNL d   1      -0.239   0.607   0.622  0.00  0.00    -0.073 A 
ATOM      7  C8  UNL d   1       1.256   0.753   0.537  0.00  0.00     0.078 C 
ENDROOT
BRANCH   1   8
ATOM      8  C1  UNL d   1      -0.585   3.144   0.611  0.00  0.00     0.053 C 
ATOM      9  C   UNL d   1      -0.015   3.601   1.946  0.00  0.00     0.018 C 
ENDBRANCH   1   8
TORSDOF 1
ENDMDL
