MODEL 1
REMARK minimizedAffinity 4.55588913
REMARK minimizedRMSD -1
REMARK  1 active torsions:
REMARK  status: ('A' for Active; 'I' for Inactive)
REMARK    1  A    between atoms: C1_2  and  C2_3 
ROOT
ATOM      1  C2  UNL d   1      -2.726  -3.490  -0.525  0.00  0.00    -0.076 A 
ATOM      2  C3  UNL d   1      -3.970  -3.593   0.122  0.00  0.00     0.004 A 
ATOM      3  C4  UNL d   1      -4.513  -4.836   0.440  0.00  0.00    -0.003 A 
ATOM      4  C5  UNL d   1      -3.820  -5.998   0.116  0.00  0.00     0.000 A 
ATOM      5  C6  UNL d   1      -2.577  -5.915  -0.510  0.00  0.00     0.000 A 
ATOM      6  C7  UNL d   1      -2.008  -4.668  -0.823  0.00  0.00    -0.073 A 
ATOM      7  C8  UNL d   1      -0.668  -4.637  -1.504  0.00  0.00     0.078 C 
ENDROOT
BRANCH   1   8
ATOM      8  C1  UNL d   1      -2.200  -2.115  -0.870  0.00  0.00     0.053 C 
ATOM      9  C   UNL d   1      -1.630  -1.390   0.339  0.00  0.00     0.018 C 
ENDBRANCH   1   8
TORSDOF 1
ENDMDL
