MODEL 1
REMARK minimizedAffinity 0.290779263
REMARK minimizedRMSD -1
REMARK  1 active torsions:
REMARK  status: ('A' for Active; 'I' for Inactive)
REMARK    1  A    between atoms: C1_2  and  C2_3 
ROOT
ATOM      1  C2  UNL d   1       1.165   1.813   1.282  0.00  0.00    -0.076 A 
ATOM      2  C3  UNL d   1       0.205   2.804   1.547  0.00  0.00     0.004 A 
ATOM      3  C4  UNL d   1      -1.140   2.600   1.241  0.00  0.00    -0.003 A 
ATOM      4  C5  UNL d   1      -1.546   1.401   0.666  0.00  0.00     0.000 A 
ATOM      5  C6  UNL d   1      -0.609   0.400   0.412  0.00  0.00     0.000 A 
ATOM      6  C7  UNL d   1       0.748   0.583   0.730  0.00  0.00    -0.073 A 
ATOM      7  C8  UNL d   1       1.716  -0.528   0.429  0.00  0.00     0.078 C 
ENDROOT
BRANCH   1   8
ATOM      8  C1  UNL d   1       2.613   2.101   1.611  0.00  0.00     0.053 C 
ATOM      9  C   UNL d   1       2.789   2.685   3.004  0.00  0.00     0.018 C 
ENDBRANCH   1   8
TORSDOF 1
ENDMDL
