MODEL 1
REMARK minimizedAffinity 2.77988052
REMARK minimizedRMSD -1
REMARK  1 active torsions:
REMARK  status: ('A' for Active; 'I' for Inactive)
REMARK    1  A    between atoms: C1_2  and  C2_3 
ROOT
ATOM      1  C2  UNL d   1       3.182   2.020   0.820  0.00  0.00    -0.076 A 
ATOM      2  C3  UNL d   1       4.586   2.043   0.752  0.00  0.00     0.004 A 
ATOM      3  C4  UNL d   1       5.334   2.824   1.632  0.00  0.00    -0.003 A 
ATOM      4  C5  UNL d   1       4.690   3.594   2.594  0.00  0.00     0.000 A 
ATOM      5  C6  UNL d   1       3.299   3.569   2.687  0.00  0.00     0.000 A 
ATOM      6  C7  UNL d   1       2.531   2.775   1.818  0.00  0.00    -0.073 A 
ATOM      7  C8  UNL d   1       1.034   2.791   1.960  0.00  0.00     0.078 C 
ENDROOT
BRANCH   1   8
ATOM      8  C1  UNL d   1       2.423   1.175  -0.178  0.00  0.00     0.053 C 
ATOM      9  C   UNL d   1       3.260   0.818  -1.396  0.00  0.00     0.018 C 
ENDBRANCH   1   8
TORSDOF 1
ENDMDL
