MODEL 1
REMARK minimizedAffinity 6.91932392
REMARK minimizedRMSD -1
REMARK  1 active torsions:
REMARK  status: ('A' for Active; 'I' for Inactive)
REMARK    1  A    between atoms: C1_2  and  C2_3 
ROOT
ATOM      1  C2  UNL d   1       0.026   0.752   0.322  0.00  0.00    -0.076 A 
ATOM      2  C3  UNL d   1      -0.409  -0.576   0.172  0.00  0.00     0.004 A 
ATOM      3  C4  UNL d   1      -1.744  -0.921   0.377  0.00  0.00    -0.003 A 
ATOM      4  C5  UNL d   1      -2.666   0.057   0.735  0.00  0.00     0.000 A 
ATOM      5  C6  UNL d   1      -2.255   1.382   0.871  0.00  0.00     0.000 A 
ATOM      6  C7  UNL d   1      -0.916   1.750   0.651  0.00  0.00    -0.073 A 
ATOM      7  C8  UNL d   1      -0.527   3.193   0.818  0.00  0.00     0.078 C 
ENDROOT
BRANCH   1   8
ATOM      8  C1  UNL d   1       1.491   1.062   0.113  0.00  0.00     0.053 C 
ATOM      9  C   UNL d   1       2.038   0.456  -1.170  0.00  0.00     0.018 C 
ENDBRANCH   1   8
TORSDOF 1
ENDMDL
