MODEL 1
REMARK minimizedAffinity 1.286816
REMARK minimizedRMSD -1
REMARK  1 active torsions:
REMARK  status: ('A' for Active; 'I' for Inactive)
REMARK    1  A    between atoms: C1_2  and  C2_3 
ROOT
ATOM      1  C2  UNL d   1       0.713   1.697   1.094  0.00  0.00    -0.076 A 
ATOM      2  C3  UNL d   1      -0.166   2.778   1.282  0.00  0.00     0.004 A 
ATOM      3  C4  UNL d   1      -1.546   2.606   1.181  0.00  0.00    -0.003 A 
ATOM      4  C5  UNL d   1      -2.068   1.350   0.891  0.00  0.00     0.000 A 
ATOM      5  C6  UNL d   1      -1.211   0.264   0.718  0.00  0.00     0.000 A 
ATOM      6  C7  UNL d   1       0.181   0.417   0.833  0.00  0.00    -0.073 A 
ATOM      7  C8  UNL d   1       1.059  -0.788   0.631  0.00  0.00     0.078 C 
ENDROOT
BRANCH   1   8
ATOM      8  C1  UNL d   1       2.201   1.950   1.189  0.00  0.00     0.053 C 
ATOM      9  C   UNL d   1       2.571   2.808   2.389  0.00  0.00     0.018 C 
ENDBRANCH   1   8
TORSDOF 1
ENDMDL
