MODEL 1
REMARK minimizedAffinity -2.15065455
REMARK minimizedRMSD -1
REMARK  1 active torsions:
REMARK  status: ('A' for Active; 'I' for Inactive)
REMARK    1  A    between atoms: C1_2  and  C2_3 
ROOT
ATOM      1  C2  UNL d   1      -1.052  -1.660   0.945  0.00  0.00    -0.073 A 
ATOM      2  C3  UNL d   1      -0.870  -0.619   1.862  0.00  0.00    -0.002 A 
ATOM      3  C4  UNL d   1      -0.233   0.561   1.472  0.00  0.00     0.004 A 
ATOM      4  C5  UNL d   1       0.221   0.714   0.162  0.00  0.00    -0.004 A 
ATOM      5  C6  UNL d   1       0.037  -0.311  -0.772  0.00  0.00    -0.075 A 
ATOM      6  C7  UNL d   1       0.521  -0.163  -2.184  0.00  0.00     0.076 C 
ATOM      7  C8  UNL d   1      -0.601  -1.493  -0.372  0.00  0.00     0.001 A 
ENDROOT
BRANCH   1   8
ATOM      8  C1  UNL d   1      -1.745  -2.932   1.359  0.00  0.00     0.053 C 
ATOM      9  C   UNL d   1      -2.839  -3.330   0.381  0.00  0.00     0.018 C 
ENDBRANCH   1   8
TORSDOF 1
ENDMDL
