MODEL 1
REMARK minimizedAffinity -2.60117149
REMARK minimizedRMSD -1
REMARK  1 active torsions:
REMARK  status: ('A' for Active; 'I' for Inactive)
REMARK    1  A    between atoms: C1_2  and  C2_3 
ROOT
ATOM      1  C2  UNL d   1      -1.464  -1.710   0.650  0.00  0.00    -0.073 A 
ATOM      2  C3  UNL d   1      -1.577  -0.367   1.026  0.00  0.00    -0.002 A 
ATOM      3  C4  UNL d   1      -0.675   0.580   0.538  0.00  0.00     0.004 A 
ATOM      4  C5  UNL d   1       0.343   0.195  -0.335  0.00  0.00    -0.004 A 
ATOM      5  C6  UNL d   1       0.465  -1.141  -0.731  0.00  0.00    -0.075 A 
ATOM      6  C7  UNL d   1       1.555  -1.572  -1.667  0.00  0.00     0.076 C 
ATOM      7  C8  UNL d   1      -0.443  -2.086  -0.234  0.00  0.00     0.001 A 
ENDROOT
BRANCH   1   8
ATOM      8  C1  UNL d   1      -2.440  -2.734   1.170  0.00  0.00     0.053 C 
ATOM      9  C   UNL d   1      -3.129  -3.488   0.043  0.00  0.00     0.018 C 
ENDBRANCH   1   8
TORSDOF 1
ENDMDL
