MODEL 1
REMARK minimizedAffinity -5.62604856
REMARK minimizedRMSD -1
REMARK  1 active torsions:
REMARK  status: ('A' for Active; 'I' for Inactive)
REMARK    1  A    between atoms: C1_2  and  C2_3 
ROOT
ATOM      1  C2  UNL d   1      -0.297   0.426   0.155  0.00  0.00    -0.073 A 
ATOM      2  C3  UNL d   1      -1.370   0.544   1.046  0.00  0.00    -0.002 A 
ATOM      3  C4  UNL d   1      -1.882  -0.586   1.685  0.00  0.00     0.004 A 
ATOM      4  C5  UNL d   1      -1.323  -1.841   1.447  0.00  0.00    -0.004 A 
ATOM      5  C6  UNL d   1      -0.243  -1.978   0.569  0.00  0.00    -0.075 A 
ATOM      6  C7  UNL d   1       0.368  -3.321   0.299  0.00  0.00     0.076 C 
ATOM      7  C8  UNL d   1       0.264  -0.839  -0.072  0.00  0.00     0.001 A 
ENDROOT
BRANCH   1   8
ATOM      8  C1  UNL d   1       0.263   1.644  -0.534  0.00  0.00     0.053 C 
ATOM      9  C   UNL d   1       1.384   2.287   0.268  0.00  0.00     0.018 C 
ENDBRANCH   1   8
TORSDOF 1
ENDMDL
