MODEL 1
REMARK minimizedAffinity -5.47767067
REMARK minimizedRMSD -1
REMARK  1 active torsions:
REMARK  status: ('A' for Active; 'I' for Inactive)
REMARK    1  A    between atoms: C1_2  and  C2_3 
ROOT
ATOM      1  C2  UNL d   1       0.620   4.494   1.700  0.00  0.00    -0.073 A 
ATOM      2  C3  UNL d   1       2.015   4.392   1.691  0.00  0.00    -0.002 A 
ATOM      3  C4  UNL d   1       2.660   3.630   0.715  0.00  0.00     0.004 A 
ATOM      4  C5  UNL d   1       1.918   2.969  -0.263  0.00  0.00    -0.004 A 
ATOM      5  C6  UNL d   1       0.523   3.069  -0.278  0.00  0.00    -0.075 A 
ATOM      6  C7  UNL d   1      -0.290   2.363  -1.323  0.00  0.00     0.076 C 
ATOM      7  C8  UNL d   1      -0.117   3.834   0.706  0.00  0.00     0.001 A 
ENDROOT
BRANCH   1   8
ATOM      8  C1  UNL d   1      -0.080   5.321   2.747  0.00  0.00     0.053 C 
ATOM      9  C   UNL d   1      -1.536   5.580   2.390  0.00  0.00     0.018 C 
ENDBRANCH   1   8
TORSDOF 1
ENDMDL
