MODEL 1
REMARK minimizedAffinity -4.64530373
REMARK minimizedRMSD -1
REMARK  1 active torsions:
REMARK  status: ('A' for Active; 'I' for Inactive)
REMARK    1  A    between atoms: C1_2  and  C2_3 
ROOT
ATOM      1  C2  UNL d   1      -1.482  -1.764   0.745  0.00  0.00    -0.073 A 
ATOM      2  C3  UNL d   1      -0.671  -2.640   0.015  0.00  0.00    -0.002 A 
ATOM      3  C4  UNL d   1       0.402  -2.151  -0.732  0.00  0.00     0.004 A 
ATOM      4  C5  UNL d   1       0.678  -0.784  -0.751  0.00  0.00    -0.004 A 
ATOM      5  C6  UNL d   1      -0.114   0.106  -0.019  0.00  0.00    -0.075 A 
ATOM      6  C7  UNL d   1       0.168   1.580  -0.031  0.00  0.00     0.076 C 
ATOM      7  C8  UNL d   1      -1.191  -0.392   0.727  0.00  0.00     0.001 A 
ENDROOT
BRANCH   1   8
ATOM      8  C1  UNL d   1      -2.637  -2.288   1.558  0.00  0.00     0.053 C 
ATOM      9  C   UNL d   1      -3.617  -3.084   0.710  0.00  0.00     0.018 C 
ENDBRANCH   1   8
TORSDOF 1
ENDMDL
