MODEL 1
REMARK minimizedAffinity -4.20124435
REMARK minimizedRMSD -1
REMARK  1 active torsions:
REMARK  status: ('A' for Active; 'I' for Inactive)
REMARK    1  A    between atoms: C1_2  and  C2_3 
ROOT
ATOM      1  C2  UNL d   1      -0.281   0.115  -0.141  0.00  0.00    -0.073 A 
ATOM      2  C3  UNL d   1      -1.317   0.303   0.780  0.00  0.00    -0.002 A 
ATOM      3  C4  UNL d   1      -1.823  -0.778   1.504  0.00  0.00     0.004 A 
ATOM      4  C5  UNL d   1      -1.294  -2.055   1.319  0.00  0.00    -0.004 A 
ATOM      5  C6  UNL d   1      -0.249  -2.262   0.412  0.00  0.00    -0.075 A 
ATOM      6  C7  UNL d   1       0.330  -3.630   0.201  0.00  0.00     0.076 C 
ATOM      7  C8  UNL d   1       0.251  -1.171  -0.312  0.00  0.00     0.001 A 
ENDROOT
BRANCH   1   8
ATOM      8  C1  UNL d   1       0.273   1.280  -0.919  0.00  0.00     0.053 C 
ATOM      9  C   UNL d   1       0.356   2.542  -0.075  0.00  0.00     0.018 C 
ENDBRANCH   1   8
TORSDOF 1
ENDMDL
