MODEL 1
REMARK minimizedAffinity -4.63793659
REMARK minimizedRMSD -1
REMARK  1 active torsions:
REMARK  status: ('A' for Active; 'I' for Inactive)
REMARK    1  A    between atoms: C1_2  and  C2_3 
ROOT
ATOM      1  C2  UNL d   1       0.071  -0.144   0.040  0.00  0.00    -0.073 A 
ATOM      2  C3  UNL d   1      -0.888  -0.137   1.060  0.00  0.00    -0.002 A 
ATOM      3  C4  UNL d   1      -1.490  -1.327   1.469  0.00  0.00     0.004 A 
ATOM      4  C5  UNL d   1      -1.136  -2.536   0.869  0.00  0.00    -0.004 A 
ATOM      5  C6  UNL d   1      -0.171  -2.564  -0.143  0.00  0.00    -0.075 A 
ATOM      6  C7  UNL d   1       0.220  -3.856  -0.800  0.00  0.00     0.076 C 
ATOM      7  C8  UNL d   1       0.428  -1.364  -0.550  0.00  0.00     0.001 A 
ENDROOT
BRANCH   1   8
ATOM      8  C1  UNL d   1       0.729   1.139  -0.400  0.00  0.00     0.053 C 
ATOM      9  C   UNL d   1       0.125   2.354   0.285  0.00  0.00     0.018 C 
ENDBRANCH   1   8
TORSDOF 1
ENDMDL
