MODEL 1
REMARK minimizedAffinity 14.1166525
REMARK minimizedRMSD -1
REMARK  0 active torsions:
REMARK  status: ('A' for Active; 'I' for Inactive)
ROOT
ATOM      1  C   UNL d   1       1.876  -3.344   5.998  0.00  0.00     0.023 A 
ATOM      2  C1  UNL d   1       1.009  -2.252   6.000  0.00  0.00     0.003 A 
ATOM      3  C2  UNL d   1       0.897  -1.446   4.865  0.00  0.00     0.048 A 
ATOM      4  C3  UNL d   1       1.655  -1.739   3.731  0.00  0.00     0.023 A 
ATOM      5  C4  UNL d   1       2.523  -2.832   3.725  0.00  0.00     0.048 A 
ATOM      6  C5  UNL d   1       2.632  -3.634   4.862  0.00  0.00     0.003 A 
ATOM      7  I   UNL d   1       1.490  -0.541   2.041  0.00  0.00    -0.146 I 
ENDROOT
TORSDOF 0
ENDMDL
