MODEL 1
REMARK minimizedAffinity 8.36112022
REMARK minimizedRMSD -1
REMARK  0 active torsions:
REMARK  status: ('A' for Active; 'I' for Inactive)
ROOT
ATOM      1  C   UNL d   1       1.867  -1.462   1.558  0.00  0.00     0.023 A 
ATOM      2  C1  UNL d   1       2.608  -2.632   1.728  0.00  0.00     0.003 A 
ATOM      3  C2  UNL d   1       2.767  -3.181   3.002  0.00  0.00     0.048 A 
ATOM      4  C3  UNL d   1       2.181  -2.556   4.102  0.00  0.00     0.023 A 
ATOM      5  C4  UNL d   1       1.438  -1.386   3.937  0.00  0.00     0.048 A 
ATOM      6  C5  UNL d   1       1.283  -0.840   2.662  0.00  0.00     0.003 A 
ATOM      7  I   UNL d   1       2.416  -3.371   5.999  0.00  0.00    -0.146 I 
ENDROOT
TORSDOF 0
ENDMDL
