MODEL 1
REMARK minimizedAffinity 2.48100972
REMARK minimizedRMSD -1
REMARK  0 active torsions:
REMARK  status: ('A' for Active; 'I' for Inactive)
ROOT
ATOM      1  C   UNL d   1      -4.305   5.360  -3.758  0.00  0.00     0.023 A 
ATOM      2  C1  UNL d   1      -3.792   4.608  -4.815  0.00  0.00     0.003 A 
ATOM      3  C2  UNL d   1      -3.507   3.253  -4.636  0.00  0.00     0.048 A 
ATOM      4  C3  UNL d   1      -3.739   2.656  -3.397  0.00  0.00     0.023 A 
ATOM      5  C4  UNL d   1      -4.253   3.404  -2.337  0.00  0.00     0.048 A 
ATOM      6  C5  UNL d   1      -4.536   4.759  -2.520  0.00  0.00     0.003 A 
ATOM      7  I   UNL d   1      -3.316   0.639  -3.128  0.00  0.00    -0.146 I 
ENDROOT
TORSDOF 0
ENDMDL
