MODEL 1
REMARK minimizedAffinity 9.73162746
REMARK minimizedRMSD -1
REMARK  0 active torsions:
REMARK  status: ('A' for Active; 'I' for Inactive)
ROOT
ATOM      1  C   UNL d   1      -4.262   4.374  -4.082  0.00  0.00     0.023 A 
ATOM      2  C1  UNL d   1      -3.600   3.344  -4.749  0.00  0.00     0.003 A 
ATOM      3  C2  UNL d   1      -3.099   2.255  -4.032  0.00  0.00     0.048 A 
ATOM      4  C3  UNL d   1      -3.265   2.203  -2.648  0.00  0.00     0.023 A 
ATOM      5  C4  UNL d   1      -3.927   3.232  -1.977  0.00  0.00     0.048 A 
ATOM      6  C5  UNL d   1      -4.426   4.319  -2.698  0.00  0.00     0.003 A 
ATOM      7  I   UNL d   1      -2.520   0.584  -1.579  0.00  0.00    -0.146 I 
ENDROOT
TORSDOF 0
ENDMDL
