MODEL 1
REMARK minimizedAffinity 7.43825436
REMARK minimizedRMSD -1
REMARK  0 active torsions:
REMARK  status: ('A' for Active; 'I' for Inactive)
ROOT
ATOM      1  C   UNL d   1       1.498  -0.599   1.800  0.00  0.00     0.023 A 
ATOM      2  C1  UNL d   1       1.100  -0.007   2.999  0.00  0.00     0.003 A 
ATOM      3  C2  UNL d   1       1.264  -0.691   4.205  0.00  0.00     0.048 A 
ATOM      4  C3  UNL d   1       1.827  -1.967   4.206  0.00  0.00     0.023 A 
ATOM      5  C4  UNL d   1       2.227  -2.563   3.009  0.00  0.00     0.048 A 
ATOM      6  C5  UNL d   1       2.060  -1.876   1.805  0.00  0.00     0.003 A 
ATOM      7  I   UNL d   1       2.071  -2.988   6.000  0.00  0.00    -0.146 I 
ENDROOT
TORSDOF 0
ENDMDL
