MODEL 1
REMARK minimizedAffinity 7.12605858
REMARK minimizedRMSD -1
REMARK  0 active torsions:
REMARK  status: ('A' for Active; 'I' for Inactive)
ROOT
ATOM      1  C   UNL d   1      -1.836  -4.247  -0.628  0.00  0.00     0.023 A 
ATOM      2  C1  UNL d   1      -2.269  -3.215   0.204  0.00  0.00     0.003 A 
ATOM      3  C2  UNL d   1      -1.376  -2.609   1.090  0.00  0.00     0.048 A 
ATOM      4  C3  UNL d   1      -0.050  -3.040   1.137  0.00  0.00     0.023 A 
ATOM      5  C4  UNL d   1       0.388  -4.072   0.306  0.00  0.00     0.048 A 
ATOM      6  C5  UNL d   1      -0.510  -4.675  -0.578  0.00  0.00     0.003 A 
ATOM      7  I   UNL d   1       1.282  -2.139   2.454  0.00  0.00    -0.146 I 
ENDROOT
TORSDOF 0
ENDMDL
