MODEL 1
REMARK minimizedAffinity 8.86100006
REMARK minimizedRMSD -1
REMARK  0 active torsions:
REMARK  status: ('A' for Active; 'I' for Inactive)
ROOT
ATOM      1  C   UNL d   1      -5.672   5.174  -3.135  0.00  0.00     0.023 A 
ATOM      2  C1  UNL d   1      -4.423   5.189  -3.755  0.00  0.00     0.003 A 
ATOM      3  C2  UNL d   1      -3.498   4.177  -3.488  0.00  0.00     0.048 A 
ATOM      4  C3  UNL d   1      -3.829   3.154  -2.600  0.00  0.00     0.023 A 
ATOM      5  C4  UNL d   1      -5.078   3.135  -1.978  0.00  0.00     0.048 A 
ATOM      6  C5  UNL d   1      -6.000   4.149  -2.248  0.00  0.00     0.003 A 
ATOM      7  I   UNL d   1      -2.454   1.648  -2.201  0.00  0.00    -0.146 I 
ENDROOT
TORSDOF 0
ENDMDL
