MODEL 1
REMARK minimizedAffinity 14.7872152
REMARK minimizedRMSD -1
REMARK  0 active torsions:
REMARK  status: ('A' for Active; 'I' for Inactive)
ROOT
ATOM      1  C   UNL d   1      -1.259  -5.353  -0.423  0.00  0.00     0.023 A 
ATOM      2  C1  UNL d   1       0.125  -5.518  -0.363  0.00  0.00     0.003 A 
ATOM      3  C2  UNL d   1       0.912  -4.584   0.314  0.00  0.00     0.048 A 
ATOM      4  C3  UNL d   1       0.309  -3.488   0.929  0.00  0.00     0.023 A 
ATOM      5  C4  UNL d   1      -1.076  -3.319   0.872  0.00  0.00     0.048 A 
ATOM      6  C5  UNL d   1      -1.858  -4.255   0.193  0.00  0.00     0.003 A 
ATOM      7  I   UNL d   1       1.478  -2.097   1.937  0.00  0.00    -0.146 I 
ENDROOT
TORSDOF 0
ENDMDL
