MODEL 1
REMARK minimizedAffinity 7.54538536
REMARK minimizedRMSD -1
REMARK  0 active torsions:
REMARK  status: ('A' for Active; 'I' for Inactive)
ROOT
ATOM      1  C   UNL d   1       3.712  -2.015  -3.316  0.00  0.00     0.023 A 
ATOM      2  C1  UNL d   1       4.020  -3.347  -3.040  0.00  0.00     0.003 A 
ATOM      3  C2  UNL d   1       4.675  -3.681  -1.853  0.00  0.00     0.048 A 
ATOM      4  C3  UNL d   1       5.018  -2.679  -0.946  0.00  0.00     0.023 A 
ATOM      5  C4  UNL d   1       4.711  -1.345  -1.218  0.00  0.00     0.048 A 
ATOM      6  C5  UNL d   1       4.057  -1.015  -2.407  0.00  0.00     0.003 A 
ATOM      7  I   UNL d   1       5.993  -3.175   0.821  0.00  0.00    -0.146 I 
ENDROOT
TORSDOF 0
ENDMDL
