MODEL 1
REMARK minimizedAffinity 6.50604248
REMARK minimizedRMSD -1
REMARK  1 active torsions:
REMARK  status: ('A' for Active; 'I' for Inactive)
REMARK    1  A    between atoms: C1_2  and  C2_3 
ROOT
ATOM      1  C2  UNL d   1       2.923  -0.887  -1.871  0.00  0.00    -0.077 A 
ATOM      2  C3  UNL d   1       2.617  -1.700  -0.771  0.00  0.00     0.002 A 
ATOM      3  C4  UNL d   1       2.452  -1.141   0.497  0.00  0.00     0.002 A 
ATOM      4  C5  UNL d   1       2.588   0.234   0.677  0.00  0.00    -0.004 A 
ATOM      5  C6  UNL d   1       2.894   1.052  -0.410  0.00  0.00     0.002 A 
ATOM      6  C7  UNL d   1       3.060   0.494  -1.679  0.00  0.00     0.002 A 
ENDROOT
BRANCH   1   7
ATOM      7  C1  UNL d   1       3.052  -1.482  -3.249  0.00  0.00     0.055 C 
ATOM      8  C   UNL d   1       3.098  -3.002  -3.193  0.00  0.00     0.019 C 
ENDBRANCH   1   7
TORSDOF 1
ENDMDL
