MODEL 1
REMARK minimizedAffinity 11.0561571
REMARK minimizedRMSD -1
REMARK  1 active torsions:
REMARK  status: ('A' for Active; 'I' for Inactive)
REMARK    1  A    between atoms: C1_2  and  C2_3 
ROOT
ATOM      1  C2  UNL d   1      -4.926   0.593  -0.771  0.00  0.00    -0.077 A 
ATOM      2  C3  UNL d   1      -5.656   1.362  -1.687  0.00  0.00     0.002 A 
ATOM      3  C4  UNL d   1      -5.537   2.753  -1.695  0.00  0.00     0.002 A 
ATOM      4  C5  UNL d   1      -4.685   3.386  -0.792  0.00  0.00    -0.004 A 
ATOM      5  C6  UNL d   1      -3.955   2.630   0.124  0.00  0.00     0.002 A 
ATOM      6  C7  UNL d   1      -4.074   1.239   0.134  0.00  0.00     0.002 A 
ENDROOT
BRANCH   1   7
ATOM      7  C1  UNL d   1      -5.016  -0.911  -0.794  0.00  0.00     0.055 C 
ATOM      8  C   UNL d   1      -3.924  -1.518  -1.664  0.00  0.00     0.019 C 
ENDBRANCH   1   7
TORSDOF 1
ENDMDL
