MODEL 1
REMARK minimizedAffinity 6.29792547
REMARK minimizedRMSD -1
REMARK  1 active torsions:
REMARK  status: ('A' for Active; 'I' for Inactive)
REMARK    1  A    between atoms: C1_2  and  C2_3 
ROOT
ATOM      1  C2  UNL d   1       3.767   1.845  -0.911  0.00  0.00    -0.077 A 
ATOM      2  C3  UNL d   1       4.110   1.545   0.415  0.00  0.00     0.002 A 
ATOM      3  C4  UNL d   1       3.301   0.703   1.180  0.00  0.00     0.002 A 
ATOM      4  C5  UNL d   1       2.146   0.152   0.627  0.00  0.00    -0.004 A 
ATOM      5  C6  UNL d   1       1.796   0.446  -0.690  0.00  0.00     0.002 A 
ATOM      6  C7  UNL d   1       2.603   1.288  -1.456  0.00  0.00     0.002 A 
ENDROOT
BRANCH   1   7
ATOM      7  C1  UNL d   1       4.664   2.713  -1.754  0.00  0.00     0.055 C 
ATOM      8  C   UNL d   1       5.618   3.526  -0.890  0.00  0.00     0.019 C 
ENDBRANCH   1   7
TORSDOF 1
ENDMDL
