MODEL 1
REMARK minimizedAffinity 10.9959202
REMARK minimizedRMSD -1
REMARK  1 active torsions:
REMARK  status: ('A' for Active; 'I' for Inactive)
REMARK    1  A    between atoms: C1_2  and  C2_3 
ROOT
ATOM      1  C2  UNL d   1       2.916   1.118  -0.493  0.00  0.00    -0.077 A 
ATOM      2  C3  UNL d   1       3.499   0.740   0.725  0.00  0.00     0.002 A 
ATOM      3  C4  UNL d   1       3.271  -0.533   1.251  0.00  0.00     0.002 A 
ATOM      4  C5  UNL d   1       2.464  -1.439   0.565  0.00  0.00    -0.004 A 
ATOM      5  C6  UNL d   1       1.878  -1.071  -0.645  0.00  0.00     0.002 A 
ATOM      6  C7  UNL d   1       2.104   0.201  -1.173  0.00  0.00     0.002 A 
ENDROOT
BRANCH   1   7
ATOM      7  C1  UNL d   1       3.201   2.473  -1.087  0.00  0.00     0.055 C 
ATOM      8  C   UNL d   1       4.427   2.436  -1.987  0.00  0.00     0.019 C 
ENDBRANCH   1   7
TORSDOF 1
ENDMDL
