MODEL 1
REMARK minimizedAffinity 2.81588602
REMARK minimizedRMSD -1
REMARK  1 active torsions:
REMARK  status: ('A' for Active; 'I' for Inactive)
REMARK    1  A    between atoms: C1_2  and  C2_3 
ROOT
ATOM      1  C2  UNL d   1      -3.660   1.014   0.139  0.00  0.00    -0.077 A 
ATOM      2  C3  UNL d   1      -2.304   1.346   0.012  0.00  0.00     0.002 A 
ATOM      3  C4  UNL d   1      -1.579   0.939  -1.110  0.00  0.00     0.002 A 
ATOM      4  C5  UNL d   1      -2.203   0.202  -2.114  0.00  0.00    -0.004 A 
ATOM      5  C6  UNL d   1      -3.551  -0.135  -1.996  0.00  0.00     0.002 A 
ATOM      6  C7  UNL d   1      -4.276   0.270  -0.875  0.00  0.00     0.002 A 
ENDROOT
BRANCH   1   7
ATOM      7  C1  UNL d   1      -4.455   1.495   1.325  0.00  0.00     0.055 C 
ATOM      8  C   UNL d   1      -4.391   3.010   1.458  0.00  0.00     0.019 C 
ENDBRANCH   1   7
TORSDOF 1
ENDMDL
