MODEL 1
REMARK minimizedAffinity 17.8426971
REMARK minimizedRMSD -1
REMARK  1 active torsions:
REMARK  status: ('A' for Active; 'I' for Inactive)
REMARK    1  A    between atoms: C1_2  and  C2_3 
ROOT
ATOM      1  C2  UNL d   1      -3.773   1.616   0.170  0.00  0.00    -0.077 A 
ATOM      2  C3  UNL d   1      -2.613   1.610  -0.618  0.00  0.00     0.002 A 
ATOM      3  C4  UNL d   1      -2.429   0.632  -1.597  0.00  0.00     0.002 A 
ATOM      4  C5  UNL d   1      -3.402  -0.344  -1.800  0.00  0.00    -0.004 A 
ATOM      5  C6  UNL d   1      -4.558  -0.348  -1.020  0.00  0.00     0.002 A 
ATOM      6  C7  UNL d   1      -4.743   0.628  -0.040  0.00  0.00     0.002 A 
ENDROOT
BRANCH   1   7
ATOM      7  C1  UNL d   1      -3.996   2.699   1.193  0.00  0.00     0.055 C 
ATOM      8  C   UNL d   1      -3.962   4.080   0.553  0.00  0.00     0.019 C 
ENDBRANCH   1   7
TORSDOF 1
ENDMDL
