MODEL 1
REMARK minimizedAffinity 1.59012139
REMARK minimizedRMSD -1
REMARK  0 active torsions:
REMARK  status: ('A' for Active; 'I' for Inactive)
ROOT
ATOM      1  C4' PXY d   1      -3.399  -0.916   3.612  0.00  0.00     0.077 C 
ATOM      2  C1' PXY d   1      -2.436   2.558  -0.907  0.00  0.00     0.077 C 
ATOM      3  C1  PXY d   1      -2.698   1.641   0.272  0.00  0.00    -0.082 A 
ATOM      4  C2  PXY d   1      -2.333   2.017   1.487  0.00  0.00     0.003 A 
ATOM      5  C3  PXY d   1      -2.534   1.186   2.559  0.00  0.00     0.003 A 
ATOM      6  C4  PXY d   1      -3.163  -0.019   2.394  0.00  0.00    -0.082 A 
ATOM      7  C5  PXY d   1      -3.548  -0.404   1.159  0.00  0.00     0.003 A 
ATOM      8  C6  PXY d   1      -3.298   0.435   0.078  0.00  0.00     0.003 A 
ENDROOT
TORSDOF 0
ENDMDL
