MODEL 1
REMARK minimizedAffinity 0.810243428
REMARK minimizedRMSD -1
REMARK  0 active torsions:
REMARK  status: ('A' for Active; 'I' for Inactive)
ROOT
ATOM      1  C4' PXY d   1      -5.772  -1.317   0.160  0.00  0.00     0.077 C 
ATOM      2  C1' PXY d   1      -1.346  -0.348   3.750  0.00  0.00     0.077 C 
ATOM      3  C1  PXY d   1      -2.500  -0.596   2.799  0.00  0.00    -0.082 A 
ATOM      4  C2  PXY d   1      -3.727  -0.721   3.278  0.00  0.00     0.003 A 
ATOM      5  C3  PXY d   1      -4.778  -0.978   2.435  0.00  0.00     0.003 A 
ATOM      6  C4  PXY d   1      -4.578  -1.055   1.082  0.00  0.00    -0.082 A 
ATOM      7  C5  PXY d   1      -3.330  -0.919   0.585  0.00  0.00     0.003 A 
ATOM      8  C6  PXY d   1      -2.271  -0.699   1.461  0.00  0.00     0.003 A 
ENDROOT
TORSDOF 0
ENDMDL
