MODEL 1
REMARK minimizedAffinity -2.04644561
REMARK minimizedRMSD -1
REMARK  0 active torsions:
REMARK  status: ('A' for Active; 'I' for Inactive)
ROOT
ATOM      1  C4' PXY d   1      -3.278  -1.883   4.113  0.00  0.00     0.077 C 
ATOM      2  C1' PXY d   1      -2.621   2.082  -0.042  0.00  0.00     0.077 C 
ATOM      3  C1  PXY d   1      -2.794   1.033   1.039  0.00  0.00    -0.082 A 
ATOM      4  C2  PXY d   1      -3.317   1.375   2.205  0.00  0.00     0.003 A 
ATOM      5  C3  PXY d   1      -3.451   0.445   3.204  0.00  0.00     0.003 A 
ATOM      6  C4  PXY d   1      -3.094  -0.859   2.989  0.00  0.00    -0.082 A 
ATOM      7  C5  PXY d   1      -2.569  -1.218   1.799  0.00  0.00     0.003 A 
ATOM      8  C6  PXY d   1      -2.403  -0.250   0.812  0.00  0.00     0.003 A 
ENDROOT
TORSDOF 0
ENDMDL
