MODEL 1
REMARK minimizedAffinity 4.7828021
REMARK minimizedRMSD -1
REMARK  0 active torsions:
REMARK  status: ('A' for Active; 'I' for Inactive)
ROOT
ATOM      1  C4' PXY d   1      -3.181  -1.828   4.108  0.00  0.00     0.077 C 
ATOM      2  C1' PXY d   1      -2.337   1.553  -0.504  0.00  0.00     0.077 C 
ATOM      3  C1  PXY d   1      -2.552   0.675   0.713  0.00  0.00    -0.082 A 
ATOM      4  C2  PXY d   1      -2.795  -0.616   0.553  0.00  0.00     0.003 A 
ATOM      5  C3  PXY d   1      -3.024  -1.418   1.641  0.00  0.00     0.003 A 
ATOM      6  C4  PXY d   1      -2.949  -0.905   2.909  0.00  0.00    -0.082 A 
ATOM      7  C5  PXY d   1      -2.690   0.408   3.080  0.00  0.00     0.003 A 
ATOM      8  C6  PXY d   1      -2.502   1.214   1.961  0.00  0.00     0.003 A 
ENDROOT
TORSDOF 0
ENDMDL
