MODEL 1
REMARK minimizedAffinity 1.59293282
REMARK minimizedRMSD -1
REMARK  0 active torsions:
REMARK  status: ('A' for Active; 'I' for Inactive)
ROOT
ATOM      1  C4' PXY d   1       5.995  -1.680   5.280  0.00  0.00     0.077 C 
ATOM      2  C1' PXY d   1       4.019   2.744   2.129  0.00  0.00     0.077 C 
ATOM      3  C1  PXY d   1       4.548   1.590   2.958  0.00  0.00    -0.082 A 
ATOM      4  C2  PXY d   1       4.068   0.373   2.765  0.00  0.00     0.003 A 
ATOM      5  C3  PXY d   1       4.513  -0.677   3.528  0.00  0.00     0.003 A 
ATOM      6  C4  PXY d   1       5.497  -0.487   4.460  0.00  0.00    -0.082 A 
ATOM      7  C5  PXY d   1       6.000   0.750   4.655  0.00  0.00     0.003 A 
ATOM      8  C6  PXY d   1       5.506   1.810   3.899  0.00  0.00     0.003 A 
ENDROOT
TORSDOF 0
ENDMDL
