MODEL 1
REMARK minimizedAffinity -5.30504274
REMARK minimizedRMSD -1
REMARK  0 active torsions:
REMARK  status: ('A' for Active; 'I' for Inactive)
ROOT
ATOM      1  C4' PXY d   1       2.493  -2.668  -2.123  0.00  0.00     0.077 C 
ATOM      2  C1' PXY d   1       4.221   1.393  -5.856  0.00  0.00     0.077 C 
ATOM      3  C1  PXY d   1       3.760   0.336  -4.871  0.00  0.00    -0.082 A 
ATOM      4  C2  PXY d   1       4.533  -0.709  -4.624  0.00  0.00     0.003 A 
ATOM      5  C3  PXY d   1       4.118  -1.689  -3.760  0.00  0.00     0.003 A 
ATOM      6  C4  PXY d   1       2.922  -1.572  -3.102  0.00  0.00    -0.082 A 
ATOM      7  C5  PXY d   1       2.133  -0.504  -3.342  0.00  0.00     0.003 A 
ATOM      8  C6  PXY d   1       2.554   0.460  -4.253  0.00  0.00     0.003 A 
ENDROOT
TORSDOF 0
ENDMDL
