MODEL 1
REMARK minimizedAffinity 0.0403602831
REMARK minimizedRMSD -1
REMARK  0 active torsions:
REMARK  status: ('A' for Active; 'I' for Inactive)
ROOT
ATOM      1  C4' PXY d   1      -1.454  -0.448   3.310  0.00  0.00     0.077 C 
ATOM      2  C1' PXY d   1      -5.910  -1.591  -0.190  0.00  0.00     0.077 C 
ATOM      3  C1  PXY d   1      -4.734  -1.299   0.721  0.00  0.00    -0.082 A 
ATOM      4  C2  PXY d   1      -4.952  -0.914   1.968  0.00  0.00     0.003 A 
ATOM      5  C3  PXY d   1      -3.900  -0.616   2.795  0.00  0.00     0.003 A 
ATOM      6  C4  PXY d   1      -2.611  -0.763   2.358  0.00  0.00    -0.082 A 
ATOM      7  C5  PXY d   1      -2.380  -1.165   1.090  0.00  0.00     0.003 A 
ATOM      8  C6  PXY d   1      -3.462  -1.423   0.253  0.00  0.00     0.003 A 
ENDROOT
TORSDOF 0
ENDMDL
