MODEL 1
REMARK minimizedAffinity -0.808555126
REMARK minimizedRMSD -1
REMARK  0 active torsions:
REMARK  status: ('A' for Active; 'I' for Inactive)
ROOT
ATOM      1  C4' PXY d   1       1.118   1.302  -2.993  0.00  0.00     0.077 C 
ATOM      2  C1' PXY d   1       5.999   0.560  -6.000  0.00  0.00     0.077 C 
ATOM      3  C1  PXY d   1       4.714   0.762  -5.221  0.00  0.00    -0.082 A 
ATOM      4  C2  PXY d   1       4.710   0.585  -3.909  0.00  0.00     0.003 A 
ATOM      5  C3  PXY d   1       3.549   0.733  -3.194  0.00  0.00     0.003 A 
ATOM      6  C4  PXY d   1       2.394   1.118  -3.819  0.00  0.00    -0.082 A 
ATOM      7  C5  PXY d   1       2.393   1.311  -5.155  0.00  0.00     0.003 A 
ATOM      8  C6  PXY d   1       3.572   1.116  -5.869  0.00  0.00     0.003 A 
ENDROOT
TORSDOF 0
ENDMDL
