MODEL 1
REMARK minimizedAffinity 3.64264369
REMARK minimizedRMSD -1
REMARK  0 active torsions:
REMARK  status: ('A' for Active; 'I' for Inactive)
ROOT
ATOM      1  C4' PXY d   1       5.999  -0.608   4.755  0.00  0.00     0.077 C 
ATOM      2  C1' PXY d   1       2.960   2.645   1.068  0.00  0.00     0.077 C 
ATOM      3  C1  PXY d   1       3.748   1.783   2.034  0.00  0.00    -0.082 A 
ATOM      4  C2  PXY d   1       4.564   2.354   2.904  0.00  0.00     0.003 A 
ATOM      5  C3  PXY d   1       5.309   1.587   3.763  0.00  0.00     0.003 A 
ATOM      6  C4  PXY d   1       5.177   0.224   3.767  0.00  0.00    -0.082 A 
ATOM      7  C5  PXY d   1       4.338  -0.366   2.889  0.00  0.00     0.003 A 
ATOM      8  C6  PXY d   1       3.622   0.428   1.998  0.00  0.00     0.003 A 
ENDROOT
TORSDOF 0
ENDMDL
