MODEL 1
REMARK minimizedAffinity 7.38540554
REMARK minimizedRMSD -1
REMARK  0 active torsions:
REMARK  status: ('A' for Active; 'I' for Inactive)
ROOT
ATOM      1  C4' PXY d   1      -2.447  -0.361  -0.987  0.00  0.00     0.077 C 
ATOM      2  C1' PXY d   1      -3.228   0.678   4.646  0.00  0.00     0.077 C 
ATOM      3  C1  PXY d   1      -3.027   0.417   3.166  0.00  0.00    -0.082 A 
ATOM      4  C2  PXY d   1      -3.074  -0.823   2.707  0.00  0.00     0.003 A 
ATOM      5  C3  PXY d   1      -2.863  -1.079   1.377  0.00  0.00     0.003 A 
ATOM      6  C4  PXY d   1      -2.654  -0.051   0.498  0.00  0.00    -0.082 A 
ATOM      7  C5  PXY d   1      -2.615   1.219   0.956  0.00  0.00     0.003 A 
ATOM      8  C6  PXY d   1      -2.791   1.454   2.317  0.00  0.00     0.003 A 
ENDROOT
TORSDOF 0
ENDMDL
