MODEL 1
REMARK minimizedAffinity 6.79863119
REMARK minimizedRMSD -1
REMARK  0 active torsions:
REMARK  status: ('A' for Active; 'I' for Inactive)
ROOT
ATOM      1  C4' PXY d   1      -2.665  -2.183   1.341  0.00  0.00     0.077 C 
ATOM      2  C1' PXY d   1      -4.143   1.556   5.495  0.00  0.00     0.077 C 
ATOM      3  C1  PXY d   1      -3.766   0.568   4.408  0.00  0.00    -0.082 A 
ATOM      4  C2  PXY d   1      -2.502   0.460   4.032  0.00  0.00     0.003 A 
ATOM      5  C3  PXY d   1      -2.148  -0.405   3.029  0.00  0.00     0.003 A 
ATOM      6  C4  PXY d   1      -3.090  -1.206   2.441  0.00  0.00    -0.082 A 
ATOM      7  C5  PXY d   1      -4.380  -1.109   2.825  0.00  0.00     0.003 A 
ATOM      8  C6  PXY d   1      -4.725  -0.195   3.817  0.00  0.00     0.003 A 
ENDROOT
TORSDOF 0
ENDMDL
