MODEL 1
REMARK minimizedAffinity -4.9914546
REMARK minimizedRMSD -1
REMARK  0 active torsions:
REMARK  status: ('A' for Active; 'I' for Inactive)
ROOT
ATOM      1  C4' PXY d   1      -2.397   1.829  -0.396  0.00  0.00     0.077 C 
ATOM      2  C1' PXY d   1      -3.556  -0.475   4.778  0.00  0.00     0.077 C 
ATOM      3  C1  PXY d   1      -3.255   0.141   3.426  0.00  0.00    -0.082 A 
ATOM      4  C2  PXY d   1      -3.379  -0.591   2.331  0.00  0.00     0.003 A 
ATOM      5  C3  PXY d   1      -3.080  -0.060   1.103  0.00  0.00     0.003 A 
ATOM      6  C4  PXY d   1      -2.700   1.251   0.990  0.00  0.00    -0.082 A 
ATOM      7  C5  PXY d   1      -2.581   2.008   2.101  0.00  0.00     0.003 A 
ATOM      8  C6  PXY d   1      -2.850   1.437   3.342  0.00  0.00     0.003 A 
ENDROOT
TORSDOF 0
ENDMDL
