MODEL 1
REMARK minimizedAffinity 1.17505991
REMARK minimizedRMSD -1
REMARK  0 active torsions:
REMARK  status: ('A' for Active; 'I' for Inactive)
ROOT
ATOM      1  C4' PXY d   1      -2.485  -1.898   0.232  0.00  0.00     0.077 C 
ATOM      2  C1' PXY d   1      -3.020   2.295   4.175  0.00  0.00     0.077 C 
ATOM      3  C1  PXY d   1      -2.882   1.204   3.131  0.00  0.00    -0.082 A 
ATOM      4  C2  PXY d   1      -3.042  -0.061   3.483  0.00  0.00     0.003 A 
ATOM      5  C3  PXY d   1      -2.890  -1.063   2.559  0.00  0.00     0.003 A 
ATOM      6  C4  PXY d   1      -2.624  -0.763   1.250  0.00  0.00    -0.082 A 
ATOM      7  C5  PXY d   1      -2.470   0.527   0.881  0.00  0.00     0.003 A 
ATOM      8  C6  PXY d   1      -2.588   1.526   1.843  0.00  0.00     0.003 A 
ENDROOT
TORSDOF 0
ENDMDL
