MODEL 1
REMARK minimizedAffinity 9.71954918
REMARK minimizedRMSD -1
REMARK  0 active torsions:
REMARK  status: ('A' for Active; 'I' for Inactive)
ROOT
ATOM      1  C4' PXY d   1       6.000   3.960   4.501  0.00  0.00     0.077 C 
ATOM      2  C1' PXY d   1       3.812  -0.736   1.937  0.00  0.00     0.077 C 
ATOM      3  C1  PXY d   1       4.390   0.488   2.619  0.00  0.00    -0.082 A 
ATOM      4  C2  PXY d   1       3.843   1.674   2.408  0.00  0.00     0.003 A 
ATOM      5  C3  PXY d   1       4.374   2.796   2.992  0.00  0.00     0.003 A 
ATOM      6  C4  PXY d   1       5.443   2.695   3.841  0.00  0.00    -0.082 A 
ATOM      7  C5  PXY d   1       6.000   1.487   4.069  0.00  0.00     0.003 A 
ATOM      8  C6  PXY d   1       5.472   0.366   3.435  0.00  0.00     0.003 A 
ENDROOT
TORSDOF 0
ENDMDL
