MODEL 1
REMARK minimizedAffinity -2.57263947
REMARK minimizedRMSD -1
REMARK  0 active torsions:
REMARK  status: ('A' for Active; 'I' for Inactive)
ROOT
ATOM      1  C4' PXY d   1      -1.824  -1.780   0.051  0.00  0.00     0.077 C 
ATOM      2  C1' PXY d   1      -3.766   1.384   4.482  0.00  0.00     0.077 C 
ATOM      3  C1  PXY d   1      -3.254   0.565   3.314  0.00  0.00    -0.082 A 
ATOM      4  C2  PXY d   1      -3.685  -0.675   3.145  0.00  0.00     0.003 A 
ATOM      5  C3  PXY d   1      -3.208  -1.440   2.112  0.00  0.00     0.003 A 
ATOM      6  C4  PXY d   1      -2.321  -0.913   1.211  0.00  0.00    -0.082 A 
ATOM      7  C5  PXY d   1      -1.886   0.355   1.370  0.00  0.00     0.003 A 
ATOM      8  C6  PXY d   1      -2.351   1.101   2.449  0.00  0.00     0.003 A 
ENDROOT
TORSDOF 0
ENDMDL
