MODEL 1
REMARK minimizedAffinity 6.46626329
REMARK minimizedRMSD -1
REMARK  0 active torsions:
REMARK  status: ('A' for Active; 'I' for Inactive)
ROOT
ATOM      1  C4' PXY d   1       3.753   3.369   1.700  0.00  0.00     0.077 C 
ATOM      2  C1' PXY d   1       6.000   0.020   5.841  0.00  0.00     0.077 C 
ATOM      3  C1  PXY d   1       5.416   0.909   4.761  0.00  0.00    -0.082 A 
ATOM      4  C2  PXY d   1       4.366   0.494   4.069  0.00  0.00     0.003 A 
ATOM      5  C3  PXY d   1       3.845   1.272   3.067  0.00  0.00     0.003 A 
ATOM      6  C4  PXY d   1       4.370   2.509   2.806  0.00  0.00    -0.082 A 
ATOM      7  C5  PXY d   1       5.434   2.943   3.515  0.00  0.00     0.003 A 
ATOM      8  C6  PXY d   1       5.974   2.121   4.500  0.00  0.00     0.003 A 
ENDROOT
TORSDOF 0
ENDMDL
