MODEL 1
REMARK minimizedAffinity -1.91623485
REMARK minimizedRMSD -1
REMARK  0 active torsions:
REMARK  status: ('A' for Active; 'I' for Inactive)
ROOT
ATOM      1  C4' PXY d   1      -0.528   1.837  -1.085  0.00  0.00     0.077 C 
ATOM      2  C1' PXY d   1      -5.144   4.389   1.279  0.00  0.00     0.077 C 
ATOM      3  C1  PXY d   1      -3.932   3.712   0.670  0.00  0.00    -0.082 A 
ATOM      4  C2  PXY d   1      -3.198   4.361  -0.219  0.00  0.00     0.003 A 
ATOM      5  C3  PXY d   1      -2.118   3.752  -0.804  0.00  0.00     0.003 A 
ATOM      6  C4  PXY d   1      -1.754   2.484  -0.437  0.00  0.00    -0.082 A 
ATOM      7  C5  PXY d   1      -2.492   1.819   0.477  0.00  0.00     0.003 A 
ATOM      8  C6  PXY d   1      -3.609   2.440   1.029  0.00  0.00     0.003 A 
ENDROOT
TORSDOF 0
ENDMDL
