MODEL 1
REMARK minimizedAffinity 2.06213593
REMARK minimizedRMSD -1
REMARK  0 active torsions:
REMARK  status: ('A' for Active; 'I' for Inactive)
ROOT
ATOM      1  C4' PXY d   1      -3.056  -1.113   2.988  0.00  0.00     0.077 C 
ATOM      2  C1' PXY d   1      -6.000  -0.025  -1.866  0.00  0.00     0.077 C 
ATOM      3  C1  PXY d   1      -5.237  -0.305  -0.586  0.00  0.00    -0.082 A 
ATOM      4  C2  PXY d   1      -3.925  -0.471  -0.629  0.00  0.00     0.003 A 
ATOM      5  C3  PXY d   1      -3.224  -0.757   0.514  0.00  0.00     0.003 A 
ATOM      6  C4  PXY d   1      -3.865  -0.820   1.722  0.00  0.00    -0.082 A 
ATOM      7  C5  PXY d   1      -5.202  -0.640   1.777  0.00  0.00     0.003 A 
ATOM      8  C6  PXY d   1      -5.901  -0.392   0.599  0.00  0.00     0.003 A 
ENDROOT
TORSDOF 0
ENDMDL
