MODEL 1
REMARK minimizedAffinity 0.130612552
REMARK minimizedRMSD -1
REMARK  0 active torsions:
REMARK  status: ('A' for Active; 'I' for Inactive)
ROOT
ATOM      1  C4' PXY d   1      -2.941  -0.155   3.125  0.00  0.00     0.077 C 
ATOM      2  C1' PXY d   1      -2.765   3.650  -1.224  0.00  0.00     0.077 C 
ATOM      3  C1  PXY d   1      -2.818   2.644  -0.091  0.00  0.00    -0.082 A 
ATOM      4  C2  PXY d   1      -2.653   3.054   1.156  0.00  0.00     0.003 A 
ATOM      5  C3  PXY d   1      -2.667   2.154   2.190  0.00  0.00     0.003 A 
ATOM      6  C4  PXY d   1      -2.904   0.827   1.950  0.00  0.00    -0.082 A 
ATOM      7  C5  PXY d   1      -3.084   0.402   0.682  0.00  0.00     0.003 A 
ATOM      8  C6  PXY d   1      -3.026   1.326  -0.358  0.00  0.00     0.003 A 
ENDROOT
TORSDOF 0
ENDMDL
