MODEL 1
REMARK minimizedAffinity 1.42875791
REMARK minimizedRMSD -1
REMARK  0 active torsions:
REMARK  status: ('A' for Active; 'I' for Inactive)
ROOT
ATOM      1  C4' PXY d   1       5.999  -0.791  -4.845  0.00  0.00     0.077 C 
ATOM      2  C1' PXY d   1       3.657   4.395  -5.862  0.00  0.00     0.077 C 
ATOM      3  C1  PXY d   1       4.259   3.030  -5.596  0.00  0.00    -0.082 A 
ATOM      4  C2  PXY d   1       5.426   2.939  -4.978  0.00  0.00     0.003 A 
ATOM      5  C3  PXY d   1       6.000   1.713  -4.757  0.00  0.00     0.003 A 
ATOM      6  C4  PXY d   1       5.349   0.567  -5.126  0.00  0.00    -0.082 A 
ATOM      7  C5  PXY d   1       4.154   0.651  -5.748  0.00  0.00     0.003 A 
ATOM      8  C6  PXY d   1       3.607   1.906  -5.999  0.00  0.00     0.003 A 
ENDROOT
TORSDOF 0
ENDMDL
