MODEL 1
REMARK minimizedAffinity 3.51728582
REMARK minimizedRMSD -1
REMARK  0 active torsions:
REMARK  status: ('A' for Active; 'I' for Inactive)
ROOT
ATOM      1  C   UNL d   1       2.397   4.414  -5.951  0.00  0.00     0.124 A 
ATOM      2  C1  UNL d   1       1.989   3.087  -5.956  0.00  0.00     0.062 A 
ATOM      3  C2  UNL d   1       2.932   2.064  -5.966  0.00  0.00     0.162 A 
ATOM      4  C3  UNL d   1       4.295   2.364  -5.970  0.00  0.00    -0.034 A 
ATOM      5  C4  UNL d   1       4.698   3.700  -5.966  0.00  0.00     0.162 A 
ATOM      6  C5  UNL d   1       3.751   4.719  -5.956  0.00  0.00     0.062 A 
ATOM      7  F   UNL d   1       4.148   6.000  -5.951  0.00  0.00    -0.097 F 
ATOM      8  F1  UNL d   1       6.000   4.023  -5.969  0.00  0.00    -0.096 F 
ATOM      9  I   UNL d   1       5.709   0.837  -5.985  0.00  0.00    -0.060 I 
ATOM     10  F2  UNL d   1       2.509   0.792  -5.971  0.00  0.00    -0.096 F 
ATOM     11  F3  UNL d   1       0.681   2.790  -5.952  0.00  0.00    -0.097 F 
ATOM     12  F4  UNL d   1       1.487   5.396  -5.942  0.00  0.00    -0.092 F 
ENDROOT
TORSDOF 0
ENDMDL
