MODEL 1
REMARK minimizedAffinity 14.7952442
REMARK minimizedRMSD -1
REMARK  0 active torsions:
REMARK  status: ('A' for Active; 'I' for Inactive)
ROOT
ATOM      1  C   UNL d   1       2.796  -3.472   1.137  0.00  0.00     0.124 A 
ATOM      2  C1  UNL d   1       2.323  -3.397  -0.166  0.00  0.00     0.062 A 
ATOM      3  C2  UNL d   1       3.088  -3.890  -1.218  0.00  0.00     0.162 A 
ATOM      4  C3  UNL d   1       4.336  -4.464  -0.973  0.00  0.00    -0.034 A 
ATOM      5  C4  UNL d   1       4.805  -4.535   0.340  0.00  0.00     0.162 A 
ATOM      6  C5  UNL d   1       4.036  -4.041   1.389  0.00  0.00     0.062 A 
ATOM      7  F   UNL d   1       4.495  -4.114   2.647  0.00  0.00    -0.097 F 
ATOM      8  F1  UNL d   1       6.000  -5.081   0.612  0.00  0.00    -0.096 F 
ATOM      9  I   UNL d   1       5.484  -5.203  -2.543  0.00  0.00    -0.060 I 
ATOM     10  F2  UNL d   1       2.606  -3.804  -2.467  0.00  0.00    -0.096 F 
ATOM     11  F3  UNL d   1       1.125  -2.847  -0.412  0.00  0.00    -0.097 F 
ATOM     12  F4  UNL d   1       2.057  -2.995   2.147  0.00  0.00    -0.092 F 
ENDROOT
TORSDOF 0
ENDMDL
