MODEL 1
REMARK minimizedAffinity 15.3387814
REMARK minimizedRMSD -1
REMARK  0 active torsions:
REMARK  status: ('A' for Active; 'I' for Inactive)
ROOT
ATOM      1  C   UNL d   1       2.654  -3.025  -0.169  0.00  0.00     0.124 A 
ATOM      2  C1  UNL d   1       3.668  -3.968  -0.070  0.00  0.00     0.062 A 
ATOM      3  C2  UNL d   1       4.382  -4.105   1.116  0.00  0.00     0.162 A 
ATOM      4  C3  UNL d   1       4.085  -3.297   2.214  0.00  0.00    -0.034 A 
ATOM      5  C4  UNL d   1       3.064  -2.351   2.106  0.00  0.00     0.162 A 
ATOM      6  C5  UNL d   1       2.353  -2.218   0.918  0.00  0.00     0.062 A 
ATOM      7  F   UNL d   1       1.374  -1.307   0.824  0.00  0.00    -0.097 F 
ATOM      8  F1  UNL d   1       2.752  -1.558   3.142  0.00  0.00    -0.096 F 
ATOM      9  I   UNL d   1       5.151  -3.498   3.990  0.00  0.00    -0.060 I 
ATOM     10  F2  UNL d   1       5.357  -5.024   1.184  0.00  0.00    -0.096 F 
ATOM     11  F3  UNL d   1       3.961  -4.749  -1.120  0.00  0.00    -0.097 F 
ATOM     12  F4  UNL d   1       1.968  -2.895  -1.313  0.00  0.00    -0.092 F 
ENDROOT
TORSDOF 0
ENDMDL
