MODEL 1
REMARK minimizedAffinity 8.74927807
REMARK minimizedRMSD -1
REMARK  0 active torsions:
REMARK  status: ('A' for Active; 'I' for Inactive)
ROOT
ATOM      1  C   UNL d   1       4.482  -4.571   1.045  0.00  0.00     0.124 A 
ATOM      2  C1  UNL d   1       3.598  -4.221   0.033  0.00  0.00     0.062 A 
ATOM      3  C2  UNL d   1       2.516  -3.390   0.306  0.00  0.00     0.162 A 
ATOM      4  C3  UNL d   1       2.311  -2.902   1.597  0.00  0.00    -0.034 A 
ATOM      5  C4  UNL d   1       3.203  -3.260   2.609  0.00  0.00     0.162 A 
ATOM      6  C5  UNL d   1       4.283  -4.090   2.332  0.00  0.00     0.062 A 
ATOM      7  F   UNL d   1       5.136  -4.428   3.310  0.00  0.00    -0.097 F 
ATOM      8  F1  UNL d   1       3.035  -2.808   3.861  0.00  0.00    -0.096 F 
ATOM      9  I   UNL d   1       0.693  -1.659   2.009  0.00  0.00    -0.060 I 
ATOM     10  F2  UNL d   1       1.678  -3.068  -0.691  0.00  0.00    -0.096 F 
ATOM     11  F3  UNL d   1       3.788  -4.685  -1.210  0.00  0.00    -0.097 F 
ATOM     12  F4  UNL d   1       5.522  -5.372   0.780  0.00  0.00    -0.092 F 
ENDROOT
TORSDOF 0
ENDMDL
