MODEL 1
REMARK minimizedAffinity 8.97729492
REMARK minimizedRMSD -1
REMARK  0 active torsions:
REMARK  status: ('A' for Active; 'I' for Inactive)
ROOT
ATOM      1  C   UNL d   1       4.667   2.173  -5.869  0.00  0.00     0.124 A 
ATOM      2  C1  UNL d   1       3.441   1.523  -5.926  0.00  0.00     0.062 A 
ATOM      3  C2  UNL d   1       2.260   2.259  -5.945  0.00  0.00     0.162 A 
ATOM      4  C3  UNL d   1       2.298   3.653  -5.908  0.00  0.00    -0.034 A 
ATOM      5  C4  UNL d   1       3.534   4.299  -5.850  0.00  0.00     0.162 A 
ATOM      6  C5  UNL d   1       4.712   3.559  -5.831  0.00  0.00     0.062 A 
ATOM      7  F   UNL d   1       5.895   4.188  -5.776  0.00  0.00    -0.097 F 
ATOM      8  F1  UNL d   1       3.607   5.637  -5.813  0.00  0.00    -0.096 F 
ATOM      9  I   UNL d   1       0.533   4.757  -5.936  0.00  0.00    -0.060 I 
ATOM     10  F2  UNL d   1       1.089   1.605  -6.000  0.00  0.00    -0.096 F 
ATOM     11  F3  UNL d   1       3.394   0.184  -5.962  0.00  0.00    -0.097 F 
ATOM     12  F4  UNL d   1       5.802   1.462  -5.850  0.00  0.00    -0.092 F 
ENDROOT
TORSDOF 0
ENDMDL
