MODEL 1
REMARK minimizedAffinity 18.1006584
REMARK minimizedRMSD -1
REMARK  0 active torsions:
REMARK  status: ('A' for Active; 'I' for Inactive)
ROOT
ATOM      1  C   UNL d   1       1.702  -2.014   0.635  0.00  0.00     0.124 A 
ATOM      2  C1  UNL d   1       1.605  -1.190   1.748  0.00  0.00     0.062 A 
ATOM      3  C2  UNL d   1       2.527  -1.303   2.785  0.00  0.00     0.162 A 
ATOM      4  C3  UNL d   1       3.555  -2.243   2.713  0.00  0.00    -0.034 A 
ATOM      5  C4  UNL d   1       3.646  -3.068   1.591  0.00  0.00     0.162 A 
ATOM      6  C5  UNL d   1       2.722  -2.952   0.558  0.00  0.00     0.062 A 
ATOM      7  F   UNL d   1       2.817  -3.748  -0.517  0.00  0.00    -0.097 F 
ATOM      8  F1  UNL d   1       4.622  -3.982   1.490  0.00  0.00    -0.096 F 
ATOM      9  I   UNL d   1       4.935  -2.414   4.262  0.00  0.00    -0.060 I 
ATOM     10  F2  UNL d   1       2.408  -0.494   3.849  0.00  0.00    -0.096 F 
ATOM     11  F3  UNL d   1       0.620  -0.284   1.826  0.00  0.00    -0.097 F 
ATOM     12  F4  UNL d   1       0.813  -1.904  -0.360  0.00  0.00    -0.092 F 
ENDROOT
TORSDOF 0
ENDMDL
