MODEL 1
REMARK minimizedAffinity 26.4517937
REMARK minimizedRMSD -1
REMARK  0 active torsions:
REMARK  status: ('A' for Active; 'I' for Inactive)
ROOT
ATOM      1  C   UNL d   1       5.599  -2.580   2.387  0.00  0.00     0.124 A 
ATOM      2  C1  UNL d   1       5.205  -3.874   2.073  0.00  0.00     0.062 A 
ATOM      3  C2  UNL d   1       4.831  -4.756   3.081  0.00  0.00     0.162 A 
ATOM      4  C3  UNL d   1       4.847  -4.348   4.415  0.00  0.00    -0.034 A 
ATOM      5  C4  UNL d   1       5.246  -3.046   4.724  0.00  0.00     0.162 A 
ATOM      6  C5  UNL d   1       5.619  -2.168   3.712  0.00  0.00     0.062 A 
ATOM      7  F   UNL d   1       5.999  -0.919   4.018  0.00  0.00    -0.097 F 
ATOM      8  F1  UNL d   1       5.273  -2.621   5.996  0.00  0.00    -0.096 F 
ATOM      9  I   UNL d   1       4.288  -5.665   5.927  0.00  0.00    -0.060 I 
ATOM     10  F2  UNL d   1       4.455  -6.000   2.748  0.00  0.00    -0.096 F 
ATOM     11  F3  UNL d   1       5.186  -4.275   0.793  0.00  0.00    -0.097 F 
ATOM     12  F4  UNL d   1       5.960  -1.733   1.414  0.00  0.00    -0.092 F 
ENDROOT
TORSDOF 0
ENDMDL
