MODEL 1
REMARK minimizedAffinity 3.37802172
REMARK minimizedRMSD -1
REMARK  0 active torsions:
REMARK  status: ('A' for Active; 'I' for Inactive)
ROOT
ATOM      1  C   UNL d   1       2.327   2.382  -5.974  0.00  0.00     0.124 A 
ATOM      2  C1  UNL d   1       3.665   2.013  -5.981  0.00  0.00     0.062 A 
ATOM      3  C2  UNL d   1       4.660   2.986  -5.989  0.00  0.00     0.162 A 
ATOM      4  C3  UNL d   1       4.320   4.339  -5.988  0.00  0.00    -0.034 A 
ATOM      5  C4  UNL d   1       2.972   4.703  -5.981  0.00  0.00     0.162 A 
ATOM      6  C5  UNL d   1       1.982   3.726  -5.974  0.00  0.00     0.062 A 
ATOM      7  F   UNL d   1       0.690   4.084  -5.967  0.00  0.00    -0.097 F 
ATOM      8  F1  UNL d   1       2.610   5.994  -5.980  0.00  0.00    -0.096 F 
ATOM      9  I   UNL d   1       5.804   5.798  -5.999  0.00  0.00    -0.060 I 
ATOM     10  F2  UNL d   1       5.945   2.601  -5.996  0.00  0.00    -0.096 F 
ATOM     11  F3  UNL d   1       4.001   0.715  -5.982  0.00  0.00    -0.097 F 
ATOM     12  F4  UNL d   1       1.372   1.443  -5.968  0.00  0.00    -0.092 F 
ENDROOT
TORSDOF 0
ENDMDL
