MODEL 1
REMARK minimizedAffinity 16.8587322
REMARK minimizedRMSD -1
REMARK  0 active torsions:
REMARK  status: ('A' for Active; 'I' for Inactive)
ROOT
ATOM      1  C   UNL d   1       0.246  -1.865   1.368  0.00  0.00     0.124 A 
ATOM      2  C1  UNL d   1       0.186  -3.246   1.240  0.00  0.00     0.062 A 
ATOM      3  C2  UNL d   1       1.251  -3.943   0.678  0.00  0.00     0.162 A 
ATOM      4  C3  UNL d   1       2.386  -3.261   0.240  0.00  0.00    -0.034 A 
ATOM      5  C4  UNL d   1       2.439  -1.872   0.371  0.00  0.00     0.162 A 
ATOM      6  C5  UNL d   1       1.372  -1.180   0.934  0.00  0.00     0.062 A 
ATOM      7  F   UNL d   1       1.431   0.154   1.057  0.00  0.00    -0.097 F 
ATOM      8  F1  UNL d   1       3.515  -1.185  -0.039  0.00  0.00    -0.096 F 
ATOM      9  I   UNL d   1       3.981  -4.300  -0.602  0.00  0.00    -0.060 I 
ATOM     10  F2  UNL d   1       1.166  -5.277   0.566  0.00  0.00    -0.096 F 
ATOM     11  F3  UNL d   1      -0.901  -3.910   1.658  0.00  0.00    -0.097 F 
ATOM     12  F4  UNL d   1      -0.781  -1.196   1.909  0.00  0.00    -0.092 F 
ENDROOT
TORSDOF 0
ENDMDL
