MODEL 1
REMARK minimizedAffinity 21.2940159
REMARK minimizedRMSD -1
REMARK  0 active torsions:
REMARK  status: ('A' for Active; 'I' for Inactive)
ROOT
ATOM      1  C   UNL d   1       4.185   3.832  -5.918  0.00  0.00     0.124 A 
ATOM      2  C1  UNL d   1       3.076   4.666  -5.919  0.00  0.00     0.062 A 
ATOM      3  C2  UNL d   1       1.795   4.127  -5.838  0.00  0.00     0.162 A 
ATOM      4  C3  UNL d   1       1.616   2.747  -5.753  0.00  0.00    -0.034 A 
ATOM      5  C4  UNL d   1       2.737   1.914  -5.754  0.00  0.00     0.162 A 
ATOM      6  C5  UNL d   1       4.015   2.457  -5.835  0.00  0.00     0.062 A 
ATOM      7  F   UNL d   1       5.085   1.650  -5.833  0.00  0.00    -0.097 F 
ATOM      8  F1  UNL d   1       2.601   0.582  -5.674  0.00  0.00    -0.096 F 
ATOM      9  I   UNL d   1      -0.298   1.937  -5.632  0.00  0.00    -0.060 I 
ATOM     10  F2  UNL d   1       0.741   4.957  -5.841  0.00  0.00    -0.096 F 
ATOM     11  F3  UNL d   1       3.238   5.994  -6.000  0.00  0.00    -0.097 F 
ATOM     12  F4  UNL d   1       5.416   4.353  -5.997  0.00  0.00    -0.092 F 
ENDROOT
TORSDOF 0
ENDMDL
