MODEL 1
REMARK minimizedAffinity 12.0726843
REMARK minimizedRMSD -1
REMARK  0 active torsions:
REMARK  status: ('A' for Active; 'I' for Inactive)
ROOT
ATOM      1  C   UNL d   1      -4.753   3.223  -4.710  0.00  0.00     0.124 A 
ATOM      2  C1  UNL d   1      -3.835   3.775  -3.826  0.00  0.00     0.062 A 
ATOM      3  C2  UNL d   1      -3.276   2.992  -2.820  0.00  0.00     0.162 A 
ATOM      4  C3  UNL d   1      -3.630   1.649  -2.693  0.00  0.00    -0.034 A 
ATOM      5  C4  UNL d   1      -4.554   1.102  -3.585  0.00  0.00     0.162 A 
ATOM      6  C5  UNL d   1      -5.111   1.888  -4.589  0.00  0.00     0.062 A 
ATOM      7  F   UNL d   1      -5.997   1.354  -5.442  0.00  0.00    -0.097 F 
ATOM      8  F1  UNL d   1      -4.917  -0.186  -3.492  0.00  0.00    -0.096 F 
ATOM      9  I   UNL d   1      -2.795   0.477  -1.190  0.00  0.00    -0.060 I 
ATOM     10  F2  UNL d   1      -2.392   3.552  -1.980  0.00  0.00    -0.096 F 
ATOM     11  F3  UNL d   1      -3.488   5.065  -3.940  0.00  0.00    -0.097 F 
ATOM     12  F4  UNL d   1      -5.290   3.978  -5.676  0.00  0.00    -0.092 F 
ENDROOT
TORSDOF 0
ENDMDL
