MODEL 1
REMARK minimizedAffinity -1.50418162
REMARK minimizedRMSD -1
REMARK  0 active torsions:
REMARK  status: ('A' for Active; 'I' for Inactive)
ROOT
ATOM      1  C1  DEN d   1      -2.972   2.963   0.328  0.00  0.00     0.130 A 
ATOM      2  C2  DEN d   1      -4.159   2.211   0.725  0.00  0.00    -0.031 A 
ATOM      3  C3  DEN d   1      -3.722   0.875   1.179  0.00  0.00     0.027 A 
ATOM      4  C4  DEN d   1      -1.336  -0.094   1.310  0.00  0.00     0.027 A 
ATOM      5  C5  DEN d   1      -0.004   0.165   1.071  0.00  0.00    -0.003 A 
ATOM      6  C6  DEN d   1       0.425   1.352   0.540  0.00  0.00     0.001 A 
ATOM      7  C7  DEN d   1      -0.483   2.343   0.272  0.00  0.00     0.017 A 
ATOM      8  C8  DEN d   1      -1.828   2.087   0.504  0.00  0.00    -0.094 A 
ATOM      9  C9  DEN d   1      -2.240   0.885   1.053  0.00  0.00    -0.072 A 
ENDROOT
TORSDOF 0
ENDMDL
