MODEL 1
REMARK minimizedAffinity 3.11886501
REMARK minimizedRMSD -1
REMARK  0 active torsions:
REMARK  status: ('A' for Active; 'I' for Inactive)
ROOT
ATOM      1  C1  DEN d   1      -0.768   1.412   1.822  0.00  0.00     0.130 A 
ATOM      2  C2  DEN d   1       0.499   1.516   1.102  0.00  0.00    -0.031 A 
ATOM      3  C3  DEN d   1       0.204   1.936  -0.282  0.00  0.00     0.027 A 
ATOM      4  C4  DEN d   1      -2.078   2.437  -1.374  0.00  0.00     0.027 A 
ATOM      5  C5  DEN d   1      -3.439   2.476  -1.164  0.00  0.00    -0.003 A 
ATOM      6  C6  DEN d   1      -4.003   2.132   0.036  0.00  0.00     0.001 A 
ATOM      7  C7  DEN d   1      -3.198   1.778   1.087  0.00  0.00     0.017 A 
ATOM      8  C8  DEN d   1      -1.826   1.730   0.881  0.00  0.00    -0.094 A 
ATOM      9  C9  DEN d   1      -1.275   2.093  -0.337  0.00  0.00    -0.072 A 
ENDROOT
TORSDOF 0
ENDMDL
