MODEL 1
REMARK minimizedAffinity -0.0543837063
REMARK minimizedRMSD -1
REMARK  0 active torsions:
REMARK  status: ('A' for Active; 'I' for Inactive)
ROOT
ATOM      1  C1  DEN d   1      -4.779   2.484   0.376  0.00  0.00     0.130 A 
ATOM      2  C2  DEN d   1      -5.600   1.462   1.019  0.00  0.00    -0.031 A 
ATOM      3  C3  DEN d   1      -4.710   0.367   1.452  0.00  0.00     0.027 A 
ATOM      4  C4  DEN d   1      -2.152   0.157   1.195  0.00  0.00     0.027 A 
ATOM      5  C5  DEN d   1      -1.019   0.769   0.705  0.00  0.00    -0.003 A 
ATOM      6  C6  DEN d   1      -1.064   1.969   0.047  0.00  0.00     0.001 A 
ATOM      7  C7  DEN d   1      -2.261   2.618  -0.100  0.00  0.00     0.017 A 
ATOM      8  C8  DEN d   1      -3.409   2.004   0.384  0.00  0.00    -0.094 A 
ATOM      9  C9  DEN d   1      -3.341   0.797   1.058  0.00  0.00    -0.072 A 
ENDROOT
TORSDOF 0
ENDMDL
