MODEL 1
REMARK minimizedAffinity -3.24482632
REMARK minimizedRMSD -1
REMARK  0 active torsions:
REMARK  status: ('A' for Active; 'I' for Inactive)
ROOT
ATOM      1  C1  DEN d   1      -4.460   0.548   1.245  0.00  0.00     0.130 A 
ATOM      2  C2  DEN d   1      -5.255   1.706   0.843  0.00  0.00    -0.031 A 
ATOM      3  C3  DEN d   1      -4.352   2.673   0.186  0.00  0.00     0.027 A 
ATOM      4  C4  DEN d   1      -1.817   2.489  -0.249  0.00  0.00     0.027 A 
ATOM      5  C5  DEN d   1      -0.703   1.697  -0.078  0.00  0.00    -0.003 A 
ATOM      6  C6  DEN d   1      -0.757   0.491   0.571  0.00  0.00     0.001 A 
ATOM      7  C7  DEN d   1      -1.958   0.022   1.033  0.00  0.00     0.017 A 
ATOM      8  C8  DEN d   1      -3.084   0.819   0.871  0.00  0.00    -0.094 A 
ATOM      9  C9  DEN d   1      -3.011   2.029   0.202  0.00  0.00    -0.072 A 
ENDROOT
TORSDOF 0
ENDMDL
