MODEL 1
REMARK minimizedAffinity 9.16711426
REMARK minimizedRMSD -1
REMARK  0 active torsions:
REMARK  status: ('A' for Active; 'I' for Inactive)
ROOT
ATOM      1  C1  DEN d   1      -3.313   1.757   0.730  0.00  0.00     0.130 A 
ATOM      2  C2  DEN d   1      -3.308   2.704  -0.382  0.00  0.00    -0.031 A 
ATOM      3  C3  DEN d   1      -1.906   2.915  -0.795  0.00  0.00     0.027 A 
ATOM      4  C4  DEN d   1       0.245   1.870   0.170  0.00  0.00     0.027 A 
ATOM      5  C5  DEN d   1       0.747   1.017   1.128  0.00  0.00    -0.003 A 
ATOM      6  C6  DEN d   1      -0.060   0.383   2.035  0.00  0.00     0.001 A 
ATOM      7  C7  DEN d   1      -1.417   0.556   1.974  0.00  0.00     0.017 A 
ATOM      8  C8  DEN d   1      -1.930   1.420   1.015  0.00  0.00    -0.094 A 
ATOM      9  C9  DEN d   1      -1.099   2.043   0.099  0.00  0.00    -0.072 A 
ENDROOT
TORSDOF 0
ENDMDL
