MODEL 1
REMARK minimizedAffinity 3.06135917
REMARK minimizedRMSD -1
REMARK  0 active torsions:
REMARK  status: ('A' for Active; 'I' for Inactive)
ROOT
ATOM      1  C1  DEN d   1      -0.429  -0.670   2.684  0.00  0.00     0.130 A 
ATOM      2  C2  DEN d   1      -1.884  -0.798   2.707  0.00  0.00    -0.031 A 
ATOM      3  C3  DEN d   1      -2.427  -0.040   1.563  0.00  0.00     0.027 A 
ATOM      4  C4  DEN d   1      -1.164   1.310  -0.236  0.00  0.00     0.027 A 
ATOM      5  C5  DEN d   1       0.079   1.720  -0.666  0.00  0.00    -0.003 A 
ATOM      6  C6  DEN d   1       1.227   1.392   0.004  0.00  0.00     0.001 A 
ATOM      7  C7  DEN d   1       1.161   0.595   1.117  0.00  0.00     0.017 A 
ATOM      8  C8  DEN d   1      -0.090   0.185   1.560  0.00  0.00    -0.094 A 
ATOM      9  C9  DEN d   1      -1.238   0.516   0.862  0.00  0.00    -0.072 A 
ENDROOT
TORSDOF 0
ENDMDL
