MODEL 1
REMARK minimizedAffinity -2.06808186
REMARK minimizedRMSD -1
REMARK  0 active torsions:
REMARK  status: ('A' for Active; 'I' for Inactive)
ROOT
ATOM      1  C1  DEN d   1      -1.190   2.908   0.267  0.00  0.00     0.130 A 
ATOM      2  C2  DEN d   1       0.038   2.278   0.744  0.00  0.00    -0.031 A 
ATOM      3  C3  DEN d   1      -0.317   0.964   1.319  0.00  0.00     0.027 A 
ATOM      4  C4  DEN d   1      -2.634  -0.151   1.510  0.00  0.00     0.027 A 
ATOM      5  C5  DEN d   1      -3.979   0.003   1.254  0.00  0.00    -0.003 A 
ATOM      6  C6  DEN d   1      -4.488   1.141   0.688  0.00  0.00     0.001 A 
ATOM      7  C7  DEN d   1      -3.642   2.152   0.316  0.00  0.00     0.017 A 
ATOM      8  C8  DEN d   1      -2.286   2.007   0.577  0.00  0.00    -0.094 A 
ATOM      9  C9  DEN d   1      -1.789   0.843   1.140  0.00  0.00    -0.072 A 
ENDROOT
TORSDOF 0
ENDMDL
