MODEL 1
REMARK minimizedAffinity 2.14645243
REMARK minimizedRMSD -1
REMARK  0 active torsions:
REMARK  status: ('A' for Active; 'I' for Inactive)
ROOT
ATOM      1  C1  DEN d   1       0.004  -0.098   1.540  0.00  0.00     0.130 A 
ATOM      2  C2  DEN d   1       1.043   0.929   1.558  0.00  0.00    -0.031 A 
ATOM      3  C3  DEN d   1       0.428   2.207   1.148  0.00  0.00     0.027 A 
ATOM      4  C4  DEN d   1      -2.018   2.696   0.495  0.00  0.00     0.027 A 
ATOM      5  C5  DEN d   1      -3.266   2.139   0.318  0.00  0.00    -0.003 A 
ATOM      6  C6  DEN d   1      -3.501   0.802   0.502  0.00  0.00     0.001 A 
ATOM      7  C7  DEN d   1      -2.484  -0.015   0.918  0.00  0.00     0.017 A 
ATOM      8  C8  DEN d   1      -1.221   0.537   1.091  0.00  0.00    -0.094 A 
ATOM      9  C9  DEN d   1      -1.006   1.893   0.912  0.00  0.00    -0.072 A 
ENDROOT
TORSDOF 0
ENDMDL
