MODEL 1
REMARK minimizedAffinity 2.24223852
REMARK minimizedRMSD -1
REMARK  0 active torsions:
REMARK  status: ('A' for Active; 'I' for Inactive)
ROOT
ATOM      1  C1  DEN d   1      -3.490   1.790   0.631  0.00  0.00     0.130 A 
ATOM      2  C2  DEN d   1      -3.479   3.137   0.067  0.00  0.00    -0.031 A 
ATOM      3  C3  DEN d   1      -2.075   3.510  -0.197  0.00  0.00     0.027 A 
ATOM      4  C4  DEN d   1       0.072   2.139   0.206  0.00  0.00     0.027 A 
ATOM      5  C5  DEN d   1       0.569   0.945   0.680  0.00  0.00    -0.003 A 
ATOM      6  C6  DEN d   1      -0.242  -0.030   1.197  0.00  0.00     0.001 A 
ATOM      7  C7  DEN d   1      -1.600   0.154   1.212  0.00  0.00     0.017 A 
ATOM      8  C8  DEN d   1      -2.108   1.359   0.743  0.00  0.00    -0.094 A 
ATOM      9  C9  DEN d   1      -1.272   2.327   0.213  0.00  0.00    -0.072 A 
ENDROOT
TORSDOF 0
ENDMDL
