MODEL 1
REMARK minimizedAffinity 3.26076007
REMARK minimizedRMSD -1
REMARK  0 active torsions:
REMARK  status: ('A' for Active; 'I' for Inactive)
ROOT
ATOM      1  C1  DEN d   1      -4.873   3.128   0.282  0.00  0.00     0.130 A 
ATOM      2  C2  DEN d   1      -5.885   2.241   0.848  0.00  0.00    -0.031 A 
ATOM      3  C3  DEN d   1      -5.216   0.994   1.268  0.00  0.00     0.027 A 
ATOM      4  C4  DEN d   1      -2.723   0.355   1.102  0.00  0.00     0.027 A 
ATOM      5  C5  DEN d   1      -1.481   0.778   0.684  0.00  0.00    -0.003 A 
ATOM      6  C6  DEN d   1      -1.290   1.991   0.076  0.00  0.00     0.001 A 
ATOM      7  C7  DEN d   1      -2.350   2.842  -0.090  0.00  0.00     0.017 A 
ATOM      8  C8  DEN d   1      -3.607   2.419   0.323  0.00  0.00    -0.094 A 
ATOM      9  C9  DEN d   1      -3.778   1.194   0.946  0.00  0.00    -0.072 A 
ENDROOT
TORSDOF 0
ENDMDL
