MODEL 1
REMARK minimizedAffinity 1.16356778
REMARK minimizedRMSD -1
REMARK  0 active torsions:
REMARK  status: ('A' for Active; 'I' for Inactive)
ROOT
ATOM      1  C1  DEN d   1      -3.645   1.150   1.044  0.00  0.00     0.130 A 
ATOM      2  C2  DEN d   1      -4.061   2.136   0.050  0.00  0.00    -0.031 A 
ATOM      3  C3  DEN d   1      -2.850   2.630  -0.637  0.00  0.00     0.027 A 
ATOM      4  C4  DEN d   1      -0.386   1.965  -0.262  0.00  0.00     0.027 A 
ATOM      5  C5  DEN d   1       0.462   1.176   0.482  0.00  0.00    -0.003 A 
ATOM      6  C6  DEN d   1       0.009   0.355   1.480  0.00  0.00     0.001 A 
ATOM      7  C7  DEN d   1      -1.335   0.270   1.731  0.00  0.00     0.017 A 
ATOM      8  C8  DEN d   1      -2.196   1.068   0.990  0.00  0.00    -0.094 A 
ATOM      9  C9  DEN d   1      -1.720   1.883  -0.023  0.00  0.00    -0.072 A 
ENDROOT
TORSDOF 0
ENDMDL
