MODEL 1
REMARK minimizedAffinity -3.5039947
REMARK minimizedRMSD -1
REMARK  0 active torsions:
REMARK  status: ('A' for Active; 'I' for Inactive)
ROOT
ATOM      1  C1  DEN d   1      -3.472   2.266  -0.528  0.00  0.00     0.130 A 
ATOM      2  C2  DEN d   1      -4.316   1.478   0.367  0.00  0.00    -0.031 A 
ATOM      3  C3  DEN d   1      -3.440   0.591   1.157  0.00  0.00     0.027 A 
ATOM      4  C4  DEN d   1      -0.872   0.364   1.087  0.00  0.00     0.027 A 
ATOM      5  C5  DEN d   1       0.279   0.815   0.479  0.00  0.00    -0.003 A 
ATOM      6  C6  DEN d   1       0.257   1.749  -0.523  0.00  0.00     0.001 A 
ATOM      7  C7  DEN d   1      -0.936   2.296  -0.915  0.00  0.00     0.017 A 
ATOM      8  C8  DEN d   1      -2.101   1.840  -0.312  0.00  0.00    -0.094 A 
ATOM      9  C9  DEN d   1      -2.057   0.904   0.707  0.00  0.00    -0.072 A 
ENDROOT
TORSDOF 0
ENDMDL
