MODEL 1
REMARK minimizedAffinity 7.30681562
REMARK minimizedRMSD -1
REMARK  0 active torsions:
REMARK  status: ('A' for Active; 'I' for Inactive)
ROOT
ATOM      1  C1  DEN d   1       1.210   1.554   0.111  0.00  0.00     0.130 A 
ATOM      2  C2  DEN d   1       2.481   1.213   0.744  0.00  0.00    -0.031 A 
ATOM      3  C3  DEN d   1       2.293   1.268   2.208  0.00  0.00     0.027 A 
ATOM      4  C4  DEN d   1       0.165   1.842   3.548  0.00  0.00     0.027 A 
ATOM      5  C5  DEN d   1      -1.158   2.210   3.450  0.00  0.00    -0.003 A 
ATOM      6  C6  DEN d   1      -1.771   2.417   2.243  0.00  0.00     0.001 A 
ATOM      7  C7  DEN d   1      -1.071   2.213   1.083  0.00  0.00     0.017 A 
ATOM      8  C8  DEN d   1       0.266   1.848   1.174  0.00  0.00    -0.094 A 
ATOM      9  C9  DEN d   1       0.863   1.633   2.404  0.00  0.00    -0.072 A 
ENDROOT
TORSDOF 0
ENDMDL
