MODEL 1
REMARK minimizedAffinity 12.142024
REMARK minimizedRMSD -1
REMARK  1 active torsions:
REMARK  status: ('A' for Active; 'I' for Inactive)
REMARK    1  A    between atoms: C1_2  and  C2_3 
ROOT
ATOM      1  C2  UNL d   1      -2.973   0.021   3.633  0.00  0.00    -0.076 A 
ATOM      2  C3  UNL d   1      -4.371   0.160   3.589  0.00  0.00     0.004 A 
ATOM      3  C4  UNL d   1      -5.006   0.674   2.460  0.00  0.00    -0.003 A 
ATOM      4  C5  UNL d   1      -4.252   1.056   1.355  0.00  0.00     0.000 A 
ATOM      5  C6  UNL d   1      -2.866   0.908   1.374  0.00  0.00     0.000 A 
ATOM      6  C7  UNL d   1      -2.212   0.377   2.499  0.00  0.00    -0.073 A 
ATOM      7  C8  UNL d   1      -0.714   0.246   2.468  0.00  0.00     0.078 C 
ENDROOT
BRANCH   1   8
ATOM      8  C1  UNL d   1      -2.338  -0.517   4.895  0.00  0.00     0.053 C 
ATOM      9  C   UNL d   1      -3.356  -1.130   5.845  0.00  0.00     0.018 C 
ENDBRANCH   1   8
TORSDOF 1
ENDMDL
