MODEL 1
REMARK minimizedAffinity 12.2545567
REMARK minimizedRMSD -1
REMARK  1 active torsions:
REMARK  status: ('A' for Active; 'I' for Inactive)
REMARK    1  A    between atoms: C1_2  and  C2_3 
ROOT
ATOM      1  C2  UNL d   1       5.810  -3.716   4.378  0.00  0.00    -0.076 A 
ATOM      2  C3  UNL d   1       5.627  -3.217   3.076  0.00  0.00     0.004 A 
ATOM      3  C4  UNL d   1       5.484  -4.080   1.991  0.00  0.00    -0.003 A 
ATOM      4  C5  UNL d   1       5.521  -5.455   2.189  0.00  0.00     0.000 A 
ATOM      5  C6  UNL d   1       5.684  -5.968   3.476  0.00  0.00     0.000 A 
ATOM      6  C7  UNL d   1       5.813  -5.112   4.583  0.00  0.00    -0.073 A 
ATOM      7  C8  UNL d   1       5.992  -5.719   5.948  0.00  0.00     0.078 C 
ENDROOT
BRANCH   1   8
ATOM      8  C1  UNL d   1       5.986  -2.732   5.512  0.00  0.00     0.053 C 
ATOM      9  C   UNL d   1       5.875  -1.287   5.053  0.00  0.00     0.018 C 
ENDBRANCH   1   8
TORSDOF 1
ENDMDL
