MODEL 1
REMARK minimizedAffinity 13.2501602
REMARK minimizedRMSD -1
REMARK  1 active torsions:
REMARK  status: ('A' for Active; 'I' for Inactive)
REMARK    1  A    between atoms: C1_2  and  C2_3 
ROOT
ATOM      1  C2  UNL d   1      -3.182   0.597   1.827  0.00  0.00    -0.076 A 
ATOM      2  C3  UNL d   1      -3.558   1.717   2.590  0.00  0.00     0.004 A 
ATOM      3  C4  UNL d   1      -4.819   1.793   3.178  0.00  0.00    -0.003 A 
ATOM      4  C5  UNL d   1      -5.725   0.752   3.014  0.00  0.00     0.000 A 
ATOM      5  C6  UNL d   1      -5.363  -0.374   2.275  0.00  0.00     0.000 A 
ATOM      6  C7  UNL d   1      -4.090  -0.475   1.689  0.00  0.00    -0.073 A 
ATOM      7  C8  UNL d   1      -3.755  -1.709   0.897  0.00  0.00     0.078 C 
ENDROOT
BRANCH   1   8
ATOM      8  C1  UNL d   1      -1.811   0.582   1.190  0.00  0.00     0.053 C 
ATOM      9  C   UNL d   1      -0.702   0.335   2.201  0.00  0.00     0.018 C 
ENDBRANCH   1   8
TORSDOF 1
ENDMDL
