MODEL 1
REMARK minimizedAffinity 11.9486036
REMARK minimizedRMSD -1
REMARK  1 active torsions:
REMARK  status: ('A' for Active; 'I' for Inactive)
REMARK    1  A    between atoms: C1_2  and  C2_3 
ROOT
ATOM      1  C2  UNL d   1      -5.982  -2.225   3.173  0.00  0.00    -0.076 A 
ATOM      2  C3  UNL d   1      -5.978  -0.982   3.830  0.00  0.00     0.004 A 
ATOM      3  C4  UNL d   1      -5.987  -0.907   5.222  0.00  0.00    -0.003 A 
ATOM      4  C5  UNL d   1      -6.000  -2.073   5.979  0.00  0.00     0.000 A 
ATOM      5  C6  UNL d   1      -5.987  -3.314   5.344  0.00  0.00     0.000 A 
ATOM      6  C7  UNL d   1      -5.961  -3.408   3.942  0.00  0.00    -0.073 A 
ATOM      7  C8  UNL d   1      -5.954  -4.773   3.310  0.00  0.00     0.078 C 
ENDROOT
BRANCH   1   8
ATOM      8  C1  UNL d   1      -6.000  -2.245   1.661  0.00  0.00     0.053 C 
ATOM      9  C   UNL d   1      -4.612  -2.426   1.065  0.00  0.00     0.018 C 
ENDBRANCH   1   8
TORSDOF 1
ENDMDL
