MODEL 1
REMARK minimizedAffinity 5.21502352
REMARK minimizedRMSD -1
REMARK  1 active torsions:
REMARK  status: ('A' for Active; 'I' for Inactive)
REMARK    1  A    between atoms: C1_2  and  C2_3 
ROOT
ATOM      1  C2  UNL d   1      -2.269   0.674   2.777  0.00  0.00    -0.076 A 
ATOM      2  C3  UNL d   1      -2.305   2.023   2.381  0.00  0.00     0.004 A 
ATOM      3  C4  UNL d   1      -1.130   2.721   2.106  0.00  0.00    -0.003 A 
ATOM      4  C5  UNL d   1       0.100   2.081   2.222  0.00  0.00     0.000 A 
ATOM      5  C6  UNL d   1       0.152   0.739   2.596  0.00  0.00     0.000 A 
ATOM      6  C7  UNL d   1      -1.023   0.016   2.861  0.00  0.00    -0.073 A 
ATOM      7  C8  UNL d   1      -0.907  -1.428   3.266  0.00  0.00     0.078 C 
ENDROOT
BRANCH   1   8
ATOM      8  C1  UNL d   1      -3.574  -0.024   3.088  0.00  0.00     0.053 C 
ATOM      9  C   UNL d   1      -4.623   0.193   2.008  0.00  0.00     0.018 C 
ENDBRANCH   1   8
TORSDOF 1
ENDMDL
