MODEL 1
REMARK minimizedAffinity 4.76697397
REMARK minimizedRMSD -1
REMARK  1 active torsions:
REMARK  status: ('A' for Active; 'I' for Inactive)
REMARK    1  A    between atoms: C1_2  and  C2_3 
ROOT
ATOM      1  C2  UNL d   1      -4.218  -0.515   3.356  0.00  0.00    -0.076 A 
ATOM      2  C3  UNL d   1      -5.576  -0.458   2.999  0.00  0.00     0.004 A 
ATOM      3  C4  UNL d   1      -5.998   0.287   1.899  0.00  0.00    -0.003 A 
ATOM      4  C5  UNL d   1      -5.069   0.986   1.138  0.00  0.00     0.000 A 
ATOM      5  C6  UNL d   1      -3.715   0.927   1.467  0.00  0.00     0.000 A 
ATOM      6  C7  UNL d   1      -3.271   0.168   2.563  0.00  0.00    -0.073 A 
ATOM      7  C8  UNL d   1      -1.800   0.144   2.875  0.00  0.00     0.078 C 
ENDROOT
BRANCH   1   8
ATOM      8  C1  UNL d   1      -3.822  -1.317   4.575  0.00  0.00     0.053 C 
ATOM      9  C   UNL d   1      -4.802  -2.440   4.877  0.00  0.00     0.018 C 
ENDBRANCH   1   8
TORSDOF 1
ENDMDL
