MODEL 1
REMARK minimizedAffinity 2.78707051
REMARK minimizedRMSD -1
REMARK  1 active torsions:
REMARK  status: ('A' for Active; 'I' for Inactive)
REMARK    1  A    between atoms: C1_2  and  C2_3 
ROOT
ATOM      1  C2  UNL d   1      -2.900   0.553   1.903  0.00  0.00    -0.076 A 
ATOM      2  C3  UNL d   1      -1.653   0.537   1.255  0.00  0.00     0.004 A 
ATOM      3  C4  UNL d   1      -0.465   0.547   1.983  0.00  0.00    -0.003 A 
ATOM      4  C5  UNL d   1      -0.505   0.572   3.373  0.00  0.00     0.000 A 
ATOM      5  C6  UNL d   1      -1.733   0.571   4.034  0.00  0.00     0.000 A 
ATOM      6  C7  UNL d   1      -2.940   0.545   3.314  0.00  0.00    -0.073 A 
ATOM      7  C8  UNL d   1      -4.236   0.550   4.078  0.00  0.00     0.078 C 
ENDROOT
BRANCH   1   8
ATOM      8  C1  UNL d   1      -4.155   0.569   1.060  0.00  0.00     0.053 C 
ATOM      9  C   UNL d   1      -4.379  -0.743   0.324  0.00  0.00     0.018 C 
ENDBRANCH   1   8
TORSDOF 1
ENDMDL
