MODEL 1
REMARK minimizedAffinity 1.99577355
REMARK minimizedRMSD -1
REMARK  1 active torsions:
REMARK  status: ('A' for Active; 'I' for Inactive)
REMARK    1  A    between atoms: C1_2  and  C2_3 
ROOT
ATOM      1  C2  UNL d   1      -2.146   0.226   2.116  0.00  0.00    -0.076 A 
ATOM      2  C3  UNL d   1      -0.909   0.114   1.457  0.00  0.00     0.004 A 
ATOM      3  C4  UNL d   1       0.280   0.004   2.176  0.00  0.00    -0.003 A 
ATOM      4  C5  UNL d   1       0.251   0.003   3.566  0.00  0.00     0.000 A 
ATOM      5  C6  UNL d   1      -0.968   0.095   4.236  0.00  0.00     0.000 A 
ATOM      6  C7  UNL d   1      -2.177   0.190   3.526  0.00  0.00    -0.073 A 
ATOM      7  C8  UNL d   1      -3.463   0.292   4.301  0.00  0.00     0.078 C 
ENDROOT
BRANCH   1   8
ATOM      8  C1  UNL d   1      -3.400   0.369   1.283  0.00  0.00     0.053 C 
ATOM      9  C   UNL d   1      -4.014  -0.973   0.918  0.00  0.00     0.018 C 
ENDBRANCH   1   8
TORSDOF 1
ENDMDL
