MODEL 1
REMARK minimizedAffinity 3.14186835
REMARK minimizedRMSD -1
REMARK  1 active torsions:
REMARK  status: ('A' for Active; 'I' for Inactive)
REMARK    1  A    between atoms: C1_2  and  C2_3 
ROOT
ATOM      1  C2  UNL d   1       3.236  -0.092   1.644  0.00  0.00    -0.076 A 
ATOM      2  C3  UNL d   1       2.912  -0.146   3.011  0.00  0.00     0.004 A 
ATOM      3  C4  UNL d   1       1.617   0.118   3.453  0.00  0.00    -0.003 A 
ATOM      4  C5  UNL d   1       0.623   0.438   2.534  0.00  0.00     0.000 A 
ATOM      5  C6  UNL d   1       0.923   0.479   1.173  0.00  0.00     0.000 A 
ATOM      6  C7  UNL d   1       2.220   0.200   0.710  0.00  0.00    -0.073 A 
ATOM      7  C8  UNL d   1       2.488   0.264  -0.769  0.00  0.00     0.078 C 
ENDROOT
BRANCH   1   8
ATOM      8  C1  UNL d   1       4.664  -0.361   1.227  0.00  0.00     0.053 C 
ATOM      9  C   UNL d   1       5.663  -0.040   2.328  0.00  0.00     0.018 C 
ENDBRANCH   1   8
TORSDOF 1
ENDMDL
