MODEL 1
REMARK minimizedAffinity 6.21376371
REMARK minimizedRMSD -1
REMARK  1 active torsions:
REMARK  status: ('A' for Active; 'I' for Inactive)
REMARK    1  A    between atoms: C1_2  and  C2_3 
ROOT
ATOM      1  C2  UNL d   1      -3.891  -0.390   1.337  0.00  0.00    -0.076 A 
ATOM      2  C3  UNL d   1      -5.049  -0.173   2.103  0.00  0.00     0.004 A 
ATOM      3  C4  UNL d   1      -5.005   0.587   3.271  0.00  0.00    -0.003 A 
ATOM      4  C5  UNL d   1      -3.801   1.142   3.692  0.00  0.00     0.000 A 
ATOM      5  C6  UNL d   1      -2.646   0.952   2.934  0.00  0.00     0.000 A 
ATOM      6  C7  UNL d   1      -2.677   0.202   1.746  0.00  0.00    -0.073 A 
ATOM      7  C8  UNL d   1      -1.399   0.024   0.972  0.00  0.00     0.078 C 
ENDROOT
BRANCH   1   8
ATOM      8  C1  UNL d   1      -3.994  -1.245   0.094  0.00  0.00     0.053 C 
ATOM      9  C   UNL d   1      -3.777  -2.722   0.384  0.00  0.00     0.018 C 
ENDBRANCH   1   8
TORSDOF 1
ENDMDL
