MODEL 1
REMARK minimizedAffinity 12.9165936
REMARK minimizedRMSD -1
REMARK  1 active torsions:
REMARK  status: ('A' for Active; 'I' for Inactive)
REMARK    1  A    between atoms: C1_2  and  C2_3 
ROOT
ATOM      1  C2  UNL d   1      -3.933   0.949   1.217  0.00  0.00    -0.076 A 
ATOM      2  C3  UNL d   1      -5.145   0.443   0.716  0.00  0.00     0.004 A 
ATOM      3  C4  UNL d   1      -5.205  -0.818   0.124  0.00  0.00    -0.003 A 
ATOM      4  C5  UNL d   1      -4.055  -1.592   0.024  0.00  0.00     0.000 A 
ATOM      5  C6  UNL d   1      -2.848  -1.113   0.531  0.00  0.00     0.000 A 
ATOM      6  C7  UNL d   1      -2.773   0.149   1.146  0.00  0.00    -0.073 A 
ATOM      7  C8  UNL d   1      -1.443   0.619   1.670  0.00  0.00     0.078 C 
ENDROOT
BRANCH   1   8
ATOM      8  C1  UNL d   1      -3.923   2.334   1.824  0.00  0.00     0.053 C 
ATOM      9  C   UNL d   1      -5.171   2.621   2.643  0.00  0.00     0.018 C 
ENDBRANCH   1   8
TORSDOF 1
ENDMDL
