MODEL 1
REMARK minimizedAffinity 4.815938
REMARK minimizedRMSD -1
REMARK  0 active torsions:
REMARK  status: ('A' for Active; 'I' for Inactive)
ROOT
ATOM      1  C   UNL d   1       0.672   4.876  -3.962  0.00  0.00    -0.002 A 
ATOM      2  C1  UNL d   1       1.231   3.711  -4.468  0.00  0.00     0.010 A 
ATOM      3  C2  UNL d   1       1.136   2.512  -3.759  0.00  0.00     0.041 A 
ATOM      4  C3  UNL d   1       0.463   2.503  -2.521  0.00  0.00    -0.075 A 
ATOM      5  S   UNL d   1       0.222   1.152  -1.478  0.00  0.00     0.015 SA
ATOM      6  C4  UNL d   1      -0.628   2.090  -0.337  0.00  0.00     0.022 A 
ATOM      7  C5  UNL d   1      -0.735   3.404  -0.726  0.00  0.00     0.026 A 
ATOM      8  C6  UNL d   1      -0.109   3.664  -1.992  0.00  0.00    -0.082 A 
ATOM      9  C7  UNL d   1       0.005   4.864  -2.735  0.00  0.00     0.045 A 
ENDROOT
TORSDOF 0
ENDMDL
