MODEL 1
REMARK minimizedAffinity 9.31155777
REMARK minimizedRMSD -1
REMARK  0 active torsions:
REMARK  status: ('A' for Active; 'I' for Inactive)
ROOT
ATOM      1  C   UNL d   1       3.097   0.710  -1.276  0.00  0.00    -0.002 A 
ATOM      2  C1  UNL d   1       2.547  -0.278  -2.081  0.00  0.00     0.010 A 
ATOM      3  C2  UNL d   1       1.582   0.042  -3.038  0.00  0.00     0.041 A 
ATOM      4  C3  UNL d   1       1.177   1.384  -3.176  0.00  0.00    -0.075 A 
ATOM      5  S   UNL d   1       0.012   2.010  -4.282  0.00  0.00     0.015 SA
ATOM      6  C4  UNL d   1       0.218   3.604  -3.712  0.00  0.00     0.022 A 
ATOM      7  C5  UNL d   1       1.149   3.674  -2.703  0.00  0.00     0.026 A 
ATOM      8  C6  UNL d   1       1.717   2.397  -2.378  0.00  0.00    -0.082 A 
ATOM      9  C7  UNL d   1       2.693   2.040  -1.416  0.00  0.00     0.045 A 
ENDROOT
TORSDOF 0
ENDMDL
