MODEL 1
REMARK minimizedAffinity 4.78258419
REMARK minimizedRMSD -1
REMARK  0 active torsions:
REMARK  status: ('A' for Active; 'I' for Inactive)
ROOT
ATOM      1  C   UNL d   1      -5.418  -0.746  -5.088  0.00  0.00    -0.002 A 
ATOM      2  C1  UNL d   1      -4.443  -1.049  -4.149  0.00  0.00     0.010 A 
ATOM      3  C2  UNL d   1      -3.651  -0.040  -3.597  0.00  0.00     0.041 A 
ATOM      4  C3  UNL d   1      -3.859   1.291  -4.007  0.00  0.00    -0.075 A 
ATOM      5  S   UNL d   1      -3.010   2.691  -3.466  0.00  0.00     0.015 SA
ATOM      6  C4  UNL d   1      -3.922   3.724  -4.469  0.00  0.00     0.022 A 
ATOM      7  C5  UNL d   1      -4.856   3.035  -5.205  0.00  0.00     0.026 A 
ATOM      8  C6  UNL d   1      -4.836   1.621  -4.951  0.00  0.00    -0.082 A 
ATOM      9  C7  UNL d   1      -5.622   0.576  -5.493  0.00  0.00     0.045 A 
ENDROOT
TORSDOF 0
ENDMDL
