MODEL 1
REMARK minimizedAffinity 11.623085
REMARK minimizedRMSD -1
REMARK  0 active torsions:
REMARK  status: ('A' for Active; 'I' for Inactive)
ROOT
ATOM      1  C   UNL d   1       2.750   2.964  -1.970  0.00  0.00    -0.002 A 
ATOM      2  C1  UNL d   1       1.834   2.586  -2.942  0.00  0.00     0.010 A 
ATOM      3  C2  UNL d   1       1.179   1.355  -2.860  0.00  0.00     0.041 A 
ATOM      4  C3  UNL d   1       1.461   0.504  -1.773  0.00  0.00    -0.075 A 
ATOM      5  S   UNL d   1       0.779  -1.049  -1.465  0.00  0.00     0.015 SA
ATOM      6  C4  UNL d   1       1.687  -1.247  -0.037  0.00  0.00     0.022 A 
ATOM      7  C5  UNL d   1       2.496  -0.164   0.214  0.00  0.00     0.026 A 
ATOM      8  C6  UNL d   1       2.379   0.863  -0.782  0.00  0.00    -0.082 A 
ATOM      9  C7  UNL d   1       3.027   2.116  -0.894  0.00  0.00     0.045 A 
ENDROOT
TORSDOF 0
ENDMDL
