MODEL 1
REMARK minimizedAffinity 10.9559832
REMARK minimizedRMSD -1
REMARK  0 active torsions:
REMARK  status: ('A' for Active; 'I' for Inactive)
ROOT
ATOM      1  C   UNL d   1       2.200  -1.089   3.284  0.00  0.00    -0.002 A 
ATOM      2  C1  UNL d   1       0.815  -1.157   3.252  0.00  0.00     0.010 A 
ATOM      3  C2  UNL d   1       0.134  -1.206   2.033  0.00  0.00     0.041 A 
ATOM      4  C3  UNL d   1       0.877  -1.188   0.836  0.00  0.00    -0.075 A 
ATOM      5  S   UNL d   1       0.258  -1.241  -0.772  0.00  0.00     0.015 SA
ATOM      6  C4  UNL d   1       1.819  -1.175  -1.454  0.00  0.00     0.022 A 
ATOM      7  C5  UNL d   1       2.800  -1.114  -0.493  0.00  0.00     0.026 A 
ATOM      8  C6  UNL d   1       2.273  -1.121   0.843  0.00  0.00    -0.082 A 
ATOM      9  C7  UNL d   1       2.934  -1.071   2.094  0.00  0.00     0.045 A 
ENDROOT
TORSDOF 0
ENDMDL
