MODEL 1
REMARK minimizedAffinity 3.3574717
REMARK minimizedRMSD -1
REMARK  0 active torsions:
REMARK  status: ('A' for Active; 'I' for Inactive)
ROOT
ATOM      1  C   UNL d   1       2.237  -1.197  -0.412  0.00  0.00    -0.002 A 
ATOM      2  C1  UNL d   1       2.928  -1.342  -1.607  0.00  0.00     0.010 A 
ATOM      3  C2  UNL d   1       2.913  -0.326  -2.564  0.00  0.00     0.041 A 
ATOM      4  C3  UNL d   1       2.185   0.850  -2.298  0.00  0.00    -0.075 A 
ATOM      5  S   UNL d   1       2.024   2.227  -3.323  0.00  0.00     0.015 SA
ATOM      6  C4  UNL d   1       1.034   3.041  -2.199  0.00  0.00     0.022 A 
ATOM      7  C5  UNL d   1       0.821   2.295  -1.064  0.00  0.00     0.026 A 
ATOM      8  C6  UNL d   1       1.481   1.020  -1.102  0.00  0.00    -0.082 A 
ATOM      9  C7  UNL d   1       1.516  -0.029  -0.152  0.00  0.00     0.045 A 
ENDROOT
TORSDOF 0
ENDMDL
