MODEL 1
REMARK minimizedAffinity 9.53242874
REMARK minimizedRMSD -1
REMARK  0 active torsions:
REMARK  status: ('A' for Active; 'I' for Inactive)
ROOT
ATOM      1  C   UNL d   1       1.482  -0.762   3.458  0.00  0.00    -0.002 A 
ATOM      2  C1  UNL d   1       0.152  -0.732   3.063  0.00  0.00     0.010 A 
ATOM      3  C2  UNL d   1      -0.191  -0.846   1.714  0.00  0.00     0.041 A 
ATOM      4  C3  UNL d   1       0.835  -0.995   0.760  0.00  0.00    -0.075 A 
ATOM      5  S   UNL d   1       0.652  -1.153  -0.947  0.00  0.00     0.015 SA
ATOM      6  C4  UNL d   1       2.334  -1.266  -1.192  0.00  0.00     0.022 A 
ATOM      7  C5  UNL d   1       3.034  -1.185  -0.011  0.00  0.00     0.026 A 
ATOM      8  C6  UNL d   1       2.181  -1.028   1.133  0.00  0.00    -0.082 A 
ATOM      9  C7  UNL d   1       2.497  -0.909   2.508  0.00  0.00     0.045 A 
ENDROOT
TORSDOF 0
ENDMDL
