MODEL 1
REMARK minimizedAffinity 9.62010098
REMARK minimizedRMSD -1
REMARK  0 active torsions:
REMARK  status: ('A' for Active; 'I' for Inactive)
ROOT
ATOM      1  C   UNL d   1       0.410  -1.357   1.657  0.00  0.00    -0.002 A 
ATOM      2  C1  UNL d   1       0.973  -0.824   2.807  0.00  0.00     0.010 A 
ATOM      3  C2  UNL d   1       0.221  -0.009   3.655  0.00  0.00     0.041 A 
ATOM      4  C3  UNL d   1      -1.121   0.263   3.324  0.00  0.00    -0.075 A 
ATOM      5  S   UNL d   1      -2.235   1.234   4.212  0.00  0.00     0.015 SA
ATOM      6  C4  UNL d   1      -3.485   0.964   3.085  0.00  0.00     0.022 A 
ATOM      7  C5  UNL d   1      -3.080   0.155   2.050  0.00  0.00     0.026 A 
ATOM      8  C6  UNL d   1      -1.711  -0.263   2.171  0.00  0.00    -0.082 A 
ATOM      9  C7  UNL d   1      -0.921  -1.085   1.332  0.00  0.00     0.045 A 
ENDROOT
TORSDOF 0
ENDMDL
