MODEL 1
REMARK minimizedAffinity -2.40475249
REMARK minimizedRMSD -1
REMARK  0 active torsions:
REMARK  status: ('A' for Active; 'I' for Inactive)
ROOT
ATOM      1  C1  BNZ d   1       2.211   1.417   1.249  0.00  0.00     0.000 A 
ATOM      2  C2  BNZ d   1       1.370   1.515   2.325  0.00  0.00     0.000 A 
ATOM      3  C3  BNZ d   1       0.021   1.648   2.149  0.00  0.00     0.000 A 
ATOM      4  C4  BNZ d   1      -0.480   1.723   0.899  0.00  0.00     0.000 A 
ATOM      5  C5  BNZ d   1       0.356   1.636  -0.196  0.00  0.00     0.000 A 
ATOM      6  C6  BNZ d   1       1.709   1.463  -0.015  0.00  0.00     0.000 A 
ENDROOT
TORSDOF 0
ENDMDL
