MODEL 1
REMARK minimizedAffinity 0.772441268
REMARK minimizedRMSD -1
REMARK  0 active torsions:
REMARK  status: ('A' for Active; 'I' for Inactive)
ROOT
ATOM      1  C1  BNZ d   1       1.143  -2.882  -0.623  0.00  0.00     0.000 A 
ATOM      2  C2  BNZ d   1      -0.065  -2.281  -0.860  0.00  0.00     0.000 A 
ATOM      3  C3  BNZ d   1      -0.210  -0.928  -0.734  0.00  0.00     0.000 A 
ATOM      4  C4  BNZ d   1       0.840  -0.183  -0.333  0.00  0.00     0.000 A 
ATOM      5  C5  BNZ d   1       2.061  -0.774  -0.081  0.00  0.00     0.000 A 
ATOM      6  C6  BNZ d   1       2.215  -2.132  -0.247  0.00  0.00     0.000 A 
ENDROOT
TORSDOF 0
ENDMDL
