MODEL 1
REMARK minimizedAffinity 0.198501095
REMARK minimizedRMSD -1
REMARK  0 active torsions:
REMARK  status: ('A' for Active; 'I' for Inactive)
ROOT
ATOM      1  C1  BNZ d   1       3.695   0.346  -1.069  0.00  0.00     0.000 A 
ATOM      2  C2  BNZ d   1       4.519   1.440  -1.074  0.00  0.00     0.000 A 
ATOM      3  C3  BNZ d   1       4.179   2.576  -0.393  0.00  0.00     0.000 A 
ATOM      4  C4  BNZ d   1       3.000   2.630   0.258  0.00  0.00     0.000 A 
ATOM      5  C5  BNZ d   1       2.154   1.539   0.265  0.00  0.00     0.000 A 
ATOM      6  C6  BNZ d   1       2.517   0.384  -0.389  0.00  0.00     0.000 A 
ENDROOT
TORSDOF 0
ENDMDL
