MODEL 1
REMARK minimizedAffinity 2.82311654
REMARK minimizedRMSD -1
REMARK  0 active torsions:
REMARK  status: ('A' for Active; 'I' for Inactive)
ROOT
ATOM      1  C1  BNZ d   1      -0.253  -3.774   4.434  0.00  0.00     0.000 A 
ATOM      2  C2  BNZ d   1       0.919  -4.482   4.452  0.00  0.00     0.000 A 
ATOM      3  C3  BNZ d   1       1.047  -5.606   5.220  0.00  0.00     0.000 A 
ATOM      4  C4  BNZ d   1       0.017  -5.997   5.999  0.00  0.00     0.000 A 
ATOM      5  C5  BNZ d   1      -1.168  -5.289   5.999  0.00  0.00     0.000 A 
ATOM      6  C6  BNZ d   1      -1.306  -4.180   5.195  0.00  0.00     0.000 A 
ENDROOT
TORSDOF 0
ENDMDL
