MODEL 1
REMARK minimizedAffinity 1.29228544
REMARK minimizedRMSD -1
REMARK  0 active torsions:
REMARK  status: ('A' for Active; 'I' for Inactive)
ROOT
ATOM      1  C1  BNZ d   1      -0.613  -1.426  -2.535  0.00  0.00     0.000 A 
ATOM      2  C2  BNZ d   1       0.152  -2.377  -1.914  0.00  0.00     0.000 A 
ATOM      3  C3  BNZ d   1       0.603  -2.189  -0.637  0.00  0.00     0.000 A 
ATOM      4  C4  BNZ d   1       0.322  -1.035   0.002  0.00  0.00     0.000 A 
ATOM      5  C5  BNZ d   1      -0.441  -0.063  -0.614  0.00  0.00     0.000 A 
ATOM      6  C6  BNZ d   1      -0.925  -0.272  -1.885  0.00  0.00     0.000 A 
ENDROOT
TORSDOF 0
ENDMDL
