MODEL 1
REMARK minimizedAffinity 3.75284839
REMARK minimizedRMSD -1
REMARK  0 active torsions:
REMARK  status: ('A' for Active; 'I' for Inactive)
ROOT
ATOM      1  C1  BNZ d   1      -1.389  -3.468   5.999  0.00  0.00     0.000 A 
ATOM      2  C2  BNZ d   1      -2.219  -4.557   5.968  0.00  0.00     0.000 A 
ATOM      3  C3  BNZ d   1      -1.711  -5.823   5.893  0.00  0.00     0.000 A 
ATOM      4  C4  BNZ d   1      -0.376  -5.998   5.810  0.00  0.00     0.000 A 
ATOM      5  C5  BNZ d   1       0.474  -4.910   5.831  0.00  0.00     0.000 A 
ATOM      6  C6  BNZ d   1      -0.040  -3.639   5.946  0.00  0.00     0.000 A 
ENDROOT
TORSDOF 0
ENDMDL
