MODEL 1
REMARK minimizedAffinity -5.13543892
REMARK minimizedRMSD -1
REMARK  0 active torsions:
REMARK  status: ('A' for Active; 'I' for Inactive)
ROOT
ATOM      1  C   UNL d   1      -1.510   0.225   2.033  0.00  0.00     0.077 C 
ATOM      2  C1  UNL d   1      -0.568   0.439   0.886  0.00  0.00    -0.074 A 
ATOM      3  C2  UNL d   1      -0.916   1.270  -0.184  0.00  0.00    -0.005 A 
ATOM      4  C3  UNL d   1      -0.025   1.468  -1.239  0.00  0.00     0.006 A 
ATOM      5  C4  UNL d   1       1.220   0.837  -1.236  0.00  0.00    -0.005 A 
ATOM      6  C5  UNL d   1       1.585   0.003  -0.174  0.00  0.00    -0.074 A 
ATOM      7  C6  UNL d   1       2.923  -0.675  -0.150  0.00  0.00     0.077 C 
ATOM      8  C7  UNL d   1       0.687  -0.185   0.886  0.00  0.00    -0.001 A 
ENDROOT
TORSDOF 0
ENDMDL
