MODEL 1
REMARK minimizedAffinity -5.16722679
REMARK minimizedRMSD -1
REMARK  0 active torsions:
REMARK  status: ('A' for Active; 'I' for Inactive)
ROOT
ATOM      1  C   UNL d   1      -0.870   2.645  -0.754  0.00  0.00     0.077 C 
ATOM      2  C1  UNL d   1      -0.306   1.272  -0.536  0.00  0.00    -0.074 A 
ATOM      3  C2  UNL d   1      -1.119   0.223  -0.096  0.00  0.00    -0.005 A 
ATOM      4  C3  UNL d   1      -0.582  -1.051   0.093  0.00  0.00     0.006 A 
ATOM      5  C4  UNL d   1       0.771  -1.287  -0.155  0.00  0.00    -0.005 A 
ATOM      6  C5  UNL d   1       1.599  -0.250  -0.596  0.00  0.00    -0.074 A 
ATOM      7  C6  UNL d   1       3.052  -0.489  -0.876  0.00  0.00     0.077 C 
ATOM      8  C7  UNL d   1       1.050   1.025  -0.790  0.00  0.00    -0.001 A 
ENDROOT
TORSDOF 0
ENDMDL
