MODEL 1
REMARK minimizedAffinity -3.98029613
REMARK minimizedRMSD -1
REMARK  0 active torsions:
REMARK  status: ('A' for Active; 'I' for Inactive)
ROOT
ATOM      1  C   UNL d   1       3.415   0.370  -1.301  0.00  0.00     0.077 C 
ATOM      2  C1  UNL d   1       1.961   0.091  -1.061  0.00  0.00    -0.074 A 
ATOM      3  C2  UNL d   1       1.001   1.096  -1.217  0.00  0.00    -0.005 A 
ATOM      4  C3  UNL d   1      -0.349   0.819  -0.999  0.00  0.00     0.006 A 
ATOM      5  C4  UNL d   1      -0.751  -0.463  -0.623  0.00  0.00    -0.005 A 
ATOM      6  C5  UNL d   1       0.194  -1.481  -0.462  0.00  0.00    -0.074 A 
ATOM      7  C6  UNL d   1      -0.222  -2.867  -0.068  0.00  0.00     0.077 C 
ATOM      8  C7  UNL d   1       1.548  -1.197  -0.690  0.00  0.00    -0.001 A 
ENDROOT
TORSDOF 0
ENDMDL
