MODEL 1
REMARK minimizedAffinity -2.92756939
REMARK minimizedRMSD -1
REMARK  0 active torsions:
REMARK  status: ('A' for Active; 'I' for Inactive)
ROOT
ATOM      1  C   UNL d   1      -1.760   0.025   1.513  0.00  0.00     0.077 C 
ATOM      2  C1  UNL d   1      -0.898   0.308   0.318  0.00  0.00    -0.074 A 
ATOM      3  C2  UNL d   1      -1.147   1.413  -0.503  0.00  0.00    -0.005 A 
ATOM      4  C3  UNL d   1      -0.332   1.668  -1.605  0.00  0.00     0.006 A 
ATOM      5  C4  UNL d   1       0.739   0.822  -1.898  0.00  0.00    -0.005 A 
ATOM      6  C5  UNL d   1       1.004  -0.287  -1.088  0.00  0.00    -0.074 A 
ATOM      7  C6  UNL d   1       2.157  -1.200  -1.383  0.00  0.00     0.077 C 
ATOM      8  C7  UNL d   1       0.184  -0.533   0.022  0.00  0.00    -0.001 A 
ENDROOT
TORSDOF 0
ENDMDL
