MODEL 1
REMARK minimizedAffinity -3.13655639
REMARK minimizedRMSD -1
REMARK  0 active torsions:
REMARK  status: ('A' for Active; 'I' for Inactive)
ROOT
ATOM      1  C   UNL d   1       3.421  -0.197  -2.579  0.00  0.00     0.077 C 
ATOM      2  C1  UNL d   1       2.133  -0.004  -1.835  0.00  0.00    -0.074 A 
ATOM      3  C2  UNL d   1       1.470   1.227  -1.851  0.00  0.00    -0.005 A 
ATOM      4  C3  UNL d   1       0.269   1.388  -1.162  0.00  0.00     0.006 A 
ATOM      5  C4  UNL d   1      -0.282   0.322  -0.450  0.00  0.00    -0.005 A 
ATOM      6  C5  UNL d   1       0.366  -0.917  -0.423  0.00  0.00    -0.074 A 
ATOM      7  C6  UNL d   1      -0.217  -2.077   0.329  0.00  0.00     0.077 C 
ATOM      8  C7  UNL d   1       1.570  -1.074  -1.124  0.00  0.00    -0.001 A 
ENDROOT
TORSDOF 0
ENDMDL
