MODEL 1
REMARK minimizedAffinity -2.6407094
REMARK minimizedRMSD -1
REMARK  0 active torsions:
REMARK  status: ('A' for Active; 'I' for Inactive)
ROOT
ATOM      1  C   UNL d   1      -0.794   1.898  -1.197  0.00  0.00     0.077 C 
ATOM      2  C1  UNL d   1      -0.056   0.647  -0.823  0.00  0.00    -0.074 A 
ATOM      3  C2  UNL d   1      -0.735  -0.563  -0.648  0.00  0.00    -0.005 A 
ATOM      4  C3  UNL d   1      -0.034  -1.721  -0.309  0.00  0.00     0.006 A 
ATOM      5  C4  UNL d   1       1.350  -1.680  -0.141  0.00  0.00    -0.005 A 
ATOM      6  C5  UNL d   1       2.047  -0.479  -0.312  0.00  0.00    -0.074 A 
ATOM      7  C6  UNL d   1       3.536  -0.420  -0.145  0.00  0.00     0.077 C 
ATOM      8  C7  UNL d   1       1.336   0.678  -0.660  0.00  0.00    -0.001 A 
ENDROOT
TORSDOF 0
ENDMDL
