MODEL 1
REMARK minimizedAffinity -5.14516592
REMARK minimizedRMSD -1
REMARK  0 active torsions:
REMARK  status: ('A' for Active; 'I' for Inactive)
ROOT
ATOM      1  C   UNL d   1       2.175   2.210  -2.598  0.00  0.00     0.077 C 
ATOM      2  C1  UNL d   1       1.670   0.984  -1.897  0.00  0.00    -0.074 A 
ATOM      3  C2  UNL d   1       2.404  -0.206  -1.911  0.00  0.00    -0.005 A 
ATOM      4  C3  UNL d   1       1.926  -1.335  -1.247  0.00  0.00     0.006 A 
ATOM      5  C4  UNL d   1       0.711  -1.286  -0.562  0.00  0.00    -0.005 A 
ATOM      6  C5  UNL d   1      -0.037  -0.104  -0.536  0.00  0.00    -0.074 A 
ATOM      7  C6  UNL d   1      -1.340  -0.031   0.203  0.00  0.00     0.077 C 
ATOM      8  C7  UNL d   1       0.454   1.028  -1.201  0.00  0.00    -0.001 A 
ENDROOT
TORSDOF 0
ENDMDL
