MODEL 1
REMARK minimizedAffinity -5.21629286
REMARK minimizedRMSD -1
REMARK  0 active torsions:
REMARK  status: ('A' for Active; 'I' for Inactive)
ROOT
ATOM      1  C   UNL d   1      -0.940   0.516   0.909  0.00  0.00     0.077 C 
ATOM      2  C1  UNL d   1       0.040  -0.193   0.022  0.00  0.00    -0.074 A 
ATOM      3  C2  UNL d   1       0.019  -1.586  -0.102  0.00  0.00    -0.005 A 
ATOM      4  C3  UNL d   1       0.930  -2.231  -0.939  0.00  0.00     0.006 A 
ATOM      5  C4  UNL d   1       1.870  -1.490  -1.658  0.00  0.00    -0.005 A 
ATOM      6  C5  UNL d   1       1.905  -0.097  -1.546  0.00  0.00    -0.074 A 
ATOM      7  C6  UNL d   1       2.901   0.715  -2.319  0.00  0.00     0.077 C 
ATOM      8  C7  UNL d   1       0.981   0.544  -0.709  0.00  0.00    -0.001 A 
ENDROOT
TORSDOF 0
ENDMDL
