MODEL 1
REMARK minimizedAffinity -3.87931418
REMARK minimizedRMSD -1
REMARK  0 active torsions:
REMARK  status: ('A' for Active; 'I' for Inactive)
ROOT
ATOM      1  C   UNL d   1      -1.175   0.044   0.746  0.00  0.00     0.077 C 
ATOM      2  C1  UNL d   1      -0.155  -0.083  -0.346  0.00  0.00    -0.074 A 
ATOM      3  C2  UNL d   1       0.581  -1.260  -0.509  0.00  0.00    -0.005 A 
ATOM      4  C3  UNL d   1       1.520  -1.367  -1.535  0.00  0.00     0.006 A 
ATOM      5  C4  UNL d   1       1.732  -0.298  -2.407  0.00  0.00    -0.005 A 
ATOM      6  C5  UNL d   1       1.004   0.887  -2.261  0.00  0.00    -0.074 A 
ATOM      7  C6  UNL d   1       1.212   2.041  -3.196  0.00  0.00     0.077 C 
ATOM      8  C7  UNL d   1       0.058   0.984  -1.231  0.00  0.00    -0.001 A 
ENDROOT
TORSDOF 0
ENDMDL
