MODEL 1
REMARK minimizedAffinity -3.90665984
REMARK minimizedRMSD -1
REMARK  0 active torsions:
REMARK  status: ('A' for Active; 'I' for Inactive)
ROOT
ATOM      1  C   UNL d   1       1.229   2.343  -1.125  0.00  0.00     0.077 C 
ATOM      2  C1  UNL d   1       1.496   0.868  -1.083  0.00  0.00    -0.074 A 
ATOM      3  C2  UNL d   1       2.753   0.355  -1.419  0.00  0.00    -0.005 A 
ATOM      4  C3  UNL d   1       2.989  -1.019  -1.366  0.00  0.00     0.006 A 
ATOM      5  C4  UNL d   1       1.973  -1.892  -0.976  0.00  0.00    -0.005 A 
ATOM      6  C5  UNL d   1       0.710  -1.397  -0.635  0.00  0.00    -0.074 A 
ATOM      7  C6  UNL d   1      -0.390  -2.321  -0.204  0.00  0.00     0.077 C 
ATOM      8  C7  UNL d   1       0.482  -0.015  -0.684  0.00  0.00    -0.001 A 
ENDROOT
TORSDOF 0
ENDMDL
