MODEL 1
REMARK minimizedAffinity -3.02664518
REMARK minimizedRMSD -1
REMARK  0 active torsions:
REMARK  status: ('A' for Active; 'I' for Inactive)
ROOT
ATOM      1  C   UNL d   1       3.279  -0.022  -1.329  0.00  0.00     0.077 C 
ATOM      2  C1  UNL d   1       1.898   0.517  -1.099  0.00  0.00    -0.074 A 
ATOM      3  C2  UNL d   1       1.461   1.676  -1.748  0.00  0.00    -0.005 A 
ATOM      4  C3  UNL d   1       0.171   2.161  -1.531  0.00  0.00     0.006 A 
ATOM      5  C4  UNL d   1      -0.694   1.492  -0.664  0.00  0.00    -0.005 A 
ATOM      6  C5  UNL d   1      -0.275   0.330  -0.007  0.00  0.00    -0.074 A 
ATOM      7  C6  UNL d   1      -1.195  -0.406   0.920  0.00  0.00     0.077 C 
ATOM      8  C7  UNL d   1       1.020  -0.154  -0.235  0.00  0.00    -0.001 A 
ENDROOT
TORSDOF 0
ENDMDL
