MODEL 1
REMARK minimizedAffinity -3.72817993
REMARK minimizedRMSD -1
REMARK  0 active torsions:
REMARK  status: ('A' for Active; 'I' for Inactive)
ROOT
ATOM      1  C   UNL d   1      -3.753  -1.365   2.928  0.00  0.00     0.077 C 
ATOM      2  C1  UNL d   1      -2.691  -0.355   2.608  0.00  0.00    -0.074 A 
ATOM      3  C2  UNL d   1      -2.427   0.709   3.476  0.00  0.00    -0.005 A 
ATOM      4  C3  UNL d   1      -1.430   1.635   3.170  0.00  0.00     0.006 A 
ATOM      5  C4  UNL d   1      -0.688   1.507   1.995  0.00  0.00    -0.005 A 
ATOM      6  C5  UNL d   1      -0.938   0.448   1.116  0.00  0.00    -0.074 A 
ATOM      7  C6  UNL d   1      -0.143   0.290  -0.147  0.00  0.00     0.077 C 
ATOM      8  C7  UNL d   1      -1.936  -0.482   1.434  0.00  0.00    -0.001 A 
ENDROOT
TORSDOF 0
ENDMDL
