MODEL 1
REMARK minimizedAffinity -5.10385418
REMARK minimizedRMSD -1
REMARK  0 active torsions:
REMARK  status: ('A' for Active; 'I' for Inactive)
ROOT
ATOM      1  C   UNL d   1       2.653  -0.783  -1.517  0.00  0.00     0.077 C 
ATOM      2  C1  UNL d   1       1.498   0.113  -1.179  0.00  0.00    -0.074 A 
ATOM      3  C2  UNL d   1       1.353   1.361  -1.793  0.00  0.00    -0.005 A 
ATOM      4  C3  UNL d   1       0.269   2.179  -1.476  0.00  0.00     0.006 A 
ATOM      5  C4  UNL d   1      -0.680   1.758  -0.543  0.00  0.00    -0.005 A 
ATOM      6  C5  UNL d   1      -0.551   0.513   0.081  0.00  0.00    -0.074 A 
ATOM      7  C6  UNL d   1      -1.567   0.041   1.078  0.00  0.00     0.077 C 
ATOM      8  C7  UNL d   1       0.537  -0.307  -0.249  0.00  0.00    -0.001 A 
ENDROOT
TORSDOF 0
ENDMDL
