MODEL 1
REMARK minimizedAffinity -1.39452422
REMARK minimizedRMSD -1
REMARK  0 active torsions:
REMARK  status: ('A' for Active; 'I' for Inactive)
ROOT
ATOM      1  C   UNL d   1       2.454  -1.827  -1.438  0.00  0.00     0.077 C 
ATOM      2  C1  UNL d   1       1.327  -0.873  -1.173  0.00  0.00    -0.074 A 
ATOM      3  C2  UNL d   1       0.271  -1.226  -0.327  0.00  0.00    -0.005 A 
ATOM      4  C3  UNL d   1      -0.765  -0.325  -0.083  0.00  0.00     0.006 A 
ATOM      5  C4  UNL d   1      -0.756   0.936  -0.681  0.00  0.00    -0.005 A 
ATOM      6  C5  UNL d   1       0.292   1.306  -1.530  0.00  0.00    -0.074 A 
ATOM      7  C6  UNL d   1       0.323   2.661  -2.173  0.00  0.00     0.077 C 
ATOM      8  C7  UNL d   1       1.333   0.398  -1.765  0.00  0.00    -0.001 A 
ENDROOT
TORSDOF 0
ENDMDL
