MODEL 1
REMARK minimizedAffinity -2.54119515
REMARK minimizedRMSD -1
REMARK  0 active torsions:
REMARK  status: ('A' for Active; 'I' for Inactive)
ROOT
ATOM      1  C   UNL d   1      -1.986   0.025   2.092  0.00  0.00     0.077 C 
ATOM      2  C1  UNL d   1      -1.238   0.653   0.953  0.00  0.00    -0.074 A 
ATOM      3  C2  UNL d   1      -1.881   1.517   0.061  0.00  0.00    -0.005 A 
ATOM      4  C3  UNL d   1      -1.171   2.101  -0.988  0.00  0.00     0.006 A 
ATOM      5  C4  UNL d   1       0.187   1.826  -1.155  0.00  0.00    -0.005 A 
ATOM      6  C5  UNL d   1       0.847   0.965  -0.272  0.00  0.00    -0.074 A 
ATOM      7  C6  UNL d   1       2.308   0.667  -0.432  0.00  0.00     0.077 C 
ATOM      8  C7  UNL d   1       0.128   0.388   0.783  0.00  0.00    -0.001 A 
ENDROOT
TORSDOF 0
ENDMDL
