MODEL 1
REMARK minimizedAffinity 0.0192322731
REMARK minimizedRMSD -1
REMARK  0 active torsions:
REMARK  status: ('A' for Active; 'I' for Inactive)
ROOT
ATOM      1  C   UNL d   1      -0.398  -3.809   0.732  0.00  0.00     0.077 C 
ATOM      2  C1  UNL d   1       0.165  -2.676  -0.073  0.00  0.00    -0.074 A 
ATOM      3  C2  UNL d   1       1.336  -2.838  -0.820  0.00  0.00    -0.005 A 
ATOM      4  C3  UNL d   1       1.843  -1.778  -1.572  0.00  0.00     0.006 A 
ATOM      5  C4  UNL d   1       1.185  -0.548  -1.585  0.00  0.00    -0.005 A 
ATOM      6  C5  UNL d   1       0.012  -0.368  -0.845  0.00  0.00    -0.074 A 
ATOM      7  C6  UNL d   1      -0.713   0.945  -0.855  0.00  0.00     0.077 C 
ATOM      8  C7  UNL d   1      -0.495  -1.440  -0.097  0.00  0.00    -0.001 A 
ENDROOT
TORSDOF 0
ENDMDL
