MODEL 1
REMARK minimizedAffinity 8.52221203
REMARK minimizedRMSD -1
REMARK  2 active torsions:
REMARK  status: ('A' for Active; 'I' for Inactive)
REMARK    1  A    between atoms: C1_2  and  C2_3 
REMARK    2  A    between atoms: C2_3  and  C3_4 
ROOT
ATOM      1  C3  UNL d   1      -0.276   2.173   0.168  0.00  0.00    -0.075 A 
ATOM      2  C4  UNL d   1       0.705   1.314  -0.347  0.00  0.00     0.002 A 
ATOM      3  C5  UNL d   1       0.356   0.059  -0.848  0.00  0.00     0.002 A 
ATOM      4  C6  UNL d   1      -0.974  -0.355  -0.832  0.00  0.00    -0.004 A 
ATOM      5  C7  UNL d   1      -1.955   0.484  -0.307  0.00  0.00     0.002 A 
ATOM      6  C8  UNL d   1      -1.609   1.741   0.191  0.00  0.00     0.002 A 
ENDROOT
BRANCH   1   7
ATOM      7  C2  UNL d   1       0.091   3.544   0.684  0.00  0.00     0.056 C 
BRANCH   7   8
ATOM      8  C1  UNL d   1       0.388   4.567  -0.418  0.00  0.00     0.007 C 
ATOM      9  C   UNL d   1       0.068   5.998  -0.009  0.00  0.00     0.009 C 
ENDBRANCH   7   8
ENDBRANCH   1   7
TORSDOF 2
ENDMDL
