MODEL 1
REMARK minimizedAffinity 11.0814619
REMARK minimizedRMSD -1
REMARK  2 active torsions:
REMARK  status: ('A' for Active; 'I' for Inactive)
REMARK    1  A    between atoms: C1_2  and  C2_3 
REMARK    2  A    between atoms: C2_3  and  C3_4 
ROOT
ATOM      1  C3  UNL d   1       1.209   0.634   3.109  0.00  0.00    -0.075 A 
ATOM      2  C4  UNL d   1       1.634   1.612   2.198  0.00  0.00     0.002 A 
ATOM      3  C5  UNL d   1       0.879   2.767   1.997  0.00  0.00     0.002 A 
ATOM      4  C6  UNL d   1      -0.312   2.956   2.694  0.00  0.00    -0.004 A 
ATOM      5  C7  UNL d   1      -0.752   1.983   3.590  0.00  0.00     0.002 A 
ATOM      6  C8  UNL d   1       0.003   0.828   3.796  0.00  0.00     0.002 A 
ENDROOT
BRANCH   1   7
ATOM      7  C2  UNL d   1       2.036  -0.606   3.354  0.00  0.00     0.056 C 
BRANCH   7   8
ATOM      8  C1  UNL d   1       1.501  -1.502   4.476  0.00  0.00     0.007 C 
ATOM      9  C   UNL d   1       2.587  -2.323   5.158  0.00  0.00     0.009 C 
ENDBRANCH   7   8
ENDBRANCH   1   7
TORSDOF 2
ENDMDL
