MODEL 1
REMARK minimizedAffinity 5.60249424
REMARK minimizedRMSD -1
REMARK  2 active torsions:
REMARK  status: ('A' for Active; 'I' for Inactive)
REMARK    1  A    between atoms: C1_2  and  C2_3 
REMARK    2  A    between atoms: C2_3  and  C3_4 
ROOT
ATOM      1  C3  UNL d   1      -0.021   4.009   0.993  0.00  0.00    -0.075 A 
ATOM      2  C4  UNL d   1       0.735   4.024  -0.187  0.00  0.00     0.002 A 
ATOM      3  C5  UNL d   1       0.532   5.017  -1.147  0.00  0.00     0.002 A 
ATOM      4  C6  UNL d   1      -0.436   5.999  -0.943  0.00  0.00    -0.004 A 
ATOM      5  C7  UNL d   1      -1.204   5.984   0.219  0.00  0.00     0.002 A 
ATOM      6  C8  UNL d   1      -1.000   4.995   1.182  0.00  0.00     0.002 A 
ENDROOT
BRANCH   1   7
ATOM      7  C2  UNL d   1       0.215   2.955   2.049  0.00  0.00     0.056 C 
BRANCH   7   8
ATOM      8  C1  UNL d   1       1.678   2.520   2.180  0.00  0.00     0.007 C 
ATOM      9  C   UNL d   1       2.299   2.898   3.518  0.00  0.00     0.009 C 
ENDBRANCH   7   8
ENDBRANCH   1   7
TORSDOF 2
ENDMDL
