MODEL 1
REMARK minimizedAffinity 6.91972017
REMARK minimizedRMSD -1
REMARK  2 active torsions:
REMARK  status: ('A' for Active; 'I' for Inactive)
REMARK    1  A    between atoms: C1_2  and  C2_3 
REMARK    2  A    between atoms: C2_3  and  C3_4 
ROOT
ATOM      1  C3  UNL d   1      -0.384   3.785   1.036  0.00  0.00    -0.075 A 
ATOM      2  C4  UNL d   1      -1.218   4.896   1.225  0.00  0.00     0.002 A 
ATOM      3  C5  UNL d   1      -1.140   5.994   0.367  0.00  0.00     0.002 A 
ATOM      4  C6  UNL d   1      -0.222   6.000  -0.680  0.00  0.00    -0.004 A 
ATOM      5  C7  UNL d   1       0.624   4.908  -0.867  0.00  0.00     0.002 A 
ATOM      6  C8  UNL d   1       0.545   3.807  -0.013  0.00  0.00     0.002 A 
ENDROOT
BRANCH   1   7
ATOM      7  C2  UNL d   1      -0.484   2.581   1.943  0.00  0.00     0.056 C 
BRANCH   7   8
ATOM      8  C1  UNL d   1       0.794   2.290   2.736  0.00  0.00     0.007 C 
ATOM      9  C   UNL d   1       0.624   1.177   3.761  0.00  0.00     0.009 C 
ENDBRANCH   7   8
ENDBRANCH   1   7
TORSDOF 2
ENDMDL
