MODEL 1
REMARK minimizedAffinity 8.19478321
REMARK minimizedRMSD -1
REMARK  2 active torsions:
REMARK  status: ('A' for Active; 'I' for Inactive)
REMARK    1  A    between atoms: C1_2  and  C2_3 
REMARK    2  A    between atoms: C2_3  and  C3_4 
ROOT
ATOM      1  C3  UNL d   1       0.015   3.269   0.050  0.00  0.00    -0.075 A 
ATOM      2  C4  UNL d   1      -0.853   4.130   0.737  0.00  0.00     0.002 A 
ATOM      3  C5  UNL d   1      -0.910   5.486   0.412  0.00  0.00     0.002 A 
ATOM      4  C6  UNL d   1      -0.095   5.999  -0.594  0.00  0.00    -0.004 A 
ATOM      5  C7  UNL d   1       0.783   5.156  -1.272  0.00  0.00     0.002 A 
ATOM      6  C8  UNL d   1       0.839   3.798  -0.952  0.00  0.00     0.002 A 
ENDROOT
BRANCH   1   7
ATOM      7  C2  UNL d   1       0.060   1.795   0.377  0.00  0.00     0.056 C 
BRANCH   7   8
ATOM      8  C1  UNL d   1       0.677   0.930  -0.727  0.00  0.00     0.007 C 
ATOM      9  C   UNL d   1      -0.255  -0.168  -1.220  0.00  0.00     0.009 C 
ENDBRANCH   7   8
ENDBRANCH   1   7
TORSDOF 2
ENDMDL
