MODEL 1
REMARK minimizedAffinity 9.83956623
REMARK minimizedRMSD -1
REMARK  2 active torsions:
REMARK  status: ('A' for Active; 'I' for Inactive)
REMARK    1  A    between atoms: C1_2  and  C2_3 
REMARK    2  A    between atoms: C2_3  and  C3_4 
ROOT
ATOM      1  C3  UNL d   1      -4.412   4.883  -3.668  0.00  0.00    -0.075 A 
ATOM      2  C4  UNL d   1      -4.410   5.987  -4.532  0.00  0.00     0.002 A 
ATOM      3  C5  UNL d   1      -5.199   5.988  -5.682  0.00  0.00     0.002 A 
ATOM      4  C6  UNL d   1      -5.991   4.884  -5.989  0.00  0.00    -0.004 A 
ATOM      5  C7  UNL d   1      -5.988   3.774  -5.146  0.00  0.00     0.002 A 
ATOM      6  C8  UNL d   1      -5.203   3.772  -3.992  0.00  0.00     0.002 A 
ENDROOT
BRANCH   1   7
ATOM      7  C2  UNL d   1      -3.583   4.887  -2.406  0.00  0.00     0.056 C 
BRANCH   7   8
ATOM      8  C1  UNL d   1      -2.376   5.830  -2.456  0.00  0.00     0.007 C 
ATOM      9  C   UNL d   1      -1.043   5.097  -2.528  0.00  0.00     0.009 C 
ENDBRANCH   7   8
ENDBRANCH   1   7
TORSDOF 2
ENDMDL
