MODEL 1
REMARK minimizedAffinity 12.1168709
REMARK minimizedRMSD -1
REMARK  2 active torsions:
REMARK  status: ('A' for Active; 'I' for Inactive)
REMARK    1  A    between atoms: C1_2  and  C2_3 
REMARK    2  A    between atoms: C2_3  and  C3_4 
ROOT
ATOM      1  C3  UNL d   1      -2.601   0.852  -2.578  0.00  0.00    -0.075 A 
ATOM      2  C4  UNL d   1      -3.280   2.075  -2.477  0.00  0.00     0.002 A 
ATOM      3  C5  UNL d   1      -3.687   2.757  -3.624  0.00  0.00     0.002 A 
ATOM      4  C6  UNL d   1      -3.411   2.232  -4.885  0.00  0.00    -0.004 A 
ATOM      5  C7  UNL d   1      -2.722   1.027  -4.998  0.00  0.00     0.002 A 
ATOM      6  C8  UNL d   1      -2.318   0.340  -3.851  0.00  0.00     0.002 A 
ENDROOT
BRANCH   1   7
ATOM      7  C2  UNL d   1      -2.185   0.095  -1.340  0.00  0.00     0.056 C 
BRANCH   7   8
ATOM      8  C1  UNL d   1      -0.941  -0.780  -1.533  0.00  0.00     0.007 C 
ATOM      9  C   UNL d   1       0.360  -0.045  -1.243  0.00  0.00     0.009 C 
ENDBRANCH   7   8
ENDBRANCH   1   7
TORSDOF 2
ENDMDL
