MODEL 1
REMARK minimizedAffinity 5.18233967
REMARK minimizedRMSD -1
REMARK  0 active torsions:
REMARK  status: ('A' for Active; 'I' for Inactive)
ROOT
ATOM      1  C   UNL d   1       1.862  -3.421   1.962  0.00  0.00     0.078 C 
ATOM      2  C1  UNL d   1       0.833  -2.547   2.613  0.00  0.00    -0.077 A 
ATOM      3  C2  UNL d   1       1.176  -1.689   3.665  0.00  0.00    -0.001 A 
ATOM      4  C3  UNL d   1       0.205  -0.889   4.269  0.00  0.00     0.003 A 
ATOM      5  C4  UNL d   1      -1.116  -0.939   3.828  0.00  0.00    -0.005 A 
ATOM      6  C5  UNL d   1      -1.468  -1.791   2.783  0.00  0.00     0.003 A 
ATOM      7  C6  UNL d   1      -0.498  -2.593   2.179  0.00  0.00    -0.001 A 
ENDROOT
TORSDOF 0
ENDMDL
