MODEL 1
REMARK minimizedAffinity 5.0375762
REMARK minimizedRMSD -1
REMARK  0 active torsions:
REMARK  status: ('A' for Active; 'I' for Inactive)
ROOT
ATOM      1  C   UNL d   1      -4.245   1.057  -1.394  0.00  0.00     0.078 C 
ATOM      2  C1  UNL d   1      -4.415  -0.183  -2.220  0.00  0.00    -0.077 A 
ATOM      3  C2  UNL d   1      -5.271  -0.199  -3.329  0.00  0.00    -0.001 A 
ATOM      4  C3  UNL d   1      -5.427  -1.363  -4.083  0.00  0.00     0.003 A 
ATOM      5  C4  UNL d   1      -4.733  -2.520  -3.736  0.00  0.00    -0.005 A 
ATOM      6  C5  UNL d   1      -3.881  -2.514  -2.634  0.00  0.00     0.003 A 
ATOM      7  C6  UNL d   1      -3.723  -1.351  -1.878  0.00  0.00    -0.001 A 
ENDROOT
TORSDOF 0
ENDMDL
