MODEL 1
REMARK minimizedAffinity 8.91114426
REMARK minimizedRMSD -1
REMARK  0 active torsions:
REMARK  status: ('A' for Active; 'I' for Inactive)
ROOT
ATOM      1  C   UNL d   1       4.911   0.398  -3.711  0.00  0.00     0.078 C 
ATOM      2  C1  UNL d   1       3.846   0.651  -2.686  0.00  0.00    -0.077 A 
ATOM      3  C2  UNL d   1       2.512   0.846  -3.065  0.00  0.00    -0.001 A 
ATOM      4  C3  UNL d   1       1.533   1.090  -2.101  0.00  0.00     0.003 A 
ATOM      5  C4  UNL d   1       1.877   1.144  -0.752  0.00  0.00    -0.005 A 
ATOM      6  C5  UNL d   1       3.202   0.954  -0.365  0.00  0.00     0.003 A 
ATOM      7  C6  UNL d   1       4.183   0.709  -1.328  0.00  0.00    -0.001 A 
ENDROOT
TORSDOF 0
ENDMDL
