MODEL 1
REMARK minimizedAffinity 2.38416648
REMARK minimizedRMSD -1
REMARK  0 active torsions:
REMARK  status: ('A' for Active; 'I' for Inactive)
ROOT
ATOM      1  C   UNL d   1       2.206  -3.006   1.838  0.00  0.00     0.078 C 
ATOM      2  C1  UNL d   1       1.014  -2.195   2.251  0.00  0.00    -0.077 A 
ATOM      3  C2  UNL d   1       1.165  -1.013   2.985  0.00  0.00    -0.001 A 
ATOM      4  C3  UNL d   1       0.046  -0.273   3.371  0.00  0.00     0.003 A 
ATOM      5  C4  UNL d   1      -1.232  -0.709   3.029  0.00  0.00    -0.005 A 
ATOM      6  C5  UNL d   1      -1.393  -1.886   2.301  0.00  0.00     0.003 A 
ATOM      7  C6  UNL d   1      -0.275  -2.626   1.914  0.00  0.00    -0.001 A 
ENDROOT
TORSDOF 0
ENDMDL
