MODEL 1
REMARK minimizedAffinity 7.12834597
REMARK minimizedRMSD -1
REMARK  0 active torsions:
REMARK  status: ('A' for Active; 'I' for Inactive)
ROOT
ATOM      1  C   UNL d   1       0.896  -1.765   1.692  0.00  0.00     0.078 C 
ATOM      2  C1  UNL d   1       1.069  -0.839   0.526  0.00  0.00    -0.077 A 
ATOM      3  C2  UNL d   1       0.335  -1.019  -0.653  0.00  0.00    -0.001 A 
ATOM      4  C3  UNL d   1       0.513  -0.155  -1.735  0.00  0.00     0.003 A 
ATOM      5  C4  UNL d   1       1.426   0.894  -1.649  0.00  0.00    -0.005 A 
ATOM      6  C5  UNL d   1       2.163   1.080  -0.481  0.00  0.00     0.003 A 
ATOM      7  C6  UNL d   1       1.986   0.217   0.602  0.00  0.00    -0.001 A 
ENDROOT
TORSDOF 0
ENDMDL
