MODEL 1
REMARK minimizedAffinity 7.02005386
REMARK minimizedRMSD -1
REMARK  0 active torsions:
REMARK  status: ('A' for Active; 'I' for Inactive)
ROOT
ATOM      1  C   UNL d   1      -3.770  -0.381  -5.999  0.00  0.00     0.078 C 
ATOM      2  C1  UNL d   1      -3.934  -0.927  -4.613  0.00  0.00    -0.077 A 
ATOM      3  C2  UNL d   1      -3.464  -0.222  -3.499  0.00  0.00    -0.001 A 
ATOM      4  C3  UNL d   1      -3.615  -0.747  -2.215  0.00  0.00     0.003 A 
ATOM      5  C4  UNL d   1      -4.236  -1.981  -2.032  0.00  0.00    -0.005 A 
ATOM      6  C5  UNL d   1      -4.706  -2.692  -3.135  0.00  0.00     0.003 A 
ATOM      7  C6  UNL d   1      -4.555  -2.168  -4.420  0.00  0.00    -0.001 A 
ENDROOT
TORSDOF 0
ENDMDL
