MODEL 1
REMARK minimizedAffinity 2.3488934
REMARK minimizedRMSD -1
REMARK  0 active torsions:
REMARK  status: ('A' for Active; 'I' for Inactive)
ROOT
ATOM      1  C   UNL d   1       2.513   3.098   3.022  0.00  0.00     0.078 C 
ATOM      2  C1  UNL d   1       2.104   4.105   4.056  0.00  0.00    -0.077 A 
ATOM      3  C2  UNL d   1       0.820   4.663   4.050  0.00  0.00    -0.001 A 
ATOM      4  C3  UNL d   1       0.457   5.606   5.013  0.00  0.00     0.003 A 
ATOM      5  C4  UNL d   1       1.372   6.000   5.987  0.00  0.00    -0.005 A 
ATOM      6  C5  UNL d   1       2.652   5.451   5.999  0.00  0.00     0.003 A 
ATOM      7  C6  UNL d   1       3.018   4.508   5.037  0.00  0.00    -0.001 A 
ENDROOT
TORSDOF 0
ENDMDL
