MODEL 1
REMARK minimizedAffinity 11.4749594
REMARK minimizedRMSD -1
REMARK  0 active torsions:
REMARK  status: ('A' for Active; 'I' for Inactive)
ROOT
ATOM      1  C   UNL d   1       1.081  -2.165   1.828  0.00  0.00     0.078 C 
ATOM      2  C1  UNL d   1       1.173  -1.094   0.781  0.00  0.00    -0.077 A 
ATOM      3  C2  UNL d   1       1.980   0.034   0.973  0.00  0.00    -0.001 A 
ATOM      4  C3  UNL d   1       2.049   1.027  -0.006  0.00  0.00     0.003 A 
ATOM      5  C4  UNL d   1       1.311   0.902  -1.182  0.00  0.00    -0.005 A 
ATOM      6  C5  UNL d   1       0.503  -0.215  -1.380  0.00  0.00     0.003 A 
ATOM      7  C6  UNL d   1       0.433  -1.209  -0.402  0.00  0.00    -0.001 A 
ENDROOT
TORSDOF 0
ENDMDL
