MODEL 1
REMARK minimizedAffinity 9.23520374
REMARK minimizedRMSD -1
REMARK  0 active torsions:
REMARK  status: ('A' for Active; 'I' for Inactive)
ROOT
ATOM      1  C   UNL d   1       2.946   0.698   0.430  0.00  0.00     0.078 C 
ATOM      2  C1  UNL d   1       2.475  -0.665   0.839  0.00  0.00    -0.077 A 
ATOM      3  C2  UNL d   1       1.139  -1.048   0.667  0.00  0.00    -0.001 A 
ATOM      4  C3  UNL d   1       0.713  -2.317   1.062  0.00  0.00     0.003 A 
ATOM      5  C4  UNL d   1       1.615  -3.213   1.631  0.00  0.00    -0.005 A 
ATOM      6  C5  UNL d   1       2.946  -2.840   1.808  0.00  0.00     0.003 A 
ATOM      7  C6  UNL d   1       3.374  -1.572   1.415  0.00  0.00    -0.001 A 
ENDROOT
TORSDOF 0
ENDMDL
