MODEL 1
REMARK minimizedAffinity -4.12445354
REMARK minimizedRMSD -1
REMARK  0 active torsions:
REMARK  status: ('A' for Active; 'I' for Inactive)
ROOT
ATOM      1  C2' OXE d   1       1.120   2.426   0.052  0.00  0.00     0.078 C 
ATOM      2  C1' OXE d   1      -0.989   0.615  -0.340  0.00  0.00     0.078 C 
ATOM      3  C1  OXE d   1       0.334   0.064   0.129  0.00  0.00    -0.078 A 
ATOM      4  C2  OXE d   1       1.374   0.951   0.273  0.00  0.00    -0.078 A 
ATOM      5  C3  OXE d   1       2.600   0.503   0.755  0.00  0.00     0.003 A 
ATOM      6  C4  OXE d   1       2.830  -0.865   0.947  0.00  0.00    -0.002 A 
ATOM      7  C5  OXE d   1       1.796  -1.790   0.768  0.00  0.00    -0.002 A 
ATOM      8  C6  OXE d   1       0.533  -1.339   0.401  0.00  0.00     0.003 A 
ENDROOT
TORSDOF 0
ENDMDL
