MODEL 1
REMARK minimizedAffinity -2.32910895
REMARK minimizedRMSD -1
REMARK  0 active torsions:
REMARK  status: ('A' for Active; 'I' for Inactive)
ROOT
ATOM      1  C2' OXE d   1       0.981  -2.316   1.497  0.00  0.00     0.078 C 
ATOM      2  C1' OXE d   1       2.834  -0.231   1.187  0.00  0.00     0.078 C 
ATOM      3  C1  OXE d   1       1.411   0.024   0.758  0.00  0.00    -0.078 A 
ATOM      4  C2  OXE d   1       0.521  -1.018   0.870  0.00  0.00    -0.078 A 
ATOM      5  C3  OXE d   1      -0.817  -0.820   0.541  0.00  0.00     0.003 A 
ATOM      6  C4  OXE d   1      -1.232   0.381  -0.047  0.00  0.00    -0.002 A 
ATOM      7  C5  OXE d   1      -0.333   1.441  -0.207  0.00  0.00    -0.002 A 
ATOM      8  C6  OXE d   1       0.979   1.294   0.229  0.00  0.00     0.003 A 
ENDROOT
TORSDOF 0
ENDMDL
