MODEL 1
REMARK minimizedAffinity -4.50220871
REMARK minimizedRMSD -1
REMARK  0 active torsions:
REMARK  status: ('A' for Active; 'I' for Inactive)
ROOT
ATOM      1  C2' OXE d   1       3.176  -0.017   0.811  0.00  0.00     0.078 C 
ATOM      2  C1' OXE d   1       1.342  -2.142   0.809  0.00  0.00     0.078 C 
ATOM      3  C1  OXE d   1       0.841  -0.780   0.398  0.00  0.00    -0.078 A 
ATOM      4  C2  OXE d   1       1.734   0.263   0.446  0.00  0.00    -0.078 A 
ATOM      5  C3  OXE d   1       1.339   1.529   0.025  0.00  0.00     0.003 A 
ATOM      6  C4  OXE d   1       0.001   1.782  -0.302  0.00  0.00    -0.002 A 
ATOM      7  C5  OXE d   1      -0.934   0.741  -0.320  0.00  0.00    -0.002 A 
ATOM      8  C6  OXE d   1      -0.522  -0.551  -0.015  0.00  0.00     0.003 A 
ENDROOT
TORSDOF 0
ENDMDL
