MODEL 1
REMARK minimizedAffinity -4.23606157
REMARK minimizedRMSD -1
REMARK  0 active torsions:
REMARK  status: ('A' for Active; 'I' for Inactive)
ROOT
ATOM      1  C2' OXE d   1       2.982  -0.407   1.062  0.00  0.00     0.078 C 
ATOM      2  C1' OXE d   1       1.011  -2.388   1.331  0.00  0.00     0.078 C 
ATOM      3  C1  OXE d   1       0.589  -1.044   0.792  0.00  0.00    -0.078 A 
ATOM      4  C2  OXE d   1       1.550  -0.066   0.707  0.00  0.00    -0.078 A 
ATOM      5  C3  OXE d   1       1.226   1.174   0.165  0.00  0.00     0.003 A 
ATOM      6  C4  OXE d   1      -0.102   1.484  -0.152  0.00  0.00    -0.002 A 
ATOM      7  C5  OXE d   1      -1.104   0.515  -0.036  0.00  0.00    -0.002 A 
ATOM      8  C6  OXE d   1      -0.768  -0.764   0.393  0.00  0.00     0.003 A 
ENDROOT
TORSDOF 0
ENDMDL
