MODEL 1
REMARK minimizedAffinity -5.02163506
REMARK minimizedRMSD -1
REMARK  0 active torsions:
REMARK  status: ('A' for Active; 'I' for Inactive)
ROOT
ATOM      1  C2' OXE d   1      -1.028   0.461   0.024  0.00  0.00     0.078 C 
ATOM      2  C1' OXE d   1       0.888   2.365  -0.740  0.00  0.00     0.078 C 
ATOM      3  C1  OXE d   1       1.381   1.075  -0.132  0.00  0.00    -0.078 A 
ATOM      4  C2  OXE d   1       0.434   0.169   0.282  0.00  0.00    -0.078 A 
ATOM      5  C3  OXE d   1       0.836  -1.059   0.799  0.00  0.00     0.003 A 
ATOM      6  C4  OXE d   1       2.190  -1.317   1.043  0.00  0.00    -0.002 A 
ATOM      7  C5  OXE d   1       3.168  -0.391   0.665  0.00  0.00    -0.002 A 
ATOM      8  C6  OXE d   1       2.784   0.789   0.039  0.00  0.00     0.003 A 
ENDROOT
TORSDOF 0
ENDMDL
