MODEL 1
REMARK minimizedAffinity -2.89036608
REMARK minimizedRMSD -1
REMARK  0 active torsions:
REMARK  status: ('A' for Active; 'I' for Inactive)
ROOT
ATOM      1  C   UNL d   1      -1.090   1.564  -0.959  0.00  0.00     0.124 A 
ATOM      2  C1  UNL d   1      -1.068   2.095   0.323  0.00  0.00     0.062 A 
ATOM      3  C2  UNL d   1      -0.275   1.513   1.308  0.00  0.00     0.162 A 
ATOM      4  C3  UNL d   1       0.505   0.394   1.014  0.00  0.00    -0.034 A 
ATOM      5  C4  UNL d   1       0.477  -0.134  -0.277  0.00  0.00     0.162 A 
ATOM      6  C5  UNL d   1      -0.318   0.451  -1.258  0.00  0.00     0.062 A 
ATOM      7  F   UNL d   1      -0.337  -0.064  -2.497  0.00  0.00    -0.097 F 
ATOM      8  F1  UNL d   1       1.214  -1.209  -0.594  0.00  0.00    -0.096 F 
ATOM      9  I   UNL d   1       1.692  -0.478   2.484  0.00  0.00    -0.060 I 
ATOM     10  F2  UNL d   1      -0.274   2.047   2.539  0.00  0.00    -0.096 F 
ATOM     11  F3  UNL d   1      -1.814   3.170   0.615  0.00  0.00    -0.097 F 
ATOM     12  F4  UNL d   1      -1.855   2.125  -1.905  0.00  0.00    -0.092 F 
ENDROOT
TORSDOF 0
ENDMDL
