MODEL 1
REMARK minimizedAffinity -0.204921916
REMARK minimizedRMSD -1
REMARK  0 active torsions:
REMARK  status: ('A' for Active; 'I' for Inactive)
ROOT
ATOM      1  C   UNL d   1      -0.566   1.973   0.823  0.00  0.00     0.124 A 
ATOM      2  C1  UNL d   1      -0.219   0.855   1.569  0.00  0.00     0.062 A 
ATOM      3  C2  UNL d   1      -0.076  -0.383   0.948  0.00  0.00     0.162 A 
ATOM      4  C3  UNL d   1      -0.280  -0.509  -0.426  0.00  0.00    -0.034 A 
ATOM      5  C4  UNL d   1      -0.630   0.620  -1.169  0.00  0.00     0.162 A 
ATOM      6  C5  UNL d   1      -0.771   1.855  -0.544  0.00  0.00     0.062 A 
ATOM      7  F   UNL d   1      -1.107   2.934  -1.266  0.00  0.00    -0.097 F 
ATOM      8  F1  UNL d   1      -0.833   0.533  -2.492  0.00  0.00    -0.096 F 
ATOM      9  I   UNL d   1      -0.068  -2.359  -1.357  0.00  0.00    -0.060 I 
ATOM     10  F2  UNL d   1       0.260  -1.447   1.693  0.00  0.00    -0.096 F 
ATOM     11  F3  UNL d   1      -0.021   0.967   2.890  0.00  0.00    -0.097 F 
ATOM     12  F4  UNL d   1      -0.704   3.163   1.422  0.00  0.00    -0.092 F 
ENDROOT
TORSDOF 0
ENDMDL
