MODEL 1
REMARK minimizedAffinity -1.59600294
REMARK minimizedRMSD -1
REMARK  0 active torsions:
REMARK  status: ('A' for Active; 'I' for Inactive)
ROOT
ATOM      1  C   UNL d   1       0.553  -1.975  -1.663  0.00  0.00     0.124 A 
ATOM      2  C1  UNL d   1      -0.008  -2.322  -0.441  0.00  0.00     0.062 A 
ATOM      3  C2  UNL d   1      -0.414  -1.332   0.449  0.00  0.00     0.162 A 
ATOM      4  C3  UNL d   1      -0.260   0.015   0.122  0.00  0.00    -0.034 A 
ATOM      5  C4  UNL d   1       0.306   0.356  -1.108  0.00  0.00     0.162 A 
ATOM      6  C5  UNL d   1       0.710  -0.637  -1.994  0.00  0.00     0.062 A 
ATOM      7  F   UNL d   1       1.252  -0.299  -3.174  0.00  0.00    -0.097 F 
ATOM      8  F1  UNL d   1       0.468   1.642  -1.454  0.00  0.00    -0.096 F 
ATOM      9  I   UNL d   1      -0.865   1.498   1.451  0.00  0.00    -0.060 I 
ATOM     10  F2  UNL d   1      -0.953  -1.697   1.622  0.00  0.00    -0.096 F 
ATOM     11  F3  UNL d   1      -0.160  -3.614  -0.118  0.00  0.00    -0.097 F 
ATOM     12  F4  UNL d   1       0.943  -2.929  -2.517  0.00  0.00    -0.092 F 
ENDROOT
TORSDOF 0
ENDMDL
