MODEL 1
REMARK minimizedAffinity 8.30604267
REMARK minimizedRMSD -1
REMARK  0 active torsions:
REMARK  status: ('A' for Active; 'I' for Inactive)
ROOT
ATOM      1  C   UNL d   1       0.021   1.398   2.681  0.00  0.00     0.124 A 
ATOM      2  C1  UNL d   1      -0.274   2.093   1.516  0.00  0.00     0.062 A 
ATOM      3  C2  UNL d   1       0.067   1.558   0.277  0.00  0.00     0.162 A 
ATOM      4  C3  UNL d   1       0.706   0.320   0.196  0.00  0.00    -0.034 A 
ATOM      5  C4  UNL d   1       0.999  -0.372   1.372  0.00  0.00     0.162 A 
ATOM      6  C5  UNL d   1       0.657   0.167   2.608  0.00  0.00     0.062 A 
ATOM      7  F   UNL d   1       0.942  -0.506   3.733  0.00  0.00    -0.097 F 
ATOM      8  F1  UNL d   1       1.612  -1.564   1.331  0.00  0.00    -0.096 F 
ATOM      9  I   UNL d   1       1.217  -0.483  -1.655  0.00  0.00    -0.060 I 
ATOM     10  F2  UNL d   1      -0.229   2.251  -0.833  0.00  0.00    -0.096 F 
ATOM     11  F3  UNL d   1      -0.887   3.283   1.583  0.00  0.00    -0.097 F 
ATOM     12  F4  UNL d   1      -0.308   1.916   3.872  0.00  0.00    -0.092 F 
ENDROOT
TORSDOF 0
ENDMDL
