MODEL 1
REMARK minimizedAffinity 0.362362087
REMARK minimizedRMSD -1
REMARK  0 active torsions:
REMARK  status: ('A' for Active; 'I' for Inactive)
ROOT
ATOM      1  C   UNL d   1       4.137  -4.886  -1.457  0.00  0.00     0.124 A 
ATOM      2  C1  UNL d   1       3.624  -5.391  -0.270  0.00  0.00     0.062 A 
ATOM      3  C2  UNL d   1       2.264  -5.287   0.005  0.00  0.00     0.162 A 
ATOM      4  C3  UNL d   1       1.406  -4.675  -0.910  0.00  0.00    -0.034 A 
ATOM      5  C4  UNL d   1       1.930  -4.169  -2.101  0.00  0.00     0.162 A 
ATOM      6  C5  UNL d   1       3.290  -4.275  -2.370  0.00  0.00     0.062 A 
ATOM      7  F   UNL d   1       3.784  -3.787  -3.517  0.00  0.00    -0.097 F 
ATOM      8  F1  UNL d   1       1.133  -3.575  -3.002  0.00  0.00    -0.096 F 
ATOM      9  I   UNL d   1      -0.629  -4.517  -0.503  0.00  0.00    -0.060 I 
ATOM     10  F2  UNL d   1       1.795  -5.784   1.159  0.00  0.00    -0.096 F 
ATOM     11  F3  UNL d   1       4.441  -5.981   0.615  0.00  0.00    -0.097 F 
ATOM     12  F4  UNL d   1       5.447  -4.987  -1.718  0.00  0.00    -0.092 F 
ENDROOT
TORSDOF 0
ENDMDL
