MODEL 1
REMARK minimizedAffinity -2.39336991
REMARK minimizedRMSD -1
REMARK  0 active torsions:
REMARK  status: ('A' for Active; 'I' for Inactive)
ROOT
ATOM      1  C   UNL d   1      -1.095   2.688   0.775  0.00  0.00     0.124 A 
ATOM      2  C1  UNL d   1      -0.752   1.627   1.601  0.00  0.00     0.062 A 
ATOM      3  C2  UNL d   1      -0.196   0.471   1.062  0.00  0.00     0.162 A 
ATOM      4  C3  UNL d   1       0.021   0.369  -0.313  0.00  0.00    -0.034 A 
ATOM      5  C4  UNL d   1      -0.328   1.440  -1.138  0.00  0.00     0.162 A 
ATOM      6  C5  UNL d   1      -0.883   2.594  -0.594  0.00  0.00     0.062 A 
ATOM      7  F   UNL d   1      -1.214   3.617  -1.394  0.00  0.00    -0.097 F 
ATOM      8  F1  UNL d   1      -0.133   1.375  -2.463  0.00  0.00    -0.096 F 
ATOM      9  I   UNL d   1       0.851  -1.359  -1.123  0.00  0.00    -0.060 I 
ATOM     10  F2  UNL d   1       0.126  -0.539   1.884  0.00  0.00    -0.096 F 
ATOM     11  F3  UNL d   1      -0.956   1.716   2.923  0.00  0.00    -0.097 F 
ATOM     12  F4  UNL d   1      -1.630   3.800   1.296  0.00  0.00    -0.092 F 
ENDROOT
TORSDOF 0
ENDMDL
