MODEL 1
REMARK minimizedAffinity -1.0282656
REMARK minimizedRMSD -1
REMARK  0 active torsions:
REMARK  status: ('A' for Active; 'I' for Inactive)
ROOT
ATOM      1  C   UNL d   1      -0.104   1.280   0.883  0.00  0.00     0.124 A 
ATOM      2  C1  UNL d   1       0.858   0.296   0.707  0.00  0.00     0.062 A 
ATOM      3  C2  UNL d   1       0.536  -0.888   0.049  0.00  0.00     0.162 A 
ATOM      4  C3  UNL d   1      -0.755  -1.094  -0.438  0.00  0.00    -0.034 A 
ATOM      5  C4  UNL d   1      -1.718  -0.099  -0.256  0.00  0.00     0.162 A 
ATOM      6  C5  UNL d   1      -1.391   1.082   0.402  0.00  0.00     0.062 A 
ATOM      7  F   UNL d   1      -2.322   2.032   0.572  0.00  0.00    -0.097 F 
ATOM      8  F1  UNL d   1      -2.968  -0.264  -0.711  0.00  0.00    -0.096 F 
ATOM      9  I   UNL d   1      -1.240  -2.862  -1.422  0.00  0.00    -0.060 I 
ATOM     10  F2  UNL d   1       1.486  -1.822  -0.107  0.00  0.00    -0.096 F 
ATOM     11  F3  UNL d   1       2.101   0.485   1.172  0.00  0.00    -0.097 F 
ATOM     12  F4  UNL d   1       0.208   2.418   1.517  0.00  0.00    -0.092 F 
ENDROOT
TORSDOF 0
ENDMDL
