MODEL 1
REMARK minimizedAffinity -1.69157016
REMARK minimizedRMSD -1
REMARK  0 active torsions:
REMARK  status: ('A' for Active; 'I' for Inactive)
ROOT
ATOM      1  C   UNL d   1      -0.998   2.171   1.339  0.00  0.00     0.124 A 
ATOM      2  C1  UNL d   1       0.093   1.454   1.810  0.00  0.00     0.062 A 
ATOM      3  C2  UNL d   1       0.414   0.221   1.250  0.00  0.00     0.162 A 
ATOM      4  C3  UNL d   1      -0.356  -0.303   0.212  0.00  0.00    -0.034 A 
ATOM      5  C4  UNL d   1      -1.452   0.424  -0.255  0.00  0.00     0.162 A 
ATOM      6  C5  UNL d   1      -1.769   1.656   0.307  0.00  0.00     0.062 A 
ATOM      7  F   UNL d   1      -2.824   2.347  -0.149  0.00  0.00    -0.097 F 
ATOM      8  F1  UNL d   1      -2.215  -0.051  -1.252  0.00  0.00    -0.096 F 
ATOM      9  I   UNL d   1       0.121  -2.147  -0.627  0.00  0.00    -0.060 I 
ATOM     10  F2  UNL d   1       1.474  -0.451   1.725  0.00  0.00    -0.096 F 
ATOM     11  F3  UNL d   1       0.840   1.949   2.807  0.00  0.00    -0.097 F 
ATOM     12  F4  UNL d   1      -1.305   3.357   1.880  0.00  0.00    -0.092 F 
ENDROOT
TORSDOF 0
ENDMDL
