MODEL 1
REMARK minimizedAffinity 0.0360482298
REMARK minimizedRMSD -1
REMARK  0 active torsions:
REMARK  status: ('A' for Active; 'I' for Inactive)
ROOT
ATOM      1  C   UNL d   1      -0.631   1.272   0.631  0.00  0.00     0.124 A 
ATOM      2  C1  UNL d   1       0.099   0.471   1.497  0.00  0.00     0.062 A 
ATOM      3  C2  UNL d   1       0.576  -0.766   1.072  0.00  0.00     0.162 A 
ATOM      4  C3  UNL d   1       0.325  -1.209  -0.226  0.00  0.00    -0.034 A 
ATOM      5  C4  UNL d   1      -0.411  -0.397  -1.091  0.00  0.00     0.162 A 
ATOM      6  C5  UNL d   1      -0.886   0.838  -0.662  0.00  0.00     0.062 A 
ATOM      7  F   UNL d   1      -1.592   1.611  -1.500  0.00  0.00    -0.097 F 
ATOM      8  F1  UNL d   1      -0.671  -0.792  -2.347  0.00  0.00    -0.096 F 
ATOM      9  I   UNL d   1       1.036  -3.057  -0.866  0.00  0.00    -0.060 I 
ATOM     10  F2  UNL d   1       1.279  -1.520   1.931  0.00  0.00    -0.096 F 
ATOM     11  F3  UNL d   1       0.346   0.888   2.748  0.00  0.00    -0.097 F 
ATOM     12  F4  UNL d   1      -1.090   2.461   1.043  0.00  0.00    -0.092 F 
ENDROOT
TORSDOF 0
ENDMDL
