MODEL 1
REMARK minimizedAffinity 1.64976084
REMARK minimizedRMSD -1
REMARK  3 active torsions:
REMARK  status: ('A' for Active; 'I' for Inactive)
REMARK    1  A    between atoms: C3'_2  and  C2'_3 
REMARK    2  A    between atoms: C2'_3  and  C1'_4 
REMARK    3  A    between atoms: C1'_4  and  C1_5 
ROOT
ATOM      1  C1  N4B d   1       4.378   4.757  -3.579  0.00  0.00    -0.075 A 
ATOM      2  C2  N4B d   1       3.761   4.403  -4.800  0.00  0.00     0.002 A 
ATOM      3  C3  N4B d   1       4.277   4.861  -5.987  0.00  0.00     0.002 A 
ATOM      4  C4  N4B d   1       5.393   5.684  -5.978  0.00  0.00    -0.004 A 
ATOM      5  C5  N4B d   1       5.998   6.000  -4.797  0.00  0.00     0.002 A 
ATOM      6  C6  N4B d   1       5.492   5.544  -3.596  0.00  0.00     0.002 A 
ENDROOT
BRANCH   1   7
ATOM      7  C1' N4B d   1       3.800   4.351  -2.251  0.00  0.00     0.057 C 
BRANCH   7   8
ATOM      8  C2' N4B d   1       2.292   4.169  -2.395  0.00  0.00     0.009 C 
BRANCH   8   9
ATOM      9  C3' N4B d   1       1.522   5.377  -1.890  0.00  0.00     0.004 C 
ATOM     10  C4' N4B d   1       0.038   5.160  -1.887  0.00  0.00     0.003 C 
ENDBRANCH   8   9
ENDBRANCH   7   8
ENDBRANCH   1   7
TORSDOF 3
ENDMDL
