MODEL 1
REMARK minimizedAffinity 17.7842388
REMARK minimizedRMSD -1
REMARK  3 active torsions:
REMARK  status: ('A' for Active; 'I' for Inactive)
REMARK    1  A    between atoms: C3'_2  and  C2'_3 
REMARK    2  A    between atoms: C2'_3  and  C1'_4 
REMARK    3  A    between atoms: C1'_4  and  C1_5 
ROOT
ATOM      1  C1  N4B d   1      -3.361   3.351  -1.319  0.00  0.00    -0.075 A 
ATOM      2  C2  N4B d   1      -3.675   2.066  -1.812  0.00  0.00     0.002 A 
ATOM      3  C3  N4B d   1      -4.987   1.678  -1.932  0.00  0.00     0.002 A 
ATOM      4  C4  N4B d   1      -5.997   2.548  -1.550  0.00  0.00    -0.004 A 
ATOM      5  C5  N4B d   1      -5.686   3.798  -1.099  0.00  0.00     0.002 A 
ATOM      6  C6  N4B d   1      -4.372   4.202  -0.977  0.00  0.00     0.002 A 
ENDROOT
BRANCH   1   7
ATOM      7  C1' N4B d   1      -1.940   3.789  -1.089  0.00  0.00     0.057 C 
BRANCH   7   8
ATOM      8  C2' N4B d   1      -1.446   4.550  -2.316  0.00  0.00     0.009 C 
BRANCH   8   9
ATOM      9  C3' N4B d   1      -0.305   5.493  -1.977  0.00  0.00     0.004 C 
ATOM     10  C4' N4B d   1       0.811   4.814  -1.240  0.00  0.00     0.003 C 
ENDBRANCH   8   9
ENDBRANCH   7   8
ENDBRANCH   1   7
TORSDOF 3
ENDMDL
