MODEL 1
REMARK minimizedAffinity 10.5521126
REMARK minimizedRMSD -1
REMARK  3 active torsions:
REMARK  status: ('A' for Active; 'I' for Inactive)
REMARK    1  A    between atoms: C3'_2  and  C2'_3 
REMARK    2  A    between atoms: C2'_3  and  C1'_4 
REMARK    3  A    between atoms: C1'_4  and  C1_5 
ROOT
ATOM      1  C1  N4B d   1       4.155   5.360  -3.372  0.00  0.00    -0.075 A 
ATOM      2  C2  N4B d   1       3.311   5.396  -4.504  0.00  0.00     0.002 A 
ATOM      3  C3  N4B d   1       3.831   5.697  -5.739  0.00  0.00     0.002 A 
ATOM      4  C4  N4B d   1       5.182   5.983  -5.863  0.00  0.00    -0.004 A 
ATOM      5  C5  N4B d   1       5.995   5.922  -4.769  0.00  0.00     0.002 A 
ATOM      6  C6  N4B d   1       5.487   5.617  -3.523  0.00  0.00     0.002 A 
ENDROOT
BRANCH   1   7
ATOM      7  C1' N4B d   1       3.617   5.120  -1.988  0.00  0.00     0.057 C 
BRANCH   7   8
ATOM      8  C2' N4B d   1       2.166   4.658  -2.088  0.00  0.00     0.009 C 
BRANCH   8   9
ATOM      9  C3' N4B d   1       1.757   3.809  -0.896  0.00  0.00     0.004 C 
ATOM     10  C4' N4B d   1       2.763   2.747  -0.567  0.00  0.00     0.003 C 
ENDBRANCH   8   9
ENDBRANCH   7   8
ENDBRANCH   1   7
TORSDOF 3
ENDMDL
