MODEL 1
REMARK minimizedAffinity -1.76332819
REMARK minimizedRMSD -1
REMARK  0 active torsions:
REMARK  status: ('A' for Active; 'I' for Inactive)
ROOT
ATOM      1  C   UNL d   1       4.566   0.071   1.912  0.00  0.00     0.172 C 
ATOM      2  N   UNL d   1       3.156   0.243   2.174  0.00  0.00    -0.070 N 
ATOM      3  C1  UNL d   1       2.390  -0.559   2.977  0.00  0.00    -0.004 A 
ATOM      4  C2  UNL d   1       1.105  -0.062   2.966  0.00  0.00    -0.047 A 
ATOM      5  C3  UNL d   1       1.098   1.078   2.128  0.00  0.00    -0.047 A 
ATOM      6  C4  UNL d   1       2.381   1.244   1.651  0.00  0.00    -0.004 A 
ENDROOT
TORSDOF 0
ENDMDL
