MODEL 1
REMARK minimizedAffinity 8.5023365
REMARK minimizedRMSD -1
REMARK  0 active torsions:
REMARK  status: ('A' for Active; 'I' for Inactive)
ROOT
ATOM      1  C   UNL d   1       4.227   1.126   0.684  0.00  0.00     0.172 C 
ATOM      2  N   UNL d   1       4.673   0.392   1.846  0.00  0.00    -0.070 N 
ATOM      3  C1  UNL d   1       3.881  -0.373   2.659  0.00  0.00    -0.004 A 
ATOM      4  C2  UNL d   1       4.680  -0.904   3.649  0.00  0.00    -0.047 A 
ATOM      5  C3  UNL d   1       5.998  -0.440   3.423  0.00  0.00    -0.047 A 
ATOM      6  C4  UNL d   1       5.965   0.360   2.300  0.00  0.00    -0.004 A 
ENDROOT
TORSDOF 0
ENDMDL
