MODEL 1
REMARK minimizedAffinity -1.56080735
REMARK minimizedRMSD -1
REMARK  0 active torsions:
REMARK  status: ('A' for Active; 'I' for Inactive)
ROOT
ATOM      1  C   UNL d   1      -5.700  -3.624  -5.955  0.00  0.00     0.172 C 
ATOM      2  N   UNL d   1      -4.265  -3.787  -5.968  0.00  0.00    -0.070 N 
ATOM      3  C1  UNL d   1      -3.598  -4.982  -5.997  0.00  0.00    -0.004 A 
ATOM      4  C2  UNL d   1      -2.247  -4.712  -6.000  0.00  0.00    -0.047 A 
ATOM      5  C3  UNL d   1      -2.097  -3.305  -5.971  0.00  0.00    -0.047 A 
ATOM      6  C4  UNL d   1      -3.362  -2.757  -5.952  0.00  0.00    -0.004 A 
ENDROOT
TORSDOF 0
ENDMDL
