MODEL 1
REMARK minimizedAffinity 4.7879591
REMARK minimizedRMSD -1
REMARK  0 active torsions:
REMARK  status: ('A' for Active; 'I' for Inactive)
ROOT
ATOM      1  C   UNL d   1      -4.514  -2.535   1.109  0.00  0.00     0.172 C 
ATOM      2  N   UNL d   1      -4.202  -3.944   1.122  0.00  0.00    -0.070 N 
ATOM      3  C1  UNL d   1      -4.038  -4.716   2.242  0.00  0.00    -0.004 A 
ATOM      4  C2  UNL d   1      -3.752  -6.000   1.831  0.00  0.00    -0.047 A 
ATOM      5  C3  UNL d   1      -3.741  -6.000   0.416  0.00  0.00    -0.047 A 
ATOM      6  C4  UNL d   1      -4.023  -4.715   0.004  0.00  0.00    -0.004 A 
ENDROOT
TORSDOF 0
ENDMDL
