MODEL 1
REMARK minimizedAffinity 7.53785181
REMARK minimizedRMSD -1
REMARK  0 active torsions:
REMARK  status: ('A' for Active; 'I' for Inactive)
ROOT
ATOM      1  C   UNL d   1      -1.468  -2.412  -5.276  0.00  0.00     0.172 C 
ATOM      2  N   UNL d   1      -0.499  -1.629  -4.546  0.00  0.00    -0.070 N 
ATOM      3  C1  UNL d   1       0.176  -2.037  -3.427  0.00  0.00    -0.004 A 
ATOM      4  C2  UNL d   1       1.004  -1.007  -3.035  0.00  0.00    -0.047 A 
ATOM      5  C3  UNL d   1       0.820   0.056  -3.950  0.00  0.00    -0.047 A 
ATOM      6  C4  UNL d   1      -0.116  -0.356  -4.875  0.00  0.00    -0.004 A 
ENDROOT
TORSDOF 0
ENDMDL
