MODEL 1
REMARK minimizedAffinity 2.70430732
REMARK minimizedRMSD -1
REMARK  0 active torsions:
REMARK  status: ('A' for Active; 'I' for Inactive)
ROOT
ATOM      1  C   UNL d   1      -1.767  -3.411  -5.983  0.00  0.00     0.172 C 
ATOM      2  N   UNL d   1      -3.010  -4.145  -5.988  0.00  0.00    -0.070 N 
ATOM      3  C1  UNL d   1      -3.131  -5.509  -5.997  0.00  0.00    -0.004 A 
ATOM      4  C2  UNL d   1      -4.475  -5.814  -6.000  0.00  0.00    -0.047 A 
ATOM      5  C3  UNL d   1      -5.187  -4.590  -5.993  0.00  0.00    -0.047 A 
ATOM      6  C4  UNL d   1      -4.255  -3.574  -5.986  0.00  0.00    -0.004 A 
ENDROOT
TORSDOF 0
ENDMDL
