MODEL 1
REMARK minimizedAffinity 2.36893511
REMARK minimizedRMSD -1
REMARK  0 active torsions:
REMARK  status: ('A' for Active; 'I' for Inactive)
ROOT
ATOM      1  C   UNL d   1      -5.967  -0.480  -3.450  0.00  0.00     0.172 C 
ATOM      2  N   UNL d   1      -5.978  -1.857  -3.016  0.00  0.00    -0.070 N 
ATOM      3  C1  UNL d   1      -5.983  -2.953  -3.838  0.00  0.00    -0.004 A 
ATOM      4  C2  UNL d   1      -5.994  -4.077  -3.041  0.00  0.00    -0.047 A 
ATOM      5  C3  UNL d   1      -5.996  -3.642  -1.694  0.00  0.00    -0.047 A 
ATOM      6  C4  UNL d   1      -5.986  -2.264  -1.708  0.00  0.00    -0.004 A 
ENDROOT
TORSDOF 0
ENDMDL
