MODEL 1
REMARK minimizedAffinity 7.32529545
REMARK minimizedRMSD -1
REMARK  0 active torsions:
REMARK  status: ('A' for Active; 'I' for Inactive)
ROOT
ATOM      1  C   UNL d   1       0.783   1.872  -1.877  0.00  0.00     0.172 C 
ATOM      2  N   UNL d   1       0.890   0.856  -2.897  0.00  0.00    -0.070 N 
ATOM      3  C1  UNL d   1       0.148   0.798  -4.047  0.00  0.00    -0.004 A 
ATOM      4  C2  UNL d   1       0.549  -0.316  -4.752  0.00  0.00    -0.047 A 
ATOM      5  C3  UNL d   1       1.566  -0.950  -4.001  0.00  0.00    -0.047 A 
ATOM      6  C4  UNL d   1       1.758  -0.203  -2.857  0.00  0.00    -0.004 A 
ENDROOT
TORSDOF 0
ENDMDL
