MODEL 1
REMARK minimizedAffinity 0.0491205901
REMARK minimizedRMSD -1
REMARK  0 active torsions:
REMARK  status: ('A' for Active; 'I' for Inactive)
ROOT
ATOM      1  C   UNL d   1       5.234   3.736  -4.855  0.00  0.00     0.172 C 
ATOM      2  N   UNL d   1       3.830   3.965  -5.103  0.00  0.00    -0.070 N 
ATOM      3  C1  UNL d   1       3.050   3.266  -5.986  0.00  0.00    -0.004 A 
ATOM      4  C2  UNL d   1       1.776   3.788  -5.928  0.00  0.00    -0.047 A 
ATOM      5  C3  UNL d   1       1.790   4.836  -4.978  0.00  0.00    -0.047 A 
ATOM      6  C4  UNL d   1       3.074   4.924  -4.483  0.00  0.00    -0.004 A 
ENDROOT
TORSDOF 0
ENDMDL
