MODEL 1
REMARK minimizedAffinity 4.59777641
REMARK minimizedRMSD -1
REMARK  0 active torsions:
REMARK  status: ('A' for Active; 'I' for Inactive)
ROOT
ATOM      1  C   UNL d   1      -2.033  -0.519  -5.960  0.00  0.00     0.172 C 
ATOM      2  N   UNL d   1      -2.055  -1.963  -5.948  0.00  0.00    -0.070 N 
ATOM      3  C1  UNL d   1      -3.179  -2.744  -5.981  0.00  0.00    -0.004 A 
ATOM      4  C2  UNL d   1      -2.778  -4.062  -5.955  0.00  0.00    -0.047 A 
ATOM      5  C3  UNL d   1      -1.364  -4.074  -5.904  0.00  0.00    -0.047 A 
ATOM      6  C4  UNL d   1      -0.942  -2.761  -5.900  0.00  0.00    -0.004 A 
ENDROOT
TORSDOF 0
ENDMDL
