MODEL 1
REMARK minimizedAffinity 3.25629282
REMARK minimizedRMSD -1
REMARK  0 active torsions:
REMARK  status: ('A' for Active; 'I' for Inactive)
ROOT
ATOM      1  C   UNL d   1      -5.994  -2.423  -2.724  0.00  0.00     0.172 C 
ATOM      2  N   UNL d   1      -5.668  -3.824  -2.596  0.00  0.00    -0.070 N 
ATOM      3  C1  UNL d   1      -6.000  -4.806  -3.491  0.00  0.00    -0.004 A 
ATOM      4  C2  UNL d   1      -5.509  -6.000  -3.009  0.00  0.00    -0.047 A 
ATOM      5  C3  UNL d   1      -4.860  -5.726  -1.781  0.00  0.00    -0.047 A 
ATOM      6  C4  UNL d   1      -4.973  -4.372  -1.550  0.00  0.00    -0.004 A 
ENDROOT
TORSDOF 0
ENDMDL
