MODEL 1
REMARK minimizedAffinity 4.59011316
REMARK minimizedRMSD -1
REMARK  0 active torsions:
REMARK  status: ('A' for Active; 'I' for Inactive)
ROOT
ATOM      1  C   UNL d   1       1.831  -0.461  -3.416  0.00  0.00     0.172 C 
ATOM      2  N   UNL d   1       1.995   0.450  -2.308  0.00  0.00    -0.070 N 
ATOM      3  C1  UNL d   1       3.121   1.180  -2.034  0.00  0.00    -0.004 A 
ATOM      4  C2  UNL d   1       2.878   1.923  -0.899  0.00  0.00    -0.047 A 
ATOM      5  C3  UNL d   1       1.560   1.629  -0.475  0.00  0.00    -0.047 A 
ATOM      6  C4  UNL d   1       1.037   0.714  -1.365  0.00  0.00    -0.004 A 
ENDROOT
TORSDOF 0
ENDMDL
