MODEL 1
REMARK minimizedAffinity 2.01264477
REMARK minimizedRMSD -1
REMARK  0 active torsions:
REMARK  status: ('A' for Active; 'I' for Inactive)
ROOT
ATOM      1  C   UNL d   1       1.152   1.592  -1.047  0.00  0.00     0.172 C 
ATOM      2  N   UNL d   1       0.855   0.739  -2.175  0.00  0.00    -0.070 N 
ATOM      3  C1  UNL d   1      -0.017   1.032  -3.189  0.00  0.00    -0.004 A 
ATOM      4  C2  UNL d   1      -0.017  -0.032  -4.065  0.00  0.00    -0.047 A 
ATOM      5  C3  UNL d   1       0.885  -0.997  -3.560  0.00  0.00    -0.047 A 
ATOM      6  C4  UNL d   1       1.411  -0.494  -2.388  0.00  0.00    -0.004 A 
ENDROOT
TORSDOF 0
ENDMDL
