MODEL 1
REMARK minimizedAffinity 11.0440512
REMARK minimizedRMSD -1
REMARK  0 active torsions:
REMARK  status: ('A' for Active; 'I' for Inactive)
ROOT
ATOM      1  C   UNL d   1      -1.352  -4.029  -5.967  0.00  0.00     0.172 C 
ATOM      2  N   UNL d   1      -1.731  -2.636  -5.981  0.00  0.00    -0.070 N 
ATOM      3  C1  UNL d   1      -3.014  -2.157  -5.989  0.00  0.00    -0.004 A 
ATOM      4  C2  UNL d   1      -2.950  -0.780  -6.000  0.00  0.00    -0.047 A 
ATOM      5  C3  UNL d   1      -1.582  -0.419  -5.999  0.00  0.00    -0.047 A 
ATOM      6  C4  UNL d   1      -0.849  -1.587  -5.987  0.00  0.00    -0.004 A 
ENDROOT
TORSDOF 0
ENDMDL
