MODEL 1
REMARK minimizedAffinity 5.47420931
REMARK minimizedRMSD -1
REMARK  0 active torsions:
REMARK  status: ('A' for Active; 'I' for Inactive)
ROOT
ATOM      1  C   UNL d   1       3.749   5.820  -3.331  0.00  0.00     0.172 C 
ATOM      2  N   UNL d   1       3.851   4.753  -4.298  0.00  0.00    -0.070 N 
ATOM      3  C1  UNL d   1       4.875   3.848  -4.384  0.00  0.00    -0.004 A 
ATOM      4  C2  UNL d   1       4.601   2.998  -5.433  0.00  0.00    -0.047 A 
ATOM      5  C3  UNL d   1       3.370   3.407  -5.999  0.00  0.00    -0.047 A 
ATOM      6  C4  UNL d   1       2.928   4.496  -5.277  0.00  0.00    -0.004 A 
ENDROOT
TORSDOF 0
ENDMDL
