MODEL 1
REMARK minimizedAffinity 5.18238735
REMARK minimizedRMSD -1
REMARK  0 active torsions:
REMARK  status: ('A' for Active; 'I' for Inactive)
ROOT
ATOM      1  C   UNL d   1      -2.858  -1.160   5.999  0.00  0.00     0.172 C 
ATOM      2  N   UNL d   1      -1.831  -0.836   5.036  0.00  0.00    -0.070 N 
ATOM      3  C1  UNL d   1      -1.980  -0.001   3.961  0.00  0.00    -0.004 A 
ATOM      4  C2  UNL d   1      -0.776   0.045   3.292  0.00  0.00    -0.047 A 
ATOM      5  C3  UNL d   1       0.127  -0.793   3.989  0.00  0.00    -0.047 A 
ATOM      6  C4  UNL d   1      -0.552  -1.326   5.064  0.00  0.00    -0.004 A 
ENDROOT
TORSDOF 0
ENDMDL
