MODEL 1
REMARK minimizedAffinity 3.86750197
REMARK minimizedRMSD -1
REMARK  0 active torsions:
REMARK  status: ('A' for Active; 'I' for Inactive)
ROOT
ATOM      1  C   UNL d   1      -5.993  -5.049  -2.544  0.00  0.00     0.172 C 
ATOM      2  N   UNL d   1      -5.995  -3.645  -2.882  0.00  0.00    -0.070 N 
ATOM      3  C1  UNL d   1      -6.000  -2.608  -1.987  0.00  0.00    -0.004 A 
ATOM      4  C2  UNL d   1      -6.000  -1.432  -2.704  0.00  0.00    -0.047 A 
ATOM      5  C3  UNL d   1      -5.996  -1.772  -4.078  0.00  0.00    -0.047 A 
ATOM      6  C4  UNL d   1      -5.993  -3.149  -4.159  0.00  0.00    -0.004 A 
ENDROOT
TORSDOF 0
ENDMDL
