MODEL 1
REMARK minimizedAffinity 5.25946236
REMARK minimizedRMSD -1
REMARK  0 active torsions:
REMARK  status: ('A' for Active; 'I' for Inactive)
ROOT
ATOM      1  C   UNL d   1       1.875   2.040  -1.165  0.00  0.00     0.172 C 
ATOM      2  N   UNL d   1       1.761   0.826  -1.938  0.00  0.00    -0.070 N 
ATOM      3  C1  UNL d   1       0.943  -0.233  -1.646  0.00  0.00    -0.004 A 
ATOM      4  C2  UNL d   1       1.125  -1.189  -2.622  0.00  0.00    -0.047 A 
ATOM      5  C3  UNL d   1       2.086  -0.687  -3.532  0.00  0.00    -0.047 A 
ATOM      6  C4  UNL d   1       2.462   0.561  -3.085  0.00  0.00    -0.004 A 
ENDROOT
TORSDOF 0
ENDMDL
