MODEL 1
REMARK minimizedAffinity -4.51894808
REMARK minimizedRMSD -1
REMARK  1 active torsions:
REMARK  status: ('A' for Active; 'I' for Inactive)
REMARK    1  A    between atoms: C1_2  and  C2_3 
ROOT
ATOM      1  C2  UNL d   1       0.082  -0.541   0.057  0.00  0.00    -0.073 A 
ATOM      2  C3  UNL d   1       1.080  -0.894   0.973  0.00  0.00    -0.002 A 
ATOM      3  C4  UNL d   1       1.253  -0.159   2.146  0.00  0.00     0.004 A 
ATOM      4  C5  UNL d   1       0.426   0.931   2.419  0.00  0.00    -0.004 A 
ATOM      5  C6  UNL d   1      -0.585   1.292   1.522  0.00  0.00    -0.075 A 
ATOM      6  C7  UNL d   1      -1.481   2.463   1.800  0.00  0.00     0.076 C 
ATOM      7  C8  UNL d   1      -0.750   0.550   0.345  0.00  0.00     0.001 A 
ENDROOT
BRANCH   1   8
ATOM      8  C1  UNL d   1      -0.112  -1.337  -1.208  0.00  0.00     0.053 C 
ATOM      9  C   UNL d   1       0.322  -2.784  -1.044  0.00  0.00     0.018 C 
ENDBRANCH   1   8
TORSDOF 1
ENDMDL
