MODEL 1
REMARK minimizedAffinity -4.11816311
REMARK minimizedRMSD -1
REMARK  1 active torsions:
REMARK  status: ('A' for Active; 'I' for Inactive)
REMARK    1  A    between atoms: C1_2  and  C2_3 
ROOT
ATOM      1  C2  UNL d   1       0.445  -0.089   0.248  0.00  0.00    -0.073 A 
ATOM      2  C3  UNL d   1       1.399  -0.469   1.198  0.00  0.00    -0.002 A 
ATOM      3  C4  UNL d   1       1.423   0.138   2.455  0.00  0.00     0.004 A 
ATOM      4  C5  UNL d   1       0.489   1.123   2.776  0.00  0.00    -0.004 A 
ATOM      5  C6  UNL d   1      -0.479   1.508   1.844  0.00  0.00    -0.075 A 
ATOM      6  C7  UNL d   1      -1.489   2.568   2.173  0.00  0.00     0.076 C 
ATOM      7  C8  UNL d   1      -0.494   0.896   0.583  0.00  0.00     0.001 A 
ENDROOT
BRANCH   1   8
ATOM      8  C1  UNL d   1       0.412  -0.745  -1.108  0.00  0.00     0.053 C 
ATOM      9  C   UNL d   1       0.075  -2.225  -1.017  0.00  0.00     0.018 C 
ENDBRANCH   1   8
TORSDOF 1
ENDMDL
