MODEL 1
REMARK minimizedAffinity -4.08387566
REMARK minimizedRMSD -1
REMARK  1 active torsions:
REMARK  status: ('A' for Active; 'I' for Inactive)
REMARK    1  A    between atoms: C1_2  and  C2_3 
ROOT
ATOM      1  C2  UNL d   1      -0.238   2.003   1.265  0.00  0.00    -0.073 A 
ATOM      2  C3  UNL d   1      -0.945   1.457   0.188  0.00  0.00    -0.002 A 
ATOM      3  C4  UNL d   1      -0.671   0.160  -0.250  0.00  0.00     0.004 A 
ATOM      4  C5  UNL d   1       0.305  -0.605   0.388  0.00  0.00    -0.004 A 
ATOM      5  C6  UNL d   1       1.014  -0.081   1.474  0.00  0.00    -0.075 A 
ATOM      6  C7  UNL d   1       2.069  -0.890   2.170  0.00  0.00     0.076 C 
ATOM      7  C8  UNL d   1       0.735   1.223   1.906  0.00  0.00     0.001 A 
ENDROOT
BRANCH   1   8
ATOM      8  C1  UNL d   1      -0.534   3.400   1.745  0.00  0.00     0.053 C 
ATOM      9  C   UNL d   1      -1.940   3.845   1.372  0.00  0.00     0.018 C 
ENDBRANCH   1   8
TORSDOF 1
ENDMDL
