MODEL 1
REMARK minimizedAffinity -5.34906197
REMARK minimizedRMSD -1
REMARK  1 active torsions:
REMARK  status: ('A' for Active; 'I' for Inactive)
REMARK    1  A    between atoms: C1_2  and  C2_3 
ROOT
ATOM      1  C2  UNL d   1       0.130  -0.495  -0.179  0.00  0.00    -0.073 A 
ATOM      2  C3  UNL d   1      -0.939   0.187  -0.771  0.00  0.00    -0.002 A 
ATOM      3  C4  UNL d   1      -1.525   1.276  -0.125  0.00  0.00     0.004 A 
ATOM      4  C5  UNL d   1      -1.046   1.698   1.115  0.00  0.00    -0.004 A 
ATOM      5  C6  UNL d   1       0.029   1.037   1.718  0.00  0.00    -0.075 A 
ATOM      6  C7  UNL d   1       0.556   1.477   3.052  0.00  0.00     0.076 C 
ATOM      7  C8  UNL d   1       0.611  -0.058   1.064  0.00  0.00     0.001 A 
ENDROOT
BRANCH   1   8
ATOM      8  C1  UNL d   1       0.771  -1.668  -0.875  0.00  0.00     0.053 C 
ATOM      9  C   UNL d   1      -0.263  -2.630  -1.439  0.00  0.00     0.018 C 
ENDBRANCH   1   8
TORSDOF 1
ENDMDL
