MODEL 1
REMARK minimizedAffinity -3.55490327
REMARK minimizedRMSD -1
REMARK  1 active torsions:
REMARK  status: ('A' for Active; 'I' for Inactive)
REMARK    1  A    between atoms: C1_2  and  C2_3 
ROOT
ATOM      1  C2  UNL d   1       0.177  -0.472  -0.012  0.00  0.00    -0.073 A 
ATOM      2  C3  UNL d   1       1.133  -0.732   0.977  0.00  0.00    -0.002 A 
ATOM      3  C4  UNL d   1       1.151   0.017   2.154  0.00  0.00     0.004 A 
ATOM      4  C5  UNL d   1       0.212   1.028   2.357  0.00  0.00    -0.004 A 
ATOM      5  C6  UNL d   1      -0.758   1.295   1.386  0.00  0.00    -0.075 A 
ATOM      6  C7  UNL d   1      -1.774   2.381   1.589  0.00  0.00     0.076 C 
ATOM      7  C8  UNL d   1      -0.769   0.540   0.206  0.00  0.00     0.001 A 
ENDROOT
BRANCH   1   8
ATOM      8  C1  UNL d   1       0.148  -1.284  -1.281  0.00  0.00     0.053 C 
ATOM      9  C   UNL d   1      -0.299  -2.715  -1.033  0.00  0.00     0.018 C 
ENDBRANCH   1   8
TORSDOF 1
ENDMDL
