MODEL 1
REMARK minimizedAffinity -3.92246962
REMARK minimizedRMSD -1
REMARK  1 active torsions:
REMARK  status: ('A' for Active; 'I' for Inactive)
REMARK    1  A    between atoms: C1_2  and  C2_3 
ROOT
ATOM      1  C2  UNL d   1      -0.692   0.686   0.514  0.00  0.00    -0.073 A 
ATOM      2  C3  UNL d   1      -0.407  -0.009  -0.667  0.00  0.00    -0.002 A 
ATOM      3  C4  UNL d   1       0.650  -0.919  -0.711  0.00  0.00     0.004 A 
ATOM      4  C5  UNL d   1       1.426  -1.150   0.425  0.00  0.00    -0.004 A 
ATOM      5  C6  UNL d   1       1.149  -0.474   1.618  0.00  0.00    -0.075 A 
ATOM      6  C7  UNL d   1       1.976  -0.709   2.847  0.00  0.00     0.076 C 
ATOM      7  C8  UNL d   1       0.088   0.441   1.653  0.00  0.00     0.001 A 
ENDROOT
BRANCH   1   8
ATOM      8  C1  UNL d   1      -1.836   1.665   0.568  0.00  0.00     0.053 C 
ATOM      9  C   UNL d   1      -1.918   2.372   1.912  0.00  0.00     0.018 C 
ENDBRANCH   1   8
TORSDOF 1
ENDMDL
