MODEL 1
REMARK minimizedAffinity 5.65966368
REMARK minimizedRMSD -1
REMARK  1 active torsions:
REMARK  status: ('A' for Active; 'I' for Inactive)
REMARK    1  A    between atoms: C1_2  and  C2_3 
ROOT
ATOM      1  C2  UNL d   1      -3.188   1.803  -1.430  0.00  0.00    -0.073 A 
ATOM      2  C3  UNL d   1      -4.152   0.839  -1.745  0.00  0.00    -0.002 A 
ATOM      3  C4  UNL d   1      -5.166   1.128  -2.659  0.00  0.00     0.004 A 
ATOM      4  C5  UNL d   1      -5.223   2.380  -3.271  0.00  0.00    -0.004 A 
ATOM      5  C6  UNL d   1      -4.262   3.353  -2.978  0.00  0.00    -0.075 A 
ATOM      6  C7  UNL d   1      -4.310   4.705  -3.627  0.00  0.00     0.076 C 
ATOM      7  C8  UNL d   1      -3.248   3.055  -2.057  0.00  0.00     0.001 A 
ENDROOT
BRANCH   1   8
ATOM      8  C1  UNL d   1      -2.087   1.493  -0.449  0.00  0.00     0.053 C 
ATOM      9  C   UNL d   1      -0.831   0.989  -1.142  0.00  0.00     0.018 C 
ENDBRANCH   1   8
TORSDOF 1
ENDMDL
