MODEL 1
REMARK minimizedAffinity -0.151026636
REMARK minimizedRMSD -1
REMARK  0 active torsions:
REMARK  status: ('A' for Active; 'I' for Inactive)
ROOT
ATOM      1  C1  BNZ d   1       3.638  -1.487  -3.749  0.00  0.00     0.000 A 
ATOM      2  C2  BNZ d   1       3.655  -0.734  -4.893  0.00  0.00     0.000 A 
ATOM      3  C3  BNZ d   1       4.837  -0.383  -5.483  0.00  0.00     0.000 A 
ATOM      4  C4  BNZ d   1       6.000  -0.751  -4.907  0.00  0.00     0.000 A 
ATOM      5  C5  BNZ d   1       6.000  -1.503  -3.749  0.00  0.00     0.000 A 
ATOM      6  C6  BNZ d   1       4.808  -1.887  -3.180  0.00  0.00     0.000 A 
ENDROOT
TORSDOF 0
ENDMDL
