MODEL 1
REMARK minimizedAffinity -3.33676076
REMARK minimizedRMSD -1
REMARK  0 active torsions:
REMARK  status: ('A' for Active; 'I' for Inactive)
ROOT
ATOM      1  C1  BNZ d   1      -5.679  -3.791  -4.050  0.00  0.00     0.000 A 
ATOM      2  C2  BNZ d   1      -5.231  -3.815  -2.756  0.00  0.00     0.000 A 
ATOM      3  C3  BNZ d   1      -4.587  -4.913  -2.258  0.00  0.00     0.000 A 
ATOM      4  C4  BNZ d   1      -4.427  -5.999  -3.041  0.00  0.00     0.000 A 
ATOM      5  C5  BNZ d   1      -4.881  -5.994  -4.345  0.00  0.00     0.000 A 
ATOM      6  C6  BNZ d   1      -5.495  -4.873  -4.855  0.00  0.00     0.000 A 
ENDROOT
TORSDOF 0
ENDMDL
