MODEL 1
REMARK minimizedAffinity -3.01018238
REMARK minimizedRMSD -1
REMARK  0 active torsions:
REMARK  status: ('A' for Active; 'I' for Inactive)
ROOT
ATOM      1  C1  BNZ d   1      -4.878  -4.829  -3.016  0.00  0.00     0.000 A 
ATOM      2  C2  BNZ d   1      -5.026  -5.999  -3.712  0.00  0.00     0.000 A 
ATOM      3  C3  BNZ d   1      -5.536  -6.000  -4.980  0.00  0.00     0.000 A 
ATOM      4  C4  BNZ d   1      -5.935  -4.837  -5.535  0.00  0.00     0.000 A 
ATOM      5  C5  BNZ d   1      -5.802  -3.650  -4.842  0.00  0.00     0.000 A 
ATOM      6  C6  BNZ d   1      -5.251  -3.649  -3.581  0.00  0.00     0.000 A 
ENDROOT
TORSDOF 0
ENDMDL
