MODEL 1
REMARK minimizedAffinity -2.4571166
REMARK minimizedRMSD -1
REMARK  0 active torsions:
REMARK  status: ('A' for Active; 'I' for Inactive)
ROOT
ATOM      1  C1  BNZ d   1      -6.000  -3.704  -3.883  0.00  0.00     0.000 A 
ATOM      2  C2  BNZ d   1      -5.988  -3.643  -5.251  0.00  0.00     0.000 A 
ATOM      3  C3  BNZ d   1      -5.737  -4.758  -6.000  0.00  0.00     0.000 A 
ATOM      4  C4  BNZ d   1      -5.458  -5.924  -5.380  0.00  0.00     0.000 A 
ATOM      5  C5  BNZ d   1      -5.457  -6.000  -4.002  0.00  0.00     0.000 A 
ATOM      6  C6  BNZ d   1      -5.749  -4.883  -3.252  0.00  0.00     0.000 A 
ENDROOT
TORSDOF 0
ENDMDL
