MODEL 1
REMARK minimizedAffinity -3.01362467
REMARK minimizedRMSD -1
REMARK  0 active torsions:
REMARK  status: ('A' for Active; 'I' for Inactive)
ROOT
ATOM      1  C1  BNZ d   1      -6.000  -4.901  -4.069  0.00  0.00     0.000 A 
ATOM      2  C2  BNZ d   1      -5.988  -4.913  -2.699  0.00  0.00     0.000 A 
ATOM      3  C3  BNZ d   1      -4.931  -5.442  -2.013  0.00  0.00     0.000 A 
ATOM      4  C4  BNZ d   1      -3.907  -5.995  -2.696  0.00  0.00     0.000 A 
ATOM      5  C5  BNZ d   1      -3.909  -6.000  -4.076  0.00  0.00     0.000 A 
ATOM      6  C6  BNZ d   1      -4.957  -5.431  -4.764  0.00  0.00     0.000 A 
ENDROOT
TORSDOF 0
ENDMDL
