MODEL 1
REMARK minimizedAffinity 0.451191485
REMARK minimizedRMSD -1
REMARK  0 active torsions:
REMARK  status: ('A' for Active; 'I' for Inactive)
ROOT
ATOM      1  C1  BNZ d   1      -5.551  -4.790  -1.839  0.00  0.00     0.000 A 
ATOM      2  C2  BNZ d   1      -5.564  -3.626  -2.560  0.00  0.00     0.000 A 
ATOM      3  C3  BNZ d   1      -5.809  -3.639  -3.905  0.00  0.00     0.000 A 
ATOM      4  C4  BNZ d   1      -6.000  -4.817  -4.533  0.00  0.00     0.000 A 
ATOM      5  C5  BNZ d   1      -5.981  -6.000  -3.821  0.00  0.00     0.000 A 
ATOM      6  C6  BNZ d   1      -5.773  -5.980  -2.461  0.00  0.00     0.000 A 
ENDROOT
TORSDOF 0
ENDMDL
