MODEL 1
REMARK minimizedAffinity 5.08001232
REMARK minimizedRMSD -1
REMARK  1 active torsions:
REMARK  status: ('A' for Active; 'I' for Inactive)
REMARK    1  A    between atoms: C1_2  and  C2_3 
ROOT
ATOM      1  C2  UNL d   1       1.101   2.979  -0.058  0.00  0.00    -0.076 A 
ATOM      2  C3  UNL d   1       2.270   2.885   0.716  0.00  0.00     0.004 A 
ATOM      3  C4  UNL d   1       2.897   1.658   0.924  0.00  0.00    -0.003 A 
ATOM      4  C5  UNL d   1       2.364   0.503   0.360  0.00  0.00     0.000 A 
ATOM      5  C6  UNL d   1       1.214   0.580  -0.425  0.00  0.00     0.000 A 
ATOM      6  C7  UNL d   1       0.580   1.812  -0.658  0.00  0.00    -0.073 A 
ATOM      7  C8  UNL d   1      -0.661   1.836  -1.508  0.00  0.00     0.078 C 
ENDROOT
BRANCH   1   8
ATOM      8  C1  UNL d   1       0.450   4.333  -0.227  0.00  0.00     0.053 C 
ATOM      9  C   UNL d   1      -0.674   4.568   0.771  0.00  0.00     0.018 C 
ENDBRANCH   1   8
TORSDOF 1
ENDMDL
