MODEL 1
REMARK minimizedAffinity 1.06716692
REMARK minimizedRMSD -1
REMARK  1 active torsions:
REMARK  status: ('A' for Active; 'I' for Inactive)
REMARK    1  A    between atoms: C1_2  and  C2_3 
ROOT
ATOM      1  C2  UNL d   1      -4.454   0.890  -2.982  0.00  0.00    -0.076 A 
ATOM      2  C3  UNL d   1      -4.461  -0.021  -1.910  0.00  0.00     0.004 A 
ATOM      3  C4  UNL d   1      -5.208   0.230  -0.761  0.00  0.00    -0.003 A 
ATOM      4  C5  UNL d   1      -5.961   1.395  -0.664  0.00  0.00     0.000 A 
ATOM      5  C6  UNL d   1      -5.979   2.301  -1.724  0.00  0.00     0.000 A 
ATOM      6  C7  UNL d   1      -5.245   2.055  -2.897  0.00  0.00    -0.073 A 
ATOM      7  C8  UNL d   1      -5.296   3.069  -4.006  0.00  0.00     0.078 C 
ENDROOT
BRANCH   1   8
ATOM      8  C1  UNL d   1      -3.603   0.578  -4.192  0.00  0.00     0.053 C 
ATOM      9  C   UNL d   1      -2.131   0.418  -3.844  0.00  0.00     0.018 C 
ENDBRANCH   1   8
TORSDOF 1
ENDMDL
