MODEL 1
REMARK minimizedAffinity 3.75962138
REMARK minimizedRMSD -1
REMARK  1 active torsions:
REMARK  status: ('A' for Active; 'I' for Inactive)
REMARK    1  A    between atoms: C1_2  and  C2_3 
ROOT
ATOM      1  C2  UNL d   1       2.887   2.010   1.128  0.00  0.00    -0.076 A 
ATOM      2  C3  UNL d   1       1.640   1.406   0.888  0.00  0.00     0.004 A 
ATOM      3  C4  UNL d   1       0.742   1.175   1.928  0.00  0.00    -0.003 A 
ATOM      4  C5  UNL d   1       1.075   1.546   3.226  0.00  0.00     0.000 A 
ATOM      5  C6  UNL d   1       2.300   2.162   3.481  0.00  0.00     0.000 A 
ATOM      6  C7  UNL d   1       3.210   2.416   2.440  0.00  0.00    -0.073 A 
ATOM      7  C8  UNL d   1       4.520   3.078   2.772  0.00  0.00     0.078 C 
ENDROOT
BRANCH   1   8
ATOM      8  C1  UNL d   1       3.831   2.210  -0.035  0.00  0.00     0.053 C 
ATOM      9  C   UNL d   1       3.892   0.997  -0.952  0.00  0.00     0.018 C 
ENDBRANCH   1   8
TORSDOF 1
ENDMDL
