MODEL 1
REMARK minimizedAffinity 4.54610825
REMARK minimizedRMSD -1
REMARK  1 active torsions:
REMARK  status: ('A' for Active; 'I' for Inactive)
REMARK    1  A    between atoms: C1_2  and  C2_3 
ROOT
ATOM      1  C2  UNL d   1      -3.845   1.508  -3.990  0.00  0.00    -0.076 A 
ATOM      2  C3  UNL d   1      -3.237   2.619  -3.381  0.00  0.00     0.004 A 
ATOM      3  C4  UNL d   1      -3.997   3.702  -2.941  0.00  0.00    -0.003 A 
ATOM      4  C5  UNL d   1      -5.378   3.690  -3.102  0.00  0.00     0.000 A 
ATOM      5  C6  UNL d   1      -6.000   2.588  -3.688  0.00  0.00     0.000 A 
ATOM      6  C7  UNL d   1      -5.250   1.481  -4.123  0.00  0.00    -0.073 A 
ATOM      7  C8  UNL d   1      -5.972   0.322  -4.753  0.00  0.00     0.078 C 
ENDROOT
BRANCH   1   8
ATOM      8  C1  UNL d   1      -2.967   0.375  -4.472  0.00  0.00     0.053 C 
ATOM      9  C   UNL d   1      -2.199  -0.289  -3.340  0.00  0.00     0.018 C 
ENDBRANCH   1   8
TORSDOF 1
ENDMDL
