MODEL 1
REMARK minimizedAffinity -0.752892256
REMARK minimizedRMSD -1
REMARK  0 active torsions:
REMARK  status: ('A' for Active; 'I' for Inactive)
ROOT
ATOM      1  C4' PXY d   1      -2.300   3.491   1.320  0.00  0.00     0.077 C 
ATOM      2  C1' PXY d   1       0.785  -1.331   0.515  0.00  0.00     0.077 C 
ATOM      3  C1  PXY d   1      -0.025  -0.070   0.738  0.00  0.00    -0.082 A 
ATOM      4  C2  PXY d   1      -0.623   0.514  -0.288  0.00  0.00     0.003 A 
ATOM      5  C3  PXY d   1      -1.333   1.673  -0.109  0.00  0.00     0.003 A 
ATOM      6  C4  PXY d   1      -1.478   2.210   1.142  0.00  0.00    -0.082 A 
ATOM      7  C5  PXY d   1      -0.881   1.614   2.196  0.00  0.00     0.003 A 
ATOM      8  C6  PXY d   1      -0.130   0.462   1.986  0.00  0.00     0.003 A 
ENDROOT
TORSDOF 0
ENDMDL
