MODEL 1
REMARK minimizedAffinity -1.22238028
REMARK minimizedRMSD -1
REMARK  0 active torsions:
REMARK  status: ('A' for Active; 'I' for Inactive)
ROOT
ATOM      1  C4' PXY d   1       1.292  -2.261  -1.672  0.00  0.00     0.077 C 
ATOM      2  C1' PXY d   1      -1.551   1.633   1.518  0.00  0.00     0.077 C 
ATOM      3  C1  PXY d   1      -0.802   0.621   0.673  0.00  0.00    -0.082 A 
ATOM      4  C2  PXY d   1      -1.115  -0.662   0.758  0.00  0.00     0.003 A 
ATOM      5  C3  PXY d   1      -0.426  -1.594   0.025  0.00  0.00     0.003 A 
ATOM      6  C4  PXY d   1       0.556  -1.203  -0.844  0.00  0.00    -0.082 A 
ATOM      7  C5  PXY d   1       0.874   0.105  -0.945  0.00  0.00     0.003 A 
ATOM      8  C6  PXY d   1       0.191   1.031  -0.162  0.00  0.00     0.003 A 
ENDROOT
TORSDOF 0
ENDMDL
