MODEL 1
REMARK minimizedAffinity -4.1197505
REMARK minimizedRMSD -1
REMARK  0 active torsions:
REMARK  status: ('A' for Active; 'I' for Inactive)
ROOT
ATOM      1  C4' PXY d   1       0.924  -2.517  -1.604  0.00  0.00     0.077 C 
ATOM      2  C1' PXY d   1      -1.334   1.636   1.723  0.00  0.00     0.077 C 
ATOM      3  C1  PXY d   1      -0.736   0.556   0.843  0.00  0.00    -0.082 A 
ATOM      4  C2  PXY d   1      -1.301  -0.640   0.800  0.00  0.00     0.003 A 
ATOM      5  C3  PXY d   1      -0.755  -1.637   0.035  0.00  0.00     0.003 A 
ATOM      6  C4  PXY d   1       0.349  -1.393  -0.737  0.00  0.00    -0.082 A 
ATOM      7  C5  PXY d   1       0.925  -0.172  -0.707  0.00  0.00     0.003 A 
ATOM      8  C6  PXY d   1       0.380   0.815   0.108  0.00  0.00     0.003 A 
ENDROOT
TORSDOF 0
ENDMDL
