MODEL 1
REMARK minimizedAffinity -2.62355828
REMARK minimizedRMSD -1
REMARK  0 active torsions:
REMARK  status: ('A' for Active; 'I' for Inactive)
ROOT
ATOM      1  C4' PXY d   1       1.008  -2.068  -1.741  0.00  0.00     0.077 C 
ATOM      2  C1' PXY d   1      -1.329   1.793   1.871  0.00  0.00     0.077 C 
ATOM      3  C1  PXY d   1      -0.718   0.788   0.914  0.00  0.00    -0.082 A 
ATOM      4  C2  PXY d   1      -0.709  -0.496   1.232  0.00  0.00     0.003 A 
ATOM      5  C3  PXY d   1      -0.132  -1.414   0.392  0.00  0.00     0.003 A 
ATOM      6  C4  PXY d   1       0.394  -1.020  -0.809  0.00  0.00    -0.082 A 
ATOM      7  C5  PXY d   1       0.379   0.287  -1.145  0.00  0.00     0.003 A 
ATOM      8  C6  PXY d   1      -0.175   1.209  -0.261  0.00  0.00     0.003 A 
ENDROOT
TORSDOF 0
ENDMDL
