MODEL 1
REMARK minimizedAffinity -4.53355598
REMARK minimizedRMSD -1
REMARK  0 active torsions:
REMARK  status: ('A' for Active; 'I' for Inactive)
ROOT
ATOM      1  C4' PXY d   1      -2.388   2.922   1.409  0.00  0.00     0.077 C 
ATOM      2  C1' PXY d   1       1.402  -1.022  -0.461  0.00  0.00     0.077 C 
ATOM      3  C1  PXY d   1       0.403   0.004   0.038  0.00  0.00    -0.082 A 
ATOM      4  C2  PXY d   1       0.086   1.034  -0.729  0.00  0.00     0.003 A 
ATOM      5  C3  PXY d   1      -0.791   1.988  -0.281  0.00  0.00     0.003 A 
ATOM      6  C4  PXY d   1      -1.391   1.857   0.943  0.00  0.00    -0.082 A 
ATOM      7  C5  PXY d   1      -1.081   0.803   1.727  0.00  0.00     0.003 A 
ATOM      8  C6  PXY d   1      -0.156  -0.132   1.270  0.00  0.00     0.003 A 
ENDROOT
TORSDOF 0
ENDMDL
