MODEL 1
REMARK minimizedAffinity -2.58118391
REMARK minimizedRMSD -1
REMARK  0 active torsions:
REMARK  status: ('A' for Active; 'I' for Inactive)
ROOT
ATOM      1  C4' PXY d   1       1.148  -1.663  -1.531  0.00  0.00     0.077 C 
ATOM      2  C1' PXY d   1      -1.594   1.758   2.237  0.00  0.00     0.077 C 
ATOM      3  C1  PXY d   1      -0.882   0.866   1.239  0.00  0.00    -0.082 A 
ATOM      4  C2  PXY d   1      -0.363  -0.282   1.642  0.00  0.00     0.003 A 
ATOM      5  C3  PXY d   1       0.312  -1.086   0.760  0.00  0.00     0.003 A 
ATOM      6  C4  PXY d   1       0.412  -0.735  -0.560  0.00  0.00    -0.082 A 
ATOM      7  C5  PXY d   1      -0.125   0.430  -0.981  0.00  0.00     0.003 A 
ATOM      8  C6  PXY d   1      -0.770   1.251  -0.062  0.00  0.00     0.003 A 
ENDROOT
TORSDOF 0
ENDMDL
