MODEL 1
REMARK minimizedAffinity -1.46847057
REMARK minimizedRMSD -1
REMARK  0 active torsions:
REMARK  status: ('A' for Active; 'I' for Inactive)
ROOT
ATOM      1  C4' PXY d   1      -0.272   3.425  -1.716  0.00  0.00     0.077 C 
ATOM      2  C1' PXY d   1       0.139  -1.952   0.365  0.00  0.00     0.077 C 
ATOM      3  C1  PXY d   1       0.044  -0.541  -0.181  0.00  0.00    -0.082 A 
ATOM      4  C2  PXY d   1      -1.071   0.151  -0.014  0.00  0.00     0.003 A 
ATOM      5  C3  PXY d   1      -1.185   1.417  -0.528  0.00  0.00     0.003 A 
ATOM      6  C4  PXY d   1      -0.128   2.000  -1.174  0.00  0.00    -0.082 A 
ATOM      7  C5  PXY d   1       1.017   1.304  -1.340  0.00  0.00     0.003 A 
ATOM      8  C6  PXY d   1       1.098   0.005  -0.846  0.00  0.00     0.003 A 
ENDROOT
TORSDOF 0
ENDMDL
