MODEL 1
REMARK minimizedAffinity -1.09773803
REMARK minimizedRMSD -1
REMARK  0 active torsions:
REMARK  status: ('A' for Active; 'I' for Inactive)
ROOT
ATOM      1  C4' PXY d   1       0.738  -3.687  -2.002  0.00  0.00     0.077 C 
ATOM      2  C1' PXY d   1      -0.501   1.524   0.173  0.00  0.00     0.077 C 
ATOM      3  C1  PXY d   1      -0.166   0.162  -0.404  0.00  0.00    -0.082 A 
ATOM      4  C2  PXY d   1      -1.116  -0.752  -0.518  0.00  0.00     0.003 A 
ATOM      5  C3  PXY d   1      -0.823  -1.999  -1.007  0.00  0.00     0.003 A 
ATOM      6  C4  PXY d   1       0.443  -2.296  -1.434  0.00  0.00    -0.082 A 
ATOM      7  C5  PXY d   1       1.416  -1.366  -1.331  0.00  0.00     0.003 A 
ATOM      8  C6  PXY d   1       1.107  -0.119  -0.793  0.00  0.00     0.003 A 
ENDROOT
TORSDOF 0
ENDMDL
