MODEL 1
REMARK minimizedAffinity -2.39651752
REMARK minimizedRMSD -1
REMARK  0 active torsions:
REMARK  status: ('A' for Active; 'I' for Inactive)
ROOT
ATOM      1  C4' PXY d   1       0.956  -1.311  -1.501  0.00  0.00     0.077 C 
ATOM      2  C1' PXY d   1      -1.703   1.971   2.446  0.00  0.00     0.077 C 
ATOM      3  C1  PXY d   1      -1.003   1.121   1.404  0.00  0.00    -0.082 A 
ATOM      4  C2  PXY d   1      -1.343  -0.150   1.260  0.00  0.00     0.003 A 
ATOM      5  C3  PXY d   1      -0.698  -0.941   0.345  0.00  0.00     0.003 A 
ATOM      6  C4  PXY d   1       0.269  -0.413  -0.468  0.00  0.00    -0.082 A 
ATOM      7  C5  PXY d   1       0.614   0.885  -0.335  0.00  0.00     0.003 A 
ATOM      8  C6  PXY d   1      -0.024   1.661   0.629  0.00  0.00     0.003 A 
ENDROOT
TORSDOF 0
ENDMDL
