MODEL 1
REMARK minimizedAffinity -3.36915064
REMARK minimizedRMSD -1
REMARK  0 active torsions:
REMARK  status: ('A' for Active; 'I' for Inactive)
ROOT
ATOM      1  C4' PXY d   1       0.895  -2.086  -1.505  0.00  0.00     0.077 C 
ATOM      2  C1' PXY d   1      -1.287   1.767   2.211  0.00  0.00     0.077 C 
ATOM      3  C1  PXY d   1      -0.715   0.765   1.227  0.00  0.00    -0.082 A 
ATOM      4  C2  PXY d   1      -0.885  -0.530   1.438  0.00  0.00     0.003 A 
ATOM      5  C3  PXY d   1      -0.347  -1.450   0.575  0.00  0.00     0.003 A 
ATOM      6  C4  PXY d   1       0.327  -1.039  -0.543  0.00  0.00    -0.082 A 
ATOM      7  C5  PXY d   1       0.496   0.281  -0.771  0.00  0.00     0.003 A 
ATOM      8  C6  PXY d   1      -0.023   1.198   0.138  0.00  0.00     0.003 A 
ENDROOT
TORSDOF 0
ENDMDL
