MODEL 1
REMARK minimizedAffinity -5.07031441
REMARK minimizedRMSD -1
REMARK  0 active torsions:
REMARK  status: ('A' for Active; 'I' for Inactive)
ROOT
ATOM      1  C4' PXY d   1       0.774  -2.090  -1.285  0.00  0.00     0.077 C 
ATOM      2  C1' PXY d   1      -2.146   2.211   1.243  0.00  0.00     0.077 C 
ATOM      3  C1  PXY d   1      -1.376   1.091   0.571  0.00  0.00    -0.082 A 
ATOM      4  C2  PXY d   1      -1.749  -0.164   0.760  0.00  0.00     0.003 A 
ATOM      5  C3  PXY d   1      -1.044  -1.191   0.185  0.00  0.00     0.003 A 
ATOM      6  C4  PXY d   1       0.020  -0.927  -0.634  0.00  0.00    -0.082 A 
ATOM      7  C5  PXY d   1       0.400   0.352  -0.841  0.00  0.00     0.003 A 
ATOM      8  C6  PXY d   1      -0.303   1.377  -0.215  0.00  0.00     0.003 A 
ENDROOT
TORSDOF 0
ENDMDL
