MODEL 1
REMARK minimizedAffinity -5.29971123
REMARK minimizedRMSD -1
REMARK  0 active torsions:
REMARK  status: ('A' for Active; 'I' for Inactive)
ROOT
ATOM      1  C4' PXY d   1       1.082  -2.957  -2.594  0.00  0.00     0.077 C 
ATOM      2  C1' PXY d   1      -1.513   0.897   0.845  0.00  0.00     0.077 C 
ATOM      3  C1  PXY d   1      -0.822  -0.106  -0.057  0.00  0.00    -0.082 A 
ATOM      4  C2  PXY d   1      -1.546  -0.962  -0.759  0.00  0.00     0.003 A 
ATOM      5  C3  PXY d   1      -0.937  -1.897  -1.555  0.00  0.00     0.003 A 
ATOM      6  C4  PXY d   1       0.427  -1.921  -1.677  0.00  0.00    -0.082 A 
ATOM      7  C5  PXY d   1       1.173  -1.043  -0.973  0.00  0.00     0.003 A 
ATOM      8  C6  PXY d   1       0.536  -0.129  -0.138  0.00  0.00     0.003 A 
ENDROOT
TORSDOF 0
ENDMDL
