MODEL 1
REMARK minimizedAffinity -4.18198776
REMARK minimizedRMSD -1
REMARK  0 active torsions:
REMARK  status: ('A' for Active; 'I' for Inactive)
ROOT
ATOM      1  C4' PXY d   1      -0.168   3.724  -1.525  0.00  0.00     0.077 C 
ATOM      2  C1' PXY d   1      -1.534  -0.159   2.534  0.00  0.00     0.077 C 
ATOM      3  C1  PXY d   1      -1.185   0.867   1.474  0.00  0.00    -0.082 A 
ATOM      4  C2  PXY d   1      -0.600   0.477   0.353  0.00  0.00     0.003 A 
ATOM      5  C3  PXY d   1      -0.249   1.396  -0.602  0.00  0.00     0.003 A 
ATOM      6  C4  PXY d   1      -0.546   2.721  -0.431  0.00  0.00    -0.082 A 
ATOM      7  C5  PXY d   1      -1.152   3.126   0.705  0.00  0.00     0.003 A 
ATOM      8  C6  PXY d   1      -1.464   2.183   1.680  0.00  0.00     0.003 A 
ENDROOT
TORSDOF 0
ENDMDL
