MODEL 1
REMARK minimizedAffinity -4.98244095
REMARK minimizedRMSD -1
REMARK  0 active torsions:
REMARK  status: ('A' for Active; 'I' for Inactive)
ROOT
ATOM      1  C4' PXY d   1      -1.313   1.595   1.846  0.00  0.00     0.077 C 
ATOM      2  C1' PXY d   1       0.159  -2.464  -1.998  0.00  0.00     0.077 C 
ATOM      3  C1  PXY d   1      -0.215  -1.396  -0.988  0.00  0.00    -0.082 A 
ATOM      4  C2  PXY d   1      -1.358  -1.491  -0.329  0.00  0.00     0.003 A 
ATOM      5  C3  PXY d   1      -1.726  -0.518   0.564  0.00  0.00     0.003 A 
ATOM      6  C4  PXY d   1      -0.891   0.535   0.825  0.00  0.00    -0.082 A 
ATOM      7  C5  PXY d   1       0.282   0.633   0.164  0.00  0.00     0.003 A 
ATOM      8  C6  PXY d   1       0.619  -0.343  -0.769  0.00  0.00     0.003 A 
ENDROOT
TORSDOF 0
ENDMDL
