MODEL 1
REMARK minimizedAffinity -2.67576909
REMARK minimizedRMSD -1
REMARK  0 active torsions:
REMARK  status: ('A' for Active; 'I' for Inactive)
ROOT
ATOM      1  C4' PXY d   1       0.935  -1.212  -0.971  0.00  0.00     0.077 C 
ATOM      2  C1' PXY d   1      -2.620   2.520   1.647  0.00  0.00     0.077 C 
ATOM      3  C1  PXY d   1      -1.680   1.541   0.971  0.00  0.00    -0.082 A 
ATOM      4  C2  PXY d   1      -1.614   1.504  -0.350  0.00  0.00     0.003 A 
ATOM      5  C3  PXY d   1      -0.793   0.603  -0.978  0.00  0.00     0.003 A 
ATOM      6  C4  PXY d   1       0.007  -0.233  -0.246  0.00  0.00    -0.082 A 
ATOM      7  C5  PXY d   1      -0.047  -0.194   1.102  0.00  0.00     0.003 A 
ATOM      8  C6  PXY d   1      -0.917   0.700   1.720  0.00  0.00     0.003 A 
ENDROOT
TORSDOF 0
ENDMDL
