MODEL 1
REMARK minimizedAffinity -4.31670427
REMARK minimizedRMSD -1
REMARK  0 active torsions:
REMARK  status: ('A' for Active; 'I' for Inactive)
ROOT
ATOM      1  C4' PXY d   1      -2.359   3.894   0.836  0.00  0.00     0.077 C 
ATOM      2  C1' PXY d   1       0.132  -1.311   1.189  0.00  0.00     0.077 C 
ATOM      3  C1  PXY d   1      -0.519   0.054   1.084  0.00  0.00    -0.082 A 
ATOM      4  C2  PXY d   1      -0.586   0.831   2.153  0.00  0.00     0.003 A 
ATOM      5  C3  PXY d   1      -1.200   2.055   2.083  0.00  0.00     0.003 A 
ATOM      6  C4  PXY d   1      -1.703   2.511   0.894  0.00  0.00    -0.082 A 
ATOM      7  C5  PXY d   1      -1.628   1.729  -0.204  0.00  0.00     0.003 A 
ATOM      8  C6  PXY d   1      -1.038   0.473  -0.102  0.00  0.00     0.003 A 
ENDROOT
TORSDOF 0
ENDMDL
