MODEL 1
REMARK minimizedAffinity -3.91939521
REMARK minimizedRMSD -1
REMARK  0 active torsions:
REMARK  status: ('A' for Active; 'I' for Inactive)
ROOT
ATOM      1  C4' PXY d   1      -1.697   1.409   2.010  0.00  0.00     0.077 C 
ATOM      2  C1' PXY d   1       0.634  -2.348  -1.713  0.00  0.00     0.077 C 
ATOM      3  C1  PXY d   1       0.011  -1.367  -0.740  0.00  0.00    -0.082 A 
ATOM      4  C2  PXY d   1       0.681  -0.283  -0.384  0.00  0.00     0.003 A 
ATOM      5  C3  PXY d   1       0.146   0.598   0.519  0.00  0.00     0.003 A 
ATOM      6  C4  PXY d   1      -1.111   0.396   1.023  0.00  0.00    -0.082 A 
ATOM      7  C5  PXY d   1      -1.806  -0.702   0.657  0.00  0.00     0.003 A 
ATOM      8  C6  PXY d   1      -1.228  -1.606  -0.229  0.00  0.00     0.003 A 
ENDROOT
TORSDOF 0
ENDMDL
