MODEL 1
REMARK minimizedAffinity -5.7907567
REMARK minimizedRMSD -1
REMARK  0 active torsions:
REMARK  status: ('A' for Active; 'I' for Inactive)
ROOT
ATOM      1  C4' PXY d   1       1.384  -2.933  -1.569  0.00  0.00     0.077 C 
ATOM      2  C1' PXY d   1      -3.340  -0.242  -3.532  0.00  0.00     0.077 C 
ATOM      3  C1  PXY d   1      -2.094  -0.942  -3.026  0.00  0.00    -0.082 A 
ATOM      4  C2  PXY d   1      -2.206  -2.091  -2.379  0.00  0.00     0.003 A 
ATOM      5  C3  PXY d   1      -1.092  -2.721  -1.887  0.00  0.00     0.003 A 
ATOM      6  C4  PXY d   1       0.154  -2.197  -2.105  0.00  0.00    -0.082 A 
ATOM      7  C5  PXY d   1       0.277  -1.030  -2.774  0.00  0.00     0.003 A 
ATOM      8  C6  PXY d   1      -0.869  -0.386  -3.229  0.00  0.00     0.003 A 
ENDROOT
TORSDOF 0
ENDMDL
