MODEL 1
REMARK minimizedAffinity 6.72423601
REMARK minimizedRMSD -1
REMARK  0 active torsions:
REMARK  status: ('A' for Active; 'I' for Inactive)
ROOT
ATOM      1  C   UNL d   1      -2.158   0.350  -2.100  0.00  0.00    -0.002 A 
ATOM      2  C1  UNL d   1      -2.912   1.411  -2.580  0.00  0.00     0.010 A 
ATOM      3  C2  UNL d   1      -4.116   1.762  -1.966  0.00  0.00     0.041 A 
ATOM      4  C3  UNL d   1      -4.552   1.022  -0.849  0.00  0.00    -0.075 A 
ATOM      5  S   UNL d   1      -5.994   1.270   0.063  0.00  0.00     0.015 SA
ATOM      6  C4  UNL d   1      -5.642  -0.026   1.113  0.00  0.00     0.022 A 
ATOM      7  C5  UNL d   1      -4.457  -0.644   0.789  0.00  0.00     0.026 A 
ATOM      8  C6  UNL d   1      -3.810  -0.050  -0.347  0.00  0.00    -0.082 A 
ATOM      9  C7  UNL d   1      -2.594  -0.382  -0.992  0.00  0.00     0.045 A 
ENDROOT
TORSDOF 0
ENDMDL
