MODEL 1
REMARK minimizedAffinity 1.93359196
REMARK minimizedRMSD -1
REMARK  0 active torsions:
REMARK  status: ('A' for Active; 'I' for Inactive)
ROOT
ATOM      1  C   UNL d   1      -2.778   1.890  -1.716  0.00  0.00    -0.002 A 
ATOM      2  C1  UNL d   1      -1.884   1.064  -1.051  0.00  0.00     0.010 A 
ATOM      3  C2  UNL d   1      -2.326   0.202  -0.046  0.00  0.00     0.041 A 
ATOM      4  C3  UNL d   1      -3.696   0.182   0.282  0.00  0.00    -0.075 A 
ATOM      5  S   UNL d   1      -4.465  -0.793   1.478  0.00  0.00     0.015 SA
ATOM      6  C4  UNL d   1      -6.000  -0.136   1.133  0.00  0.00     0.022 A 
ATOM      7  C5  UNL d   1      -5.945   0.806   0.133  0.00  0.00     0.026 A 
ATOM      8  C6  UNL d   1      -4.616   1.004  -0.375  0.00  0.00    -0.082 A 
ATOM      9  C7  UNL d   1      -4.137   1.868  -1.389  0.00  0.00     0.045 A 
ENDROOT
TORSDOF 0
ENDMDL
