MODEL 1
REMARK minimizedAffinity -0.874234021
REMARK minimizedRMSD -1
REMARK  0 active torsions:
REMARK  status: ('A' for Active; 'I' for Inactive)
ROOT
ATOM      1  C   UNL d   1       1.893  -3.811  -1.149  0.00  0.00    -0.002 A 
ATOM      2  C1  UNL d   1       0.509  -3.761  -1.056  0.00  0.00     0.010 A 
ATOM      3  C2  UNL d   1      -0.161  -2.536  -1.088  0.00  0.00     0.041 A 
ATOM      4  C3  UNL d   1       0.590  -1.352  -1.219  0.00  0.00    -0.075 A 
ATOM      5  S   UNL d   1      -0.016   0.261  -1.283  0.00  0.00     0.015 SA
ATOM      6  C4  UNL d   1       1.548   0.922  -1.436  0.00  0.00     0.022 A 
ATOM      7  C5  UNL d   1       2.520  -0.050  -1.440  0.00  0.00     0.026 A 
ATOM      8  C6  UNL d   1       1.984  -1.376  -1.316  0.00  0.00    -0.082 A 
ATOM      9  C7  UNL d   1       2.634  -2.633  -1.279  0.00  0.00     0.045 A 
ENDROOT
TORSDOF 0
ENDMDL
