MODEL 1
REMARK minimizedAffinity -4.70012712
REMARK minimizedRMSD -1
REMARK  0 active torsions:
REMARK  status: ('A' for Active; 'I' for Inactive)
ROOT
ATOM      1  C   UNL d   1       0.945  -0.867   0.239  0.00  0.00     0.020 A 
ATOM      2  C1  UNL d   1       0.217  -1.042   1.415  0.00  0.00     0.020 A 
ATOM      3  C2  UNL d   1      -0.872  -0.212   1.693  0.00  0.00     0.034 A 
ATOM      4  C3  UNL d   1      -1.236   0.796   0.792  0.00  0.00     0.017 A 
ATOM      5  C4  UNL d   1      -0.505   0.970  -0.388  0.00  0.00     0.017 A 
ATOM      6  C5  UNL d   1       0.584   0.137  -0.661  0.00  0.00     0.034 A 
ATOM      7 Cl   UNL d   1      -0.894   2.192  -1.547  0.00  0.00    -0.070 Cl
ATOM      8 Cl1  UNL d   1      -2.594   1.784   1.199  0.00  0.00    -0.070 Cl
ENDROOT
TORSDOF 0
ENDMDL
