MODEL 1
REMARK minimizedAffinity -4.61233521
REMARK minimizedRMSD -1
REMARK  0 active torsions:
REMARK  status: ('A' for Active; 'I' for Inactive)
ROOT
ATOM      1  C   UNL d   1      -2.278   1.883   0.416  0.00  0.00     0.020 A 
ATOM      2  C1  UNL d   1      -1.438   2.369  -0.584  0.00  0.00     0.020 A 
ATOM      3  C2  UNL d   1      -0.325   1.625  -0.984  0.00  0.00     0.034 A 
ATOM      4  C3  UNL d   1      -0.051   0.391  -0.382  0.00  0.00     0.017 A 
ATOM      5  C4  UNL d   1      -0.895  -0.096   0.622  0.00  0.00     0.017 A 
ATOM      6  C5  UNL d   1      -2.007   0.653   1.018  0.00  0.00     0.034 A 
ATOM      7 Cl   UNL d   1      -0.621  -1.609   1.410  0.00  0.00    -0.070 Cl
ATOM      8 Cl1  UNL d   1       1.342  -0.475  -0.926  0.00  0.00    -0.070 Cl
ENDROOT
TORSDOF 0
ENDMDL
