MODEL 1
REMARK minimizedAffinity -2.36784577
REMARK minimizedRMSD -1
REMARK  0 active torsions:
REMARK  status: ('A' for Active; 'I' for Inactive)
ROOT
ATOM      1  C   UNL d   1      -2.355   2.338   0.280  0.00  0.00     0.020 A 
ATOM      2  C1  UNL d   1      -1.915   2.338   1.603  0.00  0.00     0.020 A 
ATOM      3  C2  UNL d   1      -1.018   1.362   2.040  0.00  0.00     0.034 A 
ATOM      4  C3  UNL d   1      -0.558   0.381   1.154  0.00  0.00     0.017 A 
ATOM      5  C4  UNL d   1      -1.000   0.381  -0.173  0.00  0.00     0.017 A 
ATOM      6  C5  UNL d   1      -1.899   1.361  -0.606  0.00  0.00     0.034 A 
ATOM      7 Cl   UNL d   1      -0.477  -0.797  -1.325  0.00  0.00    -0.070 Cl
ATOM      8 Cl1  UNL d   1       0.551  -0.796   1.764  0.00  0.00    -0.070 Cl
ENDROOT
TORSDOF 0
ENDMDL
