MODEL 1
REMARK minimizedAffinity -3.60931969
REMARK minimizedRMSD -1
REMARK  0 active torsions:
REMARK  status: ('A' for Active; 'I' for Inactive)
ROOT
ATOM      1  C   UNL d   1      -1.042   0.678   0.487  0.00  0.00     0.020 A 
ATOM      2  C1  UNL d   1      -1.377  -0.668   0.631  0.00  0.00     0.020 A 
ATOM      3  C2  UNL d   1      -0.557  -1.654   0.079  0.00  0.00     0.034 A 
ATOM      4  C3  UNL d   1       0.602  -1.297  -0.619  0.00  0.00     0.017 A 
ATOM      5  C4  UNL d   1       0.937   0.055  -0.764  0.00  0.00     0.017 A 
ATOM      6  C5  UNL d   1       0.112   1.038  -0.209  0.00  0.00     0.034 A 
ATOM      7 Cl   UNL d   1       2.351   0.574  -1.612  0.00  0.00    -0.070 Cl
ATOM      8 Cl1  UNL d   1       1.570  -2.569  -1.275  0.00  0.00    -0.070 Cl
ENDROOT
TORSDOF 0
ENDMDL
