MODEL 1
REMARK minimizedAffinity -3.59473848
REMARK minimizedRMSD -1
REMARK  0 active torsions:
REMARK  status: ('A' for Active; 'I' for Inactive)
ROOT
ATOM      1  C   UNL d   1      -1.232   3.879   0.462  0.00  0.00     0.020 A 
ATOM      2  C1  UNL d   1      -0.435   3.459  -0.603  0.00  0.00     0.020 A 
ATOM      3  C2  UNL d   1      -0.089   2.112  -0.727  0.00  0.00     0.034 A 
ATOM      4  C3  UNL d   1      -0.539   1.180   0.215  0.00  0.00     0.017 A 
ATOM      5  C4  UNL d   1      -1.338   1.602   1.284  0.00  0.00     0.017 A 
ATOM      6  C5  UNL d   1      -1.682   2.952   1.403  0.00  0.00     0.034 A 
ATOM      7 Cl   UNL d   1      -1.931   0.511   2.486  0.00  0.00    -0.070 Cl
ATOM      8 Cl1  UNL d   1      -0.072  -0.470  -0.000  0.00  0.00    -0.070 Cl
ENDROOT
TORSDOF 0
ENDMDL
