MODEL 1
REMARK minimizedAffinity -6.30242682
REMARK minimizedRMSD -1
REMARK  0 active torsions:
REMARK  status: ('A' for Active; 'I' for Inactive)
ROOT
ATOM      1  C   UNL d   1      -1.801   1.901   1.550  0.00  0.00     0.020 A 
ATOM      2  C1  UNL d   1      -2.006   1.609   0.202  0.00  0.00     0.020 A 
ATOM      3  C2  UNL d   1      -1.285   0.579  -0.406  0.00  0.00     0.034 A 
ATOM      4  C3  UNL d   1      -0.357  -0.162   0.334  0.00  0.00     0.017 A 
ATOM      5  C4  UNL d   1      -0.152   0.132   1.687  0.00  0.00     0.017 A 
ATOM      6  C5  UNL d   1      -0.876   1.164   2.291  0.00  0.00     0.034 A 
ATOM      7 Cl   UNL d   1       0.977  -0.739   2.664  0.00  0.00    -0.070 Cl
ATOM      8 Cl1  UNL d   1       0.499  -1.422  -0.482  0.00  0.00    -0.070 Cl
ENDROOT
TORSDOF 0
ENDMDL
