MODEL 1
REMARK minimizedAffinity -4.62189007
REMARK minimizedRMSD -1
REMARK  0 active torsions:
REMARK  status: ('A' for Active; 'I' for Inactive)
ROOT
ATOM      1  C   UNL d   1      -1.463   3.350   0.575  0.00  0.00     0.020 A 
ATOM      2  C1  UNL d   1      -1.830   2.160   1.202  0.00  0.00     0.020 A 
ATOM      3  C2  UNL d   1      -1.180   0.968   0.874  0.00  0.00     0.034 A 
ATOM      4  C3  UNL d   1      -0.159   0.964  -0.084  0.00  0.00     0.017 A 
ATOM      5  C4  UNL d   1       0.209   2.159  -0.712  0.00  0.00     0.017 A 
ATOM      6  C5  UNL d   1      -0.446   3.349  -0.380  0.00  0.00     0.034 A 
ATOM      7 Cl   UNL d   1       1.458   2.232  -1.904  0.00  0.00    -0.070 Cl
ATOM      8 Cl1  UNL d   1       0.601  -0.546  -0.440  0.00  0.00    -0.070 Cl
ENDROOT
TORSDOF 0
ENDMDL
