MODEL 1
REMARK minimizedAffinity -3.66442871
REMARK minimizedRMSD -1
REMARK  0 active torsions:
REMARK  status: ('A' for Active; 'I' for Inactive)
ROOT
ATOM      1  C   UNL d   1       0.449  -0.704   0.637  0.00  0.00     0.020 A 
ATOM      2  C1  UNL d   1      -0.581  -0.683   1.577  0.00  0.00     0.020 A 
ATOM      3  C2  UNL d   1      -1.423   0.427   1.667  0.00  0.00     0.034 A 
ATOM      4  C3  UNL d   1      -1.236   1.522   0.815  0.00  0.00     0.017 A 
ATOM      5  C4  UNL d   1      -0.202   1.501  -0.128  0.00  0.00     0.017 A 
ATOM      6  C5  UNL d   1       0.638   0.386  -0.213  0.00  0.00     0.034 A 
ATOM      7 Cl   UNL d   1       0.090   2.814  -1.213  0.00  0.00    -0.070 Cl
ATOM      8 Cl1  UNL d   1      -2.314   2.862   0.981  0.00  0.00    -0.070 Cl
ENDROOT
TORSDOF 0
ENDMDL
