MODEL 1
REMARK minimizedAffinity -5.09902239
REMARK minimizedRMSD -1
REMARK  0 active torsions:
REMARK  status: ('A' for Active; 'I' for Inactive)
ROOT
ATOM      1  C   UNL d   1      -0.046   3.166  -0.799  0.00  0.00     0.020 A 
ATOM      2  C1  UNL d   1      -0.775   3.337   0.377  0.00  0.00     0.020 A 
ATOM      3  C2  UNL d   1      -1.048   2.239   1.195  0.00  0.00     0.034 A 
ATOM      4  C3  UNL d   1      -0.591   0.965   0.839  0.00  0.00     0.017 A 
ATOM      5  C4  UNL d   1       0.141   0.794  -0.342  0.00  0.00     0.017 A 
ATOM      6  C5  UNL d   1       0.411   1.898  -1.158  0.00  0.00     0.034 A 
ATOM      7 Cl   UNL d   1       0.737  -0.747  -0.849  0.00  0.00    -0.070 Cl
ATOM      8 Cl1  UNL d   1      -0.965  -0.349   1.898  0.00  0.00    -0.070 Cl
ENDROOT
TORSDOF 0
ENDMDL
