MODEL 1
REMARK minimizedAffinity -5.08023882
REMARK minimizedRMSD -1
REMARK  0 active torsions:
REMARK  status: ('A' for Active; 'I' for Inactive)
ROOT
ATOM      1  C   UNL d   1      -2.499   2.729   1.154  0.00  0.00     0.020 A 
ATOM      2  C1  UNL d   1      -2.425   1.400   1.567  0.00  0.00     0.020 A 
ATOM      3  C2  UNL d   1      -1.384   0.586   1.118  0.00  0.00     0.034 A 
ATOM      4  C3  UNL d   1      -0.411   1.100   0.253  0.00  0.00     0.017 A 
ATOM      5  C4  UNL d   1      -0.486   2.435  -0.162  0.00  0.00     0.017 A 
ATOM      6  C5  UNL d   1      -1.531   3.246   0.292  0.00  0.00     0.034 A 
ATOM      7 Cl   UNL d   1       0.677   3.141  -1.228  0.00  0.00    -0.070 Cl
ATOM      8 Cl1  UNL d   1       0.849   0.037  -0.263  0.00  0.00    -0.070 Cl
ENDROOT
TORSDOF 0
ENDMDL
