MODEL 1
REMARK minimizedAffinity -4.63333607
REMARK minimizedRMSD -1
REMARK  0 active torsions:
REMARK  status: ('A' for Active; 'I' for Inactive)
ROOT
ATOM      1  C   UNL d   1      -1.187   2.611   1.798  0.00  0.00     0.020 A 
ATOM      2  C1  UNL d   1      -1.209   1.264   2.158  0.00  0.00     0.020 A 
ATOM      3  C2  UNL d   1      -0.528   0.324   1.383  0.00  0.00     0.034 A 
ATOM      4  C3  UNL d   1       0.179   0.728   0.244  0.00  0.00     0.017 A 
ATOM      5  C4  UNL d   1       0.200   2.080  -0.116  0.00  0.00     0.017 A 
ATOM      6  C5  UNL d   1      -0.484   3.018   0.664  0.00  0.00     0.034 A 
ATOM      7 Cl   UNL d   1       1.050   2.656  -1.507  0.00  0.00    -0.070 Cl
ATOM      8 Cl1  UNL d   1       0.999  -0.489  -0.668  0.00  0.00    -0.070 Cl
ENDROOT
TORSDOF 0
ENDMDL
