MODEL 1
REMARK minimizedAffinity -5.38297892
REMARK minimizedRMSD -1
REMARK  0 active torsions:
REMARK  status: ('A' for Active; 'I' for Inactive)
ROOT
ATOM      1  C   UNL d   1      -1.569   1.899   1.441  0.00  0.00     0.020 A 
ATOM      2  C1  UNL d   1      -1.266   3.132   0.865  0.00  0.00     0.020 A 
ATOM      3  C2  UNL d   1      -0.418   3.195  -0.243  0.00  0.00     0.034 A 
ATOM      4  C3  UNL d   1       0.130   2.023  -0.778  0.00  0.00     0.017 A 
ATOM      5  C4  UNL d   1      -0.175   0.786  -0.198  0.00  0.00     0.017 A 
ATOM      6  C5  UNL d   1      -1.025   0.729   0.911  0.00  0.00     0.034 A 
ATOM      7 Cl   UNL d   1       0.462  -0.702  -0.802  0.00  0.00    -0.070 Cl
ATOM      8 Cl1  UNL d   1       1.170   2.176  -2.149  0.00  0.00    -0.070 Cl
ENDROOT
TORSDOF 0
ENDMDL
