MODEL 1
REMARK minimizedAffinity -5.16571331
REMARK minimizedRMSD -1
REMARK  0 active torsions:
REMARK  status: ('A' for Active; 'I' for Inactive)
ROOT
ATOM      1  C   UNL d   1      -1.337   2.925   1.172  0.00  0.00     0.020 A 
ATOM      2  C1  UNL d   1      -1.587   1.645   1.666  0.00  0.00     0.020 A 
ATOM      3  C2  UNL d   1      -0.944   0.541   1.103  0.00  0.00     0.034 A 
ATOM      4  C3  UNL d   1      -0.047   0.714   0.043  0.00  0.00     0.017 A 
ATOM      5  C4  UNL d   1       0.204   1.999  -0.452  0.00  0.00     0.017 A 
ATOM      6  C5  UNL d   1      -0.443   3.101   0.115  0.00  0.00     0.034 A 
ATOM      7 Cl   UNL d   1       1.297   2.292  -1.759  0.00  0.00    -0.070 Cl
ATOM      8 Cl1  UNL d   1       0.713  -0.696  -0.605  0.00  0.00    -0.070 Cl
ENDROOT
TORSDOF 0
ENDMDL
