MODEL 1
REMARK minimizedAffinity -4.14813232
REMARK minimizedRMSD -1
REMARK  0 active torsions:
REMARK  status: ('A' for Active; 'I' for Inactive)
ROOT
ATOM      1  C   UNL d   1      -1.060   1.607   2.182  0.00  0.00     0.020 A 
ATOM      2  C1  UNL d   1      -0.986   2.897   1.658  0.00  0.00     0.020 A 
ATOM      3  C2  UNL d   1      -0.276   3.132   0.479  0.00  0.00     0.034 A 
ATOM      4  C3  UNL d   1       0.363   2.076  -0.181  0.00  0.00     0.017 A 
ATOM      5  C4  UNL d   1       0.288   0.781   0.346  0.00  0.00     0.017 A 
ATOM      6  C5  UNL d   1      -0.425   0.551   1.527  0.00  0.00     0.034 A 
ATOM      7 Cl   UNL d   1       1.050  -0.573  -0.411  0.00  0.00    -0.070 Cl
ATOM      8 Cl1  UNL d   1       1.224   2.439  -1.634  0.00  0.00    -0.070 Cl
ENDROOT
TORSDOF 0
ENDMDL
