MODEL 1
REMARK minimizedAffinity -5.50883532
REMARK minimizedRMSD -1
REMARK  0 active torsions:
REMARK  status: ('A' for Active; 'I' for Inactive)
ROOT
ATOM      1  C   UNL d   1      -1.734   2.082   1.583  0.00  0.00     0.020 A 
ATOM      2  C1  UNL d   1      -1.439   3.325   1.026  0.00  0.00     0.020 A 
ATOM      3  C2  UNL d   1      -0.538   3.418  -0.037  0.00  0.00     0.034 A 
ATOM      4  C3  UNL d   1       0.072   2.265  -0.545  0.00  0.00     0.017 A 
ATOM      5  C4  UNL d   1      -0.225   1.017   0.016  0.00  0.00     0.017 A 
ATOM      6  C5  UNL d   1      -1.128   0.931   1.079  0.00  0.00     0.034 A 
ATOM      7 Cl   UNL d   1       0.487  -0.449  -0.558  0.00  0.00    -0.070 Cl
ATOM      8 Cl1  UNL d   1       1.177   2.453  -1.860  0.00  0.00    -0.070 Cl
ENDROOT
TORSDOF 0
ENDMDL
