MODEL 1
REMARK minimizedAffinity -5.23508167
REMARK minimizedRMSD -1
REMARK  0 active torsions:
REMARK  status: ('A' for Active; 'I' for Inactive)
ROOT
ATOM      1  C   UNL d   1      -2.441   1.023   1.050  0.00  0.00     0.020 A 
ATOM      2  C1  UNL d   1      -1.991   2.337   0.925  0.00  0.00     0.020 A 
ATOM      3  C2  UNL d   1      -0.770   2.600   0.300  0.00  0.00     0.034 A 
ATOM      4  C3  UNL d   1       0.005   1.549  -0.201  0.00  0.00     0.017 A 
ATOM      5  C4  UNL d   1      -0.447   0.230  -0.075  0.00  0.00     0.017 A 
ATOM      6  C5  UNL d   1      -1.671  -0.028   0.551  0.00  0.00     0.034 A 
ATOM      7 Cl   UNL d   1       0.454  -1.120  -0.669  0.00  0.00    -0.070 Cl
ATOM      8 Cl1  UNL d   1       1.504   1.948  -0.962  0.00  0.00    -0.070 Cl
ENDROOT
TORSDOF 0
ENDMDL
