MODEL 1
REMARK minimizedAffinity -4.96795177
REMARK minimizedRMSD -1
REMARK  0 active torsions:
REMARK  status: ('A' for Active; 'I' for Inactive)
ROOT
ATOM      1  C   UNL d   1      -1.207   3.014   1.425  0.00  0.00     0.020 A 
ATOM      2  C1  UNL d   1      -1.475   2.853   0.066  0.00  0.00     0.020 A 
ATOM      3  C2  UNL d   1      -1.139   1.659  -0.575  0.00  0.00     0.034 A 
ATOM      4  C3  UNL d   1      -0.531   0.622   0.142  0.00  0.00     0.017 A 
ATOM      5  C4  UNL d   1      -0.262   0.785   1.506  0.00  0.00     0.017 A 
ATOM      6  C5  UNL d   1      -0.601   1.982   2.143  0.00  0.00     0.034 A 
ATOM      7 Cl   UNL d   1       0.485  -0.450   2.457  0.00  0.00    -0.070 Cl
ATOM      8 Cl1  UNL d   1      -0.143  -0.827  -0.716  0.00  0.00    -0.070 Cl
ENDROOT
TORSDOF 0
ENDMDL
