MODEL 1
REMARK minimizedAffinity -3.78742576
REMARK minimizedRMSD -1
REMARK  0 active torsions:
REMARK  status: ('A' for Active; 'I' for Inactive)
ROOT
ATOM      1  C   UNL d   1       0.112  -0.313   0.787  0.00  0.00     0.020 A 
ATOM      2  C1  UNL d   1      -0.818  -0.293   1.825  0.00  0.00     0.020 A 
ATOM      3  C2  UNL d   1      -1.589   0.850   2.049  0.00  0.00     0.034 A 
ATOM      4  C3  UNL d   1      -1.431   1.977   1.234  0.00  0.00     0.017 A 
ATOM      5  C4  UNL d   1      -0.497   1.955   0.192  0.00  0.00     0.017 A 
ATOM      6  C5  UNL d   1       0.272   0.808  -0.028  0.00  0.00     0.034 A 
ATOM      7 Cl   UNL d   1      -0.246   3.306  -0.856  0.00  0.00    -0.070 Cl
ATOM      8 Cl1  UNL d   1      -2.418   3.355   1.568  0.00  0.00    -0.070 Cl
ENDROOT
TORSDOF 0
ENDMDL
