MODEL 1
REMARK minimizedAffinity -4.33492184
REMARK minimizedRMSD -1
REMARK  1 active torsions:
REMARK  status: ('A' for Active; 'I' for Inactive)
REMARK    1  A    between atoms: C1_2  and  C2_3 
ROOT
ATOM      1  C2  UNL d   1       0.506  -0.381  -1.635  0.00  0.00    -0.077 A 
ATOM      2  C3  UNL d   1       1.065  -1.663  -1.541  0.00  0.00     0.002 A 
ATOM      3  C4  UNL d   1       1.472  -2.342  -2.692  0.00  0.00     0.002 A 
ATOM      4  C5  UNL d   1       1.327  -1.746  -3.943  0.00  0.00    -0.004 A 
ATOM      5  C6  UNL d   1       0.769  -0.472  -4.046  0.00  0.00     0.002 A 
ATOM      6  C7  UNL d   1       0.362   0.207  -2.898  0.00  0.00     0.002 A 
ENDROOT
BRANCH   1   7
ATOM      7  C1  UNL d   1       0.113   0.373  -0.392  0.00  0.00     0.055 C 
ATOM      8  C   UNL d   1      -0.510  -0.553   0.644  0.00  0.00     0.019 C 
ENDBRANCH   1   7
TORSDOF 1
ENDMDL
