MODEL 1
REMARK minimizedAffinity -2.17044783
REMARK minimizedRMSD -1
REMARK  1 active torsions:
REMARK  status: ('A' for Active; 'I' for Inactive)
REMARK    1  A    between atoms: C1_2  and  C2_3 
ROOT
ATOM      1  C2  UNL d   1       0.539  -0.016  -1.726  0.00  0.00    -0.077 A 
ATOM      2  C3  UNL d   1      -0.796   0.410  -1.785  0.00  0.00     0.002 A 
ATOM      3  C4  UNL d   1      -1.530   0.599  -0.613  0.00  0.00     0.002 A 
ATOM      4  C5  UNL d   1      -0.937   0.368   0.627  0.00  0.00    -0.004 A 
ATOM      5  C6  UNL d   1       0.389  -0.058   0.697  0.00  0.00     0.002 A 
ATOM      6  C7  UNL d   1       1.124  -0.248  -0.474  0.00  0.00     0.002 A 
ENDROOT
BRANCH   1   7
ATOM      7  C1  UNL d   1       1.347  -0.172  -2.987  0.00  0.00     0.055 C 
ATOM      8  C   UNL d   1       1.195  -1.569  -3.572  0.00  0.00     0.019 C 
ENDBRANCH   1   7
TORSDOF 1
ENDMDL
