MODEL 1
REMARK minimizedAffinity -2.97381163
REMARK minimizedRMSD -1
REMARK  1 active torsions:
REMARK  status: ('A' for Active; 'I' for Inactive)
REMARK    1  A    between atoms: C1_2  and  C2_3 
ROOT
ATOM      1  C2  UNL d   1       1.115  -0.789  -1.531  0.00  0.00    -0.077 A 
ATOM      2  C3  UNL d   1       0.045   0.114  -1.620  0.00  0.00     0.002 A 
ATOM      3  C4  UNL d   1      -0.481   0.700  -0.467  0.00  0.00     0.002 A 
ATOM      4  C5  UNL d   1       0.057   0.394   0.781  0.00  0.00    -0.004 A 
ATOM      5  C6  UNL d   1       1.120  -0.504   0.880  0.00  0.00     0.002 A 
ATOM      6  C7  UNL d   1       1.646  -1.092  -0.271  0.00  0.00     0.002 A 
ENDROOT
BRANCH   1   7
ATOM      7  C1  UNL d   1       1.716  -1.385  -2.777  0.00  0.00     0.055 C 
ATOM      8  C   UNL d   1       2.060  -0.308  -3.795  0.00  0.00     0.019 C 
ENDBRANCH   1   7
TORSDOF 1
ENDMDL
