MODEL 1
REMARK minimizedAffinity -4.1537466
REMARK minimizedRMSD -1
REMARK  1 active torsions:
REMARK  status: ('A' for Active; 'I' for Inactive)
REMARK    1  A    between atoms: C1_2  and  C2_3 
ROOT
ATOM      1  C2  UNL d   1      -1.730   0.782   1.688  0.00  0.00    -0.077 A 
ATOM      2  C3  UNL d   1      -1.955   0.874   0.307  0.00  0.00     0.002 A 
ATOM      3  C4  UNL d   1      -0.897   0.725  -0.592  0.00  0.00     0.002 A 
ATOM      4  C5  UNL d   1       0.391   0.479  -0.121  0.00  0.00    -0.004 A 
ATOM      5  C6  UNL d   1       0.625   0.388   1.250  0.00  0.00     0.002 A 
ATOM      6  C7  UNL d   1      -0.431   0.538   2.151  0.00  0.00     0.002 A 
ENDROOT
BRANCH   1   7
ATOM      7  C1  UNL d   1      -2.877   0.894   2.657  0.00  0.00     0.055 C 
ATOM      8  C   UNL d   1      -3.599   2.226   2.510  0.00  0.00     0.019 C 
ENDBRANCH   1   7
TORSDOF 1
ENDMDL
