MODEL 1
REMARK minimizedAffinity -2.68329382
REMARK minimizedRMSD -1
REMARK  1 active torsions:
REMARK  status: ('A' for Active; 'I' for Inactive)
REMARK    1  A    between atoms: C1_2  and  C2_3 
ROOT
ATOM      1  C2  UNL d   1      -0.097   0.319   0.696  0.00  0.00    -0.077 A 
ATOM      2  C3  UNL d   1      -1.201   0.368  -0.166  0.00  0.00     0.002 A 
ATOM      3  C4  UNL d   1      -2.494   0.487   0.348  0.00  0.00     0.002 A 
ATOM      4  C5  UNL d   1      -2.693   0.562   1.725  0.00  0.00    -0.004 A 
ATOM      5  C6  UNL d   1      -1.602   0.513   2.591  0.00  0.00     0.002 A 
ATOM      6  C7  UNL d   1      -0.309   0.392   2.078  0.00  0.00     0.002 A 
ENDROOT
BRANCH   1   7
ATOM      7  C1  UNL d   1       1.302   0.240   0.141  0.00  0.00     0.055 C 
ATOM      8  C   UNL d   1       2.269   1.085   0.957  0.00  0.00     0.019 C 
ENDBRANCH   1   7
TORSDOF 1
ENDMDL
