MODEL 1
REMARK minimizedAffinity 1.30599427
REMARK minimizedRMSD -1
REMARK  1 active torsions:
REMARK  status: ('A' for Active; 'I' for Inactive)
REMARK    1  A    between atoms: C1_2  and  C2_3 
ROOT
ATOM      1  C2  UNL d   1       0.008   0.590  -0.044  0.00  0.00    -0.077 A 
ATOM      2  C3  UNL d   1      -0.170   0.107   1.260  0.00  0.00     0.002 A 
ATOM      3  C4  UNL d   1       0.885   0.136   2.174  0.00  0.00     0.002 A 
ATOM      4  C5  UNL d   1       2.124   0.650   1.794  0.00  0.00    -0.004 A 
ATOM      5  C6  UNL d   1       2.311   1.130   0.499  0.00  0.00     0.002 A 
ATOM      6  C7  UNL d   1       1.257   1.102  -0.416  0.00  0.00     0.002 A 
ENDROOT
BRANCH   1   7
ATOM      7  C1  UNL d   1      -1.143   0.605  -1.016  0.00  0.00     0.055 C 
ATOM      8  C   UNL d   1      -2.479   0.494  -0.294  0.00  0.00     0.019 C 
ENDBRANCH   1   7
TORSDOF 1
ENDMDL
