MODEL 1
REMARK minimizedAffinity -4.05535936
REMARK minimizedRMSD -1
REMARK  1 active torsions:
REMARK  status: ('A' for Active; 'I' for Inactive)
REMARK    1  A    between atoms: C1_2  and  C2_3 
ROOT
ATOM      1  C2  UNL d   1       0.322  -0.045  -1.316  0.00  0.00    -0.077 A 
ATOM      2  C3  UNL d   1      -0.739  -0.961  -1.365  0.00  0.00     0.002 A 
ATOM      3  C4  UNL d   1      -0.780  -1.941  -2.359  0.00  0.00     0.002 A 
ATOM      4  C5  UNL d   1       0.239  -2.018  -3.307  0.00  0.00    -0.004 A 
ATOM      5  C6  UNL d   1       1.296  -1.111  -3.267  0.00  0.00     0.002 A 
ATOM      6  C7  UNL d   1       1.339  -0.129  -2.276  0.00  0.00     0.002 A 
ENDROOT
BRANCH   1   7
ATOM      7  C1  UNL d   1       0.393   0.982  -0.217  0.00  0.00     0.055 C 
ATOM      8  C   UNL d   1       1.638   0.793   0.637  0.00  0.00     0.019 C 
ENDBRANCH   1   7
TORSDOF 1
ENDMDL
