MODEL 1
REMARK minimizedAffinity -1.23743415
REMARK minimizedRMSD -1
REMARK  1 active torsions:
REMARK  status: ('A' for Active; 'I' for Inactive)
REMARK    1  A    between atoms: C1_2  and  C2_3 
ROOT
ATOM      1  C2  UNL d   1       0.601   0.216   0.452  0.00  0.00    -0.077 A 
ATOM      2  C3  UNL d   1      -0.793   0.151   0.581  0.00  0.00     0.002 A 
ATOM      3  C4  UNL d   1      -1.610   0.161  -0.551  0.00  0.00     0.002 A 
ATOM      4  C5  UNL d   1      -1.041   0.233  -1.821  0.00  0.00    -0.004 A 
ATOM      5  C6  UNL d   1       0.345   0.300  -1.961  0.00  0.00     0.002 A 
ATOM      6  C7  UNL d   1       1.162   0.291  -0.830  0.00  0.00     0.002 A 
ENDROOT
BRANCH   1   7
ATOM      7  C1  UNL d   1       1.485   0.155   1.670  0.00  0.00     0.055 C 
ATOM      8  C   UNL d   1       0.685   0.375   2.946  0.00  0.00     0.019 C 
ENDBRANCH   1   7
TORSDOF 1
ENDMDL
