MODEL 1
REMARK minimizedAffinity -5.2558074
REMARK minimizedRMSD -1
REMARK  1 active torsions:
REMARK  status: ('A' for Active; 'I' for Inactive)
REMARK    1  A    between atoms: C1_2  and  C2_3 
ROOT
ATOM      1  C2  UNL d   1      -0.171   0.161   0.175  0.00  0.00    -0.077 A 
ATOM      2  C3  UNL d   1      -1.568   0.081   0.269  0.00  0.00     0.002 A 
ATOM      3  C4  UNL d   1      -2.179  -0.203   1.491  0.00  0.00     0.002 A 
ATOM      4  C5  UNL d   1      -1.402  -0.405   2.630  0.00  0.00    -0.004 A 
ATOM      5  C6  UNL d   1      -0.012  -0.330   2.547  0.00  0.00     0.002 A 
ATOM      6  C7  UNL d   1       0.600  -0.047   1.326  0.00  0.00     0.002 A 
ENDROOT
BRANCH   1   7
ATOM      7  C1  UNL d   1       0.487   0.516  -1.132  0.00  0.00     0.055 C 
ATOM      8  C   UNL d   1       0.512  -0.674  -2.080  0.00  0.00     0.019 C 
ENDBRANCH   1   7
TORSDOF 1
ENDMDL
