MODEL 1
REMARK minimizedAffinity -3.79773712
REMARK minimizedRMSD -1
REMARK  1 active torsions:
REMARK  status: ('A' for Active; 'I' for Inactive)
REMARK    1  A    between atoms: C1_2  and  C2_3 
ROOT
ATOM      1  C2  UNL d   1      -0.131   0.504  -0.109  0.00  0.00    -0.077 A 
ATOM      2  C3  UNL d   1      -1.446   0.826   0.254  0.00  0.00     0.002 A 
ATOM      3  C4  UNL d   1      -1.850   0.745   1.588  0.00  0.00     0.002 A 
ATOM      4  C5  UNL d   1      -0.945   0.345   2.569  0.00  0.00    -0.004 A 
ATOM      5  C6  UNL d   1       0.364   0.020   2.218  0.00  0.00     0.002 A 
ATOM      6  C7  UNL d   1       0.770   0.100   0.885  0.00  0.00     0.002 A 
ENDROOT
BRANCH   1   7
ATOM      7  C1  UNL d   1       0.321   0.639  -1.540  0.00  0.00     0.055 C 
ATOM      8  C   UNL d   1       0.610  -0.721  -2.159  0.00  0.00     0.019 C 
ENDBRANCH   1   7
TORSDOF 1
ENDMDL
