MODEL 1
REMARK minimizedAffinity -4.80972719
REMARK minimizedRMSD -1
REMARK  1 active torsions:
REMARK  status: ('A' for Active; 'I' for Inactive)
REMARK    1  A    between atoms: C1_2  and  C2_3 
ROOT
ATOM      1  C2  UNL d   1      -0.974   0.618   0.694  0.00  0.00    -0.077 A 
ATOM      2  C3  UNL d   1      -0.104   0.611  -0.406  0.00  0.00     0.002 A 
ATOM      3  C4  UNL d   1       1.264   0.400  -0.223  0.00  0.00     0.002 A 
ATOM      4  C5  UNL d   1       1.773   0.191   1.057  0.00  0.00    -0.004 A 
ATOM      5  C6  UNL d   1       0.917   0.198   2.157  0.00  0.00     0.002 A 
ATOM      6  C7  UNL d   1      -0.450   0.409   1.977  0.00  0.00     0.002 A 
ENDROOT
BRANCH   1   7
ATOM      7  C1  UNL d   1      -2.456   0.795   0.494  0.00  0.00     0.055 C 
ATOM      8  C   UNL d   1      -3.157   1.122   1.805  0.00  0.00     0.019 C 
ENDBRANCH   1   7
TORSDOF 1
ENDMDL
