MODEL 1
REMARK minimizedAffinity 1.32133651
REMARK minimizedRMSD -1
REMARK  1 active torsions:
REMARK  status: ('A' for Active; 'I' for Inactive)
REMARK    1  A    between atoms: C1_2  and  C2_3 
ROOT
ATOM      1  C2  UNL d   1      -1.372  -0.948   0.126  0.00  0.00    -0.077 A 
ATOM      2  C3  UNL d   1      -1.628  -2.272  -0.259  0.00  0.00     0.002 A 
ATOM      3  C4  UNL d   1      -2.399  -3.107   0.551  0.00  0.00     0.002 A 
ATOM      4  C5  UNL d   1      -2.924  -2.626   1.749  0.00  0.00    -0.004 A 
ATOM      5  C6  UNL d   1      -2.674  -1.312   2.142  0.00  0.00     0.002 A 
ATOM      6  C7  UNL d   1      -1.902  -0.477   1.334  0.00  0.00     0.002 A 
ENDROOT
BRANCH   1   7
ATOM      7  C1  UNL d   1      -0.581  -0.031  -0.770  0.00  0.00     0.055 C 
ATOM      8  C   UNL d   1      -0.246  -0.705  -2.093  0.00  0.00     0.019 C 
ENDBRANCH   1   7
TORSDOF 1
ENDMDL
