MODEL 1
REMARK minimizedAffinity -3.62590885
REMARK minimizedRMSD -1
REMARK  1 active torsions:
REMARK  status: ('A' for Active; 'I' for Inactive)
REMARK    1  A    between atoms: C1_2  and  C2_3 
ROOT
ATOM      1  C2  UNL d   1      -0.256  -0.389   0.102  0.00  0.00    -0.077 A 
ATOM      2  C3  UNL d   1       0.778  -1.307  -0.129  0.00  0.00     0.002 A 
ATOM      3  C4  UNL d   1       0.630  -2.645   0.241  0.00  0.00     0.002 A 
ATOM      4  C5  UNL d   1      -0.551  -3.078   0.840  0.00  0.00    -0.004 A 
ATOM      5  C6  UNL d   1      -1.584  -2.172   1.076  0.00  0.00     0.002 A 
ATOM      6  C7  UNL d   1      -1.438  -0.834   0.708  0.00  0.00     0.002 A 
ENDROOT
BRANCH   1   7
ATOM      7  C1  UNL d   1      -0.118   1.044  -0.341  0.00  0.00     0.055 C 
ATOM      8  C   UNL d   1       0.822   1.818   0.572  0.00  0.00     0.019 C 
ENDBRANCH   1   7
TORSDOF 1
ENDMDL
