MODEL 1
REMARK minimizedAffinity -4.73235989
REMARK minimizedRMSD -1
REMARK  1 active torsions:
REMARK  status: ('A' for Active; 'I' for Inactive)
REMARK    1  A    between atoms: C1_2  and  C2_3 
ROOT
ATOM      1  C2  UNL d   1      -0.522  -0.540   0.482  0.00  0.00    -0.077 A 
ATOM      2  C3  UNL d   1       0.457  -1.280  -0.195  0.00  0.00     0.002 A 
ATOM      3  C4  UNL d   1       0.343  -2.667  -0.306  0.00  0.00     0.002 A 
ATOM      4  C5  UNL d   1      -0.750  -3.325   0.253  0.00  0.00    -0.004 A 
ATOM      5  C6  UNL d   1      -1.729  -2.598   0.930  0.00  0.00     0.002 A 
ATOM      6  C7  UNL d   1      -1.616  -1.212   1.043  0.00  0.00     0.002 A 
ENDROOT
BRANCH   1   7
ATOM      7  C1  UNL d   1      -0.426   0.962   0.561  0.00  0.00     0.055 C 
ATOM      8  C   UNL d   1       0.112   1.550  -0.735  0.00  0.00     0.019 C 
ENDBRANCH   1   7
TORSDOF 1
ENDMDL
