MODEL 1
REMARK minimizedAffinity -5.97178459
REMARK minimizedRMSD -1
REMARK  1 active torsions:
REMARK  status: ('A' for Active; 'I' for Inactive)
REMARK    1  A    between atoms: C1_2  and  C2_3 
ROOT
ATOM      1  C2  UNL d   1      -0.735  -0.879   0.691  0.00  0.00    -0.077 A 
ATOM      2  C3  UNL d   1      -0.080  -1.413  -0.428  0.00  0.00     0.002 A 
ATOM      3  C4  UNL d   1       0.313  -2.752  -0.444  0.00  0.00     0.002 A 
ATOM      4  C5  UNL d   1       0.053  -3.570   0.653  0.00  0.00    -0.004 A 
ATOM      5  C6  UNL d   1      -0.596  -3.048   1.772  0.00  0.00     0.002 A 
ATOM      6  C7  UNL d   1      -0.988  -1.709   1.790  0.00  0.00     0.002 A 
ENDROOT
BRANCH   1   7
ATOM      7  C1  UNL d   1      -1.204   0.552   0.690  0.00  0.00     0.055 C 
ATOM      8  C   UNL d   1      -0.212   1.460  -0.023  0.00  0.00     0.019 C 
ENDBRANCH   1   7
TORSDOF 1
ENDMDL
