MODEL 1
REMARK minimizedAffinity -5.19613791
REMARK minimizedRMSD -1
REMARK  1 active torsions:
REMARK  status: ('A' for Active; 'I' for Inactive)
REMARK    1  A    between atoms: C1_2  and  C2_3 
ROOT
ATOM      1  C2  UNL d   1      -0.145  -0.152   0.449  0.00  0.00    -0.077 A 
ATOM      2  C3  UNL d   1       0.990  -0.885   0.075  0.00  0.00     0.002 A 
ATOM      3  C4  UNL d   1       0.949  -2.280   0.036  0.00  0.00     0.002 A 
ATOM      4  C5  UNL d   1      -0.225  -2.953   0.367  0.00  0.00    -0.004 A 
ATOM      5  C6  UNL d   1      -1.359  -2.234   0.742  0.00  0.00     0.002 A 
ATOM      6  C7  UNL d   1      -1.319  -0.839   0.782  0.00  0.00     0.002 A 
ENDROOT
BRANCH   1   7
ATOM      7  C1  UNL d   1      -0.118   1.354   0.444  0.00  0.00     0.055 C 
ATOM      8  C   UNL d   1       1.309   1.882   0.479  0.00  0.00     0.019 C 
ENDBRANCH   1   7
TORSDOF 1
ENDMDL
