MODEL 1
REMARK minimizedAffinity -5.26468706
REMARK minimizedRMSD -1
REMARK  1 active torsions:
REMARK  status: ('A' for Active; 'I' for Inactive)
REMARK    1  A    between atoms: C1_2  and  C2_3 
ROOT
ATOM      1  C2  UNL d   1      -0.216  -0.987  -0.208  0.00  0.00    -0.077 A 
ATOM      2  C3  UNL d   1      -0.392  -1.993  -1.168  0.00  0.00     0.002 A 
ATOM      3  C4  UNL d   1      -1.041  -3.183  -0.833  0.00  0.00     0.002 A 
ATOM      4  C5  UNL d   1      -1.523  -3.376   0.460  0.00  0.00    -0.004 A 
ATOM      5  C6  UNL d   1      -1.351  -2.382   1.422  0.00  0.00     0.002 A 
ATOM      6  C7  UNL d   1      -0.701  -1.193   1.090  0.00  0.00     0.002 A 
ENDROOT
BRANCH   1   7
ATOM      7  C1  UNL d   1       0.440   0.317  -0.580  0.00  0.00     0.055 C 
ATOM      8  C   UNL d   1      -0.188   1.485   0.165  0.00  0.00     0.019 C 
ENDBRANCH   1   7
TORSDOF 1
ENDMDL
