MODEL 1
REMARK minimizedAffinity -5.19557238
REMARK minimizedRMSD -1
REMARK  1 active torsions:
REMARK  status: ('A' for Active; 'I' for Inactive)
REMARK    1  A    between atoms: C1_2  and  C2_3 
ROOT
ATOM      1  C2  UNL d   1      -0.227  -0.409  -0.058  0.00  0.00    -0.077 A 
ATOM      2  C3  UNL d   1       0.771  -1.255  -0.562  0.00  0.00     0.002 A 
ATOM      3  C4  UNL d   1       0.904  -2.558  -0.077  0.00  0.00     0.002 A 
ATOM      4  C5  UNL d   1       0.040  -3.027   0.910  0.00  0.00    -0.004 A 
ATOM      5  C6  UNL d   1      -0.955  -2.193   1.419  0.00  0.00     0.002 A 
ATOM      6  C7  UNL d   1      -1.088  -0.890   0.937  0.00  0.00     0.002 A 
ENDROOT
BRANCH   1   7
ATOM      7  C1  UNL d   1      -0.403   0.979  -0.614  0.00  0.00     0.055 C 
ATOM      8  C   UNL d   1       0.065   2.036   0.376  0.00  0.00     0.019 C 
ENDBRANCH   1   7
TORSDOF 1
ENDMDL
