MODEL 1
REMARK minimizedAffinity -5.78591776
REMARK minimizedRMSD -1
REMARK  1 active torsions:
REMARK  status: ('A' for Active; 'I' for Inactive)
REMARK    1  A    between atoms: C1_2  and  C2_3 
ROOT
ATOM      1  C2  UNL d   1      -0.281  -0.241  -0.032  0.00  0.00    -0.077 A 
ATOM      2  C3  UNL d   1       0.350  -1.024  -1.009  0.00  0.00     0.002 A 
ATOM      3  C4  UNL d   1       0.340  -2.417  -0.912  0.00  0.00     0.002 A 
ATOM      4  C5  UNL d   1      -0.303  -3.038   0.157  0.00  0.00    -0.004 A 
ATOM      5  C6  UNL d   1      -0.931  -2.268   1.134  0.00  0.00     0.002 A 
ATOM      6  C7  UNL d   1      -0.921  -0.875   1.040  0.00  0.00     0.002 A 
ENDROOT
BRANCH   1   7
ATOM      7  C1  UNL d   1      -0.313   1.260  -0.161  0.00  0.00     0.055 C 
ATOM      8  C   UNL d   1       1.073   1.861   0.020  0.00  0.00     0.019 C 
ENDBRANCH   1   7
TORSDOF 1
ENDMDL
