MODEL 1
REMARK minimizedAffinity -6.23219299
REMARK minimizedRMSD -1
REMARK  1 active torsions:
REMARK  status: ('A' for Active; 'I' for Inactive)
REMARK    1  A    between atoms: C1_2  and  C2_3 
ROOT
ATOM      1  C2  UNL d   1       0.101  -2.277  -0.833  0.00  0.00    -0.077 A 
ATOM      2  C3  UNL d   1      -0.587  -3.046   0.115  0.00  0.00     0.002 A 
ATOM      3  C4  UNL d   1      -1.172  -2.439   1.228  0.00  0.00     0.002 A 
ATOM      4  C5  UNL d   1      -1.077  -1.060   1.401  0.00  0.00    -0.004 A 
ATOM      5  C6  UNL d   1      -0.393  -0.286   0.465  0.00  0.00     0.002 A 
ATOM      6  C7  UNL d   1       0.193  -0.891  -0.648  0.00  0.00     0.002 A 
ENDROOT
BRANCH   1   7
ATOM      7  C1  UNL d   1       0.689  -2.924  -2.060  0.00  0.00     0.055 C 
ATOM      8  C   UNL d   1       0.862  -1.916  -3.187  0.00  0.00     0.019 C 
ENDBRANCH   1   7
TORSDOF 1
ENDMDL
