MODEL 1
REMARK minimizedAffinity -4.81686163
REMARK minimizedRMSD -1
REMARK  1 active torsions:
REMARK  status: ('A' for Active; 'I' for Inactive)
REMARK    1  A    between atoms: C1_2  and  C2_3 
ROOT
ATOM      1  C2  UNL d   1       0.171   3.333   0.942  0.00  0.00    -0.077 A 
ATOM      2  C3  UNL d   1       1.527   3.675   0.847  0.00  0.00     0.002 A 
ATOM      3  C4  UNL d   1       2.386   2.937   0.030  0.00  0.00     0.002 A 
ATOM      4  C5  UNL d   1       1.898   1.857  -0.701  0.00  0.00    -0.004 A 
ATOM      5  C6  UNL d   1       0.551   1.507  -0.612  0.00  0.00     0.002 A 
ATOM      6  C7  UNL d   1      -0.309   2.243   0.205  0.00  0.00     0.002 A 
ENDROOT
BRANCH   1   7
ATOM      7  C1  UNL d   1      -0.767   4.158   1.784  0.00  0.00     0.055 C 
ATOM      8  C   UNL d   1      -0.081   4.660   3.046  0.00  0.00     0.019 C 
ENDBRANCH   1   7
TORSDOF 1
ENDMDL
