MODEL 1
REMARK minimizedAffinity -4.6733079
REMARK minimizedRMSD -1
REMARK  1 active torsions:
REMARK  status: ('A' for Active; 'I' for Inactive)
REMARK    1  A    between atoms: C1_2  and  C2_3 
ROOT
ATOM      1  C2  UNL d   1       0.601   1.875   0.370  0.00  0.00    -0.077 A 
ATOM      2  C3  UNL d   1       1.921   2.183   0.014  0.00  0.00     0.002 A 
ATOM      3  C4  UNL d   1       2.650   3.122   0.747  0.00  0.00     0.002 A 
ATOM      4  C5  UNL d   1       2.069   3.756   1.843  0.00  0.00    -0.004 A 
ATOM      5  C6  UNL d   1       0.756   3.458   2.204  0.00  0.00     0.002 A 
ATOM      6  C7  UNL d   1       0.025   2.521   1.472  0.00  0.00     0.002 A 
ENDROOT
BRANCH   1   7
ATOM      7  C1  UNL d   1      -0.170   0.828  -0.389  0.00  0.00     0.055 C 
ATOM      8  C   UNL d   1       0.128  -0.569   0.137  0.00  0.00     0.019 C 
ENDBRANCH   1   7
TORSDOF 1
ENDMDL
