MODEL 1
REMARK minimizedAffinity 0.0816042125
REMARK minimizedRMSD -1
REMARK  1 active torsions:
REMARK  status: ('A' for Active; 'I' for Inactive)
REMARK    1  A    between atoms: C1_2  and  C2_3 
ROOT
ATOM      1  C2  UNL d   1      -0.437   2.234  -0.710  0.00  0.00    -0.077 A 
ATOM      2  C3  UNL d   1      -0.254   1.213   0.233  0.00  0.00     0.002 A 
ATOM      3  C4  UNL d   1      -0.070   1.522   1.582  0.00  0.00     0.002 A 
ATOM      4  C5  UNL d   1      -0.071   2.851   2.000  0.00  0.00    -0.004 A 
ATOM      5  C6  UNL d   1      -0.250   3.874   1.070  0.00  0.00     0.002 A 
ATOM      6  C7  UNL d   1      -0.433   3.567  -0.279  0.00  0.00     0.002 A 
ENDROOT
BRANCH   1   7
ATOM      7  C1  UNL d   1      -0.685   1.900  -2.158  0.00  0.00     0.055 C 
ATOM      8  C   UNL d   1      -0.976   3.152  -2.973  0.00  0.00     0.019 C 
ENDBRANCH   1   7
TORSDOF 1
ENDMDL
