MODEL 1
REMARK minimizedAffinity 1.76602745
REMARK minimizedRMSD -1
REMARK  1 active torsions:
REMARK  status: ('A' for Active; 'I' for Inactive)
REMARK    1  A    between atoms: C1_2  and  C2_3 
ROOT
ATOM      1  C2  UNL d   1      -0.556   2.091   0.440  0.00  0.00    -0.077 A 
ATOM      2  C3  UNL d   1      -1.013   3.065  -0.459  0.00  0.00     0.002 A 
ATOM      3  C4  UNL d   1      -0.999   2.819  -1.833  0.00  0.00     0.002 A 
ATOM      4  C5  UNL d   1      -0.532   1.600  -2.320  0.00  0.00    -0.004 A 
ATOM      5  C6  UNL d   1      -0.074   0.626  -1.434  0.00  0.00     0.002 A 
ATOM      6  C7  UNL d   1      -0.086   0.870  -0.060  0.00  0.00     0.002 A 
ENDROOT
BRANCH   1   7
ATOM      7  C1  UNL d   1      -0.617   2.335   1.926  0.00  0.00     0.055 C 
ATOM      8  C   UNL d   1      -0.560   1.029   2.704  0.00  0.00     0.019 C 
ENDBRANCH   1   7
TORSDOF 1
ENDMDL
