MODEL 1
REMARK minimizedAffinity 0.100518309
REMARK minimizedRMSD -1
REMARK  1 active torsions:
REMARK  status: ('A' for Active; 'I' for Inactive)
REMARK    1  A    between atoms: C1_2  and  C2_3 
ROOT
ATOM      1  C2  UNL d   1       0.439   1.913   0.698  0.00  0.00    -0.077 A 
ATOM      2  C3  UNL d   1      -0.855   2.449   0.762  0.00  0.00     0.002 A 
ATOM      3  C4  UNL d   1      -1.059   3.747   1.233  0.00  0.00     0.002 A 
ATOM      4  C5  UNL d   1       0.026   4.521   1.639  0.00  0.00    -0.004 A 
ATOM      5  C6  UNL d   1       1.317   3.997   1.581  0.00  0.00     0.002 A 
ATOM      6  C7  UNL d   1       1.522   2.699   1.112  0.00  0.00     0.002 A 
ENDROOT
BRANCH   1   7
ATOM      7  C1  UNL d   1       0.667   0.531   0.144  0.00  0.00     0.055 C 
ATOM      8  C   UNL d   1       0.082   0.392  -1.255  0.00  0.00     0.019 C 
ENDBRANCH   1   7
TORSDOF 1
ENDMDL
