MODEL 1
REMARK minimizedAffinity 8.65186024
REMARK minimizedRMSD -1
REMARK  1 active torsions:
REMARK  status: ('A' for Active; 'I' for Inactive)
REMARK    1  A    between atoms: C1_2  and  C2_3 
ROOT
ATOM      1  C2  UNL d   1       0.616  -0.052   2.838  0.00  0.00    -0.077 A 
ATOM      2  C3  UNL d   1      -0.492   0.688   3.274  0.00  0.00     0.002 A 
ATOM      3  C4  UNL d   1      -0.813   1.903   2.666  0.00  0.00     0.002 A 
ATOM      4  C5  UNL d   1      -0.035   2.386   1.616  0.00  0.00    -0.004 A 
ATOM      5  C6  UNL d   1       1.070   1.658   1.176  0.00  0.00     0.002 A 
ATOM      6  C7  UNL d   1       1.393   0.444   1.784  0.00  0.00     0.002 A 
ENDROOT
BRANCH   1   7
ATOM      7  C1  UNL d   1       0.935  -1.387   3.460  0.00  0.00     0.055 C 
ATOM      8  C   UNL d   1       0.350  -1.499   4.860  0.00  0.00     0.019 C 
ENDBRANCH   1   7
TORSDOF 1
ENDMDL
