MODEL 1
REMARK minimizedAffinity -1.8880105
REMARK minimizedRMSD -1
REMARK  1 active torsions:
REMARK  status: ('A' for Active; 'I' for Inactive)
REMARK    1  A    between atoms: C3_4  and  O_7 
ROOT
ATOM      1  C   UNL d   1       3.126   0.154  -2.182  0.00  0.00    -0.033 A 
ATOM      2  C1  UNL d   1       3.034  -1.201  -1.855  0.00  0.00     0.039 A 
ATOM      3  C2  UNL d   1       2.248  -1.608  -0.775  0.00  0.00    -0.080 A 
ATOM      4  C3  UNL d   1       1.561  -0.653  -0.032  0.00  0.00     0.150 A 
ATOM      5  C4  UNL d   1       1.645   0.698  -0.354  0.00  0.00    -0.007 A 
ATOM      6  C5  UNL d   1       2.431   1.103  -1.432  0.00  0.00     0.039 A 
ENDROOT
BRANCH   4   7
ATOM      7  O   UNL d   1       0.785  -1.002   1.034  0.00  0.00    -0.526 OA
ATOM      8  H5  UNL d   1       0.845  -1.964   1.156  0.00  0.00     0.418 HD
ENDBRANCH   4   7
TORSDOF 1
ENDMDL
