MODEL 1
REMARK minimizedAffinity 1.48088562
REMARK minimizedRMSD -1
REMARK  1 active torsions:
REMARK  status: ('A' for Active; 'I' for Inactive)
REMARK    1  A    between atoms: C3_4  and  O_7 
ROOT
ATOM      1  C   UNL d   1       0.744   0.001   0.891  0.00  0.00    -0.033 A 
ATOM      2  C1  UNL d   1       1.527   0.765   0.024  0.00  0.00     0.039 A 
ATOM      3  C2  UNL d   1       2.297   0.141  -0.958  0.00  0.00    -0.080 A 
ATOM      4  C3  UNL d   1       2.275  -1.247  -1.064  0.00  0.00     0.150 A 
ATOM      5  C4  UNL d   1       1.494  -2.015  -0.207  0.00  0.00    -0.007 A 
ATOM      6  C5  UNL d   1       0.726  -1.390   0.775  0.00  0.00     0.039 A 
ENDROOT
BRANCH   4   7
ATOM      7  O   UNL d   1       3.014  -1.902  -2.004  0.00  0.00    -0.526 OA
ATOM      8  H5  UNL d   1       3.525  -1.245  -2.506  0.00  0.00     0.418 HD
ENDBRANCH   4   7
TORSDOF 1
ENDMDL
