MODEL 1
REMARK minimizedAffinity 3.43477249
REMARK minimizedRMSD -1
REMARK  1 active torsions:
REMARK  status: ('A' for Active; 'I' for Inactive)
REMARK    1  A    between atoms: C3_4  and  O_7 
ROOT
ATOM      1  C   UNL d   1       1.203  -2.412   0.782  0.00  0.00    -0.033 A 
ATOM      2  C1  UNL d   1       1.855  -1.234   1.152  0.00  0.00     0.039 A 
ATOM      3  C2  UNL d   1       2.843  -0.693   0.327  0.00  0.00    -0.080 A 
ATOM      4  C3  UNL d   1       3.167  -1.337  -0.864  0.00  0.00     0.150 A 
ATOM      5  C4  UNL d   1       2.519  -2.508  -1.240  0.00  0.00    -0.007 A 
ATOM      6  C5  UNL d   1       1.534  -3.048  -0.414  0.00  0.00     0.039 A 
ENDROOT
BRANCH   4   7
ATOM      7  O   UNL d   1       4.127  -0.849  -1.700  0.00  0.00    -0.526 OA
ATOM      8  H5  UNL d   1       4.509  -0.051  -1.297  0.00  0.00     0.418 HD
ENDBRANCH   4   7
TORSDOF 1
ENDMDL
