MODEL 1
REMARK minimizedAffinity -2.10875177
REMARK minimizedRMSD -1
REMARK  1 active torsions:
REMARK  status: ('A' for Active; 'I' for Inactive)
REMARK    1  A    between atoms: C3_4  and  O_7 
ROOT
ATOM      1  C   UNL d   1       1.555  -1.720   0.314  0.00  0.00    -0.033 A 
ATOM      2  C1  UNL d   1       2.303  -1.354  -0.807  0.00  0.00     0.039 A 
ATOM      3  C2  UNL d   1       2.381  -0.014  -1.189  0.00  0.00    -0.080 A 
ATOM      4  C3  UNL d   1       1.708   0.950  -0.443  0.00  0.00     0.150 A 
ATOM      5  C4  UNL d   1       0.964   0.593   0.677  0.00  0.00    -0.007 A 
ATOM      6  C5  UNL d   1       0.887  -0.747   1.057  0.00  0.00     0.039 A 
ENDROOT
BRANCH   4   7
ATOM      7  O   UNL d   1       1.751   2.270  -0.780  0.00  0.00    -0.526 OA
ATOM      8  H5  UNL d   1       2.278   2.364  -1.591  0.00  0.00     0.418 HD
ENDBRANCH   4   7
TORSDOF 1
ENDMDL
