MODEL 1
REMARK minimizedAffinity -0.558334529
REMARK minimizedRMSD -1
REMARK  1 active torsions:
REMARK  status: ('A' for Active; 'I' for Inactive)
REMARK    1  A    between atoms: C3_4  and  O_7 
ROOT
ATOM      1  C   UNL d   1      -3.173   3.938  -4.690  0.00  0.00    -0.033 A 
ATOM      2  C1  UNL d   1      -2.751   2.996  -3.750  0.00  0.00     0.039 A 
ATOM      3  C2  UNL d   1      -3.690   2.292  -2.994  0.00  0.00    -0.080 A 
ATOM      4  C3  UNL d   1      -5.046   2.538  -3.188  0.00  0.00     0.150 A 
ATOM      5  C4  UNL d   1      -5.474   3.472  -4.125  0.00  0.00    -0.007 A 
ATOM      6  C5  UNL d   1      -4.535   4.175  -4.878  0.00  0.00     0.039 A 
ENDROOT
BRANCH   4   7
ATOM      7  O   UNL d   1      -5.999   1.879  -2.470  0.00  0.00    -0.526 OA
ATOM      8  H5  UNL d   1      -5.556   1.285  -1.841  0.00  0.00     0.418 HD
ENDBRANCH   4   7
TORSDOF 1
ENDMDL
