MODEL 1
REMARK minimizedAffinity -2.54061174
REMARK minimizedRMSD -1
REMARK  1 active torsions:
REMARK  status: ('A' for Active; 'I' for Inactive)
REMARK    1  A    between atoms: C3_4  and  O_7 
ROOT
ATOM      1  C   UNL d   1       0.863   0.180   0.919  0.00  0.00    -0.033 A 
ATOM      2  C1  UNL d   1       1.542   1.051   0.065  0.00  0.00     0.039 A 
ATOM      3  C2  UNL d   1       2.518   0.559  -0.804  0.00  0.00    -0.080 A 
ATOM      4  C3  UNL d   1       2.804  -0.803  -0.811  0.00  0.00     0.150 A 
ATOM      5  C4  UNL d   1       2.128  -1.677   0.034  0.00  0.00    -0.007 A 
ATOM      6  C5  UNL d   1       1.155  -1.185   0.903  0.00  0.00     0.039 A 
ENDROOT
BRANCH   4   7
ATOM      7  O   UNL d   1       3.751  -1.329  -1.638  0.00  0.00    -0.526 OA
ATOM      8  H5  UNL d   1       4.155  -0.603  -2.143  0.00  0.00     0.418 HD
ENDBRANCH   4   7
TORSDOF 1
ENDMDL
