MODEL 1
REMARK minimizedAffinity -3.60468173
REMARK minimizedRMSD -1
REMARK  1 active torsions:
REMARK  status: ('A' for Active; 'I' for Inactive)
REMARK    1  A    between atoms: C3_4  and  O_7 
ROOT
ATOM      1  C   UNL d   1       0.615   0.556   0.444  0.00  0.00    -0.033 A 
ATOM      2  C1  UNL d   1       1.411   1.228  -0.486  0.00  0.00     0.039 A 
ATOM      3  C2  UNL d   1       2.383   0.533  -1.208  0.00  0.00    -0.080 A 
ATOM      4  C3  UNL d   1       2.548  -0.833  -0.991  0.00  0.00     0.150 A 
ATOM      5  C4  UNL d   1       1.756  -1.509  -0.069  0.00  0.00    -0.007 A 
ATOM      6  C5  UNL d   1       0.787  -0.813   0.652  0.00  0.00     0.039 A 
ENDROOT
BRANCH   4   7
ATOM      7  O   UNL d   1       3.487  -1.553  -1.668  0.00  0.00    -0.526 OA
ATOM      8  H5  UNL d   1       3.978  -0.949  -2.250  0.00  0.00     0.418 HD
ENDBRANCH   4   7
TORSDOF 1
ENDMDL
