MODEL 1
REMARK minimizedAffinity -4.04973173
REMARK minimizedRMSD -1
REMARK  1 active torsions:
REMARK  status: ('A' for Active; 'I' for Inactive)
REMARK    1  A    between atoms: C3_4  and  O_7 
ROOT
ATOM      1  C   UNL d   1       0.303  -0.986   1.025  0.00  0.00    -0.033 A 
ATOM      2  C1  UNL d   1       0.605  -2.231   0.469  0.00  0.00     0.039 A 
ATOM      3  C2  UNL d   1       1.705  -2.371  -0.379  0.00  0.00    -0.080 A 
ATOM      4  C3  UNL d   1       2.495  -1.260  -0.661  0.00  0.00     0.150 A 
ATOM      5  C4  UNL d   1       2.203  -0.018  -0.107  0.00  0.00    -0.007 A 
ATOM      6  C5  UNL d   1       1.103   0.120   0.738  0.00  0.00     0.039 A 
ENDROOT
BRANCH   4   7
ATOM      7  O   UNL d   1       3.577  -1.346  -1.487  0.00  0.00    -0.526 OA
ATOM      8  H5  UNL d   1       3.639  -2.258  -1.817  0.00  0.00     0.418 HD
ENDBRANCH   4   7
TORSDOF 1
ENDMDL
