MODEL 1
REMARK minimizedAffinity -3.03639412
REMARK minimizedRMSD -1
REMARK  1 active torsions:
REMARK  status: ('A' for Active; 'I' for Inactive)
REMARK    1  A    between atoms: C3_4  and  O_7 
ROOT
ATOM      1  C   UNL d   1       3.041  -0.603  -1.480  0.00  0.00    -0.033 A 
ATOM      2  C1  UNL d   1       2.385   0.595  -1.191  0.00  0.00     0.039 A 
ATOM      3  C2  UNL d   1       1.378   0.626  -0.224  0.00  0.00    -0.080 A 
ATOM      4  C3  UNL d   1       1.037  -0.546   0.446  0.00  0.00     0.150 A 
ATOM      5  C4  UNL d   1       1.690  -1.742   0.166  0.00  0.00    -0.007 A 
ATOM      6  C5  UNL d   1       2.694  -1.772  -0.800  0.00  0.00     0.039 A 
ENDROOT
BRANCH   4   7
ATOM      7  O   UNL d   1       0.058  -0.566   1.393  0.00  0.00    -0.526 OA
ATOM      8  H5  UNL d   1      -0.324   0.325   1.460  0.00  0.00     0.418 HD
ENDBRANCH   4   7
TORSDOF 1
ENDMDL
