MODEL 1
REMARK minimizedAffinity -0.684546173
REMARK minimizedRMSD -1
REMARK  1 active torsions:
REMARK  status: ('A' for Active; 'I' for Inactive)
REMARK    1  A    between atoms: C3_4  and  O_7 
ROOT
ATOM      1  C   UNL d   1       1.382  -0.549   0.441  0.00  0.00    -0.033 A 
ATOM      2  C1  UNL d   1       1.591  -1.831  -0.071  0.00  0.00     0.039 A 
ATOM      3  C2  UNL d   1       2.519  -2.033  -1.094  0.00  0.00    -0.080 A 
ATOM      4  C3  UNL d   1       3.232  -0.947  -1.594  0.00  0.00     0.150 A 
ATOM      5  C4  UNL d   1       3.032   0.333  -1.086  0.00  0.00    -0.007 A 
ATOM      6  C5  UNL d   1       2.104   0.533  -0.065  0.00  0.00     0.039 A 
ENDROOT
BRANCH   4   7
ATOM      7  O   UNL d   1       4.145  -1.094  -2.596  0.00  0.00    -0.526 OA
ATOM      8  H5  UNL d   1       4.157  -2.027  -2.867  0.00  0.00     0.418 HD
ENDBRANCH   4   7
TORSDOF 1
ENDMDL
