MODEL 1
REMARK minimizedAffinity -2.40410852
REMARK minimizedRMSD -1
REMARK  1 active torsions:
REMARK  status: ('A' for Active; 'I' for Inactive)
REMARK    1  A    between atoms: C3_4  and  O_7 
ROOT
ATOM      1  C   UNL d   1       0.946   0.059   0.692  0.00  0.00    -0.033 A 
ATOM      2  C1  UNL d   1       1.719   1.074   0.124  0.00  0.00     0.039 A 
ATOM      3  C2  UNL d   1       2.696   0.762  -0.823  0.00  0.00    -0.080 A 
ATOM      4  C3  UNL d   1       2.890  -0.566  -1.194  0.00  0.00     0.150 A 
ATOM      5  C4  UNL d   1       2.121  -1.581  -0.635  0.00  0.00    -0.007 A 
ATOM      6  C5  UNL d   1       1.146  -1.268   0.311  0.00  0.00     0.039 A 
ENDROOT
BRANCH   4   7
ATOM      7  O   UNL d   1       3.835  -0.919  -2.110  0.00  0.00    -0.526 OA
ATOM      8  H5  UNL d   1       4.309  -0.117  -2.389  0.00  0.00     0.418 HD
ENDBRANCH   4   7
TORSDOF 1
ENDMDL
