MODEL 1
REMARK minimizedAffinity -2.90271997
REMARK minimizedRMSD -1
REMARK  1 active torsions:
REMARK  status: ('A' for Active; 'I' for Inactive)
REMARK    1  A    between atoms: C3_4  and  O_7 
ROOT
ATOM      1  C   UNL d   1       2.200  -0.290  -0.911  0.00  0.00    -0.033 A 
ATOM      2  C1  UNL d   1       2.056  -1.593  -0.428  0.00  0.00     0.039 A 
ATOM      3  C2  UNL d   1       1.302  -1.834   0.722  0.00  0.00    -0.080 A 
ATOM      4  C3  UNL d   1       0.697  -0.766   1.378  0.00  0.00     0.150 A 
ATOM      5  C4  UNL d   1       0.833   0.534   0.901  0.00  0.00    -0.007 A 
ATOM      6  C5  UNL d   1       1.587   0.773  -0.247  0.00  0.00     0.039 A 
ENDROOT
BRANCH   4   7
ATOM      7  O   UNL d   1      -0.045  -0.951   2.507  0.00  0.00    -0.526 OA
ATOM      8  H5  UNL d   1      -0.027  -1.895   2.735  0.00  0.00     0.418 HD
ENDBRANCH   4   7
TORSDOF 1
ENDMDL
