MODEL 1
REMARK minimizedAffinity -3.31559706
REMARK minimizedRMSD -1
REMARK  1 active torsions:
REMARK  status: ('A' for Active; 'I' for Inactive)
REMARK    1  A    between atoms: C3_4  and  O_7 
ROOT
ATOM      1  C   UNL d   1      -0.190  -0.437   2.053  0.00  0.00    -0.033 A 
ATOM      2  C1  UNL d   1       0.574   0.447   1.289  0.00  0.00     0.039 A 
ATOM      3  C2  UNL d   1       1.498  -0.045   0.364  0.00  0.00    -0.080 A 
ATOM      4  C3  UNL d   1       1.646  -1.421   0.213  0.00  0.00     0.150 A 
ATOM      5  C4  UNL d   1       0.885  -2.307   0.968  0.00  0.00    -0.007 A 
ATOM      6  C5  UNL d   1      -0.036  -1.814   1.891  0.00  0.00     0.039 A 
ENDROOT
BRANCH   4   7
ATOM      7  O   UNL d   1       2.538  -1.949  -0.673  0.00  0.00    -0.526 OA
ATOM      8  H5  UNL d   1       3.013  -1.218  -1.103  0.00  0.00     0.418 HD
ENDBRANCH   4   7
TORSDOF 1
ENDMDL
