MODEL 1
REMARK minimizedAffinity -2.75880694
REMARK minimizedRMSD -1
REMARK  1 active torsions:
REMARK  status: ('A' for Active; 'I' for Inactive)
REMARK    1  A    between atoms: C3_4  and  O_7 
ROOT
ATOM      1  C   UNL d   1       2.443   0.946  -0.824  0.00  0.00    -0.033 A 
ATOM      2  C1  UNL d   1       2.121   1.567   0.384  0.00  0.00     0.039 A 
ATOM      3  C2  UNL d   1       1.273   0.932   1.294  0.00  0.00    -0.080 A 
ATOM      4  C3  UNL d   1       0.756  -0.323   0.984  0.00  0.00     0.150 A 
ATOM      5  C4  UNL d   1       1.076  -0.950  -0.216  0.00  0.00    -0.007 A 
ATOM      6  C5  UNL d   1       1.922  -0.313  -1.123  0.00  0.00     0.039 A 
ENDROOT
BRANCH   4   7
ATOM      7  O   UNL d   1      -0.079  -0.980   1.838  0.00  0.00    -0.526 OA
ATOM      8  H5  UNL d   1      -0.234  -0.414   2.613  0.00  0.00     0.418 HD
ENDBRANCH   4   7
TORSDOF 1
ENDMDL
