MODEL 1
REMARK minimizedAffinity -3.45239425
REMARK minimizedRMSD -1
REMARK  0 active torsions:
REMARK  status: ('A' for Active; 'I' for Inactive)
ROOT
ATOM      1  C   UNL d   1       1.586  -1.722   0.825  0.00  0.00     0.023 A 
ATOM      2  C1  UNL d   1       0.474  -1.165   1.455  0.00  0.00     0.003 A 
ATOM      3  C2  UNL d   1      -0.424  -0.383   0.727  0.00  0.00     0.048 A 
ATOM      4  C3  UNL d   1      -0.204  -0.163  -0.633  0.00  0.00     0.023 A 
ATOM      5  C4  UNL d   1       0.907  -0.719  -1.268  0.00  0.00     0.048 A 
ATOM      6  C5  UNL d   1       1.803  -1.499  -0.535  0.00  0.00     0.003 A 
ATOM      7  I   UNL d   1      -1.540   1.001  -1.720  0.00  0.00    -0.146 I 
ENDROOT
TORSDOF 0
ENDMDL
