MODEL 1
REMARK minimizedAffinity -2.03130627
REMARK minimizedRMSD -1
REMARK  0 active torsions:
REMARK  status: ('A' for Active; 'I' for Inactive)
ROOT
ATOM      1  C   UNL d   1      -0.846  -0.799   2.960  0.00  0.00     0.023 A 
ATOM      2  C1  UNL d   1      -0.956   0.037   1.849  0.00  0.00     0.003 A 
ATOM      3  C2  UNL d   1       0.031   0.021   0.861  0.00  0.00     0.048 A 
ATOM      4  C3  UNL d   1       1.124  -0.835   0.989  0.00  0.00     0.023 A 
ATOM      5  C4  UNL d   1       1.238  -1.675   2.098  0.00  0.00     0.048 A 
ATOM      6  C5  UNL d   1       0.250  -1.654   3.084  0.00  0.00     0.003 A 
ATOM      7  I   UNL d   1       2.593  -0.861  -0.481  0.00  0.00    -0.146 I 
ENDROOT
TORSDOF 0
ENDMDL
