MODEL 1
REMARK minimizedAffinity -1.38540196
REMARK minimizedRMSD -1
REMARK  0 active torsions:
REMARK  status: ('A' for Active; 'I' for Inactive)
ROOT
ATOM      1  C   UNL d   1       1.015  -0.471   0.261  0.00  0.00     0.023 A 
ATOM      2  C1  UNL d   1       1.027  -0.832  -1.087  0.00  0.00     0.003 A 
ATOM      3  C2  UNL d   1       0.079  -0.298  -1.962  0.00  0.00     0.048 A 
ATOM      4  C3  UNL d   1      -0.877   0.597  -1.484  0.00  0.00     0.023 A 
ATOM      5  C4  UNL d   1      -0.892   0.962  -0.137  0.00  0.00     0.048 A 
ATOM      6  C5  UNL d   1       0.057   0.425   0.735  0.00  0.00     0.003 A 
ATOM      7  I   UNL d   1      -2.288   1.394  -2.785  0.00  0.00    -0.146 I 
ENDROOT
TORSDOF 0
ENDMDL
