MODEL 1
REMARK minimizedAffinity -3.92860246
REMARK minimizedRMSD -1
REMARK  0 active torsions:
REMARK  status: ('A' for Active; 'I' for Inactive)
ROOT
ATOM      1  C   UNL d   1      -2.065   1.148  -2.013  0.00  0.00     0.023 A 
ATOM      2  C1  UNL d   1      -1.668   1.528  -0.730  0.00  0.00     0.003 A 
ATOM      3  C2  UNL d   1      -0.560   0.924  -0.134  0.00  0.00     0.048 A 
ATOM      4  C3  UNL d   1       0.149  -0.058  -0.825  0.00  0.00     0.023 A 
ATOM      5  C4  UNL d   1      -0.244  -0.441  -2.109  0.00  0.00     0.048 A 
ATOM      6  C5  UNL d   1      -1.354   0.165  -2.701  0.00  0.00     0.003 A 
ATOM      7  I   UNL d   1       1.800  -0.957   0.061  0.00  0.00    -0.146 I 
ENDROOT
TORSDOF 0
ENDMDL
