MODEL 1
REMARK minimizedAffinity -2.53611636
REMARK minimizedRMSD -1
REMARK  0 active torsions:
REMARK  status: ('A' for Active; 'I' for Inactive)
ROOT
ATOM      1  C   UNL d   1       1.794  -1.490   0.835  0.00  0.00     0.023 A 
ATOM      2  C1  UNL d   1       0.638  -1.099   1.510  0.00  0.00     0.003 A 
ATOM      3  C2  UNL d   1      -0.314  -0.305   0.865  0.00  0.00     0.048 A 
ATOM      4  C3  UNL d   1      -0.103   0.092  -0.455  0.00  0.00     0.023 A 
ATOM      5  C4  UNL d   1       1.052  -0.298  -1.134  0.00  0.00     0.048 A 
ATOM      6  C5  UNL d   1       2.001  -1.091  -0.485  0.00  0.00     0.003 A 
ATOM      7  I   UNL d   1      -1.518   1.272  -1.416  0.00  0.00    -0.146 I 
ENDROOT
TORSDOF 0
ENDMDL
