MODEL 1
REMARK minimizedAffinity 7.20262623
REMARK minimizedRMSD -1
REMARK  0 active torsions:
REMARK  status: ('A' for Active; 'I' for Inactive)
ROOT
ATOM      1  C   UNL d   1      -1.324   5.504  -2.817  0.00  0.00     0.023 A 
ATOM      2  C1  UNL d   1      -1.166   4.131  -3.008  0.00  0.00     0.003 A 
ATOM      3  C2  UNL d   1      -2.185   3.252  -2.638  0.00  0.00     0.048 A 
ATOM      4  C3  UNL d   1      -3.361   3.751  -2.079  0.00  0.00     0.023 A 
ATOM      5  C4  UNL d   1      -3.524   5.124  -1.887  0.00  0.00     0.048 A 
ATOM      6  C5  UNL d   1      -2.502   6.000  -2.257  0.00  0.00     0.003 A 
ATOM      7  I   UNL d   1      -4.880   2.444  -1.529  0.00  0.00    -0.146 I 
ENDROOT
TORSDOF 0
ENDMDL
