MODEL 1
REMARK minimizedAffinity 4.47351933
REMARK minimizedRMSD -1
REMARK  0 active torsions:
REMARK  status: ('A' for Active; 'I' for Inactive)
ROOT
ATOM      1  C   UNL d   1      -1.138   5.651   0.440  0.00  0.00     0.023 A 
ATOM      2  C1  UNL d   1      -0.783   4.332   0.726  0.00  0.00     0.003 A 
ATOM      3  C2  UNL d   1      -0.845   3.359  -0.274  0.00  0.00     0.048 A 
ATOM      4  C3  UNL d   1      -1.261   3.712  -1.557  0.00  0.00     0.023 A 
ATOM      5  C4  UNL d   1      -1.616   5.030  -1.848  0.00  0.00     0.048 A 
ATOM      6  C5  UNL d   1      -1.553   5.999  -0.845  0.00  0.00     0.003 A 
ATOM      7  I   UNL d   1      -1.354   2.265  -3.047  0.00  0.00    -0.146 I 
ENDROOT
TORSDOF 0
ENDMDL
