MODEL 1
REMARK minimizedAffinity -2.72216964
REMARK minimizedRMSD -1
REMARK  0 active torsions:
REMARK  status: ('A' for Active; 'I' for Inactive)
ROOT
ATOM      1  C   UNL d   1       0.662  -0.632   0.168  0.00  0.00     0.023 A 
ATOM      2  C1  UNL d   1       0.038   0.568   0.512  0.00  0.00     0.003 A 
ATOM      3  C2  UNL d   1      -0.809   1.202  -0.399  0.00  0.00     0.048 A 
ATOM      4  C3  UNL d   1      -1.029   0.632  -1.652  0.00  0.00     0.023 A 
ATOM      5  C4  UNL d   1      -0.408  -0.569  -2.001  0.00  0.00     0.048 A 
ATOM      6  C5  UNL d   1       0.439  -1.199  -1.087  0.00  0.00     0.003 A 
ATOM      7  I   UNL d   1      -2.289   1.574  -3.010  0.00  0.00    -0.146 I 
ENDROOT
TORSDOF 0
ENDMDL
