MODEL 1
REMARK minimizedAffinity 6.36408663
REMARK minimizedRMSD -1
REMARK  0 active torsions:
REMARK  status: ('A' for Active; 'I' for Inactive)
ROOT
ATOM      1  C   UNL d   1       1.958   0.682  -0.486  0.00  0.00     0.023 A 
ATOM      2  C1  UNL d   1       1.343   0.822   0.758  0.00  0.00     0.003 A 
ATOM      3  C2  UNL d   1       0.083   0.264   0.982  0.00  0.00     0.048 A 
ATOM      4  C3  UNL d   1      -0.556  -0.435  -0.042  0.00  0.00     0.023 A 
ATOM      5  C4  UNL d   1       0.057  -0.579  -1.288  0.00  0.00     0.048 A 
ATOM      6  C5  UNL d   1       1.316  -0.018  -1.507  0.00  0.00     0.003 A 
ATOM      7  I   UNL d   1      -2.431  -1.268   0.288  0.00  0.00    -0.146 I 
ENDROOT
TORSDOF 0
ENDMDL
