MODEL 1
REMARK minimizedAffinity -1.95741498
REMARK minimizedRMSD -1
REMARK  0 active torsions:
REMARK  status: ('A' for Active; 'I' for Inactive)
ROOT
ATOM      1  C   UNL d   1      -4.706  -5.667   1.854  0.00  0.00     0.023 A 
ATOM      2  C1  UNL d   1      -5.578  -5.910   0.792  0.00  0.00     0.003 A 
ATOM      3  C2  UNL d   1      -5.086  -6.000  -0.511  0.00  0.00     0.048 A 
ATOM      4  C3  UNL d   1      -3.720  -5.847  -0.746  0.00  0.00     0.023 A 
ATOM      5  C4  UNL d   1      -2.843  -5.605   0.313  0.00  0.00     0.048 A 
ATOM      6  C5  UNL d   1      -3.340  -5.515   1.614  0.00  0.00     0.003 A 
ATOM      7  I   UNL d   1      -2.985  -5.981  -2.686  0.00  0.00    -0.146 I 
ENDROOT
TORSDOF 0
ENDMDL
