MODEL 1
REMARK minimizedAffinity -0.743032753
REMARK minimizedRMSD -1
REMARK  0 active torsions:
REMARK  status: ('A' for Active; 'I' for Inactive)
ROOT
ATOM      1  C   UNL d   1       1.496  -0.577  -0.513  0.00  0.00     0.023 A 
ATOM      2  C1  UNL d   1       0.712   0.341   0.186  0.00  0.00     0.003 A 
ATOM      3  C2  UNL d   1      -0.351   0.983  -0.454  0.00  0.00     0.048 A 
ATOM      4  C3  UNL d   1      -0.624   0.701  -1.792  0.00  0.00     0.023 A 
ATOM      5  C4  UNL d   1       0.157  -0.218  -2.495  0.00  0.00     0.048 A 
ATOM      6  C5  UNL d   1       1.219  -0.856  -1.851  0.00  0.00     0.003 A 
ATOM      7  I   UNL d   1      -2.205   1.655  -2.746  0.00  0.00    -0.146 I 
ENDROOT
TORSDOF 0
ENDMDL
