MODEL 1
REMARK minimizedAffinity -4.33874798
REMARK minimizedRMSD -1
REMARK  0 active torsions:
REMARK  status: ('A' for Active; 'I' for Inactive)
ROOT
ATOM      1  C   UNL d   1       1.492  -0.357  -0.551  0.00  0.00     0.023 A 
ATOM      2  C1  UNL d   1       0.710   0.647   0.019  0.00  0.00     0.003 A 
ATOM      3  C2  UNL d   1      -0.445   1.088  -0.629  0.00  0.00     0.048 A 
ATOM      4  C3  UNL d   1      -0.814   0.519  -1.847  0.00  0.00     0.023 A 
ATOM      5  C4  UNL d   1      -0.036  -0.488  -2.422  0.00  0.00     0.048 A 
ATOM      6  C5  UNL d   1       1.119  -0.924  -1.770  0.00  0.00     0.003 A 
ATOM      7  I   UNL d   1      -2.534   1.172  -2.814  0.00  0.00    -0.146 I 
ENDROOT
TORSDOF 0
ENDMDL
