MODEL 1
REMARK minimizedAffinity -2.45054507
REMARK minimizedRMSD -1
REMARK  0 active torsions:
REMARK  status: ('A' for Active; 'I' for Inactive)
ROOT
ATOM      1  C   UNL d   1       2.403  -1.765   0.598  0.00  0.00     0.023 A 
ATOM      2  C1  UNL d   1       2.269  -1.344  -0.725  0.00  0.00     0.003 A 
ATOM      3  C2  UNL d   1       1.252  -0.453  -1.076  0.00  0.00     0.048 A 
ATOM      4  C3  UNL d   1       0.374   0.014  -0.099  0.00  0.00     0.023 A 
ATOM      5  C4  UNL d   1       0.505  -0.404   1.227  0.00  0.00     0.048 A 
ATOM      6  C5  UNL d   1       1.522  -1.295   1.573  0.00  0.00     0.003 A 
ATOM      7  I   UNL d   1      -1.140   1.339  -0.618  0.00  0.00    -0.146 I 
ENDROOT
TORSDOF 0
ENDMDL
