MODEL 1
REMARK minimizedAffinity -0.601942778
REMARK minimizedRMSD -1
REMARK  0 active torsions:
REMARK  status: ('A' for Active; 'I' for Inactive)
ROOT
ATOM      1  C   UNL d   1      -2.366   2.159  -1.513  0.00  0.00     0.023 A 
ATOM      2  C1  UNL d   1      -1.509   1.736  -2.530  0.00  0.00     0.003 A 
ATOM      3  C2  UNL d   1      -0.405   0.937  -2.226  0.00  0.00     0.048 A 
ATOM      4  C3  UNL d   1      -0.164   0.563  -0.904  0.00  0.00     0.023 A 
ATOM      5  C4  UNL d   1      -1.019   0.984   0.116  0.00  0.00     0.048 A 
ATOM      6  C5  UNL d   1      -2.121   1.784  -0.192  0.00  0.00     0.003 A 
ATOM      7  I   UNL d   1       1.479  -0.626  -0.450  0.00  0.00    -0.146 I 
ENDROOT
TORSDOF 0
ENDMDL
