MODEL 1
REMARK minimizedAffinity 7.55270004
REMARK minimizedRMSD -1
REMARK  0 active torsions:
REMARK  status: ('A' for Active; 'I' for Inactive)
ROOT
ATOM      1  C   UNL d   1      -2.166   1.448   0.957  0.00  0.00     0.023 A 
ATOM      2  C1  UNL d   1      -2.859   1.202  -0.229  0.00  0.00     0.003 A 
ATOM      3  C2  UNL d   1      -2.829  -0.070  -0.805  0.00  0.00     0.048 A 
ATOM      4  C3  UNL d   1      -2.105  -1.091  -0.190  0.00  0.00     0.023 A 
ATOM      5  C4  UNL d   1      -1.412  -0.850   0.997  0.00  0.00     0.048 A 
ATOM      6  C5  UNL d   1      -1.444   0.424   1.569  0.00  0.00     0.003 A 
ATOM      7  I   UNL d   1      -2.060  -2.984  -1.046  0.00  0.00    -0.146 I 
ENDROOT
TORSDOF 0
ENDMDL
