MODEL 1
REMARK minimizedAffinity -3.24191761
REMARK minimizedRMSD -1
REMARK  0 active torsions:
REMARK  status: ('A' for Active; 'I' for Inactive)
ROOT
ATOM      1  C   UNL d   1       0.002   3.764   0.349  0.00  0.00     0.078 C 
ATOM      2  C1  UNL d   1      -0.248   2.321   0.671  0.00  0.00    -0.077 A 
ATOM      3  C2  UNL d   1      -0.926   1.949   1.839  0.00  0.00    -0.001 A 
ATOM      4  C3  UNL d   1      -1.143   0.602   2.131  0.00  0.00     0.003 A 
ATOM      5  C4  UNL d   1      -0.684  -0.385   1.261  0.00  0.00    -0.005 A 
ATOM      6  C5  UNL d   1      -0.006  -0.026   0.099  0.00  0.00     0.003 A 
ATOM      7  C6  UNL d   1       0.212   1.321  -0.195  0.00  0.00    -0.001 A 
ENDROOT
TORSDOF 0
ENDMDL
