MODEL 1
REMARK minimizedAffinity -3.37015224
REMARK minimizedRMSD -1
REMARK  0 active torsions:
REMARK  status: ('A' for Active; 'I' for Inactive)
ROOT
ATOM      1  C   UNL d   1       1.463  -1.166  -0.932  0.00  0.00     0.078 C 
ATOM      2  C1  UNL d   1       0.369  -0.785   0.020  0.00  0.00    -0.077 A 
ATOM      3  C2  UNL d   1      -0.970  -1.081  -0.263  0.00  0.00    -0.001 A 
ATOM      4  C3  UNL d   1      -1.978  -0.712   0.629  0.00  0.00     0.003 A 
ATOM      5  C4  UNL d   1      -1.658  -0.044   1.809  0.00  0.00    -0.005 A 
ATOM      6  C5  UNL d   1      -0.329   0.257   2.098  0.00  0.00     0.003 A 
ATOM      7  C6  UNL d   1       0.681  -0.111   1.208  0.00  0.00    -0.001 A 
ENDROOT
TORSDOF 0
ENDMDL
