MODEL 1
REMARK minimizedAffinity -4.10047102
REMARK minimizedRMSD -1
REMARK  0 active torsions:
REMARK  status: ('A' for Active; 'I' for Inactive)
ROOT
ATOM      1  C   UNL d   1      -0.117   0.114   1.071  0.00  0.00     0.078 C 
ATOM      2  C1  UNL d   1       0.090  -0.867  -0.044  0.00  0.00    -0.077 A 
ATOM      3  C2  UNL d   1      -0.989  -1.561  -0.604  0.00  0.00    -0.001 A 
ATOM      4  C3  UNL d   1      -0.781  -2.478  -1.635  0.00  0.00     0.003 A 
ATOM      5  C4  UNL d   1       0.507  -2.712  -2.114  0.00  0.00    -0.005 A 
ATOM      6  C5  UNL d   1       1.588  -2.028  -1.561  0.00  0.00     0.003 A 
ATOM      7  C6  UNL d   1       1.381  -1.110  -0.530  0.00  0.00    -0.001 A 
ENDROOT
TORSDOF 0
ENDMDL
