MODEL 1
REMARK minimizedAffinity -1.56039226
REMARK minimizedRMSD -1
REMARK  0 active torsions:
REMARK  status: ('A' for Active; 'I' for Inactive)
ROOT
ATOM      1  C   UNL d   1      -0.872   0.383   2.544  0.00  0.00     0.078 C 
ATOM      2  C1  UNL d   1      -0.480  -0.173   1.208  0.00  0.00    -0.077 A 
ATOM      3  C2  UNL d   1       0.444   0.492   0.393  0.00  0.00    -0.001 A 
ATOM      4  C3  UNL d   1       0.792  -0.033  -0.853  0.00  0.00     0.003 A 
ATOM      5  C4  UNL d   1       0.221  -1.224  -1.295  0.00  0.00    -0.005 A 
ATOM      6  C5  UNL d   1      -0.700  -1.892  -0.491  0.00  0.00     0.003 A 
ATOM      7  C6  UNL d   1      -1.050  -1.369   0.755  0.00  0.00    -0.001 A 
ENDROOT
TORSDOF 0
ENDMDL
