MODEL 1
REMARK minimizedAffinity -3.58884168
REMARK minimizedRMSD -1
REMARK  0 active torsions:
REMARK  status: ('A' for Active; 'I' for Inactive)
ROOT
ATOM      1  C   UNL d   1       0.944  -3.170  -2.933  0.00  0.00     0.078 C 
ATOM      2  C1  UNL d   1       0.704  -2.105  -1.905  0.00  0.00    -0.077 A 
ATOM      3  C2  UNL d   1      -0.574  -1.888  -1.376  0.00  0.00    -0.001 A 
ATOM      4  C3  UNL d   1      -0.784  -0.886  -0.427  0.00  0.00     0.003 A 
ATOM      5  C4  UNL d   1       0.279  -0.092  -0.001  0.00  0.00    -0.005 A 
ATOM      6  C5  UNL d   1       1.553  -0.299  -0.524  0.00  0.00     0.003 A 
ATOM      7  C6  UNL d   1       1.766  -1.300  -1.472  0.00  0.00    -0.001 A 
ENDROOT
TORSDOF 0
ENDMDL
