MODEL 1
REMARK minimizedAffinity -1.43627214
REMARK minimizedRMSD -1
REMARK  0 active torsions:
REMARK  status: ('A' for Active; 'I' for Inactive)
ROOT
ATOM      1  C   UNL d   1       0.407  -0.310  -0.195  0.00  0.00     0.078 C 
ATOM      2  C1  UNL d   1       0.384  -1.498  -1.110  0.00  0.00    -0.077 A 
ATOM      3  C2  UNL d   1       0.866  -2.743  -0.687  0.00  0.00    -0.001 A 
ATOM      4  C3  UNL d   1       0.848  -3.838  -1.552  0.00  0.00     0.003 A 
ATOM      5  C4  UNL d   1       0.350  -3.700  -2.846  0.00  0.00    -0.005 A 
ATOM      6  C5  UNL d   1      -0.130  -2.464  -3.276  0.00  0.00     0.003 A 
ATOM      7  C6  UNL d   1      -0.112  -1.368  -2.413  0.00  0.00    -0.001 A 
ENDROOT
TORSDOF 0
ENDMDL
