MODEL 1
REMARK minimizedAffinity -3.86869693
REMARK minimizedRMSD -1
REMARK  0 active torsions:
REMARK  status: ('A' for Active; 'I' for Inactive)
ROOT
ATOM      1  C   UNL d   1       0.104  -2.770  -2.279  0.00  0.00     0.078 C 
ATOM      2  C1  UNL d   1       0.047  -1.742  -1.189  0.00  0.00    -0.077 A 
ATOM      3  C2  UNL d   1      -1.120  -1.551  -0.438  0.00  0.00    -0.001 A 
ATOM      4  C3  UNL d   1      -1.163  -0.584   0.567  0.00  0.00     0.003 A 
ATOM      5  C4  UNL d   1      -0.042   0.202   0.830  0.00  0.00    -0.005 A 
ATOM      6  C5  UNL d   1       1.123   0.021   0.087  0.00  0.00     0.003 A 
ATOM      7  C6  UNL d   1       1.167  -0.946  -0.919  0.00  0.00    -0.001 A 
ENDROOT
TORSDOF 0
ENDMDL
