MODEL 1
REMARK minimizedAffinity -5.04202127
REMARK minimizedRMSD -1
REMARK  0 active torsions:
REMARK  status: ('A' for Active; 'I' for Inactive)
ROOT
ATOM      1  C   UNL d   1      -0.137   3.433  -0.486  0.00  0.00     0.078 C 
ATOM      2  C1  UNL d   1      -0.268   2.133   0.250  0.00  0.00    -0.077 A 
ATOM      3  C2  UNL d   1       0.259   0.948  -0.278  0.00  0.00    -0.001 A 
ATOM      4  C3  UNL d   1       0.120  -0.256   0.414  0.00  0.00     0.003 A 
ATOM      5  C4  UNL d   1      -0.546  -0.288   1.637  0.00  0.00    -0.005 A 
ATOM      6  C5  UNL d   1      -1.076   0.886   2.170  0.00  0.00     0.003 A 
ATOM      7  C6  UNL d   1      -0.939   2.091   1.479  0.00  0.00    -0.001 A 
ENDROOT
TORSDOF 0
ENDMDL
