MODEL 1
REMARK minimizedAffinity -2.70049596
REMARK minimizedRMSD -1
REMARK  0 active torsions:
REMARK  status: ('A' for Active; 'I' for Inactive)
ROOT
ATOM      1  C   UNL d   1       0.371   3.045  -1.315  0.00  0.00     0.078 C 
ATOM      2  C1  UNL d   1       0.080   2.034  -0.247  0.00  0.00    -0.077 A 
ATOM      3  C2  UNL d   1      -0.538   2.409   0.952  0.00  0.00    -0.001 A 
ATOM      4  C3  UNL d   1      -0.794   1.459   1.942  0.00  0.00     0.003 A 
ATOM      5  C4  UNL d   1      -0.435   0.127   1.743  0.00  0.00    -0.005 A 
ATOM      6  C5  UNL d   1       0.182  -0.255   0.553  0.00  0.00     0.003 A 
ATOM      7  C6  UNL d   1       0.439   0.694  -0.437  0.00  0.00    -0.001 A 
ENDROOT
TORSDOF 0
ENDMDL
