MODEL 1
REMARK minimizedAffinity -3.53236651
REMARK minimizedRMSD -1
REMARK  0 active torsions:
REMARK  status: ('A' for Active; 'I' for Inactive)
ROOT
ATOM      1  C   UNL d   1      -0.031   3.982   0.357  0.00  0.00     0.078 C 
ATOM      2  C1  UNL d   1      -0.059   2.504   0.608  0.00  0.00    -0.077 A 
ATOM      3  C2  UNL d   1       0.544   1.609  -0.284  0.00  0.00    -0.001 A 
ATOM      4  C3  UNL d   1       0.502   0.235  -0.043  0.00  0.00     0.003 A 
ATOM      5  C4  UNL d   1      -0.142  -0.257   1.091  0.00  0.00    -0.005 A 
ATOM      6  C5  UNL d   1      -0.747   0.626   1.983  0.00  0.00     0.003 A 
ATOM      7  C6  UNL d   1      -0.706   2.000   1.743  0.00  0.00    -0.001 A 
ENDROOT
TORSDOF 0
ENDMDL
