MODEL 1
REMARK minimizedAffinity -4.36100769
REMARK minimizedRMSD -1
REMARK  0 active torsions:
REMARK  status: ('A' for Active; 'I' for Inactive)
ROOT
ATOM      1  C   UNL d   1      -0.032  -0.451  -0.063  0.00  0.00     0.078 C 
ATOM      2  C1  UNL d   1      -0.186   1.000   0.285  0.00  0.00    -0.077 A 
ATOM      3  C2  UNL d   1      -0.807   1.394   1.476  0.00  0.00    -0.001 A 
ATOM      4  C3  UNL d   1      -0.952   2.748   1.783  0.00  0.00     0.003 A 
ATOM      5  C4  UNL d   1      -0.479   3.719   0.902  0.00  0.00    -0.005 A 
ATOM      6  C5  UNL d   1       0.138   3.336  -0.287  0.00  0.00     0.003 A 
ATOM      7  C6  UNL d   1       0.283   1.983  -0.595  0.00  0.00    -0.001 A 
ENDROOT
TORSDOF 0
ENDMDL
