MODEL 1
REMARK minimizedAffinity -3.77760744
REMARK minimizedRMSD -1
REMARK  0 active torsions:
REMARK  status: ('A' for Active; 'I' for Inactive)
ROOT
ATOM      1  C   UNL d   1       0.997  -0.901  -0.585  0.00  0.00     0.078 C 
ATOM      2  C1  UNL d   1       0.604   0.425  -0.006  0.00  0.00    -0.077 A 
ATOM      3  C2  UNL d   1      -0.008   0.510   1.250  0.00  0.00    -0.001 A 
ATOM      4  C3  UNL d   1      -0.377   1.751   1.773  0.00  0.00     0.003 A 
ATOM      5  C4  UNL d   1      -0.139   2.915   1.045  0.00  0.00    -0.005 A 
ATOM      6  C5  UNL d   1       0.467   2.840  -0.207  0.00  0.00     0.003 A 
ATOM      7  C6  UNL d   1       0.837   1.600  -0.731  0.00  0.00    -0.001 A 
ENDROOT
TORSDOF 0
ENDMDL
