MODEL 1
REMARK minimizedAffinity -3.04170179
REMARK minimizedRMSD -1
REMARK  0 active torsions:
REMARK  status: ('A' for Active; 'I' for Inactive)
ROOT
ATOM      1  C   UNL d   1       1.019   1.832  -1.616  0.00  0.00     0.078 C 
ATOM      2  C1  UNL d   1       0.518   1.283  -0.313  0.00  0.00    -0.077 A 
ATOM      3  C2  UNL d   1      -0.309   2.046   0.520  0.00  0.00    -0.001 A 
ATOM      4  C3  UNL d   1      -0.761   1.526   1.734  0.00  0.00     0.003 A 
ATOM      5  C4  UNL d   1      -0.390   0.241   2.126  0.00  0.00    -0.005 A 
ATOM      6  C5  UNL d   1       0.434  -0.525   1.304  0.00  0.00     0.003 A 
ATOM      7  C6  UNL d   1       0.887  -0.007   0.090  0.00  0.00    -0.001 A 
ENDROOT
TORSDOF 0
ENDMDL
