MODEL 1
REMARK minimizedAffinity -4.26537943
REMARK minimizedRMSD -1
REMARK  1 active torsions:
REMARK  status: ('A' for Active; 'I' for Inactive)
REMARK    1  A    between atoms: C3_4  and  O_7 
ROOT
ATOM      1  C   UNL d   1       0.687  -0.427   0.012  0.00  0.00    -0.033 A 
ATOM      2  C1  UNL d   1       0.098  -0.035  -1.191  0.00  0.00     0.039 A 
ATOM      3  C2  UNL d   1      -1.292  -0.055  -1.329  0.00  0.00    -0.080 A 
ATOM      4  C3  UNL d   1      -2.079  -0.467  -0.257  0.00  0.00     0.150 A 
ATOM      5  C4  UNL d   1      -1.498  -0.855   0.946  0.00  0.00    -0.007 A 
ATOM      6  C5  UNL d   1      -0.110  -0.836   1.081  0.00  0.00     0.039 A 
ENDROOT
BRANCH   4   7
ATOM      7  O   UNL d   1      -3.438  -0.507  -0.345  0.00  0.00    -0.526 OA
ATOM      8  H5  UNL d   1      -3.697  -0.239  -1.243  0.00  0.00     0.418 HD
ENDBRANCH   4   7
TORSDOF 1
ENDMDL
