MODEL 1
REMARK minimizedAffinity -4.22571945
REMARK minimizedRMSD -1
REMARK  1 active torsions:
REMARK  status: ('A' for Active; 'I' for Inactive)
REMARK    1  A    between atoms: C3_4  and  O_7 
ROOT
ATOM      1  C   UNL d   1       0.400   0.515  -0.343  0.00  0.00    -0.033 A 
ATOM      2  C1  UNL d   1      -0.220   0.075   0.828  0.00  0.00     0.039 A 
ATOM      3  C2  UNL d   1      -1.584  -0.224   0.829  0.00  0.00    -0.080 A 
ATOM      4  C3  UNL d   1      -2.316  -0.079  -0.346  0.00  0.00     0.150 A 
ATOM      5  C4  UNL d   1      -1.704   0.356  -1.518  0.00  0.00    -0.007 A 
ATOM      6  C5  UNL d   1      -0.342   0.654  -1.517  0.00  0.00     0.039 A 
ENDROOT
BRANCH   4   7
ATOM      7  O   UNL d   1      -3.650  -0.353  -0.393  0.00  0.00    -0.526 OA
ATOM      8  H5  UNL d   1      -3.942  -0.615   0.496  0.00  0.00     0.418 HD
ENDBRANCH   4   7
TORSDOF 1
ENDMDL
