MODEL 1
REMARK minimizedAffinity -2.5063014
REMARK minimizedRMSD -1
REMARK  1 active torsions:
REMARK  status: ('A' for Active; 'I' for Inactive)
REMARK    1  A    between atoms: C3_4  and  O_7 
ROOT
ATOM      1  C   UNL d   1       0.917   0.236   0.323  0.00  0.00    -0.033 A 
ATOM      2  C1  UNL d   1       0.721   0.637  -1.000  0.00  0.00     0.039 A 
ATOM      3  C2  UNL d   1      -0.435   0.255  -1.684  0.00  0.00    -0.080 A 
ATOM      4  C3  UNL d   1      -1.386  -0.526  -1.033  0.00  0.00     0.150 A 
ATOM      5  C4  UNL d   1      -1.199  -0.926   0.286  0.00  0.00    -0.007 A 
ATOM      6  C5  UNL d   1      -0.044  -0.544   0.966  0.00  0.00     0.039 A 
ENDROOT
BRANCH   4   7
ATOM      7  O   UNL d   1      -2.528  -0.927  -1.661  0.00  0.00    -0.526 OA
ATOM      8  H5  UNL d   1      -2.507  -0.601  -2.576  0.00  0.00     0.418 HD
ENDBRANCH   4   7
TORSDOF 1
ENDMDL
