MODEL 1
REMARK minimizedAffinity -1.93162024
REMARK minimizedRMSD -1
REMARK  1 active torsions:
REMARK  status: ('A' for Active; 'I' for Inactive)
REMARK    1  A    between atoms: C3_4  and  O_7 
ROOT
ATOM      1  C   UNL d   1       2.929   2.175   1.123  0.00  0.00    -0.033 A 
ATOM      2  C1  UNL d   1       2.998   1.150   0.178  0.00  0.00     0.039 A 
ATOM      3  C2  UNL d   1       1.927   0.268   0.023  0.00  0.00    -0.080 A 
ATOM      4  C3  UNL d   1       0.794   0.422   0.817  0.00  0.00     0.150 A 
ATOM      5  C4  UNL d   1       0.717   1.444   1.758  0.00  0.00    -0.007 A 
ATOM      6  C5  UNL d   1       1.788   2.323   1.912  0.00  0.00     0.039 A 
ENDROOT
BRANCH   4   7
ATOM      7  O   UNL d   1      -0.274  -0.417   0.706  0.00  0.00    -0.526 OA
ATOM      8  H5  UNL d   1      -0.068  -1.091   0.037  0.00  0.00     0.418 HD
ENDBRANCH   4   7
TORSDOF 1
ENDMDL
