MODEL 1
REMARK minimizedAffinity -1.79735827
REMARK minimizedRMSD -1
REMARK  1 active torsions:
REMARK  status: ('A' for Active; 'I' for Inactive)
REMARK    1  A    between atoms: C3_4  and  O_7 
ROOT
ATOM      1  C   UNL d   1       0.630   0.168   0.335  0.00  0.00    -0.033 A 
ATOM      2  C1  UNL d   1       0.006   0.922  -0.661  0.00  0.00     0.039 A 
ATOM      3  C2  UNL d   1      -1.292   0.607  -1.067  0.00  0.00    -0.080 A 
ATOM      4  C3  UNL d   1      -1.955  -0.461  -0.469  0.00  0.00     0.150 A 
ATOM      5  C4  UNL d   1      -1.341  -1.214   0.527  0.00  0.00    -0.007 A 
ATOM      6  C5  UNL d   1      -0.044  -0.899   0.930  0.00  0.00     0.039 A 
ENDROOT
BRANCH   4   7
ATOM      7  O   UNL d   1      -3.221  -0.809  -0.836  0.00  0.00    -0.526 OA
ATOM      8  H5  UNL d   1      -3.507  -0.219  -1.553  0.00  0.00     0.418 HD
ENDBRANCH   4   7
TORSDOF 1
ENDMDL
