MODEL 1
REMARK minimizedAffinity -0.247634724
REMARK minimizedRMSD -1
REMARK  1 active torsions:
REMARK  status: ('A' for Active; 'I' for Inactive)
REMARK    1  A    between atoms: C3_4  and  O_7 
ROOT
ATOM      1  C   UNL d   1      -0.027  -0.639  -0.870  0.00  0.00    -0.033 A 
ATOM      2  C1  UNL d   1      -0.404  -0.390   0.451  0.00  0.00     0.039 A 
ATOM      3  C2  UNL d   1       0.233   0.613   1.183  0.00  0.00    -0.080 A 
ATOM      4  C3  UNL d   1       1.242   1.361   0.583  0.00  0.00     0.150 A 
ATOM      5  C4  UNL d   1       1.620   1.121  -0.734  0.00  0.00    -0.007 A 
ATOM      6  C5  UNL d   1       0.984   0.118  -1.463  0.00  0.00     0.039 A 
ENDROOT
BRANCH   4   7
ATOM      7  O   UNL d   1       1.896   2.348   1.259  0.00  0.00    -0.526 OA
ATOM      8  H5  UNL d   1       1.550   2.381   2.167  0.00  0.00     0.418 HD
ENDBRANCH   4   7
TORSDOF 1
ENDMDL
