MODEL 1
REMARK minimizedAffinity -3.79587054
REMARK minimizedRMSD -1
REMARK  1 active torsions:
REMARK  status: ('A' for Active; 'I' for Inactive)
REMARK    1  A    between atoms: C3_4  and  O_7 
ROOT
ATOM      1  C   UNL d   1       0.525   0.215  -0.598  0.00  0.00    -0.033 A 
ATOM      2  C1  UNL d   1      -0.022   0.193   0.687  0.00  0.00     0.039 A 
ATOM      3  C2  UNL d   1      -1.385  -0.051   0.863  0.00  0.00    -0.080 A 
ATOM      4  C3  UNL d   1      -2.189  -0.272  -0.252  0.00  0.00     0.150 A 
ATOM      5  C4  UNL d   1      -1.650  -0.256  -1.534  0.00  0.00    -0.007 A 
ATOM      6  C5  UNL d   1      -0.288  -0.011  -1.708  0.00  0.00     0.039 A 
ENDROOT
BRANCH   4   7
ATOM      7  O   UNL d   1      -3.526  -0.510  -0.130  0.00  0.00    -0.526 OA
ATOM      8  H5  UNL d   1      -3.762  -0.463   0.811  0.00  0.00     0.418 HD
ENDBRANCH   4   7
TORSDOF 1
ENDMDL
