MODEL 1
REMARK minimizedAffinity -4.62944269
REMARK minimizedRMSD -1
REMARK  1 active torsions:
REMARK  status: ('A' for Active; 'I' for Inactive)
REMARK    1  A    between atoms: C3_4  and  O_7 
ROOT
ATOM      1  C   UNL d   1       0.124   0.039   0.364  0.00  0.00    -0.033 A 
ATOM      2  C1  UNL d   1      -0.799  -0.366   1.330  0.00  0.00     0.039 A 
ATOM      3  C2  UNL d   1      -2.127  -0.606   0.971  0.00  0.00    -0.080 A 
ATOM      4  C3  UNL d   1      -2.517  -0.438  -0.355  0.00  0.00     0.150 A 
ATOM      5  C4  UNL d   1      -1.601  -0.039  -1.323  0.00  0.00    -0.007 A 
ATOM      6  C5  UNL d   1      -0.276   0.201  -0.962  0.00  0.00     0.039 A 
ENDROOT
BRANCH   4   7
ATOM      7  O   UNL d   1      -3.803  -0.656  -0.752  0.00  0.00    -0.526 OA
ATOM      8  H5  UNL d   1      -4.329  -0.899   0.028  0.00  0.00     0.418 HD
ENDBRANCH   4   7
TORSDOF 1
ENDMDL
