MODEL 1
REMARK minimizedAffinity -4.30401134
REMARK minimizedRMSD -1
REMARK  1 active torsions:
REMARK  status: ('A' for Active; 'I' for Inactive)
REMARK    1  A    between atoms: C3_4  and  O_7 
ROOT
ATOM      1  C   UNL d   1       0.932  -0.078  -0.212  0.00  0.00    -0.033 A 
ATOM      2  C1  UNL d   1       0.379  -0.665   0.929  0.00  0.00     0.039 A 
ATOM      3  C2  UNL d   1      -1.004  -0.818   1.037  0.00  0.00    -0.080 A 
ATOM      4  C3  UNL d   1      -1.823  -0.381  -0.001  0.00  0.00     0.150 A 
ATOM      5  C4  UNL d   1      -1.279   0.201  -1.142  0.00  0.00    -0.007 A 
ATOM      6  C5  UNL d   1       0.103   0.353  -1.247  0.00  0.00     0.039 A 
ENDROOT
BRANCH   4   7
ATOM      7  O   UNL d   1      -3.179  -0.504   0.061  0.00  0.00    -0.526 OA
ATOM      8  H5  UNL d   1      -3.414  -0.897   0.918  0.00  0.00     0.418 HD
ENDBRANCH   4   7
TORSDOF 1
ENDMDL
