MODEL 1
REMARK minimizedAffinity -4.43361712
REMARK minimizedRMSD -1
REMARK  1 active torsions:
REMARK  status: ('A' for Active; 'I' for Inactive)
REMARK    1  A    between atoms: C3_4  and  O_7 
ROOT
ATOM      1  C   UNL d   1       0.421  -0.982   0.701  0.00  0.00    -0.033 A 
ATOM      2  C1  UNL d   1       0.301  -0.033  -0.317  0.00  0.00     0.039 A 
ATOM      3  C2  UNL d   1      -0.960   0.313  -0.806  0.00  0.00    -0.080 A 
ATOM      4  C3  UNL d   1      -2.092  -0.294  -0.269  0.00  0.00     0.150 A 
ATOM      5  C4  UNL d   1      -1.980  -1.237   0.748  0.00  0.00    -0.007 A 
ATOM      6  C5  UNL d   1      -0.720  -1.583   1.234  0.00  0.00     0.039 A 
ENDROOT
BRANCH   4   7
ATOM      7  O   UNL d   1      -3.343   0.008  -0.717  0.00  0.00    -0.526 OA
ATOM      8  H5  UNL d   1      -3.264   0.653  -1.440  0.00  0.00     0.418 HD
ENDBRANCH   4   7
TORSDOF 1
ENDMDL
