MODEL 1
REMARK minimizedAffinity -4.33307552
REMARK minimizedRMSD -1
REMARK  1 active torsions:
REMARK  status: ('A' for Active; 'I' for Inactive)
REMARK    1  A    between atoms: C3_4  and  O_7 
ROOT
ATOM      1  C   UNL d   1       0.744  -0.166  -0.534  0.00  0.00    -0.033 A 
ATOM      2  C1  UNL d   1       0.251  -0.672   0.670  0.00  0.00     0.039 A 
ATOM      3  C2  UNL d   1      -1.108  -0.966   0.802  0.00  0.00    -0.080 A 
ATOM      4  C3  UNL d   1      -1.962  -0.750  -0.277  0.00  0.00     0.150 A 
ATOM      5  C4  UNL d   1      -1.477  -0.250  -1.481  0.00  0.00    -0.007 A 
ATOM      6  C5  UNL d   1      -0.120   0.044  -1.610  0.00  0.00     0.039 A 
ENDROOT
BRANCH   4   7
ATOM      7  O   UNL d   1      -3.296  -1.017  -0.194  0.00  0.00    -0.526 OA
ATOM      8  H5  UNL d   1      -3.492  -1.330   0.705  0.00  0.00     0.418 HD
ENDBRANCH   4   7
TORSDOF 1
ENDMDL
