MODEL 1
REMARK minimizedAffinity -5.20714617
REMARK minimizedRMSD -1
REMARK  1 active torsions:
REMARK  status: ('A' for Active; 'I' for Inactive)
REMARK    1  A    between atoms: C3_4  and  O_7 
ROOT
ATOM      1  C   UNL d   1      -3.092  -1.148   0.086  0.00  0.00    -0.033 A 
ATOM      2  C1  UNL d   1      -2.233  -1.623   1.080  0.00  0.00     0.039 A 
ATOM      3  C2  UNL d   1      -0.927  -1.136   1.167  0.00  0.00    -0.080 A 
ATOM      4  C3  UNL d   1      -0.493  -0.175   0.258  0.00  0.00     0.150 A 
ATOM      5  C4  UNL d   1      -1.345   0.305  -0.732  0.00  0.00    -0.007 A 
ATOM      6  C5  UNL d   1      -2.648  -0.183  -0.818  0.00  0.00     0.039 A 
ENDROOT
BRANCH   4   7
ATOM      7  O   UNL d   1       0.774   0.326   0.300  0.00  0.00    -0.526 OA
ATOM      8  H5  UNL d   1       1.257  -0.119   1.017  0.00  0.00     0.418 HD
ENDBRANCH   4   7
TORSDOF 1
ENDMDL
