MODEL 1
REMARK minimizedAffinity -3.03356814
REMARK minimizedRMSD -1
REMARK  1 active torsions:
REMARK  status: ('A' for Active; 'I' for Inactive)
REMARK    1  A    between atoms: C3_4  and  O_7 
ROOT
ATOM      1  C   UNL d   1       1.031  -0.468   0.777  0.00  0.00    -0.033 A 
ATOM      2  C1  UNL d   1       0.361  -1.364   1.613  0.00  0.00     0.039 A 
ATOM      3  C2  UNL d   1      -1.025  -1.508   1.517  0.00  0.00    -0.080 A 
ATOM      4  C3  UNL d   1      -1.727  -0.752   0.583  0.00  0.00     0.150 A 
ATOM      5  C4  UNL d   1      -1.066   0.139  -0.255  0.00  0.00    -0.007 A 
ATOM      6  C5  UNL d   1       0.318   0.282  -0.158  0.00  0.00     0.039 A 
ENDROOT
BRANCH   4   7
ATOM      7  O   UNL d   1      -3.081  -0.855   0.456  0.00  0.00    -0.526 OA
ATOM      8  H5  UNL d   1      -3.405  -1.487   1.119  0.00  0.00     0.418 HD
ENDBRANCH   4   7
TORSDOF 1
ENDMDL
