MODEL 1
REMARK minimizedAffinity -5.33968019
REMARK minimizedRMSD -1
REMARK  1 active torsions:
REMARK  status: ('A' for Active; 'I' for Inactive)
REMARK    1  A    between atoms: C3_4  and  O_7 
ROOT
ATOM      1  C   UNL d   1       0.584  -0.467   0.284  0.00  0.00    -0.033 A 
ATOM      2  C1  UNL d   1       0.175   0.102  -0.924  0.00  0.00     0.039 A 
ATOM      3  C2  UNL d   1      -1.157   0.001  -1.330  0.00  0.00    -0.080 A 
ATOM      4  C3  UNL d   1      -2.069  -0.670  -0.520  0.00  0.00     0.150 A 
ATOM      5  C4  UNL d   1      -1.669  -1.237   0.686  0.00  0.00    -0.007 A 
ATOM      6  C5  UNL d   1      -0.338  -1.136   1.089  0.00  0.00     0.039 A 
ENDROOT
BRANCH   4   7
ATOM      7  O   UNL d   1      -3.378  -0.799  -0.877  0.00  0.00    -0.526 OA
ATOM      8  H5  UNL d   1      -3.503  -0.384  -1.746  0.00  0.00     0.418 HD
ENDBRANCH   4   7
TORSDOF 1
ENDMDL
