MODEL 1
REMARK minimizedAffinity -0.390810579
REMARK minimizedRMSD -1
REMARK  1 active torsions:
REMARK  status: ('A' for Active; 'I' for Inactive)
REMARK    1  A    between atoms: C3_4  and  O_7 
ROOT
ATOM      1  C   UNL d   1      -1.331  -1.618   1.918  0.00  0.00    -0.033 A 
ATOM      2  C1  UNL d   1       0.004  -1.995   1.767  0.00  0.00     0.039 A 
ATOM      3  C2  UNL d   1       0.836  -1.292   0.893  0.00  0.00    -0.080 A 
ATOM      4  C3  UNL d   1       0.320  -0.215   0.177  0.00  0.00     0.150 A 
ATOM      5  C4  UNL d   1      -1.008   0.168   0.325  0.00  0.00    -0.007 A 
ATOM      6  C5  UNL d   1      -1.838  -0.535   1.198  0.00  0.00     0.039 A 
ENDROOT
BRANCH   4   7
ATOM      7  O   UNL d   1       1.092   0.498  -0.691  0.00  0.00    -0.526 OA
ATOM      8  H5  UNL d   1       1.979   0.102  -0.712  0.00  0.00     0.418 HD
ENDBRANCH   4   7
TORSDOF 1
ENDMDL
