MODEL 1
REMARK minimizedAffinity -1.82006717
REMARK minimizedRMSD -1
REMARK  1 active torsions:
REMARK  status: ('A' for Active; 'I' for Inactive)
REMARK    1  A    between atoms: C3_4  and  O_7 
ROOT
ATOM      1  C   UNL d   1       1.348  -0.734   0.143  0.00  0.00    -0.033 A 
ATOM      2  C1  UNL d   1       0.775  -1.688   0.986  0.00  0.00     0.039 A 
ATOM      3  C2  UNL d   1      -0.614  -1.771   1.107  0.00  0.00    -0.080 A 
ATOM      4  C3  UNL d   1      -1.416  -0.897   0.378  0.00  0.00     0.150 A 
ATOM      5  C4  UNL d   1      -0.852   0.052  -0.467  0.00  0.00    -0.007 A 
ATOM      6  C5  UNL d   1       0.535   0.135  -0.585  0.00  0.00     0.039 A 
ENDROOT
BRANCH   4   7
ATOM      7  O   UNL d   1      -2.776  -0.938   0.467  0.00  0.00    -0.526 OA
ATOM      8  H5  UNL d   1      -3.023  -1.623   1.109  0.00  0.00     0.418 HD
ENDBRANCH   4   7
TORSDOF 1
ENDMDL
