MODEL 1
REMARK minimizedAffinity -0.781761587
REMARK minimizedRMSD -1
REMARK  1 active torsions:
REMARK  status: ('A' for Active; 'I' for Inactive)
REMARK    1  A    between atoms: C1_2  and  C2_3 
ROOT
ATOM      1  C2  UNL d   1       1.583   5.229   5.526  0.00  0.00    -0.073 A 
ATOM      2  C3  UNL d   1       2.683   5.897   4.976  0.00  0.00    -0.002 A 
ATOM      3  C4  UNL d   1       3.794   5.179   4.533  0.00  0.00     0.004 A 
ATOM      4  C5  UNL d   1       3.815   3.787   4.628  0.00  0.00    -0.004 A 
ATOM      5  C6  UNL d   1       2.720   3.101   5.163  0.00  0.00    -0.075 A 
ATOM      6  C7  UNL d   1       2.727   1.604   5.274  0.00  0.00     0.076 C 
ATOM      7  C8  UNL d   1       1.609   3.829   5.609  0.00  0.00     0.001 A 
ENDROOT
BRANCH   1   8
ATOM      8  C1  UNL d   1       0.378   5.999   6.000  0.00  0.00     0.053 C 
ATOM      9  C   UNL d   1      -0.741   5.999   4.969  0.00  0.00     0.018 C 
ENDBRANCH   1   8
TORSDOF 1
ENDMDL
