MODEL 1
REMARK minimizedAffinity 10.4276724
REMARK minimizedRMSD -1
REMARK  1 active torsions:
REMARK  status: ('A' for Active; 'I' for Inactive)
REMARK    1  A    between atoms: C1_2  and  C2_3 
ROOT
ATOM      1  C2  UNL d   1      -1.754   1.293  -0.464  0.00  0.00    -0.073 A 
ATOM      2  C3  UNL d   1      -2.456   0.396  -1.277  0.00  0.00    -0.002 A 
ATOM      3  C4  UNL d   1      -3.748  -0.005  -0.933  0.00  0.00     0.004 A 
ATOM      4  C5  UNL d   1      -4.353   0.492   0.221  0.00  0.00    -0.004 A 
ATOM      5  C6  UNL d   1      -3.672   1.398   1.040  0.00  0.00    -0.075 A 
ATOM      6  C7  UNL d   1      -4.309   1.940   2.286  0.00  0.00     0.076 C 
ATOM      7  C8  UNL d   1      -2.374   1.794   0.690  0.00  0.00     0.001 A 
ENDROOT
BRANCH   1   8
ATOM      8  C1  UNL d   1      -0.361   1.733  -0.834  0.00  0.00     0.053 C 
ATOM      9  C   UNL d   1       0.619   1.547   0.313  0.00  0.00     0.018 C 
ENDBRANCH   1   8
TORSDOF 1
ENDMDL
