MODEL 1
REMARK minimizedAffinity 16.7634563
REMARK minimizedRMSD -1
REMARK  1 active torsions:
REMARK  status: ('A' for Active; 'I' for Inactive)
REMARK    1  A    between atoms: C1_2  and  C2_3 
ROOT
ATOM      1  C2  UNL d   1       3.599  -0.585  -0.245  0.00  0.00    -0.073 A 
ATOM      2  C3  UNL d   1       4.557  -0.621   0.775  0.00  0.00    -0.002 A 
ATOM      3  C4  UNL d   1       4.695  -1.758   1.573  0.00  0.00     0.004 A 
ATOM      4  C5  UNL d   1       3.883  -2.871   1.355  0.00  0.00    -0.004 A 
ATOM      5  C6  UNL d   1       2.928  -2.859   0.333  0.00  0.00    -0.075 A 
ATOM      6  C7  UNL d   1       2.046  -4.048   0.087  0.00  0.00     0.076 C 
ATOM      7  C8  UNL d   1       2.794  -1.713  -0.462  0.00  0.00     0.001 A 
ENDROOT
BRANCH   1   8
ATOM      8  C1  UNL d   1       3.450   0.637  -1.113  0.00  0.00     0.053 C 
ATOM      9  C   UNL d   1       2.277   1.503  -0.682  0.00  0.00     0.018 C 
ENDBRANCH   1   8
TORSDOF 1
ENDMDL
