MODEL 1
REMARK minimizedAffinity 6.36974239
REMARK minimizedRMSD -1
REMARK  1 active torsions:
REMARK  status: ('A' for Active; 'I' for Inactive)
REMARK    1  A    between atoms: C1_2  and  C2_3 
ROOT
ATOM      1  C2  UNL d   1       3.987   3.118   5.821  0.00  0.00    -0.073 A 
ATOM      2  C3  UNL d   1       4.991   4.076   5.999  0.00  0.00    -0.002 A 
ATOM      3  C4  UNL d   1       4.685   5.437   5.948  0.00  0.00     0.004 A 
ATOM      4  C5  UNL d   1       3.372   5.852   5.726  0.00  0.00    -0.004 A 
ATOM      5  C6  UNL d   1       2.352   4.910   5.558  0.00  0.00    -0.075 A 
ATOM      6  C7  UNL d   1       0.935   5.341   5.316  0.00  0.00     0.076 C 
ATOM      7  C8  UNL d   1       2.669   3.546   5.608  0.00  0.00     0.001 A 
ENDROOT
BRANCH   1   8
ATOM      8  C1  UNL d   1       4.312   1.648   5.882  0.00  0.00     0.053 C 
ATOM      9  C   UNL d   1       3.061   0.791   5.994  0.00  0.00     0.018 C 
ENDBRANCH   1   8
TORSDOF 1
ENDMDL
