MODEL 1
REMARK minimizedAffinity -2.71569252
REMARK minimizedRMSD -1
REMARK  1 active torsions:
REMARK  status: ('A' for Active; 'I' for Inactive)
REMARK    1  A    between atoms: C1_2  and  C2_3 
ROOT
ATOM      1  C2  UNL d   1       1.813   5.241   4.992  0.00  0.00    -0.073 A 
ATOM      2  C3  UNL d   1       1.841   3.845   4.897  0.00  0.00    -0.002 A 
ATOM      3  C4  UNL d   1       3.029   3.147   5.120  0.00  0.00     0.004 A 
ATOM      4  C5  UNL d   1       4.198   3.836   5.445  0.00  0.00    -0.004 A 
ATOM      5  C6  UNL d   1       4.186   5.230   5.557  0.00  0.00    -0.075 A 
ATOM      6  C7  UNL d   1       5.435   5.986   5.904  0.00  0.00     0.076 C 
ATOM      7  C8  UNL d   1       2.990   5.924   5.329  0.00  0.00     0.001 A 
ENDROOT
BRANCH   1   8
ATOM      8  C1  UNL d   1       0.531   5.998   4.760  0.00  0.00     0.053 C 
ATOM      9  C   UNL d   1      -0.387   5.949   5.970  0.00  0.00     0.018 C 
ENDBRANCH   1   8
TORSDOF 1
ENDMDL
