MODEL 1
REMARK minimizedAffinity 4.72927475
REMARK minimizedRMSD -1
REMARK  1 active torsions:
REMARK  status: ('A' for Active; 'I' for Inactive)
REMARK    1  A    between atoms: C1_2  and  C2_3 
ROOT
ATOM      1  C2  UNL d   1      -0.849   4.051   3.573  0.00  0.00    -0.073 A 
ATOM      2  C3  UNL d   1      -1.823   4.099   4.577  0.00  0.00    -0.002 A 
ATOM      3  C4  UNL d   1      -1.561   4.751   5.783  0.00  0.00     0.004 A 
ATOM      4  C5  UNL d   1      -0.327   5.365   5.995  0.00  0.00    -0.004 A 
ATOM      5  C6  UNL d   1       0.655   5.339   4.999  0.00  0.00    -0.075 A 
ATOM      6  C7  UNL d   1       1.988   5.993   5.212  0.00  0.00     0.076 C 
ATOM      7  C8  UNL d   1       0.385   4.680   3.792  0.00  0.00     0.001 A 
ENDROOT
BRANCH   1   8
ATOM      8  C1  UNL d   1      -1.131   3.355   2.267  0.00  0.00     0.053 C 
ATOM      9  C   UNL d   1      -0.017   2.394   1.882  0.00  0.00     0.018 C 
ENDBRANCH   1   8
TORSDOF 1
ENDMDL
