MODEL 1
REMARK minimizedAffinity 7.67269039
REMARK minimizedRMSD -1
REMARK  1 active torsions:
REMARK  status: ('A' for Active; 'I' for Inactive)
REMARK    1  A    between atoms: C1_2  and  C2_3 
ROOT
ATOM      1  C2  UNL d   1      -1.229   1.622   1.873  0.00  0.00    -0.081 A 
ATOM      2  C3  UNL d   1      -1.783   2.503   0.935  0.00  0.00     0.006 A 
ATOM      3  C4  UNL d   1      -1.159   2.708  -0.297  0.00  0.00     0.002 A 
ATOM      4  C5  UNL d   1       0.023   2.031  -0.616  0.00  0.00    -0.080 A 
ATOM      5  C6  UNL d   1       0.687   2.220  -1.948  0.00  0.00     0.076 C 
ATOM      6  C7  UNL d   1       0.586   1.165   0.328  0.00  0.00     0.002 A 
ATOM      7  C8  UNL d   1      -0.037   0.960   1.561  0.00  0.00     0.006 A 
ENDROOT
BRANCH   1   8
ATOM      8  C1  UNL d   1      -1.934   1.350   3.178  0.00  0.00     0.054 C 
ATOM      9  C   UNL d   1      -2.151  -0.142   3.388  0.00  0.00     0.018 C 
ENDBRANCH   1   8
TORSDOF 1
ENDMDL
