MODEL 1
REMARK minimizedAffinity -0.545204997
REMARK minimizedRMSD -1
REMARK  1 active torsions:
REMARK  status: ('A' for Active; 'I' for Inactive)
REMARK    1  A    between atoms: C1_2  and  C2_3 
ROOT
ATOM      1  C2  UNL d   1      -3.181   0.983   0.943  0.00  0.00    -0.081 A 
ATOM      2  C3  UNL d   1      -2.088   0.213   1.360  0.00  0.00     0.006 A 
ATOM      3  C4  UNL d   1      -1.120   0.758   2.207  0.00  0.00     0.002 A 
ATOM      4  C5  UNL d   1      -1.233   2.077   2.657  0.00  0.00    -0.080 A 
ATOM      5  C6  UNL d   1      -0.217   2.665   3.591  0.00  0.00     0.076 C 
ATOM      6  C7  UNL d   1      -2.315   2.852   2.227  0.00  0.00     0.002 A 
ATOM      7  C8  UNL d   1      -3.283   2.308   1.379  0.00  0.00     0.006 A 
ENDROOT
BRANCH   1   8
ATOM      8  C1  UNL d   1      -4.260   0.379   0.081  0.00  0.00     0.054 C 
ATOM      9  C   UNL d   1      -4.472  -1.092   0.410  0.00  0.00     0.018 C 
ENDBRANCH   1   8
TORSDOF 1
ENDMDL
