MODEL 1
REMARK minimizedAffinity 8.90364647
REMARK minimizedRMSD -1
REMARK  1 active torsions:
REMARK  status: ('A' for Active; 'I' for Inactive)
REMARK    1  A    between atoms: C1_2  and  C2_3 
ROOT
ATOM      1  C2  UNL d   1       0.220   1.344  -1.015  0.00  0.00    -0.081 A 
ATOM      2  C3  UNL d   1       0.247   1.147   0.371  0.00  0.00     0.006 A 
ATOM      3  C4  UNL d   1      -0.803   1.603   1.172  0.00  0.00     0.002 A 
ATOM      4  C5  UNL d   1      -1.899   2.257   0.599  0.00  0.00    -0.080 A 
ATOM      5  C6  UNL d   1      -3.047   2.726   1.444  0.00  0.00     0.076 C 
ATOM      6  C7  UNL d   1      -1.918   2.470  -0.783  0.00  0.00     0.002 A 
ATOM      7  C8  UNL d   1      -0.868   2.014  -1.584  0.00  0.00     0.006 A 
ENDROOT
BRANCH   1   8
ATOM      8  C1  UNL d   1       1.320   0.795  -1.888  0.00  0.00     0.054 C 
ATOM      9  C   UNL d   1       0.959  -0.579  -2.434  0.00  0.00     0.018 C 
ENDBRANCH   1   8
TORSDOF 1
ENDMDL
