MODEL 1
REMARK minimizedAffinity -0.73061651
REMARK minimizedRMSD -1
REMARK  1 active torsions:
REMARK  status: ('A' for Active; 'I' for Inactive)
REMARK    1  A    between atoms: C1_2  and  C2_3 
ROOT
ATOM      1  C2  UNL d   1      -1.018   1.228   1.356  0.00  0.00    -0.081 A 
ATOM      2  C3  UNL d   1      -0.228   0.304   2.052  0.00  0.00     0.006 A 
ATOM      3  C4  UNL d   1       0.894  -0.266   1.447  0.00  0.00     0.002 A 
ATOM      4  C5  UNL d   1       1.250   0.083   0.140  0.00  0.00    -0.080 A 
ATOM      5  C6  UNL d   1       2.470  -0.499  -0.511  0.00  0.00     0.076 C 
ATOM      6  C7  UNL d   1       0.452   0.993  -0.561  0.00  0.00     0.002 A 
ATOM      7  C8  UNL d   1      -0.671   1.563   0.043  0.00  0.00     0.006 A 
ENDROOT
BRANCH   1   8
ATOM      8  C1  UNL d   1      -2.191   1.893   2.029  0.00  0.00     0.054 C 
ATOM      9  C   UNL d   1      -2.774   2.998   1.159  0.00  0.00     0.018 C 
ENDBRANCH   1   8
TORSDOF 1
ENDMDL
