MODEL 1
REMARK minimizedAffinity 11.040905
REMARK minimizedRMSD -1
REMARK  1 active torsions:
REMARK  status: ('A' for Active; 'I' for Inactive)
REMARK    1  A    between atoms: C1_2  and  C2_3 
ROOT
ATOM      1  C2  UNL d   1       3.482  -2.630  -4.939  0.00  0.00    -0.081 A 
ATOM      2  C3  UNL d   1       2.993  -3.694  -4.171  0.00  0.00     0.006 A 
ATOM      3  C4  UNL d   1       3.808  -4.317  -3.223  0.00  0.00     0.002 A 
ATOM      4  C5  UNL d   1       5.122  -3.881  -3.021  0.00  0.00    -0.080 A 
ATOM      5  C6  UNL d   1       5.998  -4.521  -1.985  0.00  0.00     0.076 C 
ATOM      6  C7  UNL d   1       5.616  -2.829  -3.800  0.00  0.00     0.002 A 
ATOM      7  C8  UNL d   1       4.802  -2.207  -4.748  0.00  0.00     0.006 A 
ENDROOT
BRANCH   1   8
ATOM      8  C1  UNL d   1       2.584  -1.914  -5.916  0.00  0.00     0.054 C 
ATOM      9  C   UNL d   1       1.502  -1.123  -5.196  0.00  0.00     0.018 C 
ENDBRANCH   1   8
TORSDOF 1
ENDMDL
