MODEL 1
REMARK minimizedAffinity -0.309074074
REMARK minimizedRMSD -1
REMARK  1 active torsions:
REMARK  status: ('A' for Active; 'I' for Inactive)
REMARK    1  A    between atoms: C1_2  and  C2_3 
ROOT
ATOM      1  C2  UNL d   1       0.554   0.810   0.025  0.00  0.00    -0.081 A 
ATOM      2  C3  UNL d   1       0.149   0.638   1.355  0.00  0.00     0.006 A 
ATOM      3  C4  UNL d   1      -1.033   1.223   1.816  0.00  0.00     0.002 A 
ATOM      4  C5  UNL d   1      -1.833   1.982   0.955  0.00  0.00    -0.080 A 
ATOM      5  C6  UNL d   1      -3.119   2.590   1.430  0.00  0.00     0.076 C 
ATOM      6  C7  UNL d   1      -1.419   2.168  -0.368  0.00  0.00     0.002 A 
ATOM      7  C8  UNL d   1      -0.238   1.584  -0.830  0.00  0.00     0.006 A 
ENDROOT
BRANCH   1   8
ATOM      8  C1  UNL d   1       1.794   0.127  -0.493  0.00  0.00     0.054 C 
ATOM      9  C   UNL d   1       1.452  -1.172  -1.208  0.00  0.00     0.018 C 
ENDBRANCH   1   8
TORSDOF 1
ENDMDL
