MODEL 1
REMARK minimizedAffinity 0.414997756
REMARK minimizedRMSD -1
REMARK  1 active torsions:
REMARK  status: ('A' for Active; 'I' for Inactive)
REMARK    1  A    between atoms: C1_2  and  C2_3 
ROOT
ATOM      1  C2  UNL d   1      -0.667   1.981  -0.428  0.00  0.00    -0.081 A 
ATOM      2  C3  UNL d   1      -1.837   2.408   0.212  0.00  0.00     0.006 A 
ATOM      3  C4  UNL d   1      -2.186   1.897   1.464  0.00  0.00     0.002 A 
ATOM      4  C5  UNL d   1      -1.367   0.958   2.101  0.00  0.00    -0.080 A 
ATOM      5  C6  UNL d   1      -1.715   0.425   3.459  0.00  0.00     0.076 C 
ATOM      6  C7  UNL d   1      -0.207   0.519   1.454  0.00  0.00     0.002 A 
ATOM      7  C8  UNL d   1       0.141   1.028   0.201  0.00  0.00     0.006 A 
ENDROOT
BRANCH   1   8
ATOM      8  C1  UNL d   1      -0.255   2.578  -1.750  0.00  0.00     0.054 C 
ATOM      9  C   UNL d   1       1.170   2.185  -2.114  0.00  0.00     0.018 C 
ENDBRANCH   1   8
TORSDOF 1
ENDMDL
