MODEL 1
REMARK minimizedAffinity 8.667593
REMARK minimizedRMSD -1
REMARK  1 active torsions:
REMARK  status: ('A' for Active; 'I' for Inactive)
REMARK    1  A    between atoms: C1_2  and  C2_3 
ROOT
ATOM      1  C2  UNL d   1      -1.286   2.100   2.026  0.00  0.00    -0.081 A 
ATOM      2  C3  UNL d   1      -0.200   1.819   1.188  0.00  0.00     0.006 A 
ATOM      3  C4  UNL d   1      -0.305   2.004  -0.192  0.00  0.00     0.002 A 
ATOM      4  C5  UNL d   1      -1.493   2.481  -0.757  0.00  0.00    -0.080 A 
ATOM      5  C6  UNL d   1      -1.608   2.713  -2.234  0.00  0.00     0.076 C 
ATOM      6  C7  UNL d   1      -2.583   2.746   0.079  0.00  0.00     0.002 A 
ATOM      7  C8  UNL d   1      -2.479   2.560   1.459  0.00  0.00     0.006 A 
ENDROOT
BRANCH   1   8
ATOM      8  C1  UNL d   1      -1.155   1.963   3.522  0.00  0.00     0.054 C 
ATOM      9  C   UNL d   1      -0.029   2.834   4.061  0.00  0.00     0.018 C 
ENDBRANCH   1   8
TORSDOF 1
ENDMDL
