MODEL 1
REMARK minimizedAffinity 11.4401655
REMARK minimizedRMSD -1
REMARK  1 active torsions:
REMARK  status: ('A' for Active; 'I' for Inactive)
REMARK    1  A    between atoms: C1_2  and  C2_3 
ROOT
ATOM      1  C2  UNL d   1       5.830  -3.355   0.590  0.00  0.00    -0.081 A 
ATOM      2  C3  UNL d   1       5.959  -2.886  -0.723  0.00  0.00     0.006 A 
ATOM      3  C4  UNL d   1       5.742  -3.742  -1.805  0.00  0.00     0.002 A 
ATOM      4  C5  UNL d   1       5.384  -5.078  -1.593  0.00  0.00    -0.080 A 
ATOM      5  C6  UNL d   1       5.118  -5.999  -2.746  0.00  0.00     0.076 C 
ATOM      6  C7  UNL d   1       5.271  -5.551  -0.281  0.00  0.00     0.002 A 
ATOM      7  C8  UNL d   1       5.489  -4.696   0.801  0.00  0.00     0.006 A 
ENDROOT
BRANCH   1   8
ATOM      8  C1  UNL d   1       6.000  -2.418   1.759  0.00  0.00     0.054 C 
ATOM      9  C   UNL d   1       4.687  -1.735   2.117  0.00  0.00     0.018 C 
ENDBRANCH   1   8
TORSDOF 1
ENDMDL
