MODEL 1
REMARK minimizedAffinity 9.3269558
REMARK minimizedRMSD -1
REMARK  1 active torsions:
REMARK  status: ('A' for Active; 'I' for Inactive)
REMARK    1  A    between atoms: C1_2  and  C2_3 
ROOT
ATOM      1  C2  UNL d   1      -1.238   1.805  -0.601  0.00  0.00    -0.081 A 
ATOM      2  C3  UNL d   1      -1.968   0.941  -1.426  0.00  0.00     0.006 A 
ATOM      3  C4  UNL d   1      -1.322   0.187  -2.409  0.00  0.00     0.002 A 
ATOM      4  C5  UNL d   1       0.063   0.278  -2.577  0.00  0.00    -0.080 A 
ATOM      5  C6  UNL d   1       0.773  -0.549  -3.608  0.00  0.00     0.076 C 
ATOM      6  C7  UNL d   1       0.790   1.154  -1.764  0.00  0.00     0.002 A 
ATOM      7  C8  UNL d   1       0.145   1.909  -0.782  0.00  0.00     0.006 A 
ENDROOT
BRANCH   1   8
ATOM      8  C1  UNL d   1      -1.923   2.571   0.502  0.00  0.00     0.054 C 
ATOM      9  C   UNL d   1      -1.597   1.983   1.868  0.00  0.00     0.018 C 
ENDBRANCH   1   8
TORSDOF 1
ENDMDL
