MODEL 1
REMARK minimizedAffinity 6.48843718
REMARK minimizedRMSD -1
REMARK  1 active torsions:
REMARK  status: ('A' for Active; 'I' for Inactive)
REMARK    1  A    between atoms: C1_2  and  C2_3 
ROOT
ATOM      1  C2  UNL d   1       4.270  -3.844   1.282  0.00  0.00    -0.081 A 
ATOM      2  C3  UNL d   1       2.902  -3.742   1.002  0.00  0.00     0.006 A 
ATOM      3  C4  UNL d   1       2.362  -2.542   0.534  0.00  0.00     0.002 A 
ATOM      4  C5  UNL d   1       3.181  -1.427   0.331  0.00  0.00    -0.080 A 
ATOM      5  C6  UNL d   1       2.619  -0.141  -0.199  0.00  0.00     0.076 C 
ATOM      6  C7  UNL d   1       4.545  -1.522   0.628  0.00  0.00     0.002 A 
ATOM      7  C8  UNL d   1       5.085  -2.722   1.096  0.00  0.00     0.006 A 
ENDROOT
BRANCH   1   8
ATOM      8  C1  UNL d   1       4.867  -5.155   1.725  0.00  0.00     0.054 C 
ATOM      9  C   UNL d   1       3.851  -5.996   2.485  0.00  0.00     0.018 C 
ENDBRANCH   1   8
TORSDOF 1
ENDMDL
