MODEL 1
REMARK minimizedAffinity 2.65255952
REMARK minimizedRMSD -1
REMARK  1 active torsions:
REMARK  status: ('A' for Active; 'I' for Inactive)
REMARK    1  A    between atoms: C1_2  and  C2_3 
ROOT
ATOM      1  C2  UNL d   1       0.135   3.752  -0.160  0.00  0.00    -0.081 A 
ATOM      2  C3  UNL d   1      -0.488   2.759   0.605  0.00  0.00     0.006 A 
ATOM      3  C4  UNL d   1      -0.438   1.421   0.206  0.00  0.00     0.002 A 
ATOM      4  C5  UNL d   1       0.242   1.053  -0.960  0.00  0.00    -0.080 A 
ATOM      5  C6  UNL d   1       0.329  -0.383  -1.384  0.00  0.00     0.076 C 
ATOM      6  C7  UNL d   1       0.850   2.047  -1.734  0.00  0.00     0.002 A 
ATOM      7  C8  UNL d   1       0.800   3.385  -1.336  0.00  0.00     0.006 A 
ENDROOT
BRANCH   1   8
ATOM      8  C1  UNL d   1       0.138   5.187   0.302  0.00  0.00     0.054 C 
ATOM      9  C   UNL d   1       1.199   6.000  -0.426  0.00  0.00     0.018 C 
ENDBRANCH   1   8
TORSDOF 1
ENDMDL
