MODEL 1
REMARK minimizedAffinity -0.932155073
REMARK minimizedRMSD -1
REMARK  1 active torsions:
REMARK  status: ('A' for Active; 'I' for Inactive)
REMARK    1  A    between atoms: C1_2  and  C2_3 
ROOT
ATOM      1  C2  UNL d   1      -2.102   0.103   2.737  0.00  0.00    -0.081 A 
ATOM      2  C3  UNL d   1      -3.208   0.505   1.977  0.00  0.00     0.006 A 
ATOM      3  C4  UNL d   1      -3.098   1.563   1.072  0.00  0.00     0.002 A 
ATOM      4  C5  UNL d   1      -1.880   2.231   0.906  0.00  0.00    -0.080 A 
ATOM      5  C6  UNL d   1      -1.740   3.349  -0.084  0.00  0.00     0.076 C 
ATOM      6  C7  UNL d   1      -0.780   1.841   1.677  0.00  0.00     0.002 A 
ATOM      7  C8  UNL d   1      -0.889   0.783   2.582  0.00  0.00     0.006 A 
ENDROOT
BRANCH   1   8
ATOM      8  C1  UNL d   1      -2.200  -1.080   3.666  0.00  0.00     0.054 C 
ATOM      9  C   UNL d   1      -0.963  -1.961   3.573  0.00  0.00     0.018 C 
ENDBRANCH   1   8
TORSDOF 1
ENDMDL
