MODEL 1
REMARK minimizedAffinity 4.20124292
REMARK minimizedRMSD -1
REMARK  1 active torsions:
REMARK  status: ('A' for Active; 'I' for Inactive)
REMARK    1  A    between atoms: C1_2  and  C2_3 
ROOT
ATOM      1  C2  UNL d   1       4.709  -2.700   0.684  0.00  0.00    -0.081 A 
ATOM      2  C3  UNL d   1       3.498  -2.015   0.840  0.00  0.00     0.006 A 
ATOM      3  C4  UNL d   1       2.312  -2.716   1.070  0.00  0.00     0.002 A 
ATOM      4  C5  UNL d   1       2.318  -4.113   1.156  0.00  0.00    -0.080 A 
ATOM      5  C6  UNL d   1       1.057  -4.876   1.433  0.00  0.00     0.076 C 
ATOM      6  C7  UNL d   1       3.525  -4.798   0.982  0.00  0.00     0.002 A 
ATOM      7  C8  UNL d   1       4.711  -4.098   0.751  0.00  0.00     0.006 A 
ENDROOT
BRANCH   1   8
ATOM      8  C1  UNL d   1       6.000  -1.944   0.500  0.00  0.00     0.054 C 
ATOM      9  C   UNL d   1       5.999  -1.158  -0.803  0.00  0.00     0.018 C 
ENDBRANCH   1   8
TORSDOF 1
ENDMDL
