MODEL 1
REMARK minimizedAffinity 11.9407997
REMARK minimizedRMSD -1
REMARK  1 active torsions:
REMARK  status: ('A' for Active; 'I' for Inactive)
REMARK    1  A    between atoms: C1_2  and  C2_3 
ROOT
ATOM      1  C2  UNL d   1       0.042   1.071   2.998  0.00  0.00    -0.081 A 
ATOM      2  C3  UNL d   1      -1.285   0.633   3.081  0.00  0.00     0.006 A 
ATOM      3  C4  UNL d   1      -2.303   1.326   2.421  0.00  0.00     0.002 A 
ATOM      4  C5  UNL d   1      -2.009   2.464   1.662  0.00  0.00    -0.080 A 
ATOM      5  C6  UNL d   1      -3.087   3.200   0.924  0.00  0.00     0.076 C 
ATOM      6  C7  UNL d   1      -0.685   2.912   1.593  0.00  0.00     0.002 A 
ATOM      7  C8  UNL d   1       0.332   2.219   2.253  0.00  0.00     0.006 A 
ENDROOT
BRANCH   1   8
ATOM      8  C1  UNL d   1       1.150   0.288   3.655  0.00  0.00     0.054 C 
ATOM      9  C   UNL d   1       2.065  -0.352   2.620  0.00  0.00     0.018 C 
ENDBRANCH   1   8
TORSDOF 1
ENDMDL
