MODEL 1
REMARK minimizedAffinity 9.93202305
REMARK minimizedRMSD -1
REMARK  1 active torsions:
REMARK  status: ('A' for Active; 'I' for Inactive)
REMARK    1  A    between atoms: C1_2  and  C2_3 
ROOT
ATOM      1  C2  UNL d   1      -3.864  -2.588   4.442  0.00  0.00    -0.081 A 
ATOM      2  C3  UNL d   1      -5.264  -2.597   4.459  0.00  0.00     0.006 A 
ATOM      3  C4  UNL d   1      -5.959  -3.705   4.951  0.00  0.00     0.002 A 
ATOM      4  C5  UNL d   1      -5.266  -4.817   5.441  0.00  0.00    -0.080 A 
ATOM      5  C6  UNL d   1      -6.000  -6.000   6.000  0.00  0.00     0.076 C 
ATOM      6  C7  UNL d   1      -3.868  -4.815   5.409  0.00  0.00     0.002 A 
ATOM      7  C8  UNL d   1      -3.172  -3.708   4.916  0.00  0.00     0.006 A 
ENDROOT
BRANCH   1   8
ATOM      8  C1  UNL d   1      -3.111  -1.369   3.973  0.00  0.00     0.054 C 
ATOM      9  C   UNL d   1      -1.756  -1.746   3.392  0.00  0.00     0.018 C 
ENDBRANCH   1   8
TORSDOF 1
ENDMDL
