MODEL 1
REMARK minimizedAffinity 9.54954052
REMARK minimizedRMSD -1
REMARK  1 active torsions:
REMARK  status: ('A' for Active; 'I' for Inactive)
REMARK    1  A    between atoms: C1_2  and  C2_3 
ROOT
ATOM      1  C2  UNL d   1       0.115   0.880   2.816  0.00  0.00    -0.081 A 
ATOM      2  C3  UNL d   1      -1.180   0.359   2.710  0.00  0.00     0.006 A 
ATOM      3  C4  UNL d   1      -2.212   1.131   2.171  0.00  0.00     0.002 A 
ATOM      4  C5  UNL d   1      -1.965   2.432   1.722  0.00  0.00    -0.080 A 
ATOM      5  C6  UNL d   1      -3.057   3.261   1.113  0.00  0.00     0.076 C 
ATOM      6  C7  UNL d   1      -0.675   2.960   1.844  0.00  0.00     0.002 A 
ATOM      7  C8  UNL d   1       0.357   2.189   2.384  0.00  0.00     0.006 A 
ENDROOT
BRANCH   1   8
ATOM      8  C1  UNL d   1       1.244   0.028   3.338  0.00  0.00     0.054 C 
ATOM      9  C   UNL d   1       2.207  -0.356   2.224  0.00  0.00     0.018 C 
ENDBRANCH   1   8
TORSDOF 1
ENDMDL
