MODEL 1
REMARK minimizedAffinity 8.10241127
REMARK minimizedRMSD -1
REMARK  0 active torsions:
REMARK  status: ('A' for Active; 'I' for Inactive)
ROOT
ATOM      1  C4' PXY d   1      -6.000   5.213  -1.589  0.00  0.00     0.077 C 
ATOM      2  C1' PXY d   1      -2.264   0.878  -2.406  0.00  0.00     0.077 C 
ATOM      3  C1  PXY d   1      -3.247   2.010  -2.180  0.00  0.00    -0.082 A 
ATOM      4  C2  PXY d   1      -3.735   2.670  -3.218  0.00  0.00     0.003 A 
ATOM      5  C3  PXY d   1      -4.600   3.717  -3.030  0.00  0.00     0.003 A 
ATOM      6  C4  PXY d   1      -5.012   4.057  -1.770  0.00  0.00    -0.082 A 
ATOM      7  C5  PXY d   1      -4.527   3.382  -0.706  0.00  0.00     0.003 A 
ATOM      8  C6  PXY d   1      -3.618   2.350  -0.916  0.00  0.00     0.003 A 
ENDROOT
TORSDOF 0
ENDMDL
