MODEL 1
REMARK minimizedAffinity 8.58402538
REMARK minimizedRMSD -1
REMARK  0 active torsions:
REMARK  status: ('A' for Active; 'I' for Inactive)
ROOT
ATOM      1  C4' PXY d   1       0.238  -2.296   5.380  0.00  0.00     0.077 C 
ATOM      2  C1' PXY d   1       2.024  -5.595   0.982  0.00  0.00     0.077 C 
ATOM      3  C1  PXY d   1       1.550  -4.740   2.140  0.00  0.00    -0.082 A 
ATOM      4  C2  PXY d   1       1.465  -3.428   1.993  0.00  0.00     0.003 A 
ATOM      5  C3  PXY d   1       1.068  -2.637   3.041  0.00  0.00     0.003 A 
ATOM      6  C4  PXY d   1       0.703  -3.199   4.234  0.00  0.00    -0.082 A 
ATOM      7  C5  PXY d   1       0.776  -4.538   4.389  0.00  0.00     0.003 A 
ATOM      8  C6  PXY d   1       1.221  -5.320   3.327  0.00  0.00     0.003 A 
ENDROOT
TORSDOF 0
ENDMDL
