MODEL 1
REMARK minimizedAffinity 16.9523277
REMARK minimizedRMSD -1
REMARK  0 active torsions:
REMARK  status: ('A' for Active; 'I' for Inactive)
ROOT
ATOM      1  C4' PXY d   1      -0.074  -2.577   4.163  0.00  0.00     0.077 C 
ATOM      2  C1' PXY d   1       3.145  -0.266  -0.045  0.00  0.00     0.077 C 
ATOM      3  C1  PXY d   1       2.299  -0.860   1.064  0.00  0.00    -0.082 A 
ATOM      4  C2  PXY d   1       2.461  -2.129   1.402  0.00  0.00     0.003 A 
ATOM      5  C3  PXY d   1       1.683  -2.691   2.380  0.00  0.00     0.003 A 
ATOM      6  C4  PXY d   1       0.765  -1.932   3.056  0.00  0.00    -0.082 A 
ATOM      7  C5  PXY d   1       0.601  -0.634   2.725  0.00  0.00     0.003 A 
ATOM      8  C6  PXY d   1       1.373  -0.094   1.700  0.00  0.00     0.003 A 
ENDROOT
TORSDOF 0
ENDMDL
