MODEL 1
REMARK minimizedAffinity 5.63894701
REMARK minimizedRMSD -1
REMARK  0 active torsions:
REMARK  status: ('A' for Active; 'I' for Inactive)
ROOT
ATOM      1  C4' PXY d   1       2.550  -0.863   0.568  0.00  0.00     0.077 C 
ATOM      2  C1' PXY d   1       0.003  -1.865   5.659  0.00  0.00     0.077 C 
ATOM      3  C1  PXY d   1       0.682  -1.608   4.328  0.00  0.00    -0.082 A 
ATOM      4  C2  PXY d   1       0.258  -0.619   3.558  0.00  0.00     0.003 A 
ATOM      5  C3  PXY d   1       0.840  -0.392   2.338  0.00  0.00     0.003 A 
ATOM      6  C4  PXY d   1       1.901  -1.153   1.924  0.00  0.00    -0.082 A 
ATOM      7  C5  PXY d   1       2.345  -2.157   2.708  0.00  0.00     0.003 A 
ATOM      8  C6  PXY d   1       1.715  -2.397   3.926  0.00  0.00     0.003 A 
ENDROOT
TORSDOF 0
ENDMDL
