MODEL 1
REMARK minimizedAffinity 12.5047474
REMARK minimizedRMSD -1
REMARK  0 active torsions:
REMARK  status: ('A' for Active; 'I' for Inactive)
ROOT
ATOM      1  C4' PXY d   1      -3.325   0.825  -2.627  0.00  0.00     0.077 C 
ATOM      2  C1' PXY d   1      -6.000   5.321  -0.168  0.00  0.00     0.077 C 
ATOM      3  C1  PXY d   1      -5.288   4.149  -0.814  0.00  0.00    -0.082 A 
ATOM      4  C2  PXY d   1      -5.994   3.203  -1.411  0.00  0.00     0.003 A 
ATOM      5  C3  PXY d   1      -5.368   2.120  -1.973  0.00  0.00     0.003 A 
ATOM      6  C4  PXY d   1      -4.001   2.031  -1.970  0.00  0.00    -0.082 A 
ATOM      7  C5  PXY d   1      -3.273   2.998  -1.372  0.00  0.00     0.003 A 
ATOM      8  C6  PXY d   1      -3.930   4.068  -0.772  0.00  0.00     0.003 A 
ENDROOT
TORSDOF 0
ENDMDL
