MODEL 1
REMARK minimizedAffinity 12.5193386
REMARK minimizedRMSD -1
REMARK  0 active torsions:
REMARK  status: ('A' for Active; 'I' for Inactive)
ROOT
ATOM      1  C4' PXY d   1       2.669   1.610   1.127  0.00  0.00     0.077 C 
ATOM      2  C1' PXY d   1       0.337   5.882  -1.993  0.00  0.00     0.077 C 
ATOM      3  C1  PXY d   1       0.957   4.759  -1.185  0.00  0.00    -0.082 A 
ATOM      4  C2  PXY d   1       0.272   4.212  -0.193  0.00  0.00     0.003 A 
ATOM      5  C3  PXY d   1       0.829   3.217   0.568  0.00  0.00     0.003 A 
ATOM      6  C4  PXY d   1       2.080   2.740   0.278  0.00  0.00    -0.082 A 
ATOM      7  C5  PXY d   1       2.780   3.286  -0.738  0.00  0.00     0.003 A 
ATOM      8  C6  PXY d   1       2.213   4.323  -1.473  0.00  0.00     0.003 A 
ENDROOT
TORSDOF 0
ENDMDL
