MODEL 1
REMARK minimizedAffinity 1.3228178
REMARK minimizedRMSD -1
REMARK  0 active torsions:
REMARK  status: ('A' for Active; 'I' for Inactive)
ROOT
ATOM      1  C4' PXY d   1       6.000   5.819  -6.000  0.00  0.00     0.077 C 
ATOM      2  C1' PXY d   1       2.400   4.879  -1.576  0.00  0.00     0.077 C 
ATOM      3  C1  PXY d   1       3.349   5.135  -2.729  0.00  0.00    -0.082 A 
ATOM      4  C2  PXY d   1       3.017   4.745  -3.949  0.00  0.00     0.003 A 
ATOM      5  C3  PXY d   1       3.878   4.941  -4.998  0.00  0.00     0.003 A 
ATOM      6  C4  PXY d   1       5.068   5.589  -4.806  0.00  0.00    -0.082 A 
ATOM      7  C5  PXY d   1       5.410   6.000  -3.567  0.00  0.00     0.003 A 
ATOM      8  C6  PXY d   1       4.540   5.755  -2.508  0.00  0.00     0.003 A 
ENDROOT
TORSDOF 0
ENDMDL
