MODEL 1
REMARK minimizedAffinity 1.33038461
REMARK minimizedRMSD -1
REMARK  0 active torsions:
REMARK  status: ('A' for Active; 'I' for Inactive)
ROOT
ATOM      1  C4' PXY d   1       2.607   2.423   3.716  0.00  0.00     0.077 C 
ATOM      2  C1' PXY d   1       0.540  -2.865   2.631  0.00  0.00     0.077 C 
ATOM      3  C1  PXY d   1       1.090  -1.480   2.906  0.00  0.00    -0.082 A 
ATOM      4  C2  PXY d   1       0.941  -0.943   4.106  0.00  0.00     0.003 A 
ATOM      5  C3  PXY d   1       1.405   0.322   4.362  0.00  0.00     0.003 A 
ATOM      6  C4  PXY d   1       2.075   1.023   3.396  0.00  0.00    -0.082 A 
ATOM      7  C5  PXY d   1       2.241   0.478   2.172  0.00  0.00     0.003 A 
ATOM      8  C6  PXY d   1       1.726  -0.791   1.920  0.00  0.00     0.003 A 
ENDROOT
TORSDOF 0
ENDMDL
