MODEL 1
REMARK minimizedAffinity 7.4307375
REMARK minimizedRMSD -1
REMARK  0 active torsions:
REMARK  status: ('A' for Active; 'I' for Inactive)
ROOT
ATOM      1  C4' PXY d   1       2.475   0.217   1.177  0.00  0.00     0.077 C 
ATOM      2  C1' PXY d   1       0.354  -3.426   5.132  0.00  0.00     0.077 C 
ATOM      3  C1  PXY d   1       0.915  -2.480   4.088  0.00  0.00    -0.082 A 
ATOM      4  C2  PXY d   1       1.178  -1.226   4.415  0.00  0.00     0.003 A 
ATOM      5  C3  PXY d   1       1.656  -0.349   3.475  0.00  0.00     0.003 A 
ATOM      6  C4  PXY d   1       1.917  -0.775   2.201  0.00  0.00    -0.082 A 
ATOM      7  C5  PXY d   1       1.661  -2.056   1.861  0.00  0.00     0.003 A 
ATOM      8  C6  PXY d   1       1.137  -2.919   2.819  0.00  0.00     0.003 A 
ENDROOT
TORSDOF 0
ENDMDL
