MODEL 1
REMARK minimizedAffinity 0.269285649
REMARK minimizedRMSD -1
REMARK  0 active torsions:
REMARK  status: ('A' for Active; 'I' for Inactive)
ROOT
ATOM      1  C4' PXY d   1       2.988   4.242  -1.341  0.00  0.00     0.077 C 
ATOM      2  C1' PXY d   1       6.000   5.997  -5.952  0.00  0.00     0.077 C 
ATOM      3  C1  PXY d   1       5.220   5.540  -4.735  0.00  0.00    -0.082 A 
ATOM      4  C2  PXY d   1       4.203   4.707  -4.885  0.00  0.00     0.003 A 
ATOM      5  C3  PXY d   1       3.467   4.308  -3.799  0.00  0.00     0.003 A 
ATOM      6  C4  PXY d   1       3.810   4.723  -2.540  0.00  0.00    -0.082 A 
ATOM      7  C5  PXY d   1       4.853   5.565  -2.378  0.00  0.00     0.003 A 
ATOM      8  C6  PXY d   1       5.561   5.990  -3.498  0.00  0.00     0.003 A 
ENDROOT
TORSDOF 0
ENDMDL
