MODEL 1
REMARK minimizedAffinity 8.65940952
REMARK minimizedRMSD -1
REMARK  0 active torsions:
REMARK  status: ('A' for Active; 'I' for Inactive)
ROOT
ATOM      1  C4' PXY d   1       2.796   3.558  -1.459  0.00  0.00     0.077 C 
ATOM      2  C1' PXY d   1       3.290  -1.305   1.628  0.00  0.00     0.077 C 
ATOM      3  C1  PXY d   1       3.170  -0.034   0.810  0.00  0.00    -0.082 A 
ATOM      4  C2  PXY d   1       2.706   1.068   1.378  0.00  0.00     0.003 A 
ATOM      5  C3  PXY d   1       2.561   2.217   0.645  0.00  0.00     0.003 A 
ATOM      6  C4  PXY d   1       2.944   2.254  -0.670  0.00  0.00    -0.082 A 
ATOM      7  C5  PXY d   1       3.427   1.137  -1.253  0.00  0.00     0.003 A 
ATOM      8  C6  PXY d   1       3.529  -0.031  -0.502  0.00  0.00     0.003 A 
ENDROOT
TORSDOF 0
ENDMDL
