MODEL 1
REMARK minimizedAffinity 14.4842224
REMARK minimizedRMSD -1
REMARK  0 active torsions:
REMARK  status: ('A' for Active; 'I' for Inactive)
ROOT
ATOM      1  C4' PXY d   1      -4.830   2.409  -3.114  0.00  0.00     0.077 C 
ATOM      2  C1' PXY d   1      -4.921   3.134   2.621  0.00  0.00     0.077 C 
ATOM      3  C1  PXY d   1      -4.885   2.947   1.117  0.00  0.00    -0.082 A 
ATOM      4  C2  PXY d   1      -5.996   3.086   0.413  0.00  0.00     0.003 A 
ATOM      5  C3  PXY d   1      -5.987   2.888  -0.944  0.00  0.00     0.003 A 
ATOM      6  C4  PXY d   1      -4.818   2.598  -1.594  0.00  0.00    -0.082 A 
ATOM      7  C5  PXY d   1      -3.677   2.466  -0.884  0.00  0.00     0.003 A 
ATOM      8  C6  PXY d   1      -3.716   2.629   0.497  0.00  0.00     0.003 A 
ENDROOT
TORSDOF 0
ENDMDL
