MODEL 1
REMARK minimizedAffinity -3.70270133
REMARK minimizedRMSD -1
REMARK  0 active torsions:
REMARK  status: ('A' for Active; 'I' for Inactive)
ROOT
ATOM      1  C2' OXE d   1      -0.774  -0.402   1.155  0.00  0.00     0.078 C 
ATOM      2  C1' OXE d   1       0.139  -2.352  -0.646  0.00  0.00     0.078 C 
ATOM      3  C1  OXE d   1       0.519  -0.917  -0.911  0.00  0.00    -0.078 A 
ATOM      4  C2  OXE d   1       0.029   0.036  -0.050  0.00  0.00    -0.078 A 
ATOM      5  C3  OXE d   1       0.394   1.369  -0.217  0.00  0.00     0.003 A 
ATOM      6  C4  OXE d   1       1.129   1.767  -1.340  0.00  0.00    -0.002 A 
ATOM      7  C5  OXE d   1       1.604   0.817  -2.251  0.00  0.00    -0.002 A 
ATOM      8  C6  OXE d   1       1.345  -0.530  -2.028  0.00  0.00     0.003 A 
ENDROOT
TORSDOF 0
ENDMDL
