MODEL 1
REMARK minimizedAffinity -5.49044514
REMARK minimizedRMSD -1
REMARK  0 active torsions:
REMARK  status: ('A' for Active; 'I' for Inactive)
ROOT
ATOM      1  C2' OXE d   1      -0.482  -0.809   0.596  0.00  0.00     0.078 C 
ATOM      2  C1' OXE d   1       0.302   1.548  -0.711  0.00  0.00     0.078 C 
ATOM      3  C1  OXE d   1       0.860   0.243  -1.220  0.00  0.00    -0.078 A 
ATOM      4  C2  OXE d   1       0.508  -0.901  -0.545  0.00  0.00    -0.078 A 
ATOM      5  C3  OXE d   1       0.951  -2.138  -1.006  0.00  0.00     0.003 A 
ATOM      6  C4  OXE d   1       1.874  -2.213  -2.056  0.00  0.00    -0.002 A 
ATOM      7  C5  OXE d   1       2.277  -1.056  -2.732  0.00  0.00    -0.002 A 
ATOM      8  C6  OXE d   1       1.748   0.173  -2.355  0.00  0.00     0.003 A 
ENDROOT
TORSDOF 0
ENDMDL
