MODEL 1
REMARK minimizedAffinity -3.56669021
REMARK minimizedRMSD -1
REMARK  0 active torsions:
REMARK  status: ('A' for Active; 'I' for Inactive)
ROOT
ATOM      1  C2' OXE d   1      -0.534  -0.055   0.776  0.00  0.00     0.078 C 
ATOM      2  C1' OXE d   1       1.163   2.100   0.176  0.00  0.00     0.078 C 
ATOM      3  C1  OXE d   1       1.256   0.869  -0.690  0.00  0.00    -0.078 A 
ATOM      4  C2  OXE d   1       0.455  -0.198  -0.361  0.00  0.00    -0.078 A 
ATOM      5  C3  OXE d   1       0.462  -1.338  -1.160  0.00  0.00     0.003 A 
ATOM      6  C4  OXE d   1       1.387  -1.466  -2.204  0.00  0.00    -0.002 A 
ATOM      7  C5  OXE d   1       2.239  -0.407  -2.531  0.00  0.00    -0.002 A 
ATOM      8  C6  OXE d   1       2.157   0.781  -1.813  0.00  0.00     0.003 A 
ENDROOT
TORSDOF 0
ENDMDL
