MODEL 1
REMARK minimizedAffinity -4.29088259
REMARK minimizedRMSD -1
REMARK  0 active torsions:
REMARK  status: ('A' for Active; 'I' for Inactive)
ROOT
ATOM      1  C2' OXE d   1       0.703   1.555  -0.529  0.00  0.00     0.078 C 
ATOM      2  C1' OXE d   1      -0.512  -0.661   0.693  0.00  0.00     0.078 C 
ATOM      3  C1  OXE d   1       0.451  -0.922  -0.439  0.00  0.00    -0.078 A 
ATOM      4  C2  OXE d   1       1.005   0.171  -1.062  0.00  0.00    -0.078 A 
ATOM      5  C3  OXE d   1       1.940  -0.015  -2.076  0.00  0.00     0.003 A 
ATOM      6  C4  OXE d   1       2.206  -1.298  -2.569  0.00  0.00    -0.002 A 
ATOM      7  C5  OXE d   1       1.622  -2.422  -1.976  0.00  0.00    -0.002 A 
ATOM      8  C6  OXE d   1       0.777  -2.254  -0.884  0.00  0.00     0.003 A 
ENDROOT
TORSDOF 0
ENDMDL
