MODEL 1
REMARK minimizedAffinity -4.8139658
REMARK minimizedRMSD -1
REMARK  0 active torsions:
REMARK  status: ('A' for Active; 'I' for Inactive)
ROOT
ATOM      1  C2' OXE d   1       0.670  -2.118  -0.710  0.00  0.00     0.078 C 
ATOM      2  C1' OXE d   1       1.825  -0.163  -2.359  0.00  0.00     0.078 C 
ATOM      3  C1  OXE d   1       0.651   0.243  -1.504  0.00  0.00    -0.078 A 
ATOM      4  C2  OXE d   1       0.063  -0.732  -0.735  0.00  0.00    -0.078 A 
ATOM      5  C3  OXE d   1      -0.989  -0.399   0.115  0.00  0.00     0.003 A 
ATOM      6  C4  OXE d   1      -1.550   0.883   0.078  0.00  0.00    -0.002 A 
ATOM      7  C5  OXE d   1      -0.991   1.881  -0.728  0.00  0.00    -0.002 A 
ATOM      8  C6  OXE d   1       0.134   1.589  -1.491  0.00  0.00     0.003 A 
ENDROOT
TORSDOF 0
ENDMDL
