MODEL 1
REMARK minimizedAffinity 5.54209185
REMARK minimizedRMSD -1
REMARK  0 active torsions:
REMARK  status: ('A' for Active; 'I' for Inactive)
ROOT
ATOM      1  C2' OXE d   1      -3.212   1.113   5.946  0.00  0.00     0.078 C 
ATOM      2  C1' OXE d   1      -3.127   1.080   3.140  0.00  0.00     0.078 C 
ATOM      3  C1  OXE d   1      -1.881   0.672   3.887  0.00  0.00    -0.078 A 
ATOM      4  C2  OXE d   1      -1.917   0.736   5.259  0.00  0.00    -0.078 A 
ATOM      5  C3  OXE d   1      -0.814   0.319   5.998  0.00  0.00     0.003 A 
ATOM      6  C4  OXE d   1       0.383  -0.019   5.354  0.00  0.00    -0.002 A 
ATOM      7  C5  OXE d   1       0.454  -0.052   3.958  0.00  0.00    -0.002 A 
ATOM      8  C6  OXE d   1      -0.680   0.248   3.211  0.00  0.00     0.003 A 
ENDROOT
TORSDOF 0
ENDMDL
