MODEL 1
REMARK minimizedAffinity -4.32076454
REMARK minimizedRMSD -1
REMARK  0 active torsions:
REMARK  status: ('A' for Active; 'I' for Inactive)
ROOT
ATOM      1  C2' OXE d   1       0.832   2.662   0.035  0.00  0.00     0.078 C 
ATOM      2  C1' OXE d   1      -0.353   0.394   1.189  0.00  0.00     0.078 C 
ATOM      3  C1  OXE d   1       0.484   0.197  -0.050  0.00  0.00    -0.078 A 
ATOM      4  C2  OXE d   1       1.021   1.318  -0.635  0.00  0.00    -0.078 A 
ATOM      5  C3  OXE d   1       1.846   1.187  -1.749  0.00  0.00     0.003 A 
ATOM      6  C4  OXE d   1       2.007  -0.058  -2.369  0.00  0.00    -0.002 A 
ATOM      7  C5  OXE d   1       1.435  -1.207  -1.812  0.00  0.00    -0.002 A 
ATOM      8  C6  OXE d   1       0.708  -1.103  -0.632  0.00  0.00     0.003 A 
ENDROOT
TORSDOF 0
ENDMDL
