MODEL 1
REMARK minimizedAffinity -5.95604753
REMARK minimizedRMSD -1
REMARK  0 active torsions:
REMARK  status: ('A' for Active; 'I' for Inactive)
ROOT
ATOM      1  C2' OXE d   1      -0.160  -0.662   0.769  0.00  0.00     0.078 C 
ATOM      2  C1' OXE d   1       1.048  -2.875  -0.465  0.00  0.00     0.078 C 
ATOM      3  C1  OXE d   1       1.182  -1.533  -1.140  0.00  0.00    -0.078 A 
ATOM      4  C2  OXE d   1       0.548  -0.464  -0.554  0.00  0.00    -0.078 A 
ATOM      5  C3  OXE d   1       0.685   0.806  -1.106  0.00  0.00     0.003 A 
ATOM      6  C4  OXE d   1       1.333   0.979  -2.335  0.00  0.00    -0.002 A 
ATOM      7  C5  OXE d   1       1.952  -0.103  -2.969  0.00  0.00    -0.002 A 
ATOM      8  C6  OXE d   1       1.922  -1.355  -2.365  0.00  0.00     0.003 A 
ENDROOT
TORSDOF 0
ENDMDL
