MODEL 1
REMARK minimizedAffinity -1.03461266
REMARK minimizedRMSD -1
REMARK  0 active torsions:
REMARK  status: ('A' for Active; 'I' for Inactive)
ROOT
ATOM      1  C2' OXE d   1      -0.596  -0.251   1.289  0.00  0.00     0.078 C 
ATOM      2  C1' OXE d   1       0.454  -2.454  -0.097  0.00  0.00     0.078 C 
ATOM      3  C1  OXE d   1       0.591  -1.093  -0.732  0.00  0.00    -0.078 A 
ATOM      4  C2  OXE d   1       0.033  -0.027  -0.069  0.00  0.00    -0.078 A 
ATOM      5  C3  OXE d   1       0.178   1.258  -0.584  0.00  0.00     0.003 A 
ATOM      6  C4  OXE d   1       0.752   1.455  -1.846  0.00  0.00    -0.002 A 
ATOM      7  C5  OXE d   1       1.291   0.377  -2.557  0.00  0.00    -0.002 A 
ATOM      8  C6  OXE d   1       1.257  -0.895  -1.996  0.00  0.00     0.003 A 
ENDROOT
TORSDOF 0
ENDMDL
