MODEL 1
REMARK minimizedAffinity -5.00726271
REMARK minimizedRMSD -1
REMARK  0 active torsions:
REMARK  status: ('A' for Active; 'I' for Inactive)
ROOT
ATOM      1  C2' OXE d   1      -2.232   0.090   2.996  0.00  0.00     0.078 C 
ATOM      2  C1' OXE d   1      -3.831   1.310   1.038  0.00  0.00     0.078 C 
ATOM      3  C1  OXE d   1      -2.420   0.935   0.660  0.00  0.00    -0.078 A 
ATOM      4  C2  OXE d   1      -1.629   0.381   1.638  0.00  0.00    -0.078 A 
ATOM      5  C3  OXE d   1      -0.337  -0.033   1.328  0.00  0.00     0.003 A 
ATOM      6  C4  OXE d   1       0.215   0.249   0.073  0.00  0.00    -0.002 A 
ATOM      7  C5  OXE d   1      -0.560   0.849  -0.926  0.00  0.00    -0.002 A 
ATOM      8  C6  OXE d   1      -1.889   1.159  -0.662  0.00  0.00     0.003 A 
ENDROOT
TORSDOF 0
ENDMDL
