MODEL 1
REMARK minimizedAffinity -4.84629345
REMARK minimizedRMSD -1
REMARK  0 active torsions:
REMARK  status: ('A' for Active; 'I' for Inactive)
ROOT
ATOM      1  C2' OXE d   1       0.006  -1.448   2.027  0.00  0.00     0.078 C 
ATOM      2  C1' OXE d   1      -2.219   0.247   1.791  0.00  0.00     0.078 C 
ATOM      3  C1  OXE d   1      -1.173   0.303   0.705  0.00  0.00    -0.078 A 
ATOM      4  C2  OXE d   1      -0.065  -0.496   0.853  0.00  0.00    -0.078 A 
ATOM      5  C3  OXE d   1       0.903  -0.523  -0.147  0.00  0.00     0.003 A 
ATOM      6  C4  OXE d   1       0.835   0.368  -1.225  0.00  0.00    -0.002 A 
ATOM      7  C5  OXE d   1      -0.266   1.218  -1.374  0.00  0.00    -0.002 A 
ATOM      8  C6  OXE d   1      -1.297   1.168  -0.442  0.00  0.00     0.003 A 
ENDROOT
TORSDOF 0
ENDMDL
