MODEL 1
REMARK minimizedAffinity -3.41982555
REMARK minimizedRMSD -1
REMARK  0 active torsions:
REMARK  status: ('A' for Active; 'I' for Inactive)
ROOT
ATOM      1  C2' OXE d   1      -0.355   1.561   1.700  0.00  0.00     0.078 C 
ATOM      2  C1' OXE d   1      -1.977  -0.367   0.462  0.00  0.00     0.078 C 
ATOM      3  C1  OXE d   1      -0.592  -0.150  -0.095  0.00  0.00    -0.078 A 
ATOM      4  C2  OXE d   1       0.178   0.828   0.488  0.00  0.00    -0.078 A 
ATOM      5  C3  OXE d   1       1.482   1.032   0.048  0.00  0.00     0.003 A 
ATOM      6  C4  OXE d   1       1.963   0.357  -1.081  0.00  0.00    -0.002 A 
ATOM      7  C5  OXE d   1       1.181  -0.614  -1.714  0.00  0.00    -0.002 A 
ATOM      8  C6  OXE d   1      -0.080  -0.909  -1.209  0.00  0.00     0.003 A 
ENDROOT
TORSDOF 0
ENDMDL
