MODEL 1
REMARK minimizedAffinity -4.53222036
REMARK minimizedRMSD -1
REMARK  0 active torsions:
REMARK  status: ('A' for Active; 'I' for Inactive)
ROOT
ATOM      1  C2' OXE d   1       1.113   2.097   0.737  0.00  0.00     0.078 C 
ATOM      2  C1' OXE d   1      -0.963   0.207   0.793  0.00  0.00     0.078 C 
ATOM      3  C1  OXE d   1       0.094   0.060  -0.273  0.00  0.00    -0.078 A 
ATOM      4  C2  OXE d   1       1.080   1.016  -0.322  0.00  0.00    -0.078 A 
ATOM      5  C3  OXE d   1       2.110   0.897  -1.251  0.00  0.00     0.003 A 
ATOM      6  C4  OXE d   1       2.067  -0.100  -2.233  0.00  0.00    -0.002 A 
ATOM      7  C5  OXE d   1       1.050  -1.060  -2.226  0.00  0.00    -0.002 A 
ATOM      8  C6  OXE d   1       0.081  -1.020  -1.229  0.00  0.00     0.003 A 
ENDROOT
TORSDOF 0
ENDMDL
