MODEL 1
REMARK minimizedAffinity -0.047574494
REMARK minimizedRMSD -1
REMARK  0 active torsions:
REMARK  status: ('A' for Active; 'I' for Inactive)
ROOT
ATOM      1  C2' OXE d   1       1.204   2.204   0.082  0.00  0.00     0.078 C 
ATOM      2  C1' OXE d   1       2.433   0.628  -1.889  0.00  0.00     0.078 C 
ATOM      3  C1  OXE d   1       1.463  -0.048  -0.952  0.00  0.00    -0.078 A 
ATOM      4  C2  OXE d   1       0.902   0.721   0.039  0.00  0.00    -0.078 A 
ATOM      5  C3  OXE d   1      -0.040   0.161   0.897  0.00  0.00     0.003 A 
ATOM      6  C4  OXE d   1      -0.306  -1.213   0.857  0.00  0.00    -0.002 A 
ATOM      7  C5  OXE d   1       0.285  -2.023  -0.119  0.00  0.00    -0.002 A 
ATOM      8  C6  OXE d   1       1.137  -1.449  -1.056  0.00  0.00     0.003 A 
ENDROOT
TORSDOF 0
ENDMDL
