MODEL 1
REMARK minimizedAffinity -4.22400379
REMARK minimizedRMSD -1
REMARK  0 active torsions:
REMARK  status: ('A' for Active; 'I' for Inactive)
ROOT
ATOM      1  C2' OXE d   1       0.626  -2.262  -1.108  0.00  0.00     0.078 C 
ATOM      2  C1' OXE d   1       1.790  -0.093  -2.457  0.00  0.00     0.078 C 
ATOM      3  C1  OXE d   1       1.189   0.164  -1.098  0.00  0.00    -0.078 A 
ATOM      4  C2  OXE d   1       0.580  -0.893  -0.465  0.00  0.00    -0.078 A 
ATOM      5  C3  OXE d   1       0.058  -0.723   0.814  0.00  0.00     0.003 A 
ATOM      6  C4  OXE d   1       0.011   0.549   1.397  0.00  0.00    -0.002 A 
ATOM      7  C5  OXE d   1       0.591   1.647   0.753  0.00  0.00    -0.002 A 
ATOM      8  C6  OXE d   1       1.220   1.464  -0.474  0.00  0.00     0.003 A 
ENDROOT
TORSDOF 0
ENDMDL
