MODEL 1
REMARK minimizedAffinity -2.41800213
REMARK minimizedRMSD -1
REMARK  0 active torsions:
REMARK  status: ('A' for Active; 'I' for Inactive)
ROOT
ATOM      1  C2' OXE d   1      -1.002   0.053   1.039  0.00  0.00     0.078 C 
ATOM      2  C1' OXE d   1       0.273  -2.244   0.050  0.00  0.00     0.078 C 
ATOM      3  C1  OXE d   1       0.750  -0.904  -0.451  0.00  0.00    -0.078 A 
ATOM      4  C2  OXE d   1       0.089   0.212   0.003  0.00  0.00    -0.078 A 
ATOM      5  C3  OXE d   1       0.524   1.476  -0.385  0.00  0.00     0.003 A 
ATOM      6  C4  OXE d   1       1.528   1.614  -1.352  0.00  0.00    -0.002 A 
ATOM      7  C5  OXE d   1       2.188   0.489  -1.857  0.00  0.00    -0.002 A 
ATOM      8  C6  OXE d   1       1.840  -0.773  -1.386  0.00  0.00     0.003 A 
ENDROOT
TORSDOF 0
ENDMDL
