MODEL 1
REMARK minimizedAffinity -4.79448605
REMARK minimizedRMSD -1
REMARK  0 active torsions:
REMARK  status: ('A' for Active; 'I' for Inactive)
ROOT
ATOM      1  C2' OXE d   1      -1.011   0.373   0.798  0.00  0.00     0.078 C 
ATOM      2  C1' OXE d   1       1.245   2.014   0.485  0.00  0.00     0.078 C 
ATOM      3  C1  OXE d   1       1.004   0.944  -0.551  0.00  0.00    -0.078 A 
ATOM      4  C2  OXE d   1      -0.076   0.116  -0.364  0.00  0.00    -0.078 A 
ATOM      5  C3  OXE d   1      -0.375  -0.852  -1.319  0.00  0.00     0.003 A 
ATOM      6  C4  OXE d   1       0.501  -1.090  -2.385  0.00  0.00    -0.002 A 
ATOM      7  C5  OXE d   1       1.628  -0.284  -2.572  0.00  0.00    -0.002 A 
ATOM      8  C6  OXE d   1       1.871   0.763  -1.689  0.00  0.00     0.003 A 
ENDROOT
TORSDOF 0
ENDMDL
