MODEL 1
REMARK minimizedAffinity -5.07337999
REMARK minimizedRMSD -1
REMARK  0 active torsions:
REMARK  status: ('A' for Active; 'I' for Inactive)
ROOT
ATOM      1  C2' OXE d   1       0.385   0.341  -0.891  0.00  0.00     0.078 C 
ATOM      2  C1' OXE d   1       0.033  -0.265   1.827  0.00  0.00     0.078 C 
ATOM      3  C1  OXE d   1      -1.195   0.065   1.015  0.00  0.00    -0.078 A 
ATOM      4  C2  OXE d   1      -1.008   0.405  -0.303  0.00  0.00    -0.078 A 
ATOM      5  C3  OXE d   1      -2.111   0.665  -1.111  0.00  0.00     0.003 A 
ATOM      6  C4  OXE d   1      -3.395   0.733  -0.557  0.00  0.00    -0.002 A 
ATOM      7  C5  OXE d   1      -3.603   0.428   0.793  0.00  0.00    -0.002 A 
ATOM      8  C6  OXE d   1      -2.521   0.052   1.581  0.00  0.00     0.003 A 
ENDROOT
TORSDOF 0
ENDMDL
