MODEL 1
REMARK minimizedAffinity -4.89470577
REMARK minimizedRMSD -1
REMARK  0 active torsions:
REMARK  status: ('A' for Active; 'I' for Inactive)
ROOT
ATOM      1  C2' OXE d   1      -0.654  -0.178   0.522  0.00  0.00     0.078 C 
ATOM      2  C1' OXE d   1       0.537  -2.382  -0.746  0.00  0.00     0.078 C 
ATOM      3  C1  OXE d   1       0.982  -1.003  -1.165  0.00  0.00    -0.078 A 
ATOM      4  C2  OXE d   1       0.361   0.070  -0.573  0.00  0.00    -0.078 A 
ATOM      5  C3  OXE d   1       0.772   1.362  -0.884  0.00  0.00     0.003 A 
ATOM      6  C4  OXE d   1       1.704   1.583  -1.905  0.00  0.00    -0.002 A 
ATOM      7  C5  OXE d   1       2.320   0.505  -2.549  0.00  0.00    -0.002 A 
ATOM      8  C6  OXE d   1       2.002  -0.792  -2.162  0.00  0.00     0.003 A 
ENDROOT
TORSDOF 0
ENDMDL
