MODEL 1
REMARK minimizedAffinity 18.5180244
REMARK minimizedRMSD -1
REMARK  3 active torsions:
REMARK  status: ('A' for Active; 'I' for Inactive)
REMARK    1  A    between atoms: C3'_2  and  C2'_3 
REMARK    2  A    between atoms: C2'_3  and  C1'_4 
REMARK    3  A    between atoms: C1'_4  and  C1_5 
ROOT
ATOM      1  C1  N4B d   1       4.436   3.392   4.922  0.00  0.00    -0.075 A 
ATOM      2  C2  N4B d   1       5.734   3.929   5.070  0.00  0.00     0.002 A 
ATOM      3  C3  N4B d   1       5.901   5.180   5.612  0.00  0.00     0.002 A 
ATOM      4  C4  N4B d   1       4.790   5.915   5.995  0.00  0.00    -0.004 A 
ATOM      5  C5  N4B d   1       3.541   5.379   5.872  0.00  0.00     0.002 A 
ATOM      6  C6  N4B d   1       3.359   4.122   5.332  0.00  0.00     0.002 A 
ENDROOT
BRANCH   1   7
ATOM      7  C1' N4B d   1       4.198   2.064   4.255  0.00  0.00     0.057 C 
BRANCH   7   8
ATOM      8  C2' N4B d   1       4.729   2.120   2.825  0.00  0.00     0.009 C 
BRANCH   8   9
ATOM      9  C3' N4B d   1       3.825   2.932   1.915  0.00  0.00     0.004 C 
ATOM     10  C4' N4B d   1       3.543   2.245   0.612  0.00  0.00     0.003 C 
ENDBRANCH   8   9
ENDBRANCH   7   8
ENDBRANCH   1   7
TORSDOF 3
ENDMDL
