MODEL 1
REMARK minimizedAffinity 11.2828999
REMARK minimizedRMSD -1
REMARK  3 active torsions:
REMARK  status: ('A' for Active; 'I' for Inactive)
REMARK    1  A    between atoms: C3'_2  and  C2'_3 
REMARK    2  A    between atoms: C2'_3  and  C1'_4 
REMARK    3  A    between atoms: C1'_4  and  C1_5 
ROOT
ATOM      1  C1  N4B d   1      -1.450  -2.823   2.528  0.00  0.00    -0.075 A 
ATOM      2  C2  N4B d   1      -1.602  -2.162   1.288  0.00  0.00     0.002 A 
ATOM      3  C3  N4B d   1      -1.252  -2.800   0.123  0.00  0.00     0.002 A 
ATOM      4  C4  N4B d   1      -0.734  -4.085   0.174  0.00  0.00    -0.004 A 
ATOM      5  C5  N4B d   1      -0.615  -4.726   1.372  0.00  0.00     0.002 A 
ATOM      6  C6  N4B d   1      -0.965  -4.099   2.551  0.00  0.00     0.002 A 
ENDROOT
BRANCH   1   7
ATOM      7  C1' N4B d   1      -1.737  -2.135   3.834  0.00  0.00     0.057 C 
BRANCH   7   8
ATOM      8  C2' N4B d   1      -3.061  -1.384   3.724  0.00  0.00     0.009 C 
BRANCH   8   9
ATOM      9  C3' N4B d   1      -2.961   0.026   4.279  0.00  0.00     0.004 C 
ATOM     10  C4' N4B d   1      -4.235   0.489   4.922  0.00  0.00     0.003 C 
ENDBRANCH   8   9
ENDBRANCH   7   8
ENDBRANCH   1   7
TORSDOF 3
ENDMDL
