MODEL 1
REMARK minimizedAffinity 9.20570755
REMARK minimizedRMSD -1
REMARK  3 active torsions:
REMARK  status: ('A' for Active; 'I' for Inactive)
REMARK    1  A    between atoms: C3'_2  and  C2'_3 
REMARK    2  A    between atoms: C2'_3  and  C1'_4 
REMARK    3  A    between atoms: C1'_4  and  C1_5 
ROOT
ATOM      1  C1  N4B d   1       3.186   2.259  -0.163  0.00  0.00    -0.075 A 
ATOM      2  C2  N4B d   1       3.162   2.347  -1.572  0.00  0.00     0.002 A 
ATOM      3  C3  N4B d   1       2.441   1.436  -2.304  0.00  0.00     0.002 A 
ATOM      4  C4  N4B d   1       1.755   0.422  -1.653  0.00  0.00    -0.004 A 
ATOM      5  C5  N4B d   1       1.762   0.359  -0.291  0.00  0.00     0.002 A 
ATOM      6  C6  N4B d   1       2.479   1.271   0.458  0.00  0.00     0.002 A 
ENDROOT
BRANCH   1   7
ATOM      7  C1' N4B d   1       4.029   3.180   0.676  0.00  0.00     0.057 C 
BRANCH   7   8
ATOM      8  C2' N4B d   1       5.202   3.685  -0.159  0.00  0.00     0.009 C 
BRANCH   8   9
ATOM      9  C3' N4B d   1       5.326   5.198  -0.108  0.00  0.00     0.004 C 
ATOM     10  C4' N4B d   1       5.341   5.733   1.293  0.00  0.00     0.003 C 
ENDBRANCH   8   9
ENDBRANCH   7   8
ENDBRANCH   1   7
TORSDOF 3
ENDMDL
