MODEL 1
REMARK minimizedAffinity 14.4785509
REMARK minimizedRMSD -1
REMARK  3 active torsions:
REMARK  status: ('A' for Active; 'I' for Inactive)
REMARK    1  A    between atoms: C3'_2  and  C2'_3 
REMARK    2  A    between atoms: C2'_3  and  C1'_4 
REMARK    3  A    between atoms: C1'_4  and  C1_5 
ROOT
ATOM      1  C1  N4B d   1      -1.500  -2.678   0.318  0.00  0.00    -0.075 A 
ATOM      2  C2  N4B d   1      -2.705  -2.298   0.947  0.00  0.00     0.002 A 
ATOM      3  C3  N4B d   1      -3.595  -1.483   0.290  0.00  0.00     0.002 A 
ATOM      4  C4  N4B d   1      -3.293  -1.023  -0.983  0.00  0.00    -0.004 A 
ATOM      5  C5  N4B d   1      -2.138  -1.416  -1.593  0.00  0.00     0.002 A 
ATOM      6  C6  N4B d   1      -1.237  -2.237  -0.947  0.00  0.00     0.002 A 
ENDROOT
BRANCH   1   7
ATOM      7  C1' N4B d   1      -0.457  -3.497   1.029  0.00  0.00     0.057 C 
BRANCH   7   8
ATOM      8  C2' N4B d   1      -1.098  -4.779   1.552  0.00  0.00     0.009 C 
BRANCH   8   9
ATOM      9  C3' N4B d   1      -0.647  -6.000   0.768  0.00  0.00     0.004 C 
ATOM     10  C4' N4B d   1      -1.148  -6.000  -0.645  0.00  0.00     0.003 C 
ENDBRANCH   8   9
ENDBRANCH   7   8
ENDBRANCH   1   7
TORSDOF 3
ENDMDL
