MODEL 1
REMARK minimizedAffinity 6.43440533
REMARK minimizedRMSD -1
REMARK  3 active torsions:
REMARK  status: ('A' for Active; 'I' for Inactive)
REMARK    1  A    between atoms: C3'_2  and  C2'_3 
REMARK    2  A    between atoms: C2'_3  and  C1'_4 
REMARK    3  A    between atoms: C1'_4  and  C1_5 
ROOT
ATOM      1  C1  N4B d   1      -4.382   5.968  -2.791  0.00  0.00    -0.075 A 
ATOM      2  C2  N4B d   1      -3.349   5.959  -3.754  0.00  0.00     0.002 A 
ATOM      3  C3  N4B d   1      -3.658   5.966  -5.092  0.00  0.00     0.002 A 
ATOM      4  C4  N4B d   1      -4.987   5.965  -5.489  0.00  0.00    -0.004 A 
ATOM      5  C5  N4B d   1      -5.978   6.000  -4.552  0.00  0.00     0.002 A 
ATOM      6  C6  N4B d   1      -5.682   5.996  -3.204  0.00  0.00     0.002 A 
ENDROOT
BRANCH   1   7
ATOM      7  C1' N4B d   1      -4.094   5.874  -1.317  0.00  0.00     0.057 C 
BRANCH   7   8
ATOM      8  C2' N4B d   1      -3.620   4.461  -0.989  0.00  0.00     0.009 C 
BRANCH   8   9
ATOM      9  C3' N4B d   1      -4.205   3.955   0.318  0.00  0.00     0.004 C 
ATOM     10  C4' N4B d   1      -4.296   2.459   0.372  0.00  0.00     0.003 C 
ENDBRANCH   8   9
ENDBRANCH   7   8
ENDBRANCH   1   7
TORSDOF 3
ENDMDL
