MODEL 1
REMARK minimizedAffinity 10.482028
REMARK minimizedRMSD -1
REMARK  3 active torsions:
REMARK  status: ('A' for Active; 'I' for Inactive)
REMARK    1  A    between atoms: C3'_2  and  C2'_3 
REMARK    2  A    between atoms: C2'_3  and  C1'_4 
REMARK    3  A    between atoms: C1'_4  and  C1_5 
ROOT
ATOM      1  C1  N4B d   1      -3.130  -0.550   5.641  0.00  0.00    -0.075 A 
ATOM      2  C2  N4B d   1      -3.040   0.859   5.668  0.00  0.00     0.002 A 
ATOM      3  C3  N4B d   1      -4.170   1.617   5.856  0.00  0.00     0.002 A 
ATOM      4  C4  N4B d   1      -5.399   0.990   6.000  0.00  0.00    -0.004 A 
ATOM      5  C5  N4B d   1      -5.474  -0.372   5.998  0.00  0.00     0.002 A 
ATOM      6  C6  N4B d   1      -4.346  -1.145   5.814  0.00  0.00     0.002 A 
ENDROOT
BRANCH   1   7
ATOM      7  C1' N4B d   1      -1.936  -1.417   5.352  0.00  0.00     0.057 C 
BRANCH   7   8
ATOM      8  C2' N4B d   1      -2.257  -2.339   4.180  0.00  0.00     0.009 C 
BRANCH   8   9
ATOM      9  C3' N4B d   1      -2.730  -1.564   2.961  0.00  0.00     0.004 C 
ATOM     10  C4' N4B d   1      -2.695  -2.381   1.704  0.00  0.00     0.003 C 
ENDBRANCH   8   9
ENDBRANCH   7   8
ENDBRANCH   1   7
TORSDOF 3
ENDMDL
