MODEL 1
REMARK minimizedAffinity 11.4405212
REMARK minimizedRMSD -1
REMARK  3 active torsions:
REMARK  status: ('A' for Active; 'I' for Inactive)
REMARK    1  A    between atoms: C3'_2  and  C2'_3 
REMARK    2  A    between atoms: C2'_3  and  C1'_4 
REMARK    3  A    between atoms: C1'_4  and  C1_5 
ROOT
ATOM      1  C1  N4B d   1      -0.538  -3.258  -1.218  0.00  0.00    -0.075 A 
ATOM      2  C2  N4B d   1      -0.126  -3.571   0.096  0.00  0.00     0.002 A 
ATOM      3  C3  N4B d   1       0.019  -4.883   0.477  0.00  0.00     0.002 A 
ATOM      4  C4  N4B d   1      -0.260  -5.895  -0.430  0.00  0.00    -0.004 A 
ATOM      5  C5  N4B d   1      -0.633  -5.584  -1.705  0.00  0.00     0.002 A 
ATOM      6  C6  N4B d   1      -0.779  -4.270  -2.102  0.00  0.00     0.002 A 
ENDROOT
BRANCH   1   7
ATOM      7  C1' N4B d   1      -0.793  -1.842  -1.654  0.00  0.00     0.057 C 
BRANCH   7   8
ATOM      8  C2' N4B d   1      -0.968  -0.962  -0.420  0.00  0.00     0.009 C 
BRANCH   8   9
ATOM      9  C3' N4B d   1      -2.432  -0.775  -0.058  0.00  0.00     0.004 C 
ATOM     10  C4' N4B d   1      -2.956  -1.868   0.825  0.00  0.00     0.003 C 
ENDBRANCH   8   9
ENDBRANCH   7   8
ENDBRANCH   1   7
TORSDOF 3
ENDMDL
