MODEL 1
REMARK minimizedAffinity 12.3926516
REMARK minimizedRMSD -1
REMARK  3 active torsions:
REMARK  status: ('A' for Active; 'I' for Inactive)
REMARK    1  A    between atoms: C3'_2  and  C2'_3 
REMARK    2  A    between atoms: C2'_3  and  C1'_4 
REMARK    3  A    between atoms: C1'_4  and  C1_5 
ROOT
ATOM      1  C1  N4B d   1      -2.253  -2.153  -2.001  0.00  0.00    -0.075 A 
ATOM      2  C2  N4B d   1      -1.588  -2.944  -1.038  0.00  0.00     0.002 A 
ATOM      3  C3  N4B d   1      -0.936  -4.090  -1.423  0.00  0.00     0.002 A 
ATOM      4  C4  N4B d   1      -0.951  -4.474  -2.755  0.00  0.00    -0.004 A 
ATOM      5  C5  N4B d   1      -1.574  -3.691  -3.683  0.00  0.00     0.002 A 
ATOM      6  C6  N4B d   1      -2.230  -2.534  -3.311  0.00  0.00     0.002 A 
ENDROOT
BRANCH   1   7
ATOM      7  C1' N4B d   1      -3.051  -0.938  -1.616  0.00  0.00     0.057 C 
BRANCH   7   8
ATOM      8  C2' N4B d   1      -3.529  -1.089  -0.175  0.00  0.00     0.009 C 
BRANCH   8   9
ATOM      9  C3' N4B d   1      -5.043  -1.166  -0.083  0.00  0.00     0.004 C 
ATOM     10  C4' N4B d   1      -5.513  -2.003   1.069  0.00  0.00     0.003 C 
ENDBRANCH   8   9
ENDBRANCH   7   8
ENDBRANCH   1   7
TORSDOF 3
ENDMDL
