MODEL 1
REMARK minimizedAffinity 15.0363512
REMARK minimizedRMSD -1
REMARK  3 active torsions:
REMARK  status: ('A' for Active; 'I' for Inactive)
REMARK    1  A    between atoms: C3'_2  and  C2'_3 
REMARK    2  A    between atoms: C2'_3  and  C1'_4 
REMARK    3  A    between atoms: C1'_4  and  C1_5 
ROOT
ATOM      1  C1  N4B d   1       3.723   2.102   2.146  0.00  0.00    -0.075 A 
ATOM      2  C2  N4B d   1       4.484   2.891   1.255  0.00  0.00     0.002 A 
ATOM      3  C3  N4B d   1       4.103   3.001  -0.060  0.00  0.00     0.002 A 
ATOM      4  C4  N4B d   1       2.982   2.320  -0.509  0.00  0.00    -0.004 A 
ATOM      5  C5  N4B d   1       2.238   1.582   0.364  0.00  0.00     0.002 A 
ATOM      6  C6  N4B d   1       2.606   1.465   1.689  0.00  0.00     0.002 A 
ENDROOT
BRANCH   1   7
ATOM      7  C1' N4B d   1       4.148   1.882   3.572  0.00  0.00     0.057 C 
BRANCH   7   8
ATOM      8  C2' N4B d   1       3.427   2.884   4.470  0.00  0.00     0.009 C 
BRANCH   8   9
ATOM      9  C3' N4B d   1       4.401   3.749   5.251  0.00  0.00     0.004 C 
ATOM     10  C4' N4B d   1       3.721   4.858   5.999  0.00  0.00     0.003 C 
ENDBRANCH   8   9
ENDBRANCH   7   8
ENDBRANCH   1   7
TORSDOF 3
ENDMDL
