MODEL 1
REMARK minimizedAffinity 5.35528326
REMARK minimizedRMSD -1
REMARK  3 active torsions:
REMARK  status: ('A' for Active; 'I' for Inactive)
REMARK    1  A    between atoms: C3'_2  and  C2'_3 
REMARK    2  A    between atoms: C2'_3  and  C1'_4 
REMARK    3  A    between atoms: C1'_4  and  C1_5 
ROOT
ATOM      1  C1  N4B d   1      -4.274   3.547  -5.034  0.00  0.00    -0.075 A 
ATOM      2  C2  N4B d   1      -3.888   4.659  -4.254  0.00  0.00     0.002 A 
ATOM      3  C3  N4B d   1      -4.566   5.848  -4.369  0.00  0.00     0.002 A 
ATOM      4  C4  N4B d   1      -5.617   5.954  -5.268  0.00  0.00    -0.004 A 
ATOM      5  C5  N4B d   1      -6.000   4.868  -6.000  0.00  0.00     0.002 A 
ATOM      6  C6  N4B d   1      -5.330   3.666  -5.891  0.00  0.00     0.002 A 
ENDROOT
BRANCH   1   7
ATOM      7  C1' N4B d   1      -3.509   2.253  -5.006  0.00  0.00     0.057 C 
BRANCH   7   8
ATOM      8  C2' N4B d   1      -2.252   2.432  -4.159  0.00  0.00     0.009 C 
BRANCH   8   9
ATOM      9  C3' N4B d   1      -1.908   1.175  -3.379  0.00  0.00     0.004 C 
ATOM     10  C4' N4B d   1      -2.991   0.769  -2.424  0.00  0.00     0.003 C 
ENDBRANCH   8   9
ENDBRANCH   7   8
ENDBRANCH   1   7
TORSDOF 3
ENDMDL
