MODEL 1
REMARK minimizedAffinity 7.02104664
REMARK minimizedRMSD -1
REMARK  0 active torsions:
REMARK  status: ('A' for Active; 'I' for Inactive)
ROOT
ATOM      1  C1  DEN d   1       1.207  -0.397  -2.859  0.00  0.00     0.130 A 
ATOM      2  C2  DEN d   1       2.349  -0.673  -1.991  0.00  0.00    -0.031 A 
ATOM      3  C3  DEN d   1       2.932   0.619  -1.579  0.00  0.00     0.027 A 
ATOM      4  C4  DEN d   1       2.180   3.009  -2.194  0.00  0.00     0.027 A 
ATOM      5  C5  DEN d   1       1.267   3.748  -2.914  0.00  0.00    -0.003 A 
ATOM      6  C6  DEN d   1       0.299   3.162  -3.686  0.00  0.00     0.001 A 
ATOM      7  C7  DEN d   1       0.194   1.796  -3.722  0.00  0.00     0.017 A 
ATOM      8  C8  DEN d   1       1.115   1.044  -3.005  0.00  0.00    -0.094 A 
ATOM      9  C9  DEN d   1       2.078   1.656  -2.220  0.00  0.00    -0.072 A 
ENDROOT
TORSDOF 0
ENDMDL
