MODEL 1
REMARK minimizedAffinity 9.29138756
REMARK minimizedRMSD -1
REMARK  0 active torsions:
REMARK  status: ('A' for Active; 'I' for Inactive)
ROOT
ATOM      1  C1  DEN d   1       0.891  -0.849  -1.557  0.00  0.00     0.130 A 
ATOM      2  C2  DEN d   1       1.475  -1.342  -0.313  0.00  0.00    -0.031 A 
ATOM      3  C3  DEN d   1       2.377  -0.298   0.212  0.00  0.00     0.027 A 
ATOM      4  C4  DEN d   1       2.918   2.024  -0.771  0.00  0.00     0.027 A 
ATOM      5  C5  DEN d   1       2.673   2.885  -1.818  0.00  0.00    -0.003 A 
ATOM      6  C6  DEN d   1       1.850   2.550  -2.860  0.00  0.00     0.001 A 
ATOM      7  C7  DEN d   1       1.206   1.341  -2.856  0.00  0.00     0.017 A 
ATOM      8  C8  DEN d   1       1.454   0.465  -1.807  0.00  0.00    -0.094 A 
ATOM      9  C9  DEN d   1       2.280   0.827  -0.757  0.00  0.00    -0.072 A 
ENDROOT
TORSDOF 0
ENDMDL
