MODEL 1
REMARK minimizedAffinity 9.2826376
REMARK minimizedRMSD -1
REMARK  0 active torsions:
REMARK  status: ('A' for Active; 'I' for Inactive)
ROOT
ATOM      1  C1  DEN d   1       1.859   2.732   0.411  0.00  0.00     0.130 A 
ATOM      2  C2  DEN d   1       3.277   2.424   0.574  0.00  0.00    -0.031 A 
ATOM      3  C3  DEN d   1       3.818   2.053  -0.749  0.00  0.00     0.027 A 
ATOM      4  C4  DEN d   1       2.605   1.933  -3.023  0.00  0.00     0.027 A 
ATOM      5  C5  DEN d   1       1.394   2.094  -3.659  0.00  0.00    -0.003 A 
ATOM      6  C6  DEN d   1       0.255   2.443  -2.983  0.00  0.00     0.001 A 
ATOM      7  C7  DEN d   1       0.313   2.687  -1.636  0.00  0.00     0.017 A 
ATOM      8  C8  DEN d   1       1.529   2.519  -0.986  0.00  0.00    -0.094 A 
ATOM      9  C9  DEN d   1       2.672   2.178  -1.689  0.00  0.00    -0.072 A 
ENDROOT
TORSDOF 0
ENDMDL
