MODEL 1
REMARK minimizedAffinity 8.98697186
REMARK minimizedRMSD -1
REMARK  0 active torsions:
REMARK  status: ('A' for Active; 'I' for Inactive)
ROOT
ATOM      1  C1  DEN d   1       2.963  -1.077  -0.349  0.00  0.00     0.130 A 
ATOM      2  C2  DEN d   1       1.885  -1.189  -1.328  0.00  0.00    -0.031 A 
ATOM      3  C3  DEN d   1       0.607  -1.267  -0.593  0.00  0.00     0.027 A 
ATOM      4  C4  DEN d   1       0.193  -1.221   1.953  0.00  0.00     0.027 A 
ATOM      5  C5  DEN d   1       0.800  -1.150   3.187  0.00  0.00    -0.003 A 
ATOM      6  C6  DEN d   1       2.160  -1.084   3.330  0.00  0.00     0.001 A 
ATOM      7  C7  DEN d   1       2.958  -1.043   2.217  0.00  0.00     0.017 A 
ATOM      8  C8  DEN d   1       2.355  -1.122   0.969  0.00  0.00    -0.094 A 
ATOM      9  C9  DEN d   1       0.977  -1.176   0.845  0.00  0.00    -0.072 A 
ENDROOT
TORSDOF 0
ENDMDL
