MODEL 1
REMARK minimizedAffinity 8.41674328
REMARK minimizedRMSD -1
REMARK  0 active torsions:
REMARK  status: ('A' for Active; 'I' for Inactive)
ROOT
ATOM      1  C1  DEN d   1       1.666  -1.176  -2.275  0.00  0.00     0.130 A 
ATOM      2  C2  DEN d   1       2.107  -1.822  -1.043  0.00  0.00    -0.031 A 
ATOM      3  C3  DEN d   1       2.480  -0.766  -0.081  0.00  0.00     0.027 A 
ATOM      4  C4  DEN d   1       2.412   1.796  -0.377  0.00  0.00     0.027 A 
ATOM      5  C5  DEN d   1       2.120   2.817  -1.254  0.00  0.00    -0.003 A 
ATOM      6  C6  DEN d   1       1.692   2.580  -2.534  0.00  0.00     0.001 A 
ATOM      7  C7  DEN d   1       1.501   1.292  -2.959  0.00  0.00     0.017 A 
ATOM      8  C8  DEN d   1       1.800   0.257  -2.082  0.00  0.00    -0.094 A 
ATOM      9  C9  DEN d   1       2.220   0.517  -0.789  0.00  0.00    -0.072 A 
ENDROOT
TORSDOF 0
ENDMDL
