MODEL 1
REMARK minimizedAffinity 6.52925205
REMARK minimizedRMSD -1
REMARK  0 active torsions:
REMARK  status: ('A' for Active; 'I' for Inactive)
ROOT
ATOM      1  C1  DEN d   1      -1.291   0.715   3.375  0.00  0.00     0.130 A 
ATOM      2  C2  DEN d   1      -2.277   0.301   2.381  0.00  0.00    -0.031 A 
ATOM      3  C3  DEN d   1      -1.645  -0.703   1.501  0.00  0.00     0.027 A 
ATOM      4  C4  DEN d   1       0.751  -1.654   1.584  0.00  0.00     0.027 A 
ATOM      5  C5  DEN d   1       1.958  -1.599   2.244  0.00  0.00    -0.003 A 
ATOM      6  C6  DEN d   1       2.177  -0.750   3.297  0.00  0.00     0.001 A 
ATOM      7  C7  DEN d   1       1.158   0.045   3.750  0.00  0.00     0.017 A 
ATOM      8  C8  DEN d   1      -0.061  -0.000   3.085  0.00  0.00    -0.094 A 
ATOM      9  C9  DEN d   1      -0.265  -0.873   2.030  0.00  0.00    -0.072 A 
ENDROOT
TORSDOF 0
ENDMDL
