MODEL 1
REMARK minimizedAffinity 7.50283337
REMARK minimizedRMSD -1
REMARK  0 active torsions:
REMARK  status: ('A' for Active; 'I' for Inactive)
ROOT
ATOM      1  C1  DEN d   1       0.968  -1.222  -0.576  0.00  0.00     0.130 A 
ATOM      2  C2  DEN d   1       2.379  -1.249  -0.951  0.00  0.00    -0.031 A 
ATOM      3  C3  DEN d   1       3.181  -1.089   0.279  0.00  0.00     0.027 A 
ATOM      4  C4  DEN d   1       2.378  -0.810   2.714  0.00  0.00     0.027 A 
ATOM      5  C5  DEN d   1       1.270  -0.715   3.527  0.00  0.00    -0.003 A 
ATOM      6  C6  DEN d   1      -0.005  -0.748   3.030  0.00  0.00     0.001 A 
ATOM      7  C7  DEN d   1      -0.205  -0.925   1.686  0.00  0.00     0.017 A 
ATOM      8  C8  DEN d   1       0.907  -1.014   0.859  0.00  0.00    -0.094 A 
ATOM      9  C9  DEN d   1       2.188  -0.990   1.383  0.00  0.00    -0.072 A 
ENDROOT
TORSDOF 0
ENDMDL
