MODEL 1
REMARK minimizedAffinity 8.5049305
REMARK minimizedRMSD -1
REMARK  0 active torsions:
REMARK  status: ('A' for Active; 'I' for Inactive)
ROOT
ATOM      1  C1  DEN d   1      -2.227  -2.445   0.600  0.00  0.00     0.130 A 
ATOM      2  C2  DEN d   1      -3.277  -1.431   0.561  0.00  0.00    -0.031 A 
ATOM      3  C3  DEN d   1      -2.836  -0.285   1.380  0.00  0.00     0.027 A 
ATOM      4  C4  DEN d   1      -0.639   0.019   2.696  0.00  0.00     0.027 A 
ATOM      5  C5  DEN d   1       0.555  -0.575   3.039  0.00  0.00    -0.003 A 
ATOM      6  C6  DEN d   1       0.888  -1.838   2.626  0.00  0.00     0.001 A 
ATOM      7  C7  DEN d   1       0.036  -2.530   1.806  0.00  0.00     0.017 A 
ATOM      8  C8  DEN d   1      -1.173  -1.940   1.461  0.00  0.00    -0.094 A 
ATOM      9  C9  DEN d   1      -1.485  -0.658   1.880  0.00  0.00    -0.072 A 
ENDROOT
TORSDOF 0
ENDMDL
