MODEL 1
REMARK minimizedAffinity 6.56907225
REMARK minimizedRMSD -1
REMARK  0 active torsions:
REMARK  status: ('A' for Active; 'I' for Inactive)
ROOT
ATOM      1  C1  DEN d   1      -3.144   0.222   2.104  0.00  0.00     0.130 A 
ATOM      2  C2  DEN d   1      -3.426   1.054   3.271  0.00  0.00    -0.031 A 
ATOM      3  C3  DEN d   1      -2.197   1.127   4.087  0.00  0.00     0.027 A 
ATOM      4  C4  DEN d   1       0.103   0.043   3.657  0.00  0.00     0.027 A 
ATOM      5  C5  DEN d   1       0.822  -0.763   2.802  0.00  0.00    -0.003 A 
ATOM      6  C6  DEN d   1       0.265  -1.320   1.682  0.00  0.00     0.001 A 
ATOM      7  C7  DEN d   1      -1.038  -1.042   1.362  0.00  0.00     0.017 A 
ATOM      8  C8  DEN d   1      -1.772  -0.236   2.223  0.00  0.00    -0.094 A 
ATOM      9  C9  DEN d   1      -1.186   0.327   3.344  0.00  0.00    -0.072 A 
ENDROOT
TORSDOF 0
ENDMDL
