MODEL 1
REMARK minimizedAffinity 2.2533114
REMARK minimizedRMSD -1
REMARK  1 active torsions:
REMARK  status: ('A' for Active; 'I' for Inactive)
REMARK    1  A    between atoms: C1_2  and  C2_3 
ROOT
ATOM      1  C2  UNL d   1      -3.751   1.513   3.427  0.00  0.00    -0.077 A 
ATOM      2  C3  UNL d   1      -3.682   0.113   3.465  0.00  0.00     0.002 A 
ATOM      3  C4  UNL d   1      -2.630  -0.560   2.840  0.00  0.00     0.002 A 
ATOM      4  C5  UNL d   1      -1.638   0.158   2.176  0.00  0.00    -0.004 A 
ATOM      5  C6  UNL d   1      -1.699   1.550   2.130  0.00  0.00     0.002 A 
ATOM      6  C7  UNL d   1      -2.750   2.225   2.754  0.00  0.00     0.002 A 
ENDROOT
BRANCH   1   7
ATOM      7  C1  UNL d   1      -4.857   2.242   4.142  0.00  0.00     0.055 C 
ATOM      8  C   UNL d   1      -4.805   1.994   5.643  0.00  0.00     0.019 C 
ENDBRANCH   1   7
TORSDOF 1
ENDMDL
