MODEL 1
REMARK minimizedAffinity 0.150428295
REMARK minimizedRMSD -1
REMARK  1 active torsions:
REMARK  status: ('A' for Active; 'I' for Inactive)
REMARK    1  A    between atoms: C1_2  and  C2_3 
ROOT
ATOM      1  C2  UNL d   1      -1.939   1.678   2.041  0.00  0.00    -0.077 A 
ATOM      2  C3  UNL d   1      -2.007   0.283   1.913  0.00  0.00     0.002 A 
ATOM      3  C4  UNL d   1      -0.918  -0.434   1.415  0.00  0.00     0.002 A 
ATOM      4  C5  UNL d   1       0.248   0.233   1.045  0.00  0.00    -0.004 A 
ATOM      5  C6  UNL d   1       0.324   1.620   1.166  0.00  0.00     0.002 A 
ATOM      6  C7  UNL d   1      -0.764   2.339   1.663  0.00  0.00     0.002 A 
ENDROOT
BRANCH   1   7
ATOM      7  C1  UNL d   1      -3.095   2.448   2.625  0.00  0.00     0.055 C 
ATOM      8  C   UNL d   1      -3.942   1.571   3.535  0.00  0.00     0.019 C 
ENDBRANCH   1   7
TORSDOF 1
ENDMDL
