MODEL 1
REMARK minimizedAffinity 4.81608582
REMARK minimizedRMSD -1
REMARK  1 active torsions:
REMARK  status: ('A' for Active; 'I' for Inactive)
REMARK    1  A    between atoms: C1_2  and  C2_3 
ROOT
ATOM      1  C2  UNL d   1      -2.268   2.058   2.421  0.00  0.00    -0.077 A 
ATOM      2  C3  UNL d   1      -1.159   2.782   1.961  0.00  0.00     0.002 A 
ATOM      3  C4  UNL d   1      -0.119   2.131   1.293  0.00  0.00     0.002 A 
ATOM      4  C5  UNL d   1      -0.181   0.757   1.076  0.00  0.00    -0.004 A 
ATOM      5  C6  UNL d   1      -1.279   0.028   1.532  0.00  0.00     0.002 A 
ATOM      6  C7  UNL d   1      -2.318   0.676   2.200  0.00  0.00     0.002 A 
ENDROOT
BRANCH   1   7
ATOM      7  C1  UNL d   1      -3.414   2.765   3.098  0.00  0.00     0.055 C 
ATOM      8  C   UNL d   1      -4.306   1.784   3.845  0.00  0.00     0.019 C 
ENDBRANCH   1   7
TORSDOF 1
ENDMDL
