MODEL 1
REMARK minimizedAffinity 5.70793056
REMARK minimizedRMSD -1
REMARK  1 active torsions:
REMARK  status: ('A' for Active; 'I' for Inactive)
REMARK    1  A    between atoms: C1_2  and  C2_3 
ROOT
ATOM      1  C2  UNL d   1      -2.985   1.928   2.839  0.00  0.00    -0.077 A 
ATOM      2  C3  UNL d   1      -2.886   0.542   2.649  0.00  0.00     0.002 A 
ATOM      3  C4  UNL d   1      -3.811  -0.320   3.241  0.00  0.00     0.002 A 
ATOM      4  C5  UNL d   1      -4.842   0.194   4.024  0.00  0.00    -0.004 A 
ATOM      5  C6  UNL d   1      -4.948   1.570   4.221  0.00  0.00     0.002 A 
ATOM      6  C7  UNL d   1      -4.024   2.433   3.630  0.00  0.00     0.002 A 
ENDROOT
BRANCH   1   7
ATOM      7  C1  UNL d   1      -2.018   2.862   2.160  0.00  0.00     0.055 C 
ATOM      8  C   UNL d   1      -0.686   2.178   1.887  0.00  0.00     0.019 C 
ENDBRANCH   1   7
TORSDOF 1
ENDMDL
