MODEL 1
REMARK minimizedAffinity 0.714127004
REMARK minimizedRMSD -1
REMARK  1 active torsions:
REMARK  status: ('A' for Active; 'I' for Inactive)
REMARK    1  A    between atoms: C1_2  and  C2_3 
ROOT
ATOM      1  C2  UNL d   1      -1.325   1.803   1.766  0.00  0.00    -0.077 A 
ATOM      2  C3  UNL d   1      -1.528   0.468   2.146  0.00  0.00     0.002 A 
ATOM      3  C4  UNL d   1      -0.565  -0.501   1.860  0.00  0.00     0.002 A 
ATOM      4  C5  UNL d   1       0.608  -0.146   1.196  0.00  0.00    -0.004 A 
ATOM      5  C6  UNL d   1       0.817   1.178   0.813  0.00  0.00     0.002 A 
ATOM      6  C7  UNL d   1      -0.144   2.148   1.097  0.00  0.00     0.002 A 
ENDROOT
BRANCH   1   7
ATOM      7  C1  UNL d   1      -2.341   2.859   2.118  0.00  0.00     0.055 C 
ATOM      8  C   UNL d   1      -3.215   2.420   3.284  0.00  0.00     0.019 C 
ENDBRANCH   1   7
TORSDOF 1
ENDMDL
