MODEL 1
REMARK minimizedAffinity 1.09154761
REMARK minimizedRMSD -1
REMARK  1 active torsions:
REMARK  status: ('A' for Active; 'I' for Inactive)
REMARK    1  A    between atoms: C1_2  and  C2_3 
ROOT
ATOM      1  C2  UNL d   1      -0.823   1.474   1.586  0.00  0.00    -0.077 A 
ATOM      2  C3  UNL d   1      -0.995   0.315   2.357  0.00  0.00     0.002 A 
ATOM      3  C4  UNL d   1      -0.280  -0.846   2.055  0.00  0.00     0.002 A 
ATOM      4  C5  UNL d   1       0.613  -0.858   0.986  0.00  0.00    -0.004 A 
ATOM      5  C6  UNL d   1       0.790   0.288   0.213  0.00  0.00     0.002 A 
ATOM      6  C7  UNL d   1       0.076   1.449   0.512  0.00  0.00     0.002 A 
ENDROOT
BRANCH   1   7
ATOM      7  C1  UNL d   1      -1.555   2.742   1.941  0.00  0.00     0.055 C 
ATOM      8  C   UNL d   1      -2.651   2.481   2.964  0.00  0.00     0.019 C 
ENDBRANCH   1   7
TORSDOF 1
ENDMDL
