MODEL 1
REMARK minimizedAffinity -3.19327831
REMARK minimizedRMSD -1
REMARK  1 active torsions:
REMARK  status: ('A' for Active; 'I' for Inactive)
REMARK    1  A    between atoms: C1_2  and  C2_3 
ROOT
ATOM      1  C2  UNL d   1       0.849   0.494   0.790  0.00  0.00    -0.077 A 
ATOM      2  C3  UNL d   1       1.040   1.693   1.491  0.00  0.00     0.002 A 
ATOM      3  C4  UNL d   1      -0.035   2.315   2.131  0.00  0.00     0.002 A 
ATOM      4  C5  UNL d   1      -1.304   1.744   2.079  0.00  0.00    -0.004 A 
ATOM      5  C6  UNL d   1      -1.504   0.553   1.382  0.00  0.00     0.002 A 
ATOM      6  C7  UNL d   1      -0.432  -0.070   0.742  0.00  0.00     0.002 A 
ENDROOT
BRANCH   1   7
ATOM      7  C1  UNL d   1       2.016  -0.204   0.142  0.00  0.00     0.055 C 
ATOM      8  C   UNL d   1       2.377   0.440  -1.189  0.00  0.00     0.019 C 
ENDBRANCH   1   7
TORSDOF 1
ENDMDL
