MODEL 1
REMARK minimizedAffinity -2.98091483
REMARK minimizedRMSD -1
REMARK  1 active torsions:
REMARK  status: ('A' for Active; 'I' for Inactive)
REMARK    1  A    between atoms: C1_2  and  C2_3 
ROOT
ATOM      1  C2  UNL d   1       0.428   2.313   0.638  0.00  0.00    -0.077 A 
ATOM      2  C3  UNL d   1       0.322   0.948   0.940  0.00  0.00     0.002 A 
ATOM      3  C4  UNL d   1      -0.841   0.442   1.524  0.00  0.00     0.002 A 
ATOM      4  C5  UNL d   1      -1.908   1.293   1.807  0.00  0.00    -0.004 A 
ATOM      5  C6  UNL d   1      -1.811   2.653   1.513  0.00  0.00     0.002 A 
ATOM      6  C7  UNL d   1      -0.649   3.160   0.930  0.00  0.00     0.002 A 
ENDROOT
BRANCH   1   7
ATOM      7  C1  UNL d   1       1.662   2.852  -0.037  0.00  0.00     0.055 C 
ATOM      8  C   UNL d   1       2.163   4.114   0.651  0.00  0.00     0.019 C 
ENDBRANCH   1   7
TORSDOF 1
ENDMDL
