MODEL 1
REMARK minimizedAffinity -5.47504663
REMARK minimizedRMSD -1
REMARK  1 active torsions:
REMARK  status: ('A' for Active; 'I' for Inactive)
REMARK    1  A    between atoms: C1_2  and  C2_3 
ROOT
ATOM      1  C2  UNL d   1       0.992   0.411   0.760  0.00  0.00    -0.077 A 
ATOM      2  C3  UNL d   1       0.631   1.751   0.958  0.00  0.00     0.002 A 
ATOM      3  C4  UNL d   1      -0.608   2.074   1.516  0.00  0.00     0.002 A 
ATOM      4  C5  UNL d   1      -1.493   1.062   1.884  0.00  0.00    -0.004 A 
ATOM      5  C6  UNL d   1      -1.144  -0.273   1.689  0.00  0.00     0.002 A 
ATOM      6  C7  UNL d   1       0.093  -0.597   1.130  0.00  0.00     0.002 A 
ENDROOT
BRANCH   1   7
ATOM      7  C1  UNL d   1       2.347   0.060   0.204  0.00  0.00     0.055 C 
ATOM      8  C   UNL d   1       2.536   0.630  -1.194  0.00  0.00     0.019 C 
ENDBRANCH   1   7
TORSDOF 1
ENDMDL
