MODEL 1
REMARK minimizedAffinity 0.894341409
REMARK minimizedRMSD -1
REMARK  1 active torsions:
REMARK  status: ('A' for Active; 'I' for Inactive)
REMARK    1  A    between atoms: C1_2  and  C2_3 
ROOT
ATOM      1  C2  UNL d   1      -1.086   1.477   1.035  0.00  0.00    -0.077 A 
ATOM      2  C3  UNL d   1      -1.401   0.238   1.610  0.00  0.00     0.002 A 
ATOM      3  C4  UNL d   1      -0.452  -0.786   1.647  0.00  0.00     0.002 A 
ATOM      4  C5  UNL d   1       0.819  -0.579   1.115  0.00  0.00    -0.004 A 
ATOM      5  C6  UNL d   1       1.142   0.649   0.539  0.00  0.00     0.002 A 
ATOM      6  C7  UNL d   1       0.194   1.673   0.501  0.00  0.00     0.002 A 
ENDROOT
BRANCH   1   7
ATOM      7  C1  UNL d   1      -2.092   2.598   1.039  0.00  0.00     0.055 C 
ATOM      8  C   UNL d   1      -2.664   2.824   2.431  0.00  0.00     0.019 C 
ENDBRANCH   1   7
TORSDOF 1
ENDMDL
