MODEL 1
REMARK minimizedAffinity 0.303508461
REMARK minimizedRMSD -1
REMARK  1 active torsions:
REMARK  status: ('A' for Active; 'I' for Inactive)
REMARK    1  A    between atoms: C1_2  and  C2_3 
ROOT
ATOM      1  C2  UNL d   1      -3.463  -3.561  -1.733  0.00  0.00    -0.077 A 
ATOM      2  C3  UNL d   1      -2.879  -4.726  -2.251  0.00  0.00     0.002 A 
ATOM      3  C4  UNL d   1      -3.001  -5.939  -1.570  0.00  0.00     0.002 A 
ATOM      4  C5  UNL d   1      -3.708  -6.000  -0.371  0.00  0.00    -0.004 A 
ATOM      5  C6  UNL d   1      -4.290  -4.846   0.153  0.00  0.00     0.002 A 
ATOM      6  C7  UNL d   1      -4.169  -3.633  -0.525  0.00  0.00     0.002 A 
ENDROOT
BRANCH   1   7
ATOM      7  C1  UNL d   1      -3.375  -2.262  -2.490  0.00  0.00     0.055 C 
ATOM      8  C   UNL d   1      -2.625  -2.436  -3.803  0.00  0.00     0.019 C 
ENDBRANCH   1   7
TORSDOF 1
ENDMDL
