MODEL 1
REMARK minimizedAffinity -4.02649832
REMARK minimizedRMSD -1
REMARK  1 active torsions:
REMARK  status: ('A' for Active; 'I' for Inactive)
REMARK    1  A    between atoms: C1_2  and  C2_3 
ROOT
ATOM      1  C2  UNL d   1      -1.641   1.429   1.689  0.00  0.00    -0.077 A 
ATOM      2  C3  UNL d   1      -1.745   0.038   1.547  0.00  0.00     0.002 A 
ATOM      3  C4  UNL d   1      -0.633  -0.719   1.173  0.00  0.00     0.002 A 
ATOM      4  C5  UNL d   1       0.591  -0.095   0.942  0.00  0.00    -0.004 A 
ATOM      5  C6  UNL d   1       0.704   1.288   1.078  0.00  0.00     0.002 A 
ATOM      6  C7  UNL d   1      -0.406   2.047   1.451  0.00  0.00     0.002 A 
ENDROOT
BRANCH   1   7
ATOM      7  C1  UNL d   1      -2.826   2.242   2.141  0.00  0.00     0.055 C 
ATOM      8  C   UNL d   1      -3.734   1.434   3.057  0.00  0.00     0.019 C 
ENDBRANCH   1   7
TORSDOF 1
ENDMDL
