MODEL 1
REMARK minimizedAffinity 5.39652729
REMARK minimizedRMSD -1
REMARK  1 active torsions:
REMARK  status: ('A' for Active; 'I' for Inactive)
REMARK    1  A    between atoms: N_2  and  C1_3 
ROOT
ATOM      1  C1  UNL d   1      -4.720  -3.703   3.755  0.00  0.00     0.143 A 
ATOM      2  C2  UNL d   1      -4.959  -4.911   3.092  0.00  0.00    -0.057 A 
ATOM      3  C3  UNL d   1      -5.605  -5.976   3.733  0.00  0.00     0.033 A 
ATOM      4  C4  UNL d   1      -5.999  -5.859   5.061  0.00  0.00    -0.042 A 
ATOM      5  C5  UNL d   1      -5.750  -4.676   5.748  0.00  0.00     0.033 A 
ATOM      6  C6  UNL d   1      -5.111  -3.614   5.100  0.00  0.00    -0.057 A 
ENDROOT
BRANCH   1   7
ATOM      7  N   UNL d   1      -3.995  -2.643   3.204  0.00  0.00    -0.732 N 
ATOM      8  C   UNL d   1      -2.815  -2.895   2.405  0.00  0.00     0.284 C 
ATOM      9  H3  UNL d   1      -4.598  -1.910   2.837  0.00  0.00     0.395 HD
ENDBRANCH   1   7
TORSDOF 1
ENDMDL
