MODEL 1
REMARK minimizedAffinity 11.1975431
REMARK minimizedRMSD -1
REMARK  1 active torsions:
REMARK  status: ('A' for Active; 'I' for Inactive)
REMARK    1  A    between atoms: N_2  and  C1_3 
ROOT
ATOM      1  C1  UNL d   1      -4.779  -4.534   3.351  0.00  0.00     0.143 A 
ATOM      2  C2  UNL d   1      -4.653  -3.561   4.348  0.00  0.00    -0.057 A 
ATOM      3  C3  UNL d   1      -5.131  -3.783   5.645  0.00  0.00     0.033 A 
ATOM      4  C4  UNL d   1      -5.773  -4.976   5.961  0.00  0.00    -0.042 A 
ATOM      5  C5  UNL d   1      -5.931  -5.948   4.980  0.00  0.00     0.033 A 
ATOM      6  C6  UNL d   1      -5.445  -5.723   3.688  0.00  0.00    -0.057 A 
ENDROOT
BRANCH   1   7
ATOM      7  N   UNL d   1      -4.412  -4.335   2.018  0.00  0.00    -0.732 N 
ATOM      8  C   UNL d   1      -3.493  -3.277   1.657  0.00  0.00     0.284 C 
ATOM      9  H3  UNL d   1      -4.254  -5.210   1.524  0.00  0.00     0.395 HD
ENDBRANCH   1   7
TORSDOF 1
ENDMDL
