MODEL 1
REMARK minimizedAffinity 8.75165749
REMARK minimizedRMSD -1
REMARK  1 active torsions:
REMARK  status: ('A' for Active; 'I' for Inactive)
REMARK    1  A    between atoms: N_2  and  C1_3 
ROOT
ATOM      1  C1  UNL d   1      -0.261  -1.549   2.436  0.00  0.00     0.143 A 
ATOM      2  C2  UNL d   1      -0.621  -0.610   3.409  0.00  0.00    -0.057 A 
ATOM      3  C3  UNL d   1      -1.732   0.224   3.237  0.00  0.00     0.033 A 
ATOM      4  C4  UNL d   1      -2.488   0.155   2.071  0.00  0.00    -0.042 A 
ATOM      5  C5  UNL d   1      -2.134  -0.753   1.080  0.00  0.00     0.033 A 
ATOM      6  C6  UNL d   1      -1.028  -1.589   1.260  0.00  0.00    -0.057 A 
ENDROOT
BRANCH   1   7
ATOM      7  N   UNL d   1       0.889  -2.339   2.504  0.00  0.00    -0.732 N 
ATOM      8  C   UNL d   1       1.899  -2.084   3.509  0.00  0.00     0.284 C 
ATOM      9  H3  UNL d   1       0.692  -3.326   2.354  0.00  0.00     0.395 HD
ENDBRANCH   1   7
TORSDOF 1
ENDMDL
