MODEL 1
REMARK minimizedAffinity 10.8576279
REMARK minimizedRMSD -1
REMARK  1 active torsions:
REMARK  status: ('A' for Active; 'I' for Inactive)
REMARK    1  A    between atoms: N_2  and  C1_3 
ROOT
ATOM      1  C1  UNL d   1      -3.071  -2.085   2.129  0.00  0.00     0.143 A 
ATOM      2  C2  UNL d   1      -2.006  -2.397   1.277  0.00  0.00    -0.057 A 
ATOM      3  C3  UNL d   1      -0.884  -1.566   1.183  0.00  0.00     0.033 A 
ATOM      4  C4  UNL d   1      -0.819  -0.388   1.921  0.00  0.00    -0.042 A 
ATOM      5  C5  UNL d   1      -1.876  -0.045   2.755  0.00  0.00     0.033 A 
ATOM      6  C6  UNL d   1      -2.992  -0.883   2.850  0.00  0.00    -0.057 A 
ENDROOT
BRANCH   1   7
ATOM      7  N   UNL d   1      -4.257  -2.820   2.193  0.00  0.00    -0.732 N 
ATOM      8  C   UNL d   1      -4.228  -4.266   2.221  0.00  0.00     0.284 C 
ATOM      9  H3  UNL d   1      -4.937  -2.405   2.827  0.00  0.00     0.395 HD
ENDBRANCH   1   7
TORSDOF 1
ENDMDL
