MODEL 1
REMARK minimizedAffinity 4.1437211
REMARK minimizedRMSD -1
REMARK  1 active torsions:
REMARK  status: ('A' for Active; 'I' for Inactive)
REMARK    1  A    between atoms: N_2  and  C1_3 
ROOT
ATOM      1  C1  UNL d   1      -5.010   2.565   4.393  0.00  0.00     0.143 A 
ATOM      2  C2  UNL d   1      -3.679   2.275   4.073  0.00  0.00    -0.057 A 
ATOM      3  C3  UNL d   1      -3.344   1.633   2.875  0.00  0.00     0.033 A 
ATOM      4  C4  UNL d   1      -4.340   1.242   1.986  0.00  0.00    -0.042 A 
ATOM      5  C5  UNL d   1      -5.671   1.497   2.295  0.00  0.00     0.033 A 
ATOM      6  C6  UNL d   1      -5.999   2.145   3.490  0.00  0.00    -0.057 A 
ENDROOT
BRANCH   1   7
ATOM      7  N   UNL d   1      -5.415   3.113   5.613  0.00  0.00    -0.732 N 
ATOM      8  C   UNL d   1      -5.925   4.465   5.680  0.00  0.00     0.284 C 
ATOM      9  H3  UNL d   1      -5.927   2.446   6.187  0.00  0.00     0.395 HD
ENDBRANCH   1   7
TORSDOF 1
ENDMDL
