MODEL 1
REMARK minimizedAffinity 8.83158398
REMARK minimizedRMSD -1
REMARK  1 active torsions:
REMARK  status: ('A' for Active; 'I' for Inactive)
REMARK    1  A    between atoms: N_2  and  C1_3 
ROOT
ATOM      1  C1  UNL d   1      -3.177  -5.601  -5.028  0.00  0.00     0.143 A 
ATOM      2  C2  UNL d   1      -2.690  -4.953  -3.887  0.00  0.00    -0.057 A 
ATOM      3  C3  UNL d   1      -1.328  -4.668  -3.740  0.00  0.00     0.033 A 
ATOM      4  C4  UNL d   1      -0.420  -5.053  -4.721  0.00  0.00    -0.042 A 
ATOM      5  C5  UNL d   1      -0.877  -5.721  -5.852  0.00  0.00     0.033 A 
ATOM      6  C6  UNL d   1      -2.241  -5.996  -5.996  0.00  0.00    -0.057 A 
ENDROOT
BRANCH   1   7
ATOM      7  N   UNL d   1      -4.506  -5.999  -5.189  0.00  0.00    -0.732 N 
ATOM      8  C   UNL d   1      -5.588  -5.067  -4.959  0.00  0.00     0.284 C 
ATOM      9  H3  UNL d   1      -4.637  -6.596  -6.003  0.00  0.00     0.395 HD
ENDBRANCH   1   7
TORSDOF 1
ENDMDL
