MODEL 1
REMARK minimizedAffinity 11.9831877
REMARK minimizedRMSD -1
REMARK  1 active torsions:
REMARK  status: ('A' for Active; 'I' for Inactive)
REMARK    1  A    between atoms: C1_2  and  C2_3 
ROOT
ATOM      1  C2  UNL d   1      -1.979   2.348  -2.148  0.00  0.00    -0.081 A 
ATOM      2  C3  UNL d   1      -0.634   2.099  -2.447  0.00  0.00     0.006 A 
ATOM      3  C4  UNL d   1       0.313   2.006  -1.424  0.00  0.00     0.002 A 
ATOM      4  C5  UNL d   1      -0.070   2.152  -0.087  0.00  0.00    -0.080 A 
ATOM      5  C6  UNL d   1       0.931   2.024   1.022  0.00  0.00     0.076 C 
ATOM      6  C7  UNL d   1      -1.411   2.418   0.210  0.00  0.00     0.002 A 
ATOM      7  C8  UNL d   1      -2.358   2.512  -0.812  0.00  0.00     0.006 A 
ENDROOT
BRANCH   1   8
ATOM      8  C1  UNL d   1      -3.013   2.385  -3.244  0.00  0.00     0.054 C 
ATOM      9  C   UNL d   1      -3.086   3.761  -3.891  0.00  0.00     0.018 C 
ENDBRANCH   1   8
TORSDOF 1
ENDMDL
