MODEL 1
REMARK minimizedAffinity 7.44790554
REMARK minimizedRMSD -1
REMARK  1 active torsions:
REMARK  status: ('A' for Active; 'I' for Inactive)
REMARK    1  A    between atoms: C1_2  and  C2_3 
ROOT
ATOM      1  C2  UNL d   1       0.227   3.361   1.393  0.00  0.00    -0.081 A 
ATOM      2  C3  UNL d   1       1.352   3.224   2.216  0.00  0.00     0.006 A 
ATOM      3  C4  UNL d   1       1.414   2.200   3.165  0.00  0.00     0.002 A 
ATOM      4  C5  UNL d   1       0.357   1.294   3.301  0.00  0.00    -0.080 A 
ATOM      5  C6  UNL d   1       0.424   0.173   4.295  0.00  0.00     0.076 C 
ATOM      6  C7  UNL d   1      -0.774   1.442   2.491  0.00  0.00     0.002 A 
ATOM      7  C8  UNL d   1      -0.837   2.465   1.543  0.00  0.00     0.006 A 
ENDROOT
BRANCH   1   8
ATOM      8  C1  UNL d   1       0.184   4.424   0.325  0.00  0.00     0.054 C 
ATOM      9  C   UNL d   1      -0.522   3.923  -0.927  0.00  0.00     0.018 C 
ENDBRANCH   1   8
TORSDOF 1
ENDMDL
