MODEL 1
REMARK minimizedAffinity 3.90961432
REMARK minimizedRMSD -1
REMARK  1 active torsions:
REMARK  status: ('A' for Active; 'I' for Inactive)
REMARK    1  A    between atoms: C1_2  and  C2_3 
ROOT
ATOM      1  C2  UNL d   1      -0.010   3.134   0.583  0.00  0.00    -0.081 A 
ATOM      2  C3  UNL d   1       1.037   4.059   0.674  0.00  0.00     0.006 A 
ATOM      3  C4  UNL d   1       1.746   4.212   1.868  0.00  0.00     0.002 A 
ATOM      4  C5  UNL d   1       1.426   3.436   2.987  0.00  0.00    -0.080 A 
ATOM      5  C6  UNL d   1       2.199   3.568   4.266  0.00  0.00     0.076 C 
ATOM      6  C7  UNL d   1       0.368   2.524   2.902  0.00  0.00     0.002 A 
ATOM      7  C8  UNL d   1      -0.341   2.372   1.709  0.00  0.00     0.006 A 
ENDROOT
BRANCH   1   8
ATOM      8  C1  UNL d   1      -0.734   2.921  -0.722  0.00  0.00     0.054 C 
ATOM      9  C   UNL d   1      -0.854   1.440  -1.053  0.00  0.00     0.018 C 
ENDBRANCH   1   8
TORSDOF 1
ENDMDL
