MODEL 1
REMARK minimizedAffinity 6.73583031
REMARK minimizedRMSD -1
REMARK  1 active torsions:
REMARK  status: ('A' for Active; 'I' for Inactive)
REMARK    1  A    between atoms: C1_2  and  C2_3 
ROOT
ATOM      1  C2  UNL d   1      -0.098  -0.599  -1.183  0.00  0.00    -0.081 A 
ATOM      2  C3  UNL d   1      -1.177  -1.481  -1.318  0.00  0.00     0.006 A 
ATOM      3  C4  UNL d   1      -2.487  -0.998  -1.341  0.00  0.00     0.002 A 
ATOM      4  C5  UNL d   1      -2.740   0.374  -1.237  0.00  0.00    -0.080 A 
ATOM      5  C6  UNL d   1      -4.141   0.908  -1.291  0.00  0.00     0.076 C 
ATOM      6  C7  UNL d   1      -1.664   1.254  -1.084  0.00  0.00     0.002 A 
ATOM      7  C8  UNL d   1      -0.353   0.772  -1.061  0.00  0.00     0.006 A 
ENDROOT
BRANCH   1   8
ATOM      8  C1  UNL d   1       1.320  -1.110  -1.223  0.00  0.00     0.054 C 
ATOM      9  C   UNL d   1       1.456  -2.423  -0.465  0.00  0.00     0.018 C 
ENDBRANCH   1   8
TORSDOF 1
ENDMDL
