MODEL 1
REMARK minimizedAffinity -1.85546446
REMARK minimizedRMSD -1
REMARK  1 active torsions:
REMARK  status: ('A' for Active; 'I' for Inactive)
REMARK    1  A    between atoms: C1_2  and  C2_3 
ROOT
ATOM      1  C2  UNL d   1       4.699  -2.270  -0.133  0.00  0.00    -0.081 A 
ATOM      2  C3  UNL d   1       5.513  -3.407  -0.191  0.00  0.00     0.006 A 
ATOM      3  C4  UNL d   1       5.311  -4.374  -1.178  0.00  0.00     0.002 A 
ATOM      4  C5  UNL d   1       4.296  -4.217  -2.128  0.00  0.00    -0.080 A 
ATOM      5  C6  UNL d   1       4.087  -5.232  -3.212  0.00  0.00     0.076 C 
ATOM      6  C7  UNL d   1       3.471  -3.089  -2.060  0.00  0.00     0.002 A 
ATOM      7  C8  UNL d   1       3.672  -2.122  -1.073  0.00  0.00     0.006 A 
ENDROOT
BRANCH   1   8
ATOM      8  C1  UNL d   1       4.956  -1.194   0.890  0.00  0.00     0.054 C 
ATOM      9  C   UNL d   1       3.687  -0.839   1.651  0.00  0.00     0.018 C 
ENDBRANCH   1   8
TORSDOF 1
ENDMDL
