MODEL 1
REMARK minimizedAffinity 9.98916721
REMARK minimizedRMSD -1
REMARK  1 active torsions:
REMARK  status: ('A' for Active; 'I' for Inactive)
REMARK    1  A    between atoms: C1_2  and  C2_3 
ROOT
ATOM      1  C2  UNL d   1       1.712  -4.832  -0.631  0.00  0.00    -0.081 A 
ATOM      2  C3  UNL d   1       2.344  -5.974  -1.139  0.00  0.00     0.006 A 
ATOM      3  C4  UNL d   1       3.730  -5.999  -1.310  0.00  0.00     0.002 A 
ATOM      4  C5  UNL d   1       4.508  -4.887  -0.969  0.00  0.00    -0.080 A 
ATOM      5  C6  UNL d   1       6.000  -4.911  -1.120  0.00  0.00     0.076 C 
ATOM      6  C7  UNL d   1       3.875  -3.740  -0.478  0.00  0.00     0.002 A 
ATOM      7  C8  UNL d   1       2.489  -3.714  -0.307  0.00  0.00     0.006 A 
ENDROOT
BRANCH   1   8
ATOM      8  C1  UNL d   1       0.225  -4.825  -0.384  0.00  0.00     0.054 C 
ATOM      9  C   UNL d   1      -0.528  -5.498  -1.523  0.00  0.00     0.018 C 
ENDBRANCH   1   8
TORSDOF 1
ENDMDL
