MODEL 1
REMARK minimizedAffinity 12.2130661
REMARK minimizedRMSD -1
REMARK  1 active torsions:
REMARK  status: ('A' for Active; 'I' for Inactive)
REMARK    1  A    between atoms: C1_2  and  C2_3 
ROOT
ATOM      1  C2  UNL d   1       4.492  -2.964  -1.710  0.00  0.00    -0.081 A 
ATOM      2  C3  UNL d   1       4.445  -2.539  -3.043  0.00  0.00     0.006 A 
ATOM      3  C4  UNL d   1       4.590  -3.458  -4.085  0.00  0.00     0.002 A 
ATOM      4  C5  UNL d   1       4.776  -4.817  -3.812  0.00  0.00    -0.080 A 
ATOM      5  C6  UNL d   1       4.902  -5.819  -4.921  0.00  0.00     0.076 C 
ATOM      6  C7  UNL d   1       4.840  -5.240  -2.480  0.00  0.00     0.002 A 
ATOM      7  C8  UNL d   1       4.696  -4.321  -1.438  0.00  0.00     0.006 A 
ENDROOT
BRANCH   1   8
ATOM      8  C1  UNL d   1       4.271  -1.985  -0.585  0.00  0.00     0.054 C 
ATOM      9  C   UNL d   1       2.798  -1.633  -0.438  0.00  0.00     0.018 C 
ENDBRANCH   1   8
TORSDOF 1
ENDMDL
