MODEL 1
REMARK minimizedAffinity 2.24361873
REMARK minimizedRMSD -1
REMARK  0 active torsions:
REMARK  status: ('A' for Active; 'I' for Inactive)
ROOT
ATOM      1  N1  IND d   1       0.521  -1.217  -0.979  0.00  0.00    -0.196 N 
ATOM      2  C2  IND d   1       1.855  -1.024  -1.210  0.00  0.00     0.054 A 
ATOM      3  C3  IND d   1       2.528  -0.945  -0.041  0.00  0.00    -0.031 A 
ATOM      4  C4  IND d   1       1.659  -1.209   2.368  0.00  0.00     0.051 A 
ATOM      5  C5  IND d   1       0.506  -1.361   3.087  0.00  0.00    -0.031 A 
ATOM      6  C6  IND d   1      -0.725  -1.478   2.474  0.00  0.00     0.015 A 
ATOM      7  C7  IND d   1      -0.848  -1.459   1.114  0.00  0.00    -0.016 A 
ATOM      8  C8  IND d   1       0.319  -1.297   0.381  0.00  0.00    -0.047 A 
ATOM      9  C9  IND d   1       1.566  -1.135   0.998  0.00  0.00    -0.096 A 
ATOM     10  HN1 IND d   1      -0.089  -1.278  -1.582  0.00  0.00     0.298 HD
ENDROOT
TORSDOF 0
ENDMDL
