MODEL 1
REMARK minimizedAffinity 5.19430304
REMARK minimizedRMSD -1
REMARK  0 active torsions:
REMARK  status: ('A' for Active; 'I' for Inactive)
ROOT
ATOM      1  N1  IND d   1      -4.071   2.631  -6.000  0.00  0.00    -0.196 N 
ATOM      2  C2  IND d   1      -5.090   3.426  -5.555  0.00  0.00     0.054 A 
ATOM      3  C3  IND d   1      -6.000   2.690  -4.877  0.00  0.00    -0.031 A 
ATOM      4  C4  IND d   1      -5.965   0.184  -4.290  0.00  0.00     0.051 A 
ATOM      5  C5  IND d   1      -5.256  -0.964  -4.509  0.00  0.00    -0.031 A 
ATOM      6  C6  IND d   1      -4.092  -0.972  -5.249  0.00  0.00     0.015 A 
ATOM      7  C7  IND d   1      -3.584   0.175  -5.790  0.00  0.00    -0.016 A 
ATOM      8  C8  IND d   1      -4.304   1.341  -5.576  0.00  0.00    -0.047 A 
ATOM      9  C9  IND d   1      -5.509   1.348  -4.861  0.00  0.00    -0.096 A 
ATOM     10  HN1 IND d   1      -3.398   2.892  -6.466  0.00  0.00     0.298 HD
ENDROOT
TORSDOF 0
ENDMDL
