MODEL 1
REMARK minimizedAffinity 6.22007561
REMARK minimizedRMSD -1
REMARK  0 active torsions:
REMARK  status: ('A' for Active; 'I' for Inactive)
ROOT
ATOM      1  N1  IND d   1      -2.373  -1.672  -3.499  0.00  0.00    -0.196 N 
ATOM      2  C2  IND d   1      -2.864  -1.927  -2.249  0.00  0.00     0.054 A 
ATOM      3  C3  IND d   1      -4.133  -1.476  -2.140  0.00  0.00    -0.031 A 
ATOM      4  C4  IND d   1      -5.636  -0.377  -3.918  0.00  0.00     0.051 A 
ATOM      5  C5  IND d   1      -5.619   0.097  -5.199  0.00  0.00    -0.031 A 
ATOM      6  C6  IND d   1      -4.496   0.002  -5.996  0.00  0.00     0.015 A 
ATOM      7  C7  IND d   1      -3.348  -0.584  -5.543  0.00  0.00    -0.016 A 
ATOM      8  C8  IND d   1      -3.361  -1.061  -4.240  0.00  0.00    -0.047 A 
ATOM      9  C9  IND d   1      -4.483  -0.929  -3.412  0.00  0.00    -0.096 A 
ATOM     10  HN1 IND d   1      -1.581  -1.860  -3.775  0.00  0.00     0.298 HD
ENDROOT
TORSDOF 0
ENDMDL
