MODEL 1
REMARK minimizedAffinity 2.43390393
REMARK minimizedRMSD -1
REMARK  0 active torsions:
REMARK  status: ('A' for Active; 'I' for Inactive)
ROOT
ATOM      1  N1  IND d   1       1.471  -0.978  -2.421  0.00  0.00    -0.196 N 
ATOM      2  C2  IND d   1       1.851  -1.500  -1.216  0.00  0.00     0.054 A 
ATOM      3  C3  IND d   1       2.298  -0.521  -0.399  0.00  0.00    -0.031 A 
ATOM      4  C4  IND d   1       2.400   2.021  -0.795  0.00  0.00     0.051 A 
ATOM      5  C5  IND d   1       2.196   2.970  -1.756  0.00  0.00    -0.031 A 
ATOM      6  C6  IND d   1       1.728   2.646  -3.014  0.00  0.00     0.015 A 
ATOM      7  C7  IND d   1       1.435   1.355  -3.353  0.00  0.00    -0.016 A 
ATOM      8  C8  IND d   1       1.647   0.388  -2.382  0.00  0.00    -0.047 A 
ATOM      9  C9  IND d   1       2.162   0.706  -1.118  0.00  0.00    -0.096 A 
ATOM     10  HN1 IND d   1       1.173  -1.427  -3.091  0.00  0.00     0.298 HD
ENDROOT
TORSDOF 0
ENDMDL
