MODEL 1
REMARK minimizedAffinity -3.71471763
REMARK minimizedRMSD -1
REMARK  0 active torsions:
REMARK  status: ('A' for Active; 'I' for Inactive)
ROOT
ATOM      1  N1  IND d   1       1.521  -1.701  -1.337  0.00  0.00    -0.196 N 
ATOM      2  C2  IND d   1       1.605  -2.114  -0.036  0.00  0.00     0.054 A 
ATOM      3  C3  IND d   1       2.072  -1.114   0.745  0.00  0.00    -0.031 A 
ATOM      4  C4  IND d   1       2.667   1.310   0.117  0.00  0.00     0.051 A 
ATOM      5  C5  IND d   1       2.787   2.146  -0.957  0.00  0.00    -0.031 A 
ATOM      6  C6  IND d   1       2.483   1.735  -2.239  0.00  0.00     0.015 A 
ATOM      7  C7  IND d   1       2.034   0.470  -2.493  0.00  0.00    -0.016 A 
ATOM      8  C8  IND d   1       1.918  -0.384  -1.405  0.00  0.00    -0.047 A 
ATOM      9  C9  IND d   1       2.265   0.015  -0.108  0.00  0.00    -0.096 A 
ATOM     10  HN1 IND d   1       1.265  -2.184  -2.001  0.00  0.00     0.298 HD
ENDROOT
TORSDOF 0
ENDMDL
