MODEL 1
REMARK minimizedAffinity -2.79239917
REMARK minimizedRMSD -1
REMARK  3 active torsions:
REMARK  status: ('A' for Active; 'I' for Inactive)
REMARK    1  A    between atoms: C3'_2  and  C2'_3 
REMARK    2  A    between atoms: C2'_3  and  C1'_4 
REMARK    3  A    between atoms: C1'_4  and  C1_5 
ROOT
ATOM      1  C1  N4B d   1      -2.088   1.491   1.896  0.00  0.00    -0.075 A 
ATOM      2  C2  N4B d   1      -0.853   1.963   1.399  0.00  0.00     0.002 A 
ATOM      3  C3  N4B d   1       0.133   1.072   1.052  0.00  0.00     0.002 A 
ATOM      4  C4  N4B d   1      -0.085  -0.288   1.212  0.00  0.00    -0.004 A 
ATOM      5  C5  N4B d   1      -1.290  -0.737   1.669  0.00  0.00     0.002 A 
ATOM      6  C6  N4B d   1      -2.291   0.147   2.017  0.00  0.00     0.002 A 
ENDROOT
BRANCH   1   7
ATOM      7  C1' N4B d   1      -3.164   2.430   2.369  0.00  0.00     0.057 C 
BRANCH   7   8
ATOM      8  C2' N4B d   1      -3.952   1.763   3.493  0.00  0.00     0.009 C 
BRANCH   8   9
ATOM      9  C3' N4B d   1      -4.693   2.778   4.347  0.00  0.00     0.004 C 
ATOM     10  C4' N4B d   1      -5.004   2.264   5.721  0.00  0.00     0.003 C 
ENDBRANCH   8   9
ENDBRANCH   7   8
ENDBRANCH   1   7
TORSDOF 3
ENDMDL
