MODEL 1
REMARK minimizedAffinity 0.835103273
REMARK minimizedRMSD -1
REMARK  3 active torsions:
REMARK  status: ('A' for Active; 'I' for Inactive)
REMARK    1  A    between atoms: C3'_2  and  C2'_3 
REMARK    2  A    between atoms: C2'_3  and  C1'_4 
REMARK    3  A    between atoms: C1'_4  and  C1_5 
ROOT
ATOM      1  C1  N4B d   1      -4.574   2.636   4.308  0.00  0.00    -0.075 A 
ATOM      2  C2  N4B d   1      -5.305   2.519   5.511  0.00  0.00     0.002 A 
ATOM      3  C3  N4B d   1      -6.000   3.598   6.000  0.00  0.00     0.002 A 
ATOM      4  C4  N4B d   1      -5.962   4.804   5.316  0.00  0.00    -0.004 A 
ATOM      5  C5  N4B d   1      -5.274   4.902   4.142  0.00  0.00     0.002 A 
ATOM      6  C6  N4B d   1      -4.575   3.824   3.637  0.00  0.00     0.002 A 
ENDROOT
BRANCH   1   7
ATOM      7  C1' N4B d   1      -3.730   1.509   3.779  0.00  0.00     0.057 C 
BRANCH   7   8
ATOM      8  C2' N4B d   1      -2.840   2.033   2.657  0.00  0.00     0.009 C 
BRANCH   8   9
ATOM      9  C3' N4B d   1      -1.714   1.069   2.326  0.00  0.00     0.004 C 
ATOM     10  C4' N4B d   1      -0.442   1.768   1.949  0.00  0.00     0.003 C 
ENDBRANCH   8   9
ENDBRANCH   7   8
ENDBRANCH   1   7
TORSDOF 3
ENDMDL
