MODEL 1
REMARK minimizedAffinity 5.32592916
REMARK minimizedRMSD -1
REMARK  3 active torsions:
REMARK  status: ('A' for Active; 'I' for Inactive)
REMARK    1  A    between atoms: C3'_2  and  C2'_3 
REMARK    2  A    between atoms: C2'_3  and  C1'_4 
REMARK    3  A    between atoms: C1'_4  and  C1_5 
ROOT
ATOM      1  C1  N4B d   1      -2.298  -4.004  -0.821  0.00  0.00    -0.075 A 
ATOM      2  C2  N4B d   1      -3.585  -3.915  -0.245  0.00  0.00     0.002 A 
ATOM      3  C3  N4B d   1      -4.476  -2.974  -0.700  0.00  0.00     0.002 A 
ATOM      4  C4  N4B d   1      -4.098  -2.103  -1.711  0.00  0.00    -0.004 A 
ATOM      5  C5  N4B d   1      -2.863  -2.213  -2.279  0.00  0.00     0.002 A 
ATOM      6  C6  N4B d   1      -1.958  -3.156  -1.835  0.00  0.00     0.002 A 
ENDROOT
BRANCH   1   7
ATOM      7  C1' N4B d   1      -1.260  -4.959  -0.300  0.00  0.00     0.057 C 
BRANCH   7   8
ATOM      8  C2' N4B d   1       0.068  -4.223  -0.150  0.00  0.00     0.009 C 
BRANCH   8   9
ATOM      9  C3' N4B d   1       1.033  -4.556  -1.276  0.00  0.00     0.004 C 
ATOM     10  C4' N4B d   1       1.976  -3.432  -1.584  0.00  0.00     0.003 C 
ENDBRANCH   8   9
ENDBRANCH   7   8
ENDBRANCH   1   7
TORSDOF 3
ENDMDL
