MODEL 1
REMARK minimizedAffinity 4.80013752
REMARK minimizedRMSD -1
REMARK  3 active torsions:
REMARK  status: ('A' for Active; 'I' for Inactive)
REMARK    1  A    between atoms: C3'_2  and  C2'_3 
REMARK    2  A    between atoms: C2'_3  and  C1'_4 
REMARK    3  A    between atoms: C1'_4  and  C1_5 
ROOT
ATOM      1  C1  N4B d   1      -2.836   1.536   2.609  0.00  0.00    -0.075 A 
ATOM      2  C2  N4B d   1      -2.318   2.773   2.166  0.00  0.00     0.002 A 
ATOM      3  C3  N4B d   1      -1.100   2.820   1.533  0.00  0.00     0.002 A 
ATOM      4  C4  N4B d   1      -0.376   1.651   1.350  0.00  0.00    -0.004 A 
ATOM      5  C5  N4B d   1      -0.895   0.457   1.758  0.00  0.00     0.002 A 
ATOM      6  C6  N4B d   1      -2.120   0.394   2.392  0.00  0.00     0.002 A 
ENDROOT
BRANCH   1   7
ATOM      7  C1' N4B d   1      -4.123   1.445   3.382  0.00  0.00     0.057 C 
BRANCH   7   8
ATOM      8  C2' N4B d   1      -4.359   2.761   4.117  0.00  0.00     0.009 C 
BRANCH   8   9
ATOM      9  C3' N4B d   1      -5.030   2.547   5.463  0.00  0.00     0.004 C 
ATOM     10  C4' N4B d   1      -5.682   3.789   5.992  0.00  0.00     0.003 C 
ENDBRANCH   8   9
ENDBRANCH   7   8
ENDBRANCH   1   7
TORSDOF 3
ENDMDL
