MODEL 1
REMARK minimizedAffinity 2.96552157
REMARK minimizedRMSD -1
REMARK  3 active torsions:
REMARK  status: ('A' for Active; 'I' for Inactive)
REMARK    1  A    between atoms: C3'_2  and  C2'_3 
REMARK    2  A    between atoms: C2'_3  and  C1'_4 
REMARK    3  A    between atoms: C1'_4  and  C1_5 
ROOT
ATOM      1  C1  N4B d   1      -2.888   1.203   2.955  0.00  0.00    -0.075 A 
ATOM      2  C2  N4B d   1      -1.926   2.148   2.535  0.00  0.00     0.002 A 
ATOM      3  C3  N4B d   1      -0.755   1.725   1.955  0.00  0.00     0.002 A 
ATOM      4  C4  N4B d   1      -0.518   0.367   1.801  0.00  0.00    -0.004 A 
ATOM      5  C5  N4B d   1      -1.463  -0.538   2.186  0.00  0.00     0.002 A 
ATOM      6  C6  N4B d   1      -2.646  -0.127   2.767  0.00  0.00     0.002 A 
ENDROOT
BRANCH   1   7
ATOM      7  C1' N4B d   1      -4.144   1.614   3.673  0.00  0.00     0.057 C 
BRANCH   7   8
ATOM      8  C2' N4B d   1      -3.773   2.250   5.009  0.00  0.00     0.009 C 
BRANCH   8   9
ATOM      9  C3' N4B d   1      -4.949   2.283   5.969  0.00  0.00     0.004 C 
ATOM     10  C4' N4B d   1      -5.638   3.615   5.998  0.00  0.00     0.003 C 
ENDBRANCH   8   9
ENDBRANCH   7   8
ENDBRANCH   1   7
TORSDOF 3
ENDMDL
