MODEL 1
REMARK minimizedAffinity -0.868237853
REMARK minimizedRMSD -1
REMARK  3 active torsions:
REMARK  status: ('A' for Active; 'I' for Inactive)
REMARK    1  A    between atoms: C3'_2  and  C2'_3 
REMARK    2  A    between atoms: C2'_3  and  C1'_4 
REMARK    3  A    between atoms: C1'_4  and  C1_5 
ROOT
ATOM      1  C1  N4B d   1       0.335   2.392   0.995  0.00  0.00    -0.075 A 
ATOM      2  C2  N4B d   1       1.093   1.279   1.421  0.00  0.00     0.002 A 
ATOM      3  C3  N4B d   1       0.512   0.036   1.480  0.00  0.00     0.002 A 
ATOM      4  C4  N4B d   1      -0.823  -0.114   1.139  0.00  0.00    -0.004 A 
ATOM      5  C5  N4B d   1      -1.541   0.962   0.704  0.00  0.00     0.002 A 
ATOM      6  C6  N4B d   1      -0.969   2.216   0.636  0.00  0.00     0.002 A 
ENDROOT
BRANCH   1   7
ATOM      7  C1' N4B d   1       0.902   3.786   0.996  0.00  0.00     0.057 C 
BRANCH   7   8
ATOM      8  C2' N4B d   1       2.396   3.719   0.691  0.00  0.00     0.009 C 
BRANCH   8   9
ATOM      9  C3' N4B d   1       2.972   5.087   0.370  0.00  0.00     0.004 C 
ATOM     10  C4' N4B d   1       3.680   5.707   1.538  0.00  0.00     0.003 C 
ENDBRANCH   8   9
ENDBRANCH   7   8
ENDBRANCH   1   7
TORSDOF 3
ENDMDL
