MODEL 1
REMARK minimizedAffinity -0.682802022
REMARK minimizedRMSD -1
REMARK  3 active torsions:
REMARK  status: ('A' for Active; 'I' for Inactive)
REMARK    1  A    between atoms: C3'_2  and  C2'_3 
REMARK    2  A    between atoms: C2'_3  and  C1'_4 
REMARK    3  A    between atoms: C1'_4  and  C1_5 
ROOT
ATOM      1  C1  N4B d   1       0.245  -0.798   3.550  0.00  0.00    -0.075 A 
ATOM      2  C2  N4B d   1      -0.114  -1.062   4.890  0.00  0.00     0.002 A 
ATOM      3  C3  N4B d   1      -1.392  -1.464   5.192  0.00  0.00     0.002 A 
ATOM      4  C4  N4B d   1      -2.330  -1.589   4.177  0.00  0.00    -0.004 A 
ATOM      5  C5  N4B d   1      -1.968  -1.356   2.883  0.00  0.00     0.002 A 
ATOM      6  C6  N4B d   1      -0.686  -0.955   2.564  0.00  0.00     0.002 A 
ENDROOT
BRANCH   1   7
ATOM      7  C1' N4B d   1       1.606  -0.274   3.181  0.00  0.00     0.057 C 
BRANCH   7   8
ATOM      8  C2' N4B d   1       1.588   0.185   1.726  0.00  0.00     0.009 C 
BRANCH   8   9
ATOM      9  C3' N4B d   1       1.219   1.653   1.597  0.00  0.00     0.004 C 
ATOM     10  C4' N4B d   1      -0.188   1.859   1.120  0.00  0.00     0.003 C 
ENDBRANCH   8   9
ENDBRANCH   7   8
ENDBRANCH   1   7
TORSDOF 3
ENDMDL
