MODEL 1
REMARK minimizedAffinity -3.74424243
REMARK minimizedRMSD -1
REMARK  1 active torsions:
REMARK  status: ('A' for Active; 'I' for Inactive)
REMARK    1  A    between atoms: C1_2  and  C2_3 
ROOT
ATOM      1  C2  UNL d   1       5.811  -4.313   2.429  0.00  0.00    -0.073 A 
ATOM      2  C3  UNL d   1       5.997  -3.109   1.740  0.00  0.00    -0.002 A 
ATOM      3  C4  UNL d   1       5.827  -1.888   2.395  0.00  0.00     0.004 A 
ATOM      4  C5  UNL d   1       5.477  -1.859   3.745  0.00  0.00    -0.004 A 
ATOM      5  C6  UNL d   1       5.298  -3.051   4.453  0.00  0.00    -0.075 A 
ATOM      6  C7  UNL d   1       4.919  -3.036   5.905  0.00  0.00     0.076 C 
ATOM      7  C8  UNL d   1       5.468  -4.273   3.788  0.00  0.00     0.001 A 
ENDROOT
BRANCH   1   8
ATOM      8  C1  UNL d   1       5.999  -5.633   1.727  0.00  0.00     0.053 C 
ATOM      9  C   UNL d   1       5.999  -5.480   0.215  0.00  0.00     0.018 C 
ENDBRANCH   1   8
TORSDOF 1
ENDMDL
