MODEL 1
REMARK minimizedAffinity -3.41365814
REMARK minimizedRMSD -1
REMARK  1 active torsions:
REMARK  status: ('A' for Active; 'I' for Inactive)
REMARK    1  A    between atoms: C1_2  and  C2_3 
ROOT
ATOM      1  C2  UNL d   1       5.822  -3.283   3.208  0.00  0.00    -0.073 A 
ATOM      2  C3  UNL d   1       5.601  -2.143   3.990  0.00  0.00    -0.002 A 
ATOM      3  C4  UNL d   1       5.501  -2.248   5.378  0.00  0.00     0.004 A 
ATOM      4  C5  UNL d   1       5.629  -3.491   5.998  0.00  0.00    -0.004 A 
ATOM      5  C6  UNL d   1       5.862  -4.640   5.236  0.00  0.00    -0.075 A 
ATOM      6  C7  UNL d   1       6.000  -5.984   5.888  0.00  0.00     0.076 C 
ATOM      7  C8  UNL d   1       5.958  -4.526   3.842  0.00  0.00     0.001 A 
ENDROOT
BRANCH   1   8
ATOM      8  C1  UNL d   1       5.937  -3.173   1.710  0.00  0.00     0.053 C 
ATOM      9  C   UNL d   1       5.999  -4.537   1.042  0.00  0.00     0.018 C 
ENDBRANCH   1   8
TORSDOF 1
ENDMDL
