MODEL 1
REMARK minimizedAffinity -1.30943573
REMARK minimizedRMSD -1
REMARK  1 active torsions:
REMARK  status: ('A' for Active; 'I' for Inactive)
REMARK    1  A    between atoms: C1_2  and  C2_3 
ROOT
ATOM      1  C2  UNL d   1       5.125  -4.911   3.900  0.00  0.00    -0.073 A 
ATOM      2  C3  UNL d   1       5.151  -3.522   4.070  0.00  0.00    -0.002 A 
ATOM      3  C4  UNL d   1       5.459  -2.686   2.995  0.00  0.00     0.004 A 
ATOM      4  C5  UNL d   1       5.735  -3.229   1.740  0.00  0.00    -0.004 A 
ATOM      5  C6  UNL d   1       5.702  -4.614   1.548  0.00  0.00    -0.075 A 
ATOM      6  C7  UNL d   1       5.999  -5.214   0.206  0.00  0.00     0.076 C 
ATOM      7  C8  UNL d   1       5.395  -5.447   2.633  0.00  0.00     0.001 A 
ENDROOT
BRANCH   1   8
ATOM      8  C1  UNL d   1       4.787  -5.816   5.056  0.00  0.00     0.053 C 
ATOM      9  C   UNL d   1       5.966  -6.000   6.000  0.00  0.00     0.018 C 
ENDBRANCH   1   8
TORSDOF 1
ENDMDL
