MODEL 1
REMARK minimizedAffinity -2.25790167
REMARK minimizedRMSD -1
REMARK  1 active torsions:
REMARK  status: ('A' for Active; 'I' for Inactive)
REMARK    1  A    between atoms: C1_2  and  C2_3 
ROOT
ATOM      1  C2  UNL d   1       5.517  -3.649   3.307  0.00  0.00    -0.073 A 
ATOM      2  C3  UNL d   1       5.508  -2.426   3.988  0.00  0.00    -0.002 A 
ATOM      3  C4  UNL d   1       5.068  -2.360   5.311  0.00  0.00     0.004 A 
ATOM      4  C5  UNL d   1       4.639  -3.513   5.967  0.00  0.00    -0.004 A 
ATOM      5  C6  UNL d   1       4.652  -4.746   5.307  0.00  0.00    -0.075 A 
ATOM      6  C7  UNL d   1       4.192  -5.996   5.998  0.00  0.00     0.076 C 
ATOM      7  C8  UNL d   1       5.093  -4.805   3.978  0.00  0.00     0.001 A 
ENDROOT
BRANCH   1   8
ATOM      8  C1  UNL d   1       5.998  -3.727   1.881  0.00  0.00     0.053 C 
ATOM      9  C   UNL d   1       5.998  -5.154   1.357  0.00  0.00     0.018 C 
ENDBRANCH   1   8
TORSDOF 1
ENDMDL
