MODEL 1
REMARK minimizedAffinity -3.18005371
REMARK minimizedRMSD -1
REMARK  1 active torsions:
REMARK  status: ('A' for Active; 'I' for Inactive)
REMARK    1  A    between atoms: C1_2  and  C2_3 
ROOT
ATOM      1  C2  UNL d   1       5.881  -3.246   3.188  0.00  0.00    -0.073 A 
ATOM      2  C3  UNL d   1       5.700  -2.062   3.912  0.00  0.00    -0.002 A 
ATOM      3  C4  UNL d   1       5.600  -2.095   5.303  0.00  0.00     0.004 A 
ATOM      4  C5  UNL d   1       5.686  -3.308   5.985  0.00  0.00    -0.004 A 
ATOM      5  C6  UNL d   1       5.878  -4.501   5.280  0.00  0.00    -0.075 A 
ATOM      6  C7  UNL d   1       5.970  -5.815   5.999  0.00  0.00     0.076 C 
ATOM      7  C8  UNL d   1       5.975  -4.461   3.883  0.00  0.00     0.001 A 
ENDROOT
BRANCH   1   8
ATOM      8  C1  UNL d   1       5.996  -3.216   1.686  0.00  0.00     0.053 C 
ATOM      9  C   UNL d   1       5.990  -1.796   1.143  0.00  0.00     0.018 C 
ENDBRANCH   1   8
TORSDOF 1
ENDMDL
