MODEL 1
REMARK minimizedAffinity -2.57727957
REMARK minimizedRMSD -1
REMARK  1 active torsions:
REMARK  status: ('A' for Active; 'I' for Inactive)
REMARK    1  A    between atoms: C1_2  and  C2_3 
ROOT
ATOM      1  C2  UNL d   1       5.736  -3.318   4.416  0.00  0.00    -0.073 A 
ATOM      2  C3  UNL d   1       5.591  -1.935   4.263  0.00  0.00    -0.002 A 
ATOM      3  C4  UNL d   1       5.586  -1.363   2.990  0.00  0.00     0.004 A 
ATOM      4  C5  UNL d   1       5.720  -2.168   1.859  0.00  0.00    -0.004 A 
ATOM      5  C6  UNL d   1       5.853  -3.553   1.991  0.00  0.00    -0.075 A 
ATOM      6  C7  UNL d   1       6.000  -4.433   0.784  0.00  0.00     0.076 C 
ATOM      7  C8  UNL d   1       5.860  -4.120   3.273  0.00  0.00     0.001 A 
ENDROOT
BRANCH   1   8
ATOM      8  C1  UNL d   1       5.735  -3.941   5.789  0.00  0.00     0.053 C 
ATOM      9  C   UNL d   1       4.558  -4.884   5.986  0.00  0.00     0.018 C 
ENDBRANCH   1   8
TORSDOF 1
ENDMDL
