MODEL 1
REMARK minimizedAffinity -3.51853251
REMARK minimizedRMSD -1
REMARK  1 active torsions:
REMARK  status: ('A' for Active; 'I' for Inactive)
REMARK    1  A    between atoms: C1_2  and  C2_3 
ROOT
ATOM      1  C2  UNL d   1       5.091  -4.070   4.352  0.00  0.00    -0.073 A 
ATOM      2  C3  UNL d   1       5.316  -2.752   3.938  0.00  0.00    -0.002 A 
ATOM      3  C4  UNL d   1       5.767  -2.486   2.645  0.00  0.00     0.004 A 
ATOM      4  C5  UNL d   1       5.992  -3.533   1.751  0.00  0.00    -0.004 A 
ATOM      5  C6  UNL d   1       5.761  -4.856   2.142  0.00  0.00    -0.075 A 
ATOM      6  C7  UNL d   1       6.000  -5.994   1.193  0.00  0.00     0.076 C 
ATOM      7  C8  UNL d   1       5.310  -5.115   3.443  0.00  0.00     0.001 A 
ENDROOT
BRANCH   1   8
ATOM      8  C1  UNL d   1       4.597  -4.361   5.745  0.00  0.00     0.053 C 
ATOM      9  C   UNL d   1       4.173  -5.812   5.909  0.00  0.00     0.018 C 
ENDBRANCH   1   8
TORSDOF 1
ENDMDL
