MODEL 1
REMARK minimizedAffinity -2.10572982
REMARK minimizedRMSD -1
REMARK  0 active torsions:
REMARK  status: ('A' for Active; 'I' for Inactive)
ROOT
ATOM      1  C4' PXY d   1       6.000  -2.253   2.989  0.00  0.00     0.077 C 
ATOM      2  C1' PXY d   1       1.197  -4.579   5.212  0.00  0.00     0.077 C 
ATOM      3  C1  PXY d   1       2.459  -3.963   4.640  0.00  0.00    -0.082 A 
ATOM      4  C2  PXY d   1       2.577  -3.808   3.331  0.00  0.00     0.003 A 
ATOM      5  C3  PXY d   1       3.724  -3.283   2.795  0.00  0.00     0.003 A 
ATOM      6  C4  PXY d   1       4.740  -2.861   3.611  0.00  0.00    -0.082 A 
ATOM      7  C5  PXY d   1       4.623  -3.005   4.948  0.00  0.00     0.003 A 
ATOM      8  C6  PXY d   1       3.467  -3.579   5.469  0.00  0.00     0.003 A 
ENDROOT
TORSDOF 0
ENDMDL
