MODEL 1
REMARK minimizedAffinity 9.79914856
REMARK minimizedRMSD -1
REMARK  0 active torsions:
REMARK  status: ('A' for Active; 'I' for Inactive)
ROOT
ATOM      1  C4' PXY d   1       2.632   2.236   0.610  0.00  0.00     0.077 C 
ATOM      2  C1' PXY d   1       4.337   1.028   6.000  0.00  0.00     0.077 C 
ATOM      3  C1  PXY d   1       3.900   1.354   4.585  0.00  0.00    -0.082 A 
ATOM      4  C2  PXY d   1       2.650   1.122   4.218  0.00  0.00     0.003 A 
ATOM      5  C3  PXY d   1       2.246   1.381   2.933  0.00  0.00     0.003 A 
ATOM      6  C4  PXY d   1       3.116   1.932   2.031  0.00  0.00    -0.082 A 
ATOM      7  C5  PXY d   1       4.390   2.181   2.402  0.00  0.00     0.003 A 
ATOM      8  C6  PXY d   1       4.791   1.873   3.698  0.00  0.00     0.003 A 
ENDROOT
TORSDOF 0
ENDMDL
