MODEL 1
REMARK minimizedAffinity 10.2958956
REMARK minimizedRMSD -1
REMARK  0 active torsions:
REMARK  status: ('A' for Active; 'I' for Inactive)
ROOT
ATOM      1  C4' PXY d   1      -5.663   3.351   3.505  0.00  0.00     0.077 C 
ATOM      2  C1' PXY d   1      -2.569   3.113  -1.372  0.00  0.00     0.077 C 
ATOM      3  C1  PXY d   1      -3.388   3.184  -0.099  0.00  0.00    -0.082 A 
ATOM      4  C2  PXY d   1      -2.841   2.828   1.052  0.00  0.00     0.003 A 
ATOM      5  C3  PXY d   1      -3.577   2.856   2.208  0.00  0.00     0.003 A 
ATOM      6  C4  PXY d   1      -4.871   3.304   2.196  0.00  0.00    -0.082 A 
ATOM      7  C5  PXY d   1      -5.433   3.679   1.027  0.00  0.00     0.003 A 
ATOM      8  C6  PXY d   1      -4.682   3.604  -0.142  0.00  0.00     0.003 A 
ENDROOT
TORSDOF 0
ENDMDL
