MODEL 1
REMARK minimizedAffinity 5.5858326
REMARK minimizedRMSD -1
REMARK  0 active torsions:
REMARK  status: ('A' for Active; 'I' for Inactive)
ROOT
ATOM      1  C4' PXY d   1      -1.071   3.866   1.369  0.00  0.00     0.077 C 
ATOM      2  C1' PXY d   1       0.682  -1.075  -1.065  0.00  0.00     0.077 C 
ATOM      3  C1  PXY d   1       0.210   0.217  -0.427  0.00  0.00    -0.082 A 
ATOM      4  C2  PXY d   1       0.959   1.304  -0.520  0.00  0.00     0.003 A 
ATOM      5  C3  PXY d   1       0.562   2.472   0.079  0.00  0.00     0.003 A 
ATOM      6  C4  PXY d   1      -0.638   2.543   0.733  0.00  0.00    -0.082 A 
ATOM      7  C5  PXY d   1      -1.413   1.441   0.822  0.00  0.00     0.003 A 
ATOM      8  C6  PXY d   1      -0.973   0.254   0.243  0.00  0.00     0.003 A 
ENDROOT
TORSDOF 0
ENDMDL
