MODEL 1
REMARK minimizedAffinity 11.667963
REMARK minimizedRMSD -1
REMARK  0 active torsions:
REMARK  status: ('A' for Active; 'I' for Inactive)
ROOT
ATOM      1  C4' PXY d   1       1.210  -2.989   4.855  0.00  0.00     0.077 C 
ATOM      2  C1' PXY d   1       2.916   1.474   1.601  0.00  0.00     0.077 C 
ATOM      3  C1  PXY d   1       2.471   0.310   2.465  0.00  0.00    -0.082 A 
ATOM      4  C2  PXY d   1       2.494  -0.917   1.972  0.00  0.00     0.003 A 
ATOM      5  C3  PXY d   1       2.065  -1.977   2.729  0.00  0.00     0.003 A 
ATOM      6  C4  PXY d   1       1.659  -1.785   4.022  0.00  0.00    -0.082 A 
ATOM      7  C5  PXY d   1       1.643  -0.537   4.536  0.00  0.00     0.003 A 
ATOM      8  C6  PXY d   1       2.043   0.531   3.738  0.00  0.00     0.003 A 
ENDROOT
TORSDOF 0
ENDMDL
