MODEL 1
REMARK minimizedAffinity 10.1475363
REMARK minimizedRMSD -1
REMARK  0 active torsions:
REMARK  status: ('A' for Active; 'I' for Inactive)
ROOT
ATOM      1  C4' PXY d   1       1.895  -5.376   4.171  0.00  0.00     0.077 C 
ATOM      2  C1' PXY d   1       2.131   0.343   3.367  0.00  0.00     0.077 C 
ATOM      3  C1  PXY d   1       2.064  -1.155   3.590  0.00  0.00    -0.082 A 
ATOM      4  C2  PXY d   1       2.905  -1.950   2.948  0.00  0.00     0.003 A 
ATOM      5  C3  PXY d   1       2.836  -3.309   3.113  0.00  0.00     0.003 A 
ATOM      6  C4  PXY d   1       1.933  -3.857   3.984  0.00  0.00    -0.082 A 
ATOM      7  C5  PXY d   1       1.079  -3.052   4.651  0.00  0.00     0.003 A 
ATOM      8  C6  PXY d   1       1.137  -1.677   4.438  0.00  0.00     0.003 A 
ENDROOT
TORSDOF 0
ENDMDL
