MODEL 1
REMARK minimizedAffinity 10.3110228
REMARK minimizedRMSD -1
REMARK  0 active torsions:
REMARK  status: ('A' for Active; 'I' for Inactive)
ROOT
ATOM      1  C4' PXY d   1       4.104  -2.591   5.110  0.00  0.00     0.077 C 
ATOM      2  C1' PXY d   1       0.222  -0.538   1.351  0.00  0.00     0.077 C 
ATOM      3  C1  PXY d   1       1.230  -1.083   2.343  0.00  0.00    -0.082 A 
ATOM      4  C2  PXY d   1       2.360  -0.427   2.554  0.00  0.00     0.003 A 
ATOM      5  C3  PXY d   1       3.297  -0.922   3.424  0.00  0.00     0.003 A 
ATOM      6  C4  PXY d   1       3.053  -2.073   4.125  0.00  0.00    -0.082 A 
ATOM      7  C5  PXY d   1       1.898  -2.742   3.922  0.00  0.00     0.003 A 
ATOM      8  C6  PXY d   1       0.977  -2.245   3.005  0.00  0.00     0.003 A 
ENDROOT
TORSDOF 0
ENDMDL
