MODEL 1
REMARK minimizedAffinity 11.7073584
REMARK minimizedRMSD -1
REMARK  0 active torsions:
REMARK  status: ('A' for Active; 'I' for Inactive)
ROOT
ATOM      1  C4' PXY d   1      -1.066  -0.120   0.594  0.00  0.00     0.077 C 
ATOM      2  C1' PXY d   1       3.684  -2.528   2.841  0.00  0.00     0.077 C 
ATOM      3  C1  PXY d   1       2.442  -1.899   2.240  0.00  0.00    -0.082 A 
ATOM      4  C2  PXY d   1       1.784  -0.973   2.918  0.00  0.00     0.003 A 
ATOM      5  C3  PXY d   1       0.642  -0.417   2.403  0.00  0.00     0.003 A 
ATOM      6  C4  PXY d   1       0.198  -0.775   1.158  0.00  0.00    -0.082 A 
ATOM      7  C5  PXY d   1       0.869  -1.712   0.456  0.00  0.00     0.003 A 
ATOM      8  C6  PXY d   1       2.004  -2.293   1.014  0.00  0.00     0.003 A 
ENDROOT
TORSDOF 0
ENDMDL
