MODEL 1
REMARK minimizedAffinity 1.83707809
REMARK minimizedRMSD -1
REMARK  0 active torsions:
REMARK  status: ('A' for Active; 'I' for Inactive)
ROOT
ATOM      1  C4' PXY d   1       6.000  -3.061   5.999  0.00  0.00     0.077 C 
ATOM      2  C1' PXY d   1       1.522  -0.881   3.066  0.00  0.00     0.077 C 
ATOM      3  C1  PXY d   1       2.691  -1.448   3.846  0.00  0.00    -0.082 A 
ATOM      4  C2  PXY d   1       3.843  -1.665   3.233  0.00  0.00     0.003 A 
ATOM      5  C3  PXY d   1       4.901  -2.208   3.916  0.00  0.00     0.003 A 
ATOM      6  C4  PXY d   1       4.795  -2.481   5.253  0.00  0.00    -0.082 A 
ATOM      7  C5  PXY d   1       3.627  -2.252   5.888  0.00  0.00     0.003 A 
ATOM      8  C6  PXY d   1       2.552  -1.740   5.168  0.00  0.00     0.003 A 
ENDROOT
TORSDOF 0
ENDMDL
