MODEL 1
REMARK minimizedAffinity 3.64944768
REMARK minimizedRMSD -1
REMARK  0 active torsions:
REMARK  status: ('A' for Active; 'I' for Inactive)
ROOT
ATOM      1  C4' PXY d   1       1.707  -0.749   2.632  0.00  0.00     0.077 C 
ATOM      2  C1' PXY d   1       5.997  -2.663   6.000  0.00  0.00     0.077 C 
ATOM      3  C1  PXY d   1       4.863  -2.169   5.123  0.00  0.00    -0.082 A 
ATOM      4  C2  PXY d   1       5.133  -1.654   3.934  0.00  0.00     0.003 A 
ATOM      5  C3  PXY d   1       4.123  -1.173   3.142  0.00  0.00     0.003 A 
ATOM      6  C4  PXY d   1       2.818  -1.269   3.547  0.00  0.00    -0.082 A 
ATOM      7  C5  PXY d   1       2.534  -1.803   4.754  0.00  0.00     0.003 A 
ATOM      8  C6  PXY d   1       3.577  -2.248   5.561  0.00  0.00     0.003 A 
ENDROOT
TORSDOF 0
ENDMDL
