MODEL 1
REMARK minimizedAffinity 10.129282
REMARK minimizedRMSD -1
REMARK  0 active torsions:
REMARK  status: ('A' for Active; 'I' for Inactive)
ROOT
ATOM      1  C4' PXY d   1       2.960  -2.621  -1.132  0.00  0.00     0.077 C 
ATOM      2  C1' PXY d   1      -1.765  -0.108   1.053  0.00  0.00     0.077 C 
ATOM      3  C1  PXY d   1      -0.518  -0.759   0.486  0.00  0.00    -0.082 A 
ATOM      4  C2  PXY d   1      -0.588  -1.421  -0.657  0.00  0.00     0.003 A 
ATOM      5  C3  PXY d   1       0.523  -2.043  -1.167  0.00  0.00     0.003 A 
ATOM      6  C4  PXY d   1       1.729  -1.940  -0.527  0.00  0.00    -0.082 A 
ATOM      7  C5  PXY d   1       1.811  -1.257   0.634  0.00  0.00     0.003 A 
ATOM      8  C6  PXY d   1       0.663  -0.668   1.156  0.00  0.00     0.003 A 
ENDROOT
TORSDOF 0
ENDMDL
