MODEL 1
REMARK minimizedAffinity -0.103618123
REMARK minimizedRMSD -1
REMARK  0 active torsions:
REMARK  status: ('A' for Active; 'I' for Inactive)
ROOT
ATOM      1  C   UNL d   1       2.156  -0.988  -0.663  0.00  0.00     0.124 A 
ATOM      2  C1  UNL d   1       1.754   0.332  -0.515  0.00  0.00     0.062 A 
ATOM      3  C2  UNL d   1       0.400   0.656  -0.519  0.00  0.00     0.162 A 
ATOM      4  C3  UNL d   1      -0.562  -0.343  -0.669  0.00  0.00    -0.034 A 
ATOM      5  C4  UNL d   1      -0.149  -1.669  -0.818  0.00  0.00     0.162 A 
ATOM      6  C5  UNL d   1       1.205  -1.987  -0.814  0.00  0.00     0.062 A 
ATOM      7  F   UNL d   1       1.592  -3.263  -0.956  0.00  0.00    -0.097 F 
ATOM      8  F1  UNL d   1      -1.048  -2.654  -0.964  0.00  0.00    -0.096 F 
ATOM      9  I   UNL d   1      -2.587   0.136  -0.674  0.00  0.00    -0.060 I 
ATOM     10  F2  UNL d   1       0.040   1.940  -0.374  0.00  0.00    -0.096 F 
ATOM     11  F3  UNL d   1       2.671   1.299  -0.370  0.00  0.00    -0.097 F 
ATOM     12  F4  UNL d   1       3.460  -1.297  -0.660  0.00  0.00    -0.092 F 
ENDROOT
TORSDOF 0
ENDMDL
