MODEL 1
REMARK minimizedAffinity 14.848074
REMARK minimizedRMSD -1
REMARK  0 active torsions:
REMARK  status: ('A' for Active; 'I' for Inactive)
ROOT
ATOM      1  C   UNL d   1       1.513  -2.201  -0.899  0.00  0.00     0.124 A 
ATOM      2  C1  UNL d   1       0.153  -2.057  -0.660  0.00  0.00     0.062 A 
ATOM      3  C2  UNL d   1      -0.350  -0.848  -0.188  0.00  0.00     0.162 A 
ATOM      4  C3  UNL d   1       0.507   0.227   0.047  0.00  0.00    -0.034 A 
ATOM      5  C4  UNL d   1       1.873   0.074  -0.194  0.00  0.00     0.162 A 
ATOM      6  C5  UNL d   1       2.372  -1.136  -0.666  0.00  0.00     0.062 A 
ATOM      7  F   UNL d   1       3.685  -1.273  -0.896  0.00  0.00    -0.097 F 
ATOM      8  F1  UNL d   1       2.725   1.088   0.021  0.00  0.00    -0.096 F 
ATOM      9  I   UNL d   1      -0.242   2.037   0.753  0.00  0.00    -0.060 I 
ATOM     10  F2  UNL d   1      -1.668  -0.737   0.034  0.00  0.00    -0.096 F 
ATOM     11  F3  UNL d   1      -0.678  -3.085  -0.883  0.00  0.00    -0.097 F 
ATOM     12  F4  UNL d   1       1.995  -3.366  -1.352  0.00  0.00    -0.092 F 
ENDROOT
TORSDOF 0
ENDMDL
