MODEL 1
REMARK minimizedAffinity 0.964814186
REMARK minimizedRMSD -1
REMARK  0 active torsions:
REMARK  status: ('A' for Active; 'I' for Inactive)
ROOT
ATOM      1  C   UNL d   1       4.882  -1.273  -2.843  0.00  0.00     0.124 A 
ATOM      2  C1  UNL d   1       4.735  -0.041  -2.221  0.00  0.00     0.062 A 
ATOM      3  C2  UNL d   1       3.610   0.219  -1.443  0.00  0.00     0.162 A 
ATOM      4  C3  UNL d   1       2.625  -0.755  -1.281  0.00  0.00    -0.034 A 
ATOM      5  C4  UNL d   1       2.780  -1.991  -1.911  0.00  0.00     0.162 A 
ATOM      6  C5  UNL d   1       3.905  -2.246  -2.688  0.00  0.00     0.062 A 
ATOM      7  F   UNL d   1       4.047  -3.437  -3.289  0.00  0.00    -0.097 F 
ATOM      8  F1  UNL d   1       1.852  -2.949  -1.778  0.00  0.00    -0.096 F 
ATOM      9  I   UNL d   1       0.942  -0.369  -0.119  0.00  0.00    -0.060 I 
ATOM     10  F2  UNL d   1       3.494   1.418  -0.853  0.00  0.00    -0.096 F 
ATOM     11  F3  UNL d   1       5.677   0.901  -2.370  0.00  0.00    -0.097 F 
ATOM     12  F4  UNL d   1       5.965  -1.521  -3.592  0.00  0.00    -0.092 F 
ENDROOT
TORSDOF 0
ENDMDL
