MODEL 1
REMARK minimizedAffinity 5.08563566
REMARK minimizedRMSD -1
REMARK  0 active torsions:
REMARK  status: ('A' for Active; 'I' for Inactive)
ROOT
ATOM      1  C   UNL d   1       4.876  -1.068  -2.800  0.00  0.00     0.124 A 
ATOM      2  C1  UNL d   1       3.873  -2.026  -2.745  0.00  0.00     0.062 A 
ATOM      3  C2  UNL d   1       2.783  -1.850  -1.897  0.00  0.00     0.162 A 
ATOM      4  C3  UNL d   1       2.691  -0.711  -1.097  0.00  0.00    -0.034 A 
ATOM      5  C4  UNL d   1       3.705   0.247  -1.157  0.00  0.00     0.162 A 
ATOM      6  C5  UNL d   1       4.791   0.067  -2.007  0.00  0.00     0.062 A 
ATOM      7  F   UNL d   1       5.760   0.993  -2.059  0.00  0.00    -0.097 F 
ATOM      8  F1  UNL d   1       3.647   1.354  -0.402  0.00  0.00    -0.096 F 
ATOM      9  I   UNL d   1       1.064  -0.444   0.173  0.00  0.00    -0.060 I 
ATOM     10  F2  UNL d   1       1.828  -2.791  -1.864  0.00  0.00    -0.096 F 
ATOM     11  F3  UNL d   1       3.953  -3.124  -3.510  0.00  0.00    -0.097 F 
ATOM     12  F4  UNL d   1       5.924  -1.241  -3.617  0.00  0.00    -0.092 F 
ENDROOT
TORSDOF 0
ENDMDL
