MODEL 1
REMARK minimizedAffinity 7.28949738
REMARK minimizedRMSD -1
REMARK  0 active torsions:
REMARK  status: ('A' for Active; 'I' for Inactive)
ROOT
ATOM      1  C   UNL d   1       3.417  -2.154  -2.006  0.00  0.00     0.124 A 
ATOM      2  C1  UNL d   1       2.218  -2.533  -1.418  0.00  0.00     0.062 A 
ATOM      3  C2  UNL d   1       1.548  -1.659  -0.568  0.00  0.00     0.162 A 
ATOM      4  C3  UNL d   1       2.075  -0.396  -0.299  0.00  0.00    -0.034 A 
ATOM      5  C4  UNL d   1       3.282  -0.022  -0.893  0.00  0.00     0.162 A 
ATOM      6  C5  UNL d   1       3.948  -0.899  -1.743  0.00  0.00     0.062 A 
ATOM      7  F   UNL d   1       5.106  -0.531  -2.309  0.00  0.00    -0.097 F 
ATOM      8  F1  UNL d   1       3.817   1.185  -0.657  0.00  0.00    -0.096 F 
ATOM      9  I   UNL d   1       1.076   0.915   0.973  0.00  0.00    -0.060 I 
ATOM     10  F2  UNL d   1       0.391  -2.052  -0.014  0.00  0.00    -0.096 F 
ATOM     11  F3  UNL d   1       1.703  -3.745  -1.670  0.00  0.00    -0.097 F 
ATOM     12  F4  UNL d   1       4.060  -2.997  -2.823  0.00  0.00    -0.092 F 
ENDROOT
TORSDOF 0
ENDMDL
