MODEL 1
REMARK minimizedAffinity -5.57015133
REMARK minimizedRMSD -1
REMARK  0 active torsions:
REMARK  status: ('A' for Active; 'I' for Inactive)
ROOT
ATOM      1  C2' OXE d   1       0.579   0.215  -0.119  0.00  0.00     0.078 C 
ATOM      2  C1' OXE d   1      -2.137  -0.290   0.378  0.00  0.00     0.078 C 
ATOM      3  C1  OXE d   1      -1.661  -0.348  -1.052  0.00  0.00    -0.078 A 
ATOM      4  C2  OXE d   1      -0.341  -0.054  -1.291  0.00  0.00    -0.078 A 
ATOM      5  C3  OXE d   1       0.163  -0.146  -2.585  0.00  0.00     0.003 A 
ATOM      6  C4  OXE d   1      -0.696  -0.386  -3.665  0.00  0.00    -0.002 A 
ATOM      7  C5  OXE d   1      -2.053  -0.649  -3.447  0.00  0.00    -0.002 A 
ATOM      8  C6  OXE d   1      -2.542  -0.676  -2.146  0.00  0.00     0.003 A 
ENDROOT
TORSDOF 0
ENDMDL
