MODEL 1
REMARK minimizedAffinity -1.82331252
REMARK minimizedRMSD -1
REMARK  0 active torsions:
REMARK  status: ('A' for Active; 'I' for Inactive)
ROOT
ATOM      1  C2' OXE d   1       1.925   1.565  -0.010  0.00  0.00     0.078 C 
ATOM      2  C1' OXE d   1      -0.351  -0.026  -0.422  0.00  0.00     0.078 C 
ATOM      3  C1  OXE d   1       0.719  -0.553   0.502  0.00  0.00    -0.078 A 
ATOM      4  C2  OXE d   1       1.850   0.210   0.661  0.00  0.00    -0.078 A 
ATOM      5  C3  OXE d   1       2.843  -0.204   1.544  0.00  0.00     0.003 A 
ATOM      6  C4  OXE d   1       2.770  -1.463   2.152  0.00  0.00    -0.002 A 
ATOM      7  C5  OXE d   1       1.644  -2.274   1.972  0.00  0.00    -0.002 A 
ATOM      8  C6  OXE d   1       0.593  -1.817   1.186  0.00  0.00     0.003 A 
ENDROOT
TORSDOF 0
ENDMDL
