MODEL 1
REMARK minimizedAffinity -5.1300478
REMARK minimizedRMSD -1
REMARK  0 active torsions:
REMARK  status: ('A' for Active; 'I' for Inactive)
ROOT
ATOM      1  C2' OXE d   1      -1.196   0.074  -0.124  0.00  0.00     0.078 C 
ATOM      2  C1' OXE d   1       0.288   2.457  -0.142  0.00  0.00     0.078 C 
ATOM      3  C1  OXE d   1       1.017   1.177   0.182  0.00  0.00    -0.078 A 
ATOM      4  C2  OXE d   1       0.274   0.022   0.234  0.00  0.00    -0.078 A 
ATOM      5  C3  OXE d   1       0.906  -1.195   0.475  0.00  0.00     0.003 A 
ATOM      6  C4  OXE d   1       2.264  -1.233   0.815  0.00  0.00    -0.002 A 
ATOM      7  C5  OXE d   1       3.031  -0.063   0.807  0.00  0.00    -0.002 A 
ATOM      8  C6  OXE d   1       2.433   1.142   0.452  0.00  0.00     0.003 A 
ENDROOT
TORSDOF 0
ENDMDL
