MODEL 1
REMARK minimizedAffinity -3.59995461
REMARK minimizedRMSD -1
REMARK  0 active torsions:
REMARK  status: ('A' for Active; 'I' for Inactive)
ROOT
ATOM      1  C2' OXE d   1       2.931  -0.230   0.592  0.00  0.00     0.078 C 
ATOM      2  C1' OXE d   1       1.108  -2.346   0.872  0.00  0.00     0.078 C 
ATOM      3  C1  OXE d   1       0.572  -1.012   0.418  0.00  0.00    -0.078 A 
ATOM      4  C2  OXE d   1       1.464   0.030   0.329  0.00  0.00    -0.078 A 
ATOM      5  C3  OXE d   1       1.032   1.269  -0.137  0.00  0.00     0.003 A 
ATOM      6  C4  OXE d   1      -0.329   1.504  -0.369  0.00  0.00    -0.002 A 
ATOM      7  C5  OXE d   1      -1.260   0.467  -0.246  0.00  0.00    -0.002 A 
ATOM      8  C6  OXE d   1      -0.820  -0.805   0.105  0.00  0.00     0.003 A 
ENDROOT
TORSDOF 0
ENDMDL
