MODEL 1
REMARK minimizedAffinity -5.86199617
REMARK minimizedRMSD -1
REMARK  0 active torsions:
REMARK  status: ('A' for Active; 'I' for Inactive)
ROOT
ATOM      1  C2' OXE d   1       0.755   1.534   0.287  0.00  0.00     0.078 C 
ATOM      2  C1' OXE d   1      -1.039  -0.621   0.423  0.00  0.00     0.078 C 
ATOM      3  C1  OXE d   1       0.355  -0.831   0.959  0.00  0.00    -0.078 A 
ATOM      4  C2  OXE d   1       1.240   0.214   0.846  0.00  0.00    -0.078 A 
ATOM      5  C3  OXE d   1       2.522   0.091   1.375  0.00  0.00     0.003 A 
ATOM      6  C4  OXE d   1       2.966  -1.136   1.881  0.00  0.00    -0.002 A 
ATOM      7  C5  OXE d   1       2.092  -2.225   1.969  0.00  0.00    -0.002 A 
ATOM      8  C6  OXE d   1       0.774  -2.077   1.552  0.00  0.00     0.003 A 
ENDROOT
TORSDOF 0
ENDMDL
