MODEL 1
REMARK minimizedAffinity -2.97385263
REMARK minimizedRMSD -1
REMARK  0 active torsions:
REMARK  status: ('A' for Active; 'I' for Inactive)
ROOT
ATOM      1  C2' OXE d   1       1.633  -2.284   0.547  0.00  0.00     0.078 C 
ATOM      2  C1' OXE d   1       3.413  -0.129   0.806  0.00  0.00     0.078 C 
ATOM      3  C1  OXE d   1       1.958   0.186   0.564  0.00  0.00    -0.078 A 
ATOM      4  C2  OXE d   1       1.102  -0.875   0.392  0.00  0.00    -0.078 A 
ATOM      5  C3  OXE d   1      -0.260  -0.641   0.220  0.00  0.00     0.003 A 
ATOM      6  C4  OXE d   1      -0.741   0.665   0.067  0.00  0.00    -0.002 A 
ATOM      7  C5  OXE d   1       0.121   1.759   0.200  0.00  0.00    -0.002 A 
ATOM      8  C6  OXE d   1       1.463   1.538   0.490  0.00  0.00     0.003 A 
ENDROOT
TORSDOF 0
ENDMDL
