MODEL 1
REMARK minimizedAffinity -6.06587982
REMARK minimizedRMSD -1
REMARK  0 active torsions:
REMARK  status: ('A' for Active; 'I' for Inactive)
ROOT
ATOM      1  C2' OXE d   1      -1.469  -0.528   0.634  0.00  0.00     0.078 C 
ATOM      2  C1' OXE d   1       0.410  -2.446   1.453  0.00  0.00     0.078 C 
ATOM      3  C1  OXE d   1       0.929  -1.119   0.959  0.00  0.00    -0.078 A 
ATOM      4  C2  OXE d   1       0.004  -0.204   0.516  0.00  0.00    -0.078 A 
ATOM      5  C3  OXE d   1       0.426   1.056   0.101  0.00  0.00     0.003 A 
ATOM      6  C4  OXE d   1       1.791   1.345  -0.014  0.00  0.00    -0.002 A 
ATOM      7  C5  OXE d   1       2.751   0.412   0.394  0.00  0.00    -0.002 A 
ATOM      8  C6  OXE d   1       2.336  -0.805   0.922  0.00  0.00     0.003 A 
ENDROOT
TORSDOF 0
ENDMDL
