MODEL 1
REMARK minimizedAffinity -2.97634792
REMARK minimizedRMSD -1
REMARK  0 active torsions:
REMARK  status: ('A' for Active; 'I' for Inactive)
ROOT
ATOM      1  C2' OXE d   1       2.886  -1.337   2.266  0.00  0.00     0.078 C 
ATOM      2  C1' OXE d   1       2.973   1.465   2.119  0.00  0.00     0.078 C 
ATOM      3  C1  OXE d   1       1.869   0.755   1.375  0.00  0.00    -0.078 A 
ATOM      4  C2  OXE d   1       1.862  -0.619   1.414  0.00  0.00    -0.078 A 
ATOM      5  C3  OXE d   1       0.835  -1.321   0.790  0.00  0.00     0.003 A 
ATOM      6  C4  OXE d   1      -0.103  -0.649  -0.004  0.00  0.00    -0.002 A 
ATOM      7  C5  OXE d   1      -0.090   0.748  -0.089  0.00  0.00    -0.002 A 
ATOM      8  C6  OXE d   1       0.862   1.465   0.627  0.00  0.00     0.003 A 
ENDROOT
TORSDOF 0
ENDMDL
