MODEL 1
REMARK minimizedAffinity -4.97660351
REMARK minimizedRMSD -1
REMARK  0 active torsions:
REMARK  status: ('A' for Active; 'I' for Inactive)
ROOT
ATOM      1  C2' OXE d   1       1.206   2.044  -0.027  0.00  0.00     0.078 C 
ATOM      2  C1' OXE d   1       2.895   0.074   1.044  0.00  0.00     0.078 C 
ATOM      3  C1  OXE d   1       1.434  -0.264   0.883  0.00  0.00    -0.078 A 
ATOM      4  C2  OXE d   1       0.607   0.722   0.402  0.00  0.00    -0.078 A 
ATOM      5  C3  OXE d   1      -0.740   0.446   0.183  0.00  0.00     0.003 A 
ATOM      6  C4  OXE d   1      -1.289  -0.775   0.592  0.00  0.00    -0.002 A 
ATOM      7  C5  OXE d   1      -0.471  -1.779   1.122  0.00  0.00    -0.002 A 
ATOM      8  C6  OXE d   1       0.897  -1.555   1.234  0.00  0.00     0.003 A 
ENDROOT
TORSDOF 0
ENDMDL
