MODEL 1
REMARK minimizedAffinity -3.46586609
REMARK minimizedRMSD -1
REMARK  0 active torsions:
REMARK  status: ('A' for Active; 'I' for Inactive)
ROOT
ATOM      1  C2' OXE d   1       0.537   2.463   0.205  0.00  0.00     0.078 C 
ATOM      2  C1' OXE d   1      -1.033   0.313  -0.687  0.00  0.00     0.078 C 
ATOM      3  C1  OXE d   1       0.325   0.001  -0.109  0.00  0.00    -0.078 A 
ATOM      4  C2  OXE d   1       1.105   1.062   0.282  0.00  0.00    -0.078 A 
ATOM      5  C3  OXE d   1       2.344   0.827   0.872  0.00  0.00     0.003 A 
ATOM      6  C4  OXE d   1       2.866  -0.470   0.931  0.00  0.00    -0.002 A 
ATOM      7  C5  OXE d   1       2.104  -1.563   0.502  0.00  0.00    -0.002 A 
ATOM      8  C6  OXE d   1       0.818  -1.349   0.020  0.00  0.00     0.003 A 
ENDROOT
TORSDOF 0
ENDMDL
