MODEL 1
REMARK minimizedAffinity 7.57866001
REMARK minimizedRMSD -1
REMARK  0 active torsions:
REMARK  status: ('A' for Active; 'I' for Inactive)
ROOT
ATOM      1  C1  DEN d   1      -6.000   5.900  -4.761  0.00  0.00     0.130 A 
ATOM      2  C2  DEN d   1      -5.201   5.999  -5.980  0.00  0.00    -0.031 A 
ATOM      3  C3  DEN d   1      -3.776   5.971  -5.595  0.00  0.00     0.027 A 
ATOM      4  C4  DEN d   1      -2.733   5.779  -3.244  0.00  0.00     0.027 A 
ATOM      5  C5  DEN d   1      -3.009   5.681  -1.898  0.00  0.00    -0.003 A 
ATOM      6  C6  DEN d   1      -4.290   5.684  -1.414  0.00  0.00     0.001 A 
ATOM      7  C7  DEN d   1      -5.346   5.741  -2.285  0.00  0.00     0.017 A 
ATOM      8  C8  DEN d   1      -5.075   5.847  -3.643  0.00  0.00    -0.094 A 
ATOM      9  C9  DEN d   1      -3.773   5.830  -4.114  0.00  0.00    -0.072 A 
ENDROOT
TORSDOF 0
ENDMDL
