MODEL 1
REMARK minimizedAffinity 6.02134848
REMARK minimizedRMSD -1
REMARK  0 active torsions:
REMARK  status: ('A' for Active; 'I' for Inactive)
ROOT
ATOM      1  C1  DEN d   1      -5.948   3.139  -5.677  0.00  0.00     0.130 A 
ATOM      2  C2  DEN d   1      -5.985   4.564  -5.994  0.00  0.00    -0.031 A 
ATOM      3  C3  DEN d   1      -5.970   5.315  -4.722  0.00  0.00     0.027 A 
ATOM      4  C4  DEN d   1      -5.886   4.414  -2.307  0.00  0.00     0.027 A 
ATOM      5  C5  DEN d   1      -5.855   3.274  -1.535  0.00  0.00    -0.003 A 
ATOM      6  C6  DEN d   1      -5.886   2.019  -2.083  0.00  0.00     0.001 A 
ATOM      7  C7  DEN d   1      -5.905   1.874  -3.445  0.00  0.00     0.017 A 
ATOM      8  C8  DEN d   1      -5.945   3.019  -4.230  0.00  0.00    -0.094 A 
ATOM      9  C9  DEN d   1      -5.900   4.278  -3.657  0.00  0.00    -0.072 A 
ENDROOT
TORSDOF 0
ENDMDL
