MODEL 1
REMARK minimizedAffinity 8.10730553
REMARK minimizedRMSD -1
REMARK  0 active torsions:
REMARK  status: ('A' for Active; 'I' for Inactive)
ROOT
ATOM      1  C1  DEN d   1      -1.534   1.608   0.547  0.00  0.00     0.130 A 
ATOM      2  C2  DEN d   1      -1.796   0.469  -0.328  0.00  0.00    -0.031 A 
ATOM      3  C3  DEN d   1      -0.823  -0.593   0.001  0.00  0.00     0.027 A 
ATOM      4  C4  DEN d   1       1.050  -0.584   1.774  0.00  0.00     0.027 A 
ATOM      5  C5  DEN d   1       1.667   0.165   2.751  0.00  0.00    -0.003 A 
ATOM      6  C6  DEN d   1       1.286   1.450   3.037  0.00  0.00     0.001 A 
ATOM      7  C7  DEN d   1       0.229   2.008   2.368  0.00  0.00     0.017 A 
ATOM      8  C8  DEN d   1      -0.394   1.262   1.376  0.00  0.00    -0.094 A 
ATOM      9  C9  DEN d   1      -0.001  -0.039   1.111  0.00  0.00    -0.072 A 
ENDROOT
TORSDOF 0
ENDMDL
