MODEL 1
REMARK minimizedAffinity 0.753816605
REMARK minimizedRMSD -1
REMARK  0 active torsions:
REMARK  status: ('A' for Active; 'I' for Inactive)
ROOT
ATOM      1  C1  DEN d   1      -2.563  -4.711  -4.239  0.00  0.00     0.130 A 
ATOM      2  C2  DEN d   1      -1.916  -5.184  -3.018  0.00  0.00    -0.031 A 
ATOM      3  C3  DEN d   1      -2.052  -4.131  -1.991  0.00  0.00     0.027 A 
ATOM      4  C4  DEN d   1      -3.202  -1.830  -2.171  0.00  0.00     0.027 A 
ATOM      5  C5  DEN d   1      -3.883  -0.977  -3.012  0.00  0.00    -0.003 A 
ATOM      6  C6  DEN d   1      -4.140  -1.293  -4.319  0.00  0.00     0.001 A 
ATOM      7  C7  DEN d   1      -3.753  -2.511  -4.812  0.00  0.00     0.017 A 
ATOM      8  C8  DEN d   1      -3.059  -3.373  -3.973  0.00  0.00    -0.094 A 
ATOM      9  C9  DEN d   1      -2.820  -3.040  -2.650  0.00  0.00    -0.072 A 
ENDROOT
TORSDOF 0
ENDMDL
