MODEL 1
REMARK minimizedAffinity 4.72084045
REMARK minimizedRMSD -1
REMARK  0 active torsions:
REMARK  status: ('A' for Active; 'I' for Inactive)
ROOT
ATOM      1  C1  DEN d   1      -1.849  -0.676  -0.354  0.00  0.00     0.130 A 
ATOM      2  C2  DEN d   1      -2.483   0.640  -0.347  0.00  0.00    -0.031 A 
ATOM      3  C3  DEN d   1      -1.555   1.589   0.300  0.00  0.00     0.027 A 
ATOM      4  C4  DEN d   1       0.789   1.153   1.283  0.00  0.00     0.027 A 
ATOM      5  C5  DEN d   1       1.746   0.191   1.519  0.00  0.00    -0.003 A 
ATOM      6  C6  DEN d   1       1.559  -1.123   1.181  0.00  0.00     0.001 A 
ATOM      7  C7  DEN d   1       0.406  -1.504   0.546  0.00  0.00     0.017 A 
ATOM      8  C8  DEN d   1      -0.566  -0.540   0.311  0.00  0.00    -0.094 A 
ATOM      9  C9  DEN d   1      -0.353   0.785   0.650  0.00  0.00    -0.072 A 
ENDROOT
TORSDOF 0
ENDMDL
