MODEL 1
REMARK minimizedAffinity 0.744323015
REMARK minimizedRMSD -1
REMARK  0 active torsions:
REMARK  status: ('A' for Active; 'I' for Inactive)
ROOT
ATOM      1  C1  DEN d   1      -1.166  -1.739   1.872  0.00  0.00     0.130 A 
ATOM      2  C2  DEN d   1      -1.576  -1.849   0.474  0.00  0.00    -0.031 A 
ATOM      3  C3  DEN d   1      -0.473  -1.341  -0.366  0.00  0.00     0.027 A 
ATOM      4  C4  DEN d   1       1.819  -0.405   0.356  0.00  0.00     0.027 A 
ATOM      5  C5  DEN d   1       2.619  -0.103   1.436  0.00  0.00    -0.003 A 
ATOM      6  C6  DEN d   1       2.203  -0.291   2.728  0.00  0.00     0.001 A 
ATOM      7  C7  DEN d   1       0.971  -0.839   2.971  0.00  0.00     0.017 A 
ATOM      8  C8  DEN d   1       0.156  -1.139   1.887  0.00  0.00    -0.094 A 
ATOM      9  C9  DEN d   1       0.600  -0.952   0.589  0.00  0.00    -0.072 A 
ENDROOT
TORSDOF 0
ENDMDL
