MODEL 1
REMARK minimizedAffinity 0.782400131
REMARK minimizedRMSD -1
REMARK  0 active torsions:
REMARK  status: ('A' for Active; 'I' for Inactive)
ROOT
ATOM      1  C1  DEN d   1      -0.693  -0.562  -2.393  0.00  0.00     0.130 A 
ATOM      2  C2  DEN d   1      -0.838   0.587  -1.504  0.00  0.00    -0.031 A 
ATOM      3  C3  DEN d   1      -1.193   0.083  -0.162  0.00  0.00     0.027 A 
ATOM      4  C4  DEN d   1      -1.525  -2.352   0.622  0.00  0.00     0.027 A 
ATOM      5  C5  DEN d   1      -1.519  -3.671   0.222  0.00  0.00    -0.003 A 
ATOM      6  C6  DEN d   1      -1.273  -4.040  -1.073  0.00  0.00     0.001 A 
ATOM      7  C7  DEN d   1      -0.978  -3.083  -2.008  0.00  0.00     0.017 A 
ATOM      8  C8  DEN d   1      -0.989  -1.751  -1.614  0.00  0.00    -0.094 A 
ATOM      9  C9  DEN d   1      -1.228  -1.399  -0.297  0.00  0.00    -0.072 A 
ENDROOT
TORSDOF 0
ENDMDL
