MODEL 1
REMARK minimizedAffinity 16.5879459
REMARK minimizedRMSD -1
REMARK  0 active torsions:
REMARK  status: ('A' for Active; 'I' for Inactive)
ROOT
ATOM      1  C1  DEN d   1      -0.834  -2.366   1.511  0.00  0.00     0.130 A 
ATOM      2  C2  DEN d   1      -1.663  -2.690   2.668  0.00  0.00    -0.031 A 
ATOM      3  C3  DEN d   1      -0.870  -2.424   3.886  0.00  0.00     0.027 A 
ATOM      4  C4  DEN d   1       1.545  -1.542   4.090  0.00  0.00     0.027 A 
ATOM      5  C5  DEN d   1       2.655  -1.136   3.383  0.00  0.00    -0.003 A 
ATOM      6  C6  DEN d   1       2.692  -1.144   2.013  0.00  0.00     0.001 A 
ATOM      7  C7  DEN d   1       1.581  -1.523   1.307  0.00  0.00     0.017 A 
ATOM      8  C8  DEN d   1       0.461  -1.941   2.013  0.00  0.00    -0.094 A 
ATOM      9  C9  DEN d   1       0.439  -1.914   3.397  0.00  0.00    -0.072 A 
ENDROOT
TORSDOF 0
ENDMDL
