MODEL 1
REMARK minimizedAffinity 3.15252161
REMARK minimizedRMSD -1
REMARK  0 active torsions:
REMARK  status: ('A' for Active; 'I' for Inactive)
ROOT
ATOM      1  C1  DEN d   1      -2.670  -1.370  -0.547  0.00  0.00     0.130 A 
ATOM      2  C2  DEN d   1      -2.663  -2.682   0.095  0.00  0.00    -0.031 A 
ATOM      3  C3  DEN d   1      -1.378  -2.836   0.806  0.00  0.00     0.027 A 
ATOM      4  C4  DEN d   1       0.589  -1.177   0.978  0.00  0.00     0.027 A 
ATOM      5  C5  DEN d   1       1.050   0.062   0.590  0.00  0.00    -0.003 A 
ATOM      6  C6  DEN d   1       0.324   0.889  -0.225  0.00  0.00     0.001 A 
ATOM      7  C7  DEN d   1      -0.923   0.506  -0.643  0.00  0.00     0.017 A 
ATOM      8  C8  DEN d   1      -1.392  -0.744  -0.262  0.00  0.00    -0.094 A 
ATOM      9  C9  DEN d   1      -0.648  -1.561   0.573  0.00  0.00    -0.072 A 
ENDROOT
TORSDOF 0
ENDMDL
