MODEL 1
REMARK minimizedAffinity 3.38605142
REMARK minimizedRMSD -1
REMARK  0 active torsions:
REMARK  status: ('A' for Active; 'I' for Inactive)
ROOT
ATOM      1  C1  DEN d   1       0.972  -4.499  -1.909  0.00  0.00     0.130 A 
ATOM      2  C2  DEN d   1       0.020  -4.495  -0.801  0.00  0.00    -0.031 A 
ATOM      3  C3  DEN d   1       0.712  -5.008   0.398  0.00  0.00     0.027 A 
ATOM      4  C4  DEN d   1       3.154  -5.800   0.647  0.00  0.00     0.027 A 
ATOM      5  C5  DEN d   1       4.343  -6.000  -0.019  0.00  0.00    -0.003 A 
ATOM      6  C6  DEN d   1       4.481  -5.747  -1.358  0.00  0.00     0.001 A 
ATOM      7  C7  DEN d   1       3.424  -5.237  -2.065  0.00  0.00     0.017 A 
ATOM      8  C8  DEN d   1       2.220  -5.040  -1.402  0.00  0.00    -0.094 A 
ATOM      9  C9  DEN d   1       2.104  -5.291  -0.045  0.00  0.00    -0.072 A 
ENDROOT
TORSDOF 0
ENDMDL
