MODEL 1
REMARK minimizedAffinity 20.6154728
REMARK minimizedRMSD -1
REMARK  0 active torsions:
REMARK  status: ('A' for Active; 'I' for Inactive)
ROOT
ATOM      1  C   UNL d   1       1.409  -0.657  -2.831  0.00  0.00     0.023 A 
ATOM      2  C1  UNL d   1       1.893   0.596  -3.207  0.00  0.00     0.003 A 
ATOM      3  C2  UNL d   1       2.718   1.316  -2.340  0.00  0.00     0.048 A 
ATOM      4  C3  UNL d   1       3.055   0.776  -1.099  0.00  0.00     0.023 A 
ATOM      5  C4  UNL d   1       2.574  -0.478  -0.720  0.00  0.00     0.048 A 
ATOM      6  C5  UNL d   1       1.749  -1.194  -1.589  0.00  0.00     0.003 A 
ATOM      7  I   UNL d   1       4.283   1.844   0.193  0.00  0.00    -0.146 I 
ENDROOT
TORSDOF 0
ENDMDL
