MODEL 1
REMARK minimizedAffinity 17.5848751
REMARK minimizedRMSD -1
REMARK  0 active torsions:
REMARK  status: ('A' for Active; 'I' for Inactive)
ROOT
ATOM      1  C   UNL d   1       1.134   0.648   4.106  0.00  0.00     0.023 A 
ATOM      2  C1  UNL d   1       1.344   0.963   5.449  0.00  0.00     0.003 A 
ATOM      3  C2  UNL d   1       0.779   2.118   5.993  0.00  0.00     0.048 A 
ATOM      4  C3  UNL d   1       0.003   2.952   5.189  0.00  0.00     0.023 A 
ATOM      5  C4  UNL d   1      -0.211   2.641   3.846  0.00  0.00     0.048 A 
ATOM      6  C5  UNL d   1       0.357   1.485   3.306  0.00  0.00     0.003 A 
ATOM      7  I   UNL d   1      -0.840   4.672   5.997  0.00  0.00    -0.146 I 
ENDROOT
TORSDOF 0
ENDMDL
