MODEL 1
REMARK minimizedAffinity 4.94616461
REMARK minimizedRMSD -1
REMARK  0 active torsions:
REMARK  status: ('A' for Active; 'I' for Inactive)
ROOT
ATOM      1  C   UNL d   1      -3.969   3.466  -5.999  0.00  0.00     0.023 A 
ATOM      2  C1  UNL d   1      -4.020   4.860  -5.994  0.00  0.00     0.003 A 
ATOM      3  C2  UNL d   1      -3.152   5.589  -5.178  0.00  0.00     0.048 A 
ATOM      4  C3  UNL d   1      -2.236   4.917  -4.369  0.00  0.00     0.023 A 
ATOM      5  C4  UNL d   1      -2.182   3.522  -4.371  0.00  0.00     0.048 A 
ATOM      6  C5  UNL d   1      -3.052   2.798  -5.188  0.00  0.00     0.003 A 
ATOM      7  I   UNL d   1      -0.944   5.999  -3.153  0.00  0.00    -0.146 I 
ENDROOT
TORSDOF 0
ENDMDL
