MODEL 1
REMARK minimizedAffinity 23.0888348
REMARK minimizedRMSD -1
REMARK  0 active torsions:
REMARK  status: ('A' for Active; 'I' for Inactive)
ROOT
ATOM      1  C   UNL d   1      -3.463  -0.927   4.032  0.00  0.00     0.023 A 
ATOM      2  C1  UNL d   1      -3.465  -0.773   5.418  0.00  0.00     0.003 A 
ATOM      3  C2  UNL d   1      -3.786   0.462   5.984  0.00  0.00     0.048 A 
ATOM      4  C3  UNL d   1      -4.106   1.539   5.158  0.00  0.00     0.023 A 
ATOM      5  C4  UNL d   1      -4.107   1.389   3.770  0.00  0.00     0.048 A 
ATOM      6  C5  UNL d   1      -3.784   0.152   3.209  0.00  0.00     0.003 A 
ATOM      7  I   UNL d   1      -4.585   3.379   5.998  0.00  0.00    -0.146 I 
ENDROOT
TORSDOF 0
ENDMDL
