MODEL 1
REMARK minimizedAffinity 22.6946087
REMARK minimizedRMSD -1
REMARK  0 active torsions:
REMARK  status: ('A' for Active; 'I' for Inactive)
ROOT
ATOM      1  C   UNL d   1      -2.509   2.304  -5.620  0.00  0.00     0.023 A 
ATOM      2  C1  UNL d   1      -1.730   2.048  -4.492  0.00  0.00     0.003 A 
ATOM      3  C2  UNL d   1      -1.217   3.108  -3.741  0.00  0.00     0.048 A 
ATOM      4  C3  UNL d   1      -1.488   4.421  -4.123  0.00  0.00     0.023 A 
ATOM      5  C4  UNL d   1      -2.268   4.682  -5.252  0.00  0.00     0.048 A 
ATOM      6  C5  UNL d   1      -2.777   3.619  -6.000  0.00  0.00     0.003 A 
ATOM      7  I   UNL d   1      -0.726   6.000  -3.007  0.00  0.00    -0.146 I 
ENDROOT
TORSDOF 0
ENDMDL
