MODEL 1
REMARK minimizedAffinity 14.2913761
REMARK minimizedRMSD -1
REMARK  0 active torsions:
REMARK  status: ('A' for Active; 'I' for Inactive)
ROOT
ATOM      1  C   UNL d   1       1.753   5.345  -1.168  0.00  0.00     0.023 A 
ATOM      2  C1  UNL d   1       0.497   5.941  -1.285  0.00  0.00     0.003 A 
ATOM      3  C2  UNL d   1      -0.447   5.416  -2.171  0.00  0.00     0.048 A 
ATOM      4  C3  UNL d   1      -0.128   4.294  -2.935  0.00  0.00     0.023 A 
ATOM      5  C4  UNL d   1       1.127   3.694  -2.821  0.00  0.00     0.048 A 
ATOM      6  C5  UNL d   1       2.067   4.223  -1.934  0.00  0.00     0.003 A 
ATOM      7  I   UNL d   1      -1.531   3.511  -4.254  0.00  0.00    -0.146 I 
ENDROOT
TORSDOF 0
ENDMDL
