MODEL 1
REMARK minimizedAffinity 19.6696091
REMARK minimizedRMSD -1
REMARK  0 active torsions:
REMARK  status: ('A' for Active; 'I' for Inactive)
ROOT
ATOM      1  C   UNL d   1      -4.381   1.043   4.428  0.00  0.00     0.023 A 
ATOM      2  C1  UNL d   1      -5.228   1.927   3.760  0.00  0.00     0.003 A 
ATOM      3  C2  UNL d   1      -5.363   3.242   4.210  0.00  0.00     0.048 A 
ATOM      4  C3  UNL d   1      -4.646   3.667   5.328  0.00  0.00     0.023 A 
ATOM      5  C4  UNL d   1      -3.796   2.787   5.999  0.00  0.00     0.048 A 
ATOM      6  C5  UNL d   1      -3.666   1.473   5.546  0.00  0.00     0.003 A 
ATOM      7  I   UNL d   1      -4.845   5.624   5.999  0.00  0.00    -0.146 I 
ENDROOT
TORSDOF 0
ENDMDL
