MODEL 1
REMARK minimizedAffinity 12.8564644
REMARK minimizedRMSD -1
REMARK  0 active torsions:
REMARK  status: ('A' for Active; 'I' for Inactive)
ROOT
ATOM      1  C   UNL d   1      -5.040   3.531   5.330  0.00  0.00     0.023 A 
ATOM      2  C1  UNL d   1      -4.081   2.770   6.000  0.00  0.00     0.003 A 
ATOM      3  C2  UNL d   1      -3.676   1.540   5.479  0.00  0.00     0.048 A 
ATOM      4  C3  UNL d   1      -4.234   1.076   4.288  0.00  0.00     0.023 A 
ATOM      5  C4  UNL d   1      -5.193   1.834   3.614  0.00  0.00     0.048 A 
ATOM      6  C5  UNL d   1      -5.595   3.063   4.139  0.00  0.00     0.003 A 
ATOM      7  I   UNL d   1      -3.632  -0.756   3.511  0.00  0.00    -0.146 I 
ENDROOT
TORSDOF 0
ENDMDL
