MODEL 1
REMARK minimizedAffinity 12.3139105
REMARK minimizedRMSD -1
REMARK  0 active torsions:
REMARK  status: ('A' for Active; 'I' for Inactive)
ROOT
ATOM      1  C   UNL d   1      -3.025   4.118  -5.277  0.00  0.00     0.023 A 
ATOM      2  C1  UNL d   1      -2.419   4.481  -4.075  0.00  0.00     0.003 A 
ATOM      3  C2  UNL d   1      -1.332   3.751  -3.590  0.00  0.00     0.048 A 
ATOM      4  C3  UNL d   1      -0.855   2.659  -4.314  0.00  0.00     0.023 A 
ATOM      5  C4  UNL d   1      -1.458   2.292  -5.519  0.00  0.00     0.048 A 
ATOM      6  C5  UNL d   1      -2.545   3.025  -5.999  0.00  0.00     0.003 A 
ATOM      7  I   UNL d   1       0.763   1.570  -3.596  0.00  0.00    -0.146 I 
ENDROOT
TORSDOF 0
ENDMDL
