MODEL 1
REMARK minimizedAffinity 19.9628563
REMARK minimizedRMSD -1
REMARK  0 active torsions:
REMARK  status: ('A' for Active; 'I' for Inactive)
ROOT
ATOM      1  C   UNL d   1       2.994  -0.021  -5.529  0.00  0.00     0.023 A 
ATOM      2  C1  UNL d   1       2.307   0.592  -4.481  0.00  0.00     0.003 A 
ATOM      3  C2  UNL d   1       1.205  -0.041  -3.902  0.00  0.00     0.048 A 
ATOM      4  C3  UNL d   1       0.796  -1.287  -4.376  0.00  0.00     0.023 A 
ATOM      5  C4  UNL d   1       1.481  -1.905  -5.424  0.00  0.00     0.048 A 
ATOM      6  C5  UNL d   1       2.582  -1.267  -6.000  0.00  0.00     0.003 A 
ATOM      7  I   UNL d   1      -0.844  -2.232  -3.517  0.00  0.00    -0.146 I 
ENDROOT
TORSDOF 0
ENDMDL
