MODEL 1
REMARK minimizedAffinity 13.5939646
REMARK minimizedRMSD -1
REMARK  0 active torsions:
REMARK  status: ('A' for Active; 'I' for Inactive)
ROOT
ATOM      1  C   UNL d   1      -1.087  -2.674  -3.476  0.00  0.00     0.023 A 
ATOM      2  C1  UNL d   1      -0.205  -1.703  -3.000  0.00  0.00     0.003 A 
ATOM      3  C2  UNL d   1      -0.517  -0.348  -3.136  0.00  0.00     0.048 A 
ATOM      4  C3  UNL d   1      -1.712   0.028  -3.747  0.00  0.00     0.023 A 
ATOM      5  C4  UNL d   1      -2.598  -0.940  -4.223  0.00  0.00     0.048 A 
ATOM      6  C5  UNL d   1      -2.282  -2.293  -4.086  0.00  0.00     0.003 A 
ATOM      7  I   UNL d   1      -2.178   2.043  -3.949  0.00  0.00    -0.146 I 
ENDROOT
TORSDOF 0
ENDMDL
