MODEL 1
REMARK minimizedAffinity 15.0638685
REMARK minimizedRMSD -1
REMARK  0 active torsions:
REMARK  status: ('A' for Active; 'I' for Inactive)
ROOT
ATOM      1  C   UNL d   1      -1.264  -4.452  -2.140  0.00  0.00     0.023 A 
ATOM      2  C1  UNL d   1      -1.088  -3.406  -3.046  0.00  0.00     0.003 A 
ATOM      3  C2  UNL d   1      -2.111  -3.071  -3.935  0.00  0.00     0.048 A 
ATOM      4  C3  UNL d   1      -3.309  -3.785  -3.912  0.00  0.00     0.023 A 
ATOM      5  C4  UNL d   1      -3.490  -4.832  -3.006  0.00  0.00     0.048 A 
ATOM      6  C5  UNL d   1      -2.464  -5.164  -2.120  0.00  0.00     0.003 A 
ATOM      7  I   UNL d   1      -4.833  -3.288  -5.234  0.00  0.00    -0.146 I 
ENDROOT
TORSDOF 0
ENDMDL
