MODEL 1
REMARK minimizedAffinity 10.2714748
REMARK minimizedRMSD -1
REMARK  0 active torsions:
REMARK  status: ('A' for Active; 'I' for Inactive)
ROOT
ATOM      1  C   UNL d   1      -3.321   4.070  -6.000  0.00  0.00     0.023 A 
ATOM      2  C1  UNL d   1      -2.734   3.252  -5.035  0.00  0.00     0.003 A 
ATOM      3  C2  UNL d   1      -1.892   3.804  -4.068  0.00  0.00     0.048 A 
ATOM      4  C3  UNL d   1      -1.642   5.176  -4.070  0.00  0.00     0.023 A 
ATOM      5  C4  UNL d   1      -2.228   5.999  -5.033  0.00  0.00     0.048 A 
ATOM      6  C5  UNL d   1      -3.069   5.442  -5.999  0.00  0.00     0.003 A 
ATOM      7  I   UNL d   1      -0.389   6.000  -2.631  0.00  0.00    -0.146 I 
ENDROOT
TORSDOF 0
ENDMDL
