MODEL 1
REMARK minimizedAffinity 4.07981682
REMARK minimizedRMSD -1
REMARK  0 active torsions:
REMARK  status: ('A' for Active; 'I' for Inactive)
ROOT
ATOM      1  C   UNL d   1      -3.731   4.019  -6.000  0.00  0.00     0.023 A 
ATOM      2  C1  UNL d   1      -3.568   5.404  -5.961  0.00  0.00     0.003 A 
ATOM      3  C2  UNL d   1      -2.630   5.974  -5.098  0.00  0.00     0.048 A 
ATOM      4  C3  UNL d   1      -1.856   5.154  -4.278  0.00  0.00     0.023 A 
ATOM      5  C4  UNL d   1      -2.015   3.767  -4.315  0.00  0.00     0.048 A 
ATOM      6  C5  UNL d   1      -2.955   3.202  -5.178  0.00  0.00     0.003 A 
ATOM      7  I   UNL d   1      -0.459   6.000  -2.993  0.00  0.00    -0.146 I 
ENDROOT
TORSDOF 0
ENDMDL
