MODEL 1
REMARK minimizedAffinity 15.3055706
REMARK minimizedRMSD -1
REMARK  0 active torsions:
REMARK  status: ('A' for Active; 'I' for Inactive)
ROOT
ATOM      1  C   UNL d   1      -0.734   1.406   2.533  0.00  0.00     0.023 A 
ATOM      2  C1  UNL d   1      -0.339   1.876   3.786  0.00  0.00     0.003 A 
ATOM      3  C2  UNL d   1      -1.293   2.101   4.781  0.00  0.00     0.048 A 
ATOM      4  C3  UNL d   1      -2.639   1.852   4.517  0.00  0.00     0.023 A 
ATOM      5  C4  UNL d   1      -3.039   1.382   3.265  0.00  0.00     0.048 A 
ATOM      6  C5  UNL d   1      -2.082   1.159   2.273  0.00  0.00     0.003 A 
ATOM      7  I   UNL d   1      -4.061   2.186   5.996  0.00  0.00    -0.146 I 
ENDROOT
TORSDOF 0
ENDMDL
