MODEL 1
REMARK minimizedAffinity 13.0037222
REMARK minimizedRMSD -1
REMARK  0 active torsions:
REMARK  status: ('A' for Active; 'I' for Inactive)
ROOT
ATOM      1  C   UNL d   1      -1.216   1.278  -4.079  0.00  0.00     0.023 A 
ATOM      2  C1  UNL d   1      -1.489   1.256  -5.447  0.00  0.00     0.003 A 
ATOM      3  C2  UNL d   1      -2.373   2.186  -5.999  0.00  0.00     0.048 A 
ATOM      4  C3  UNL d   1      -2.979   3.136  -5.178  0.00  0.00     0.023 A 
ATOM      5  C4  UNL d   1      -2.708   3.162  -3.809  0.00  0.00     0.048 A 
ATOM      6  C5  UNL d   1      -1.825   2.230  -3.261  0.00  0.00     0.003 A 
ATOM      7  I   UNL d   1      -4.294   4.521  -5.997  0.00  0.00    -0.146 I 
ENDROOT
TORSDOF 0
ENDMDL
