MODEL 1
REMARK minimizedAffinity 9.63717175
REMARK minimizedRMSD -1
REMARK  0 active torsions:
REMARK  status: ('A' for Active; 'I' for Inactive)
ROOT
ATOM      1  C   UNL d   1      -2.265   1.731   3.122  0.00  0.00     0.023 A 
ATOM      2  C1  UNL d   1      -3.496   1.481   3.727  0.00  0.00     0.003 A 
ATOM      3  C2  UNL d   1      -4.220   0.334   3.392  0.00  0.00     0.048 A 
ATOM      4  C3  UNL d   1      -3.705  -0.559   2.453  0.00  0.00     0.023 A 
ATOM      5  C4  UNL d   1      -2.472  -0.312   1.846  0.00  0.00     0.048 A 
ATOM      6  C5  UNL d   1      -1.753   0.836   2.183  0.00  0.00     0.003 A 
ATOM      7  I   UNL d   1      -4.779  -2.266   1.954  0.00  0.00    -0.146 I 
ENDROOT
TORSDOF 0
ENDMDL
