MODEL 1
REMARK minimizedAffinity -3.3675034
REMARK minimizedRMSD -1
REMARK  0 active torsions:
REMARK  status: ('A' for Active; 'I' for Inactive)
ROOT
ATOM      1  C   UNL d   1      -4.272  -6.000  -4.282  0.00  0.00     0.078 C 
ATOM      2  C1  UNL d   1      -4.481  -4.789  -3.423  0.00  0.00    -0.077 A 
ATOM      3  C2  UNL d   1      -5.016  -4.903  -2.134  0.00  0.00    -0.001 A 
ATOM      4  C3  UNL d   1      -5.214  -3.766  -1.349  0.00  0.00     0.003 A 
ATOM      5  C4  UNL d   1      -4.881  -2.507  -1.844  0.00  0.00    -0.005 A 
ATOM      6  C5  UNL d   1      -4.350  -2.383  -3.127  0.00  0.00     0.003 A 
ATOM      7  C6  UNL d   1      -4.151  -3.519  -3.913  0.00  0.00    -0.001 A 
ENDROOT
TORSDOF 0
ENDMDL
