MODEL 1
REMARK minimizedAffinity 0.964450538
REMARK minimizedRMSD -1
REMARK  0 active torsions:
REMARK  status: ('A' for Active; 'I' for Inactive)
ROOT
ATOM      1  C   UNL d   1      -5.236  -4.889  -1.697  0.00  0.00     0.078 C 
ATOM      2  C1  UNL d   1      -5.274  -4.884  -3.196  0.00  0.00    -0.077 A 
ATOM      3  C2  UNL d   1      -5.730  -6.000  -3.909  0.00  0.00    -0.001 A 
ATOM      4  C3  UNL d   1      -5.751  -5.985  -5.304  0.00  0.00     0.003 A 
ATOM      5  C4  UNL d   1      -5.317  -4.858  -5.999  0.00  0.00    -0.005 A 
ATOM      6  C5  UNL d   1      -4.860  -3.744  -5.298  0.00  0.00     0.003 A 
ATOM      7  C6  UNL d   1      -4.838  -3.757  -3.903  0.00  0.00    -0.001 A 
ENDROOT
TORSDOF 0
ENDMDL
