MODEL 1
REMARK minimizedAffinity -3.08218765
REMARK minimizedRMSD -1
REMARK  0 active torsions:
REMARK  status: ('A' for Active; 'I' for Inactive)
ROOT
ATOM      1  C   UNL d   1      -5.975  -4.938  -1.950  0.00  0.00     0.078 C 
ATOM      2  C1  UNL d   1      -5.470  -5.006  -3.360  0.00  0.00    -0.077 A 
ATOM      3  C2  UNL d   1      -4.511  -5.954  -3.738  0.00  0.00    -0.001 A 
ATOM      4  C3  UNL d   1      -4.043  -6.000  -5.052  0.00  0.00     0.003 A 
ATOM      5  C4  UNL d   1      -4.527  -5.099  -5.999  0.00  0.00    -0.005 A 
ATOM      6  C5  UNL d   1      -5.479  -4.151  -5.632  0.00  0.00     0.003 A 
ATOM      7  C6  UNL d   1      -5.949  -4.104  -4.318  0.00  0.00    -0.001 A 
ENDROOT
TORSDOF 0
ENDMDL
