MODEL 1
REMARK minimizedAffinity 3.92052245
REMARK minimizedRMSD -1
REMARK  0 active torsions:
REMARK  status: ('A' for Active; 'I' for Inactive)
ROOT
ATOM      1  C   UNL d   1       5.999  -3.418   2.625  0.00  0.00     0.078 C 
ATOM      2  C1  UNL d   1       4.644  -3.248   3.244  0.00  0.00    -0.077 A 
ATOM      3  C2  UNL d   1       4.474  -3.301   4.633  0.00  0.00    -0.001 A 
ATOM      4  C3  UNL d   1       3.205  -3.151   5.195  0.00  0.00     0.003 A 
ATOM      5  C4  UNL d   1       2.096  -2.949   4.376  0.00  0.00    -0.005 A 
ATOM      6  C5  UNL d   1       2.255  -2.897   2.992  0.00  0.00     0.003 A 
ATOM      7  C6  UNL d   1       3.523  -3.047   2.429  0.00  0.00    -0.001 A 
ENDROOT
TORSDOF 0
ENDMDL
