MODEL 1
REMARK minimizedAffinity -2.08986449
REMARK minimizedRMSD -1
REMARK  0 active torsions:
REMARK  status: ('A' for Active; 'I' for Inactive)
ROOT
ATOM      1  C   UNL d   1      -5.253  -3.459  -2.179  0.00  0.00     0.078 C 
ATOM      2  C1  UNL d   1      -5.261  -4.152  -3.510  0.00  0.00    -0.077 A 
ATOM      3  C2  UNL d   1      -4.572  -3.617  -4.605  0.00  0.00    -0.001 A 
ATOM      4  C3  UNL d   1      -4.596  -4.267  -5.840  0.00  0.00     0.003 A 
ATOM      5  C4  UNL d   1      -5.308  -5.456  -5.991  0.00  0.00    -0.005 A 
ATOM      6  C5  UNL d   1      -5.998  -5.995  -4.907  0.00  0.00     0.003 A 
ATOM      7  C6  UNL d   1      -5.975  -5.346  -3.672  0.00  0.00    -0.001 A 
ENDROOT
TORSDOF 0
ENDMDL
