MODEL 1
REMARK minimizedAffinity -0.806685388
REMARK minimizedRMSD -1
REMARK  0 active torsions:
REMARK  status: ('A' for Active; 'I' for Inactive)
ROOT
ATOM      1  C   UNL d   1      -4.868  -4.559  -1.705  0.00  0.00     0.078 C 
ATOM      2  C1  UNL d   1      -4.911  -4.665  -3.201  0.00  0.00    -0.077 A 
ATOM      3  C2  UNL d   1      -4.890  -5.912  -3.836  0.00  0.00    -0.001 A 
ATOM      4  C3  UNL d   1      -4.921  -5.996  -5.229  0.00  0.00     0.003 A 
ATOM      5  C4  UNL d   1      -4.972  -4.835  -5.998  0.00  0.00    -0.005 A 
ATOM      6  C5  UNL d   1      -4.991  -3.589  -5.375  0.00  0.00     0.003 A 
ATOM      7  C6  UNL d   1      -4.960  -3.504  -3.982  0.00  0.00    -0.001 A 
ENDROOT
TORSDOF 0
ENDMDL
