MODEL 1
REMARK minimizedAffinity 1.85376322
REMARK minimizedRMSD -1
REMARK  0 active torsions:
REMARK  status: ('A' for Active; 'I' for Inactive)
ROOT
ATOM      1  C   UNL d   1      -5.683  -3.740  -1.938  0.00  0.00     0.078 C 
ATOM      2  C1  UNL d   1      -5.636  -4.242  -3.350  0.00  0.00    -0.077 A 
ATOM      3  C2  UNL d   1      -5.221  -5.548  -3.637  0.00  0.00    -0.001 A 
ATOM      4  C3  UNL d   1      -5.173  -6.000  -4.957  0.00  0.00     0.003 A 
ATOM      5  C4  UNL d   1      -5.539  -5.151  -6.000  0.00  0.00    -0.005 A 
ATOM      6  C5  UNL d   1      -5.952  -3.849  -5.724  0.00  0.00     0.003 A 
ATOM      7  C6  UNL d   1      -6.000  -3.396  -4.405  0.00  0.00    -0.001 A 
ENDROOT
TORSDOF 0
ENDMDL
