MODEL 1
REMARK minimizedAffinity 1.83583975
REMARK minimizedRMSD -1
REMARK  0 active torsions:
REMARK  status: ('A' for Active; 'I' for Inactive)
ROOT
ATOM      1  C   UNL d   1       3.261   3.890  -2.648  0.00  0.00     0.078 C 
ATOM      2  C1  UNL d   1       4.109   4.592  -3.667  0.00  0.00    -0.077 A 
ATOM      3  C2  UNL d   1       5.225   5.344  -3.281  0.00  0.00    -0.001 A 
ATOM      4  C3  UNL d   1       6.000   6.000  -4.240  0.00  0.00     0.003 A 
ATOM      5  C4  UNL d   1       5.666   5.911  -5.590  0.00  0.00    -0.005 A 
ATOM      6  C5  UNL d   1       4.556   5.166  -5.983  0.00  0.00     0.003 A 
ATOM      7  C6  UNL d   1       3.780   4.510  -5.026  0.00  0.00    -0.001 A 
ENDROOT
TORSDOF 0
ENDMDL
