MODEL 1
REMARK minimizedAffinity 1.47231543
REMARK minimizedRMSD -1
REMARK  0 active torsions:
REMARK  status: ('A' for Active; 'I' for Inactive)
ROOT
ATOM      1  C   UNL d   1       0.565   3.171   0.457  0.00  0.00     0.077 C 
ATOM      2  C1  UNL d   1       0.738   1.761  -0.024  0.00  0.00    -0.074 A 
ATOM      3  C2  UNL d   1       1.298   0.783   0.804  0.00  0.00    -0.005 A 
ATOM      4  C3  UNL d   1       1.443  -0.527   0.346  0.00  0.00     0.006 A 
ATOM      5  C4  UNL d   1       1.031  -0.871  -0.942  0.00  0.00    -0.005 A 
ATOM      6  C5  UNL d   1       0.468   0.094  -1.783  0.00  0.00    -0.074 A 
ATOM      7  C6  UNL d   1       0.010  -0.261  -3.167  0.00  0.00     0.077 C 
ATOM      8  C7  UNL d   1       0.318   1.406  -1.313  0.00  0.00    -0.001 A 
ENDROOT
TORSDOF 0
ENDMDL
