MODEL 1
REMARK minimizedAffinity -0.342686117
REMARK minimizedRMSD -1
REMARK  0 active torsions:
REMARK  status: ('A' for Active; 'I' for Inactive)
ROOT
ATOM      1  C   UNL d   1       0.005   0.046  -3.380  0.00  0.00     0.077 C 
ATOM      2  C1  UNL d   1       0.414   0.460  -1.998  0.00  0.00    -0.074 A 
ATOM      3  C2  UNL d   1       1.300  -0.319  -1.247  0.00  0.00    -0.005 A 
ATOM      4  C3  UNL d   1       1.679   0.083   0.034  0.00  0.00     0.006 A 
ATOM      5  C4  UNL d   1       1.176   1.267   0.576  0.00  0.00    -0.005 A 
ATOM      6  C5  UNL d   1       0.289   2.059  -0.161  0.00  0.00    -0.074 A 
ATOM      7  C6  UNL d   1      -0.253   3.339   0.403  0.00  0.00     0.077 C 
ATOM      8  C7  UNL d   1      -0.081   1.651  -1.450  0.00  0.00    -0.001 A 
ENDROOT
TORSDOF 0
ENDMDL
