MODEL 1
REMARK minimizedAffinity -0.886883259
REMARK minimizedRMSD -1
REMARK  0 active torsions:
REMARK  status: ('A' for Active; 'I' for Inactive)
ROOT
ATOM      1  C   UNL d   1      -5.342   6.000   1.526  0.00  0.00     0.077 C 
ATOM      2  C1  UNL d   1      -5.007   4.583   1.167  0.00  0.00    -0.074 A 
ATOM      3  C2  UNL d   1      -5.998   3.597   1.126  0.00  0.00    -0.005 A 
ATOM      4  C3  UNL d   1      -5.673   2.286   0.781  0.00  0.00     0.006 A 
ATOM      5  C4  UNL d   1      -4.354   1.946   0.475  0.00  0.00    -0.005 A 
ATOM      6  C5  UNL d   1      -3.349   2.918   0.511  0.00  0.00    -0.074 A 
ATOM      7  C6  UNL d   1      -1.929   2.572   0.175  0.00  0.00     0.077 C 
ATOM      8  C7  UNL d   1      -3.686   4.236   0.851  0.00  0.00    -0.001 A 
ENDROOT
TORSDOF 0
ENDMDL
