MODEL 1
REMARK minimizedAffinity 10.2521429
REMARK minimizedRMSD -1
REMARK  0 active torsions:
REMARK  status: ('A' for Active; 'I' for Inactive)
ROOT
ATOM      1  C   UNL d   1      -0.376   0.717  -1.808  0.00  0.00     0.077 C 
ATOM      2  C1  UNL d   1       0.290   1.699  -0.890  0.00  0.00    -0.074 A 
ATOM      3  C2  UNL d   1       0.796   1.294   0.350  0.00  0.00    -0.005 A 
ATOM      4  C3  UNL d   1       1.422   2.217   1.188  0.00  0.00     0.006 A 
ATOM      5  C4  UNL d   1       1.548   3.550   0.797  0.00  0.00    -0.005 A 
ATOM      6  C5  UNL d   1       1.049   3.972  -0.439  0.00  0.00    -0.074 A 
ATOM      7  C6  UNL d   1       1.185   5.400  -0.880  0.00  0.00     0.077 C 
ATOM      8  C7  UNL d   1       0.428   3.038  -1.280  0.00  0.00    -0.001 A 
ENDROOT
TORSDOF 0
ENDMDL
