MODEL 1
REMARK minimizedAffinity 8.08894634
REMARK minimizedRMSD -1
REMARK  0 active torsions:
REMARK  status: ('A' for Active; 'I' for Inactive)
ROOT
ATOM      1  C   UNL d   1      -0.363   0.751  -4.589  0.00  0.00     0.077 C 
ATOM      2  C1  UNL d   1      -1.630   1.553  -4.558  0.00  0.00    -0.074 A 
ATOM      3  C2  UNL d   1      -2.855   0.951  -4.254  0.00  0.00    -0.005 A 
ATOM      4  C3  UNL d   1      -4.024   1.712  -4.219  0.00  0.00     0.006 A 
ATOM      5  C4  UNL d   1      -3.979   3.080  -4.488  0.00  0.00    -0.005 A 
ATOM      6  C5  UNL d   1      -2.763   3.700  -4.793  0.00  0.00    -0.074 A 
ATOM      7  C6  UNL d   1      -2.696   5.172  -5.074  0.00  0.00     0.077 C 
ATOM      8  C7  UNL d   1      -1.592   2.930  -4.819  0.00  0.00    -0.001 A 
ENDROOT
TORSDOF 0
ENDMDL
