MODEL 1
REMARK minimizedAffinity -0.692995787
REMARK minimizedRMSD -1
REMARK  0 active torsions:
REMARK  status: ('A' for Active; 'I' for Inactive)
ROOT
ATOM      1  C   UNL d   1      -1.704   3.735  -5.511  0.00  0.00     0.077 C 
ATOM      2  C1  UNL d   1      -3.201   3.754  -5.431  0.00  0.00    -0.074 A 
ATOM      3  C2  UNL d   1      -3.939   4.798  -5.999  0.00  0.00    -0.005 A 
ATOM      4  C3  UNL d   1      -5.331   4.797  -5.924  0.00  0.00     0.006 A 
ATOM      5  C4  UNL d   1      -6.000   3.754  -5.282  0.00  0.00    -0.005 A 
ATOM      6  C5  UNL d   1      -5.279   2.701  -4.709  0.00  0.00    -0.074 A 
ATOM      7  C6  UNL d   1      -5.983   1.568  -4.023  0.00  0.00     0.077 C 
ATOM      8  C7  UNL d   1      -3.880   2.706  -4.794  0.00  0.00    -0.001 A 
ENDROOT
TORSDOF 0
ENDMDL
