MODEL 1
REMARK minimizedAffinity 12.2157259
REMARK minimizedRMSD -1
REMARK  0 active torsions:
REMARK  status: ('A' for Active; 'I' for Inactive)
ROOT
ATOM      1  C   UNL d   1      -5.999   3.717  -5.999  0.00  0.00     0.077 C 
ATOM      2  C1  UNL d   1      -4.557   3.878  -5.618  0.00  0.00    -0.074 A 
ATOM      3  C2  UNL d   1      -4.075   5.095  -5.126  0.00  0.00    -0.005 A 
ATOM      4  C3  UNL d   1      -2.734   5.226  -4.767  0.00  0.00     0.006 A 
ATOM      5  C4  UNL d   1      -1.863   4.144  -4.896  0.00  0.00    -0.005 A 
ATOM      6  C5  UNL d   1      -2.327   2.919  -5.386  0.00  0.00    -0.074 A 
ATOM      7  C6  UNL d   1      -1.406   1.743  -5.521  0.00  0.00     0.077 C 
ATOM      8  C7  UNL d   1      -3.678   2.793  -5.738  0.00  0.00    -0.001 A 
ENDROOT
TORSDOF 0
ENDMDL
