MODEL 1
REMARK minimizedAffinity -1.87191069
REMARK minimizedRMSD -1
REMARK  0 active torsions:
REMARK  status: ('A' for Active; 'I' for Inactive)
ROOT
ATOM      1  C   UNL d   1      -5.908   5.580  -6.000  0.00  0.00     0.077 C 
ATOM      2  C1  UNL d   1      -5.259   4.488  -5.203  0.00  0.00    -0.074 A 
ATOM      3  C2  UNL d   1      -4.082   4.723  -4.485  0.00  0.00    -0.005 A 
ATOM      4  C3  UNL d   1      -3.495   3.700  -3.741  0.00  0.00     0.006 A 
ATOM      5  C4  UNL d   1      -4.079   2.433  -3.706  0.00  0.00    -0.005 A 
ATOM      6  C5  UNL d   1      -5.257   2.179  -4.416  0.00  0.00    -0.074 A 
ATOM      7  C6  UNL d   1      -5.903   0.826  -4.381  0.00  0.00     0.077 C 
ATOM      8  C7  UNL d   1      -5.844   3.214  -5.156  0.00  0.00    -0.001 A 
ENDROOT
TORSDOF 0
ENDMDL
