MODEL 1
REMARK minimizedAffinity 8.69952679
REMARK minimizedRMSD -1
REMARK  0 active torsions:
REMARK  status: ('A' for Active; 'I' for Inactive)
ROOT
ATOM      1  C   UNL d   1       0.967   1.784   0.740  0.00  0.00     0.077 C 
ATOM      2  C1  UNL d   1       1.593   3.121   0.475  0.00  0.00    -0.074 A 
ATOM      3  C2  UNL d   1       0.999   4.032  -0.405  0.00  0.00    -0.005 A 
ATOM      4  C3  UNL d   1       1.589   5.275  -0.633  0.00  0.00     0.006 A 
ATOM      5  C4  UNL d   1       2.776   5.620   0.014  0.00  0.00    -0.005 A 
ATOM      6  C5  UNL d   1       3.384   4.722   0.898  0.00  0.00    -0.074 A 
ATOM      7  C6  UNL d   1       4.654   5.081   1.609  0.00  0.00     0.077 C 
ATOM      8  C7  UNL d   1       2.782   3.478   1.128  0.00  0.00    -0.001 A 
ENDROOT
TORSDOF 0
ENDMDL
