MODEL 1
REMARK minimizedAffinity 5.444911
REMARK minimizedRMSD -1
REMARK  0 active torsions:
REMARK  status: ('A' for Active; 'I' for Inactive)
ROOT
ATOM      1  C   UNL d   1      -0.074   2.793   0.003  0.00  0.00     0.077 C 
ATOM      2  C1  UNL d   1       0.559   1.435  -0.058  0.00  0.00    -0.074 A 
ATOM      3  C2  UNL d   1       0.661   0.742  -1.269  0.00  0.00    -0.005 A 
ATOM      4  C3  UNL d   1       1.260  -0.516  -1.311  0.00  0.00     0.006 A 
ATOM      5  C4  UNL d   1       1.764  -1.094  -0.145  0.00  0.00    -0.005 A 
ATOM      6  C5  UNL d   1       1.672  -0.417   1.075  0.00  0.00    -0.074 A 
ATOM      7  C6  UNL d   1       2.216  -1.020   2.336  0.00  0.00     0.077 C 
ATOM      8  C7  UNL d   1       1.074   0.850   1.108  0.00  0.00    -0.001 A 
ENDROOT
TORSDOF 0
ENDMDL
