MODEL 1
REMARK minimizedAffinity 0.747477531
REMARK minimizedRMSD -1
REMARK  0 active torsions:
REMARK  status: ('A' for Active; 'I' for Inactive)
ROOT
ATOM      1  C   UNL d   1      -6.000   1.998  -3.558  0.00  0.00     0.077 C 
ATOM      2  C1  UNL d   1      -5.362   3.153  -4.271  0.00  0.00    -0.074 A 
ATOM      3  C2  UNL d   1      -6.000   3.773  -5.350  0.00  0.00    -0.005 A 
ATOM      4  C3  UNL d   1      -5.399   4.853  -5.997  0.00  0.00     0.006 A 
ATOM      5  C4  UNL d   1      -4.155   5.323  -5.572  0.00  0.00    -0.005 A 
ATOM      6  C5  UNL d   1      -3.503   4.716  -4.494  0.00  0.00    -0.074 A 
ATOM      7  C6  UNL d   1      -2.171   5.215  -4.018  0.00  0.00     0.077 C 
ATOM      8  C7  UNL d   1      -4.117   3.636  -3.845  0.00  0.00    -0.001 A 
ENDROOT
TORSDOF 0
ENDMDL
