MODEL 1
REMARK minimizedAffinity 8.70417023
REMARK minimizedRMSD -1
REMARK  0 active torsions:
REMARK  status: ('A' for Active; 'I' for Inactive)
ROOT
ATOM      1  C   UNL d   1      -3.386  -5.413  -1.496  0.00  0.00     0.020 A 
ATOM      2  C1  UNL d   1      -3.347  -4.040  -1.260  0.00  0.00     0.020 A 
ATOM      3  C2  UNL d   1      -2.389  -3.249  -1.897  0.00  0.00     0.034 A 
ATOM      4  C3  UNL d   1      -1.465  -3.831  -2.773  0.00  0.00     0.017 A 
ATOM      5  C4  UNL d   1      -1.505  -5.210  -3.009  0.00  0.00     0.017 A 
ATOM      6  C5  UNL d   1      -2.467  -5.997  -2.369  0.00  0.00     0.034 A 
ATOM      7 Cl   UNL d   1      -0.399  -6.000  -4.077  0.00  0.00    -0.070 Cl
ATOM      8 Cl1  UNL d   1      -0.308  -2.793  -3.526  0.00  0.00    -0.070 Cl
ENDROOT
TORSDOF 0
ENDMDL
