MODEL 1
REMARK minimizedAffinity 14.2744522
REMARK minimizedRMSD -1
REMARK  0 active torsions:
REMARK  status: ('A' for Active; 'I' for Inactive)
ROOT
ATOM      1  C   UNL d   1       0.319  -0.744   3.105  0.00  0.00     0.020 A 
ATOM      2  C1  UNL d   1      -0.367  -0.697   1.893  0.00  0.00     0.020 A 
ATOM      3  C2  UNL d   1       0.320  -0.404   0.713  0.00  0.00     0.034 A 
ATOM      4  C3  UNL d   1       1.697  -0.158   0.743  0.00  0.00     0.017 A 
ATOM      5  C4  UNL d   1       2.385  -0.205   1.961  0.00  0.00     0.017 A 
ATOM      6  C5  UNL d   1       1.692  -0.498   3.139  0.00  0.00     0.034 A 
ATOM      7 Cl   UNL d   1       4.084   0.088   2.077  0.00  0.00    -0.070 Cl
ATOM      8 Cl1  UNL d   1       2.483   0.197  -0.755  0.00  0.00    -0.070 Cl
ENDROOT
TORSDOF 0
ENDMDL
