MODEL 1
REMARK minimizedAffinity 5.35059834
REMARK minimizedRMSD -1
REMARK  0 active torsions:
REMARK  status: ('A' for Active; 'I' for Inactive)
ROOT
ATOM      1  C   UNL d   1      -1.137  -4.632  -1.239  0.00  0.00     0.020 A 
ATOM      2  C1  UNL d   1      -2.507  -4.715  -1.485  0.00  0.00     0.020 A 
ATOM      3  C2  UNL d   1      -3.383  -3.826  -0.859  0.00  0.00     0.034 A 
ATOM      4  C3  UNL d   1      -2.891  -2.851   0.017  0.00  0.00     0.017 A 
ATOM      5  C4  UNL d   1      -1.516  -2.769   0.263  0.00  0.00     0.017 A 
ATOM      6  C5  UNL d   1      -0.643  -3.661  -0.367  0.00  0.00     0.034 A 
ATOM      7 Cl   UNL d   1      -0.834  -1.592   1.330  0.00  0.00    -0.070 Cl
ATOM      8 Cl1  UNL d   1      -4.033  -1.785   0.756  0.00  0.00    -0.070 Cl
ENDROOT
TORSDOF 0
ENDMDL
