MODEL 1
REMARK minimizedAffinity 11.3788853
REMARK minimizedRMSD -1
REMARK  0 active torsions:
REMARK  status: ('A' for Active; 'I' for Inactive)
ROOT
ATOM      1  C   UNL d   1      -5.881  -5.464   4.926  0.00  0.00     0.020 A 
ATOM      2  C1  UNL d   1      -6.000  -4.218   5.541  0.00  0.00     0.020 A 
ATOM      3  C2  UNL d   1      -4.887  -3.380   5.642  0.00  0.00     0.034 A 
ATOM      4  C3  UNL d   1      -3.651  -3.786   5.126  0.00  0.00     0.017 A 
ATOM      5  C4  UNL d   1      -3.533  -5.037   4.509  0.00  0.00     0.017 A 
ATOM      6  C5  UNL d   1      -4.650  -5.872   4.411  0.00  0.00     0.034 A 
ATOM      7 Cl   UNL d   1      -2.041  -5.607   3.848  0.00  0.00    -0.070 Cl
ATOM      8 Cl1  UNL d   1      -2.318  -2.699   5.284  0.00  0.00    -0.070 Cl
ENDROOT
TORSDOF 0
ENDMDL
