MODEL 1
REMARK minimizedAffinity 12.3431978
REMARK minimizedRMSD -1
REMARK  0 active torsions:
REMARK  status: ('A' for Active; 'I' for Inactive)
ROOT
ATOM      1  C   UNL d   1      -1.223  -3.397   2.746  0.00  0.00     0.020 A 
ATOM      2  C1  UNL d   1      -1.699  -3.832   3.983  0.00  0.00     0.020 A 
ATOM      3  C2  UNL d   1      -2.987  -4.361   4.087  0.00  0.00     0.034 A 
ATOM      4  C3  UNL d   1      -3.803  -4.457   2.954  0.00  0.00     0.017 A 
ATOM      5  C4  UNL d   1      -3.324  -4.020   1.714  0.00  0.00     0.017 A 
ATOM      6  C5  UNL d   1      -2.034  -3.491   1.615  0.00  0.00     0.034 A 
ATOM      7 Cl   UNL d   1      -4.272  -4.106   0.271  0.00  0.00    -0.070 Cl
ATOM      8 Cl1  UNL d   1      -5.385  -5.122   3.157  0.00  0.00    -0.070 Cl
ENDROOT
TORSDOF 0
ENDMDL
