MODEL 1
REMARK minimizedAffinity 3.45968413
REMARK minimizedRMSD -1
REMARK  0 active torsions:
REMARK  status: ('A' for Active; 'I' for Inactive)
ROOT
ATOM      1  C   UNL d   1      -3.627  -6.000  -3.451  0.00  0.00     0.020 A 
ATOM      2  C1  UNL d   1      -4.843  -5.509  -2.975  0.00  0.00     0.020 A 
ATOM      3  C2  UNL d   1      -4.889  -4.815  -1.765  0.00  0.00     0.034 A 
ATOM      4  C3  UNL d   1      -3.719  -4.609  -1.026  0.00  0.00     0.017 A 
ATOM      5  C4  UNL d   1      -2.499  -5.102  -1.504  0.00  0.00     0.017 A 
ATOM      6  C5  UNL d   1      -2.458  -5.797  -2.717  0.00  0.00     0.034 A 
ATOM      7 Cl   UNL d   1      -1.013  -4.888  -0.649  0.00  0.00    -0.070 Cl
ATOM      8 Cl1  UNL d   1      -3.850  -3.741   0.463  0.00  0.00    -0.070 Cl
ENDROOT
TORSDOF 0
ENDMDL
