MODEL 1
REMARK minimizedAffinity 8.26883411
REMARK minimizedRMSD -1
REMARK  0 active torsions:
REMARK  status: ('A' for Active; 'I' for Inactive)
ROOT
ATOM      1  C   UNL d   1      -1.132  -1.345   1.363  0.00  0.00     0.020 A 
ATOM      2  C1  UNL d   1      -0.789  -1.299   2.713  0.00  0.00     0.020 A 
ATOM      3  C2  UNL d   1       0.469  -0.830   3.099  0.00  0.00     0.034 A 
ATOM      4  C3  UNL d   1       1.387  -0.404   2.133  0.00  0.00     0.017 A 
ATOM      5  C4  UNL d   1       1.042  -0.450   0.777  0.00  0.00     0.017 A 
ATOM      6  C5  UNL d   1      -0.219  -0.921   0.397  0.00  0.00     0.034 A 
ATOM      7 Cl   UNL d   1       2.122   0.059  -0.472  0.00  0.00    -0.070 Cl
ATOM      8 Cl1  UNL d   1       2.924   0.165   2.681  0.00  0.00    -0.070 Cl
ENDROOT
TORSDOF 0
ENDMDL
