MODEL 1
REMARK minimizedAffinity 5.32404995
REMARK minimizedRMSD -1
REMARK  0 active torsions:
REMARK  status: ('A' for Active; 'I' for Inactive)
ROOT
ATOM      1  C   UNL d   1      -0.004   3.670  -1.498  0.00  0.00     0.020 A 
ATOM      2  C1  UNL d   1       0.555   4.545  -2.430  0.00  0.00     0.020 A 
ATOM      3  C2  UNL d   1      -0.050   4.717  -3.676  0.00  0.00     0.034 A 
ATOM      4  C3  UNL d   1      -1.217   4.013  -3.995  0.00  0.00     0.017 A 
ATOM      5  C4  UNL d   1      -1.778   3.136  -3.059  0.00  0.00     0.017 A 
ATOM      6  C5  UNL d   1      -1.167   2.968  -1.812  0.00  0.00     0.034 A 
ATOM      7 Cl   UNL d   1      -3.216   2.234  -3.380  0.00  0.00    -0.070 Cl
ATOM      8 Cl1  UNL d   1      -1.912   4.275  -5.555  0.00  0.00    -0.070 Cl
ENDROOT
TORSDOF 0
ENDMDL
