MODEL 1
REMARK minimizedAffinity -2.9768641
REMARK minimizedRMSD -1
REMARK  0 active torsions:
REMARK  status: ('A' for Active; 'I' for Inactive)
ROOT
ATOM      1  C   UNL d   1       0.887  -1.027   0.962  0.00  0.00     0.020 A 
ATOM      2  C1  UNL d   1       0.434  -2.276   0.537  0.00  0.00     0.020 A 
ATOM      3  C2  UNL d   1      -0.801  -2.388  -0.105  0.00  0.00     0.034 A 
ATOM      4  C3  UNL d   1      -1.587  -1.251  -0.324  0.00  0.00     0.017 A 
ATOM      5  C4  UNL d   1      -1.131   0.001   0.103  0.00  0.00     0.017 A 
ATOM      6  C5  UNL d   1       0.107   0.109   0.745  0.00  0.00     0.034 A 
ATOM      7 Cl   UNL d   1      -2.044   1.450  -0.133  0.00  0.00    -0.070 Cl
ATOM      8 Cl1  UNL d   1      -3.103  -1.464  -1.125  0.00  0.00    -0.070 Cl
ENDROOT
TORSDOF 0
ENDMDL
