MODEL 1
REMARK minimizedAffinity 11.4835949
REMARK minimizedRMSD -1
REMARK  0 active torsions:
REMARK  status: ('A' for Active; 'I' for Inactive)
ROOT
ATOM      1  C   UNL d   1      -0.549  -0.659   1.901  0.00  0.00     0.020 A 
ATOM      2  C1  UNL d   1       0.143  -0.858   3.095  0.00  0.00     0.020 A 
ATOM      3  C2  UNL d   1       1.509  -0.576   3.165  0.00  0.00     0.034 A 
ATOM      4  C3  UNL d   1       2.187  -0.094   2.039  0.00  0.00     0.017 A 
ATOM      5  C4  UNL d   1       1.491   0.106   0.842  0.00  0.00     0.017 A 
ATOM      6  C5  UNL d   1       0.123  -0.178   0.777  0.00  0.00     0.034 A 
ATOM      7 Cl   UNL d   1       2.259   0.698  -0.589  0.00  0.00    -0.070 Cl
ATOM      8 Cl1  UNL d   1       3.876   0.234   2.198  0.00  0.00    -0.070 Cl
ENDROOT
TORSDOF 0
ENDMDL
