MODEL 1
REMARK minimizedAffinity 2.19052529
REMARK minimizedRMSD -1
REMARK  0 active torsions:
REMARK  status: ('A' for Active; 'I' for Inactive)
ROOT
ATOM      1  C   UNL d   1       0.990   0.076   0.475  0.00  0.00     0.020 A 
ATOM      2  C1  UNL d   1      -0.109   0.934   0.490  0.00  0.00     0.020 A 
ATOM      3  C2  UNL d   1      -0.031   2.179  -0.138  0.00  0.00     0.034 A 
ATOM      4  C3  UNL d   1       1.148   2.569  -0.784  0.00  0.00     0.017 A 
ATOM      5  C4  UNL d   1       2.251   1.707  -0.798  0.00  0.00     0.017 A 
ATOM      6  C5  UNL d   1       2.167   0.461  -0.167  0.00  0.00     0.034 A 
ATOM      7 Cl   UNL d   1       3.739   2.118  -1.573  0.00  0.00    -0.070 Cl
ATOM      8 Cl1  UNL d   1       1.175   4.122  -1.540  0.00  0.00    -0.070 Cl
ENDROOT
TORSDOF 0
ENDMDL
