MODEL 1
REMARK minimizedAffinity 1.86164057
REMARK minimizedRMSD -1
REMARK  0 active torsions:
REMARK  status: ('A' for Active; 'I' for Inactive)
ROOT
ATOM      1  C   UNL d   1       2.806  -1.065   0.466  0.00  0.00     0.020 A 
ATOM      2  C1  UNL d   1       1.763  -0.333   1.030  0.00  0.00     0.020 A 
ATOM      3  C2  UNL d   1       0.451  -0.803   0.940  0.00  0.00     0.034 A 
ATOM      4  C3  UNL d   1       0.179  -2.009   0.284  0.00  0.00     0.017 A 
ATOM      5  C4  UNL d   1       1.227  -2.744  -0.282  0.00  0.00     0.017 A 
ATOM      6  C5  UNL d   1       2.539  -2.269  -0.188  0.00  0.00     0.034 A 
ATOM      7 Cl   UNL d   1       0.970  -4.241  -1.107  0.00  0.00    -0.070 Cl
ATOM      8 Cl1  UNL d   1      -1.467  -2.530   0.210  0.00  0.00    -0.070 Cl
ENDROOT
TORSDOF 0
ENDMDL
