MODEL 1
REMARK minimizedAffinity 12.6985321
REMARK minimizedRMSD -1
REMARK  0 active torsions:
REMARK  status: ('A' for Active; 'I' for Inactive)
ROOT
ATOM      1  C   UNL d   1      -0.915  -2.488   2.689  0.00  0.00     0.020 A 
ATOM      2  C1  UNL d   1      -0.484  -1.208   3.035  0.00  0.00     0.020 A 
ATOM      3  C2  UNL d   1       0.361  -0.501   2.177  0.00  0.00     0.034 A 
ATOM      4  C3  UNL d   1       0.779  -1.073   0.970  0.00  0.00     0.017 A 
ATOM      5  C4  UNL d   1       0.346  -2.358   0.624  0.00  0.00     0.017 A 
ATOM      6  C5  UNL d   1      -0.501  -3.062   1.486  0.00  0.00     0.034 A 
ATOM      7 Cl   UNL d   1       0.818  -3.131  -0.848  0.00  0.00    -0.070 Cl
ATOM      8 Cl1  UNL d   1       1.825  -0.142  -0.042  0.00  0.00    -0.070 Cl
ENDROOT
TORSDOF 0
ENDMDL
