MODEL 1
REMARK minimizedAffinity 6.65478086
REMARK minimizedRMSD -1
REMARK  0 active torsions:
REMARK  status: ('A' for Active; 'I' for Inactive)
ROOT
ATOM      1  C   UNL d   1      -0.164   0.819   0.423  0.00  0.00     0.020 A 
ATOM      2  C1  UNL d   1      -1.156   1.753   0.129  0.00  0.00     0.020 A 
ATOM      3  C2  UNL d   1      -0.855   2.868  -0.656  0.00  0.00     0.034 A 
ATOM      4  C3  UNL d   1       0.442   3.052  -1.149  0.00  0.00     0.017 A 
ATOM      5  C4  UNL d   1       1.438   2.114  -0.853  0.00  0.00     0.017 A 
ATOM      6  C5  UNL d   1       1.130   0.999  -0.067  0.00  0.00     0.034 A 
ATOM      7 Cl   UNL d   1       3.061   2.272  -1.426  0.00  0.00    -0.070 Cl
ATOM      8 Cl1  UNL d   1       0.744   4.454  -2.113  0.00  0.00    -0.070 Cl
ENDROOT
TORSDOF 0
ENDMDL
