MODEL 1
REMARK minimizedAffinity -0.482402533
REMARK minimizedRMSD -1
REMARK  0 active torsions:
REMARK  status: ('A' for Active; 'I' for Inactive)
ROOT
ATOM      1  C   UNL d   1      -4.609  -4.993  -2.360  0.00  0.00     0.020 A 
ATOM      2  C1  UNL d   1      -5.586  -5.813  -1.798  0.00  0.00     0.020 A 
ATOM      3  C2  UNL d   1      -5.630  -6.000  -0.415  0.00  0.00     0.034 A 
ATOM      4  C3  UNL d   1      -4.695  -5.365   0.411  0.00  0.00     0.017 A 
ATOM      5  C4  UNL d   1      -3.714  -4.542  -0.154  0.00  0.00     0.017 A 
ATOM      6  C5  UNL d   1      -3.675  -4.358  -1.540  0.00  0.00     0.034 A 
ATOM      7 Cl   UNL d   1      -2.527  -3.725   0.800  0.00  0.00    -0.070 Cl
ATOM      8 Cl1  UNL d   1      -4.808  -5.640   2.113  0.00  0.00    -0.070 Cl
ENDROOT
TORSDOF 0
ENDMDL
