MODEL 1
REMARK minimizedAffinity 9.51621819
REMARK minimizedRMSD -1
REMARK  0 active torsions:
REMARK  status: ('A' for Active; 'I' for Inactive)
ROOT
ATOM      1  C   UNL d   1      -1.211  -0.059   1.903  0.00  0.00     0.020 A 
ATOM      2  C1  UNL d   1      -1.808  -1.277   1.581  0.00  0.00     0.020 A 
ATOM      3  C2  UNL d   1      -1.015  -2.404   1.352  0.00  0.00     0.034 A 
ATOM      4  C3  UNL d   1       0.378  -2.315   1.443  0.00  0.00     0.017 A 
ATOM      5  C4  UNL d   1       0.977  -1.091   1.766  0.00  0.00     0.017 A 
ATOM      6  C5  UNL d   1       0.179   0.034   1.995  0.00  0.00     0.034 A 
ATOM      7 Cl   UNL d   1       2.690  -0.903   1.897  0.00  0.00    -0.070 Cl
ATOM      8 Cl1  UNL d   1       1.296  -3.748   1.147  0.00  0.00    -0.070 Cl
ENDROOT
TORSDOF 0
ENDMDL
