MODEL 1
REMARK minimizedAffinity 5.37718391
REMARK minimizedRMSD -1
REMARK  0 active torsions:
REMARK  status: ('A' for Active; 'I' for Inactive)
ROOT
ATOM      1  O1  BZF d   1       6.000  -3.526  -0.185  0.00  0.00    -0.204 OA
ATOM      2  C2  BZF d   1       5.092  -4.130   0.663  0.00  0.00     0.174 A 
ATOM      3  C3  BZF d   1       3.964  -4.458   0.001  0.00  0.00    -0.012 A 
ATOM      4  C3A BZF d   1       4.217  -4.117  -1.365  0.00  0.00    -0.107 A 
ATOM      5  C4  BZF d   1       3.480  -4.222  -2.511  0.00  0.00     0.055 A 
ATOM      6  C5  BZF d   1       3.989  -3.730  -3.670  0.00  0.00    -0.016 A 
ATOM      7  C6  BZF d   1       5.227  -3.123  -3.720  0.00  0.00     0.022 A 
ATOM      8  C7  BZF d   1       5.996  -3.000  -2.611  0.00  0.00     0.029 A 
ATOM      9  C7A BZF d   1       5.499  -3.526  -1.444  0.00  0.00     0.058 A 
ENDROOT
TORSDOF 0
ENDMDL
