MODEL 1
REMARK minimizedAffinity 5.915658
REMARK minimizedRMSD -1
REMARK  0 active torsions:
REMARK  status: ('A' for Active; 'I' for Inactive)
ROOT
ATOM      1  O1  BZF d   1       0.631   1.653   0.099  0.00  0.00    -0.204 OA
ATOM      2  C2  BZF d   1       0.474   2.272  -1.126  0.00  0.00     0.174 A 
ATOM      3  C3  BZF d   1      -0.756   2.816  -1.233  0.00  0.00    -0.012 A 
ATOM      4  C3A BZF d   1      -1.376   2.598   0.037  0.00  0.00    -0.107 A 
ATOM      5  C4  BZF d   1      -2.597   2.923   0.554  0.00  0.00     0.055 A 
ATOM      6  C5  BZF d   1      -2.919   2.499   1.805  0.00  0.00    -0.016 A 
ATOM      7  C6  BZF d   1      -2.048   1.745   2.563  0.00  0.00     0.022 A 
ATOM      8  C7  BZF d   1      -0.823   1.402   2.095  0.00  0.00     0.029 A 
ATOM      9  C7A BZF d   1      -0.482   1.857   0.844  0.00  0.00     0.058 A 
ENDROOT
TORSDOF 0
ENDMDL
