MODEL 1
REMARK minimizedAffinity 13.5472832
REMARK minimizedRMSD -1
REMARK  0 active torsions:
REMARK  status: ('A' for Active; 'I' for Inactive)
ROOT
ATOM      1  O1  BZF d   1       0.312   1.641  -0.330  0.00  0.00    -0.204 OA
ATOM      2  C2  BZF d   1      -0.005   2.124  -1.585  0.00  0.00     0.174 A 
ATOM      3  C3  BZF d   1      -1.265   2.603  -1.610  0.00  0.00    -0.012 A 
ATOM      4  C3A BZF d   1      -1.737   2.491  -0.263  0.00  0.00    -0.107 A 
ATOM      5  C4  BZF d   1      -2.912   2.817   0.350  0.00  0.00     0.055 A 
ATOM      6  C5  BZF d   1      -3.079   2.511   1.664  0.00  0.00    -0.016 A 
ATOM      7  C6  BZF d   1      -2.095   1.875   2.392  0.00  0.00     0.022 A 
ATOM      8  C7  BZF d   1      -0.910   1.537   1.828  0.00  0.00     0.029 A 
ATOM      9  C7A BZF d   1      -0.726   1.874   0.509  0.00  0.00     0.058 A 
ENDROOT
TORSDOF 0
ENDMDL
