MODEL 1
REMARK minimizedAffinity 2.51062274
REMARK minimizedRMSD -1
REMARK  0 active torsions:
REMARK  status: ('A' for Active; 'I' for Inactive)
ROOT
ATOM      1  O1  BZF d   1      -2.327   3.130   1.766  0.00  0.00    -0.204 OA
ATOM      2  C2  BZF d   1      -2.803   2.663   0.556  0.00  0.00     0.174 A 
ATOM      3  C3  BZF d   1      -2.186   1.515   0.211  0.00  0.00    -0.012 A 
ATOM      4  C3A BZF d   1      -1.333   1.199   1.315  0.00  0.00    -0.107 A 
ATOM      5  C4  BZF d   1      -0.475   0.168   1.574  0.00  0.00     0.055 A 
ATOM      6  C5  BZF d   1       0.264   0.195   2.715  0.00  0.00    -0.016 A 
ATOM      7  C6  BZF d   1       0.173   1.236   3.614  0.00  0.00     0.022 A 
ATOM      8  C7  BZF d   1      -0.668   2.278   3.403  0.00  0.00     0.029 A 
ATOM      9  C7A BZF d   1      -1.439   2.238   2.268  0.00  0.00     0.058 A 
ENDROOT
TORSDOF 0
ENDMDL
