MODEL 1
REMARK minimizedAffinity 10.497921
REMARK minimizedRMSD -1
REMARK  0 active torsions:
REMARK  status: ('A' for Active; 'I' for Inactive)
ROOT
ATOM      1  O1  BZF d   1       4.276  -2.026  -5.030  0.00  0.00    -0.204 OA
ATOM      2  C2  BZF d   1       2.970  -2.285  -5.397  0.00  0.00     0.174 A 
ATOM      3  C3  BZF d   1       2.522  -3.411  -4.805  0.00  0.00    -0.012 A 
ATOM      4  C3A BZF d   1       3.585  -3.834  -3.946  0.00  0.00    -0.107 A 
ATOM      5  C4  BZF d   1       3.734  -4.881  -3.083  0.00  0.00     0.055 A 
ATOM      6  C5  BZF d   1       4.925  -5.051  -2.451  0.00  0.00    -0.016 A 
ATOM      7  C6  BZF d   1       5.988  -4.197  -2.662  0.00  0.00     0.022 A 
ATOM      8  C7  BZF d   1       5.886  -3.141  -3.506  0.00  0.00     0.029 A 
ATOM      9  C7A BZF d   1       4.673  -2.948  -4.121  0.00  0.00     0.058 A 
ENDROOT
TORSDOF 0
ENDMDL
