MODEL 1
REMARK minimizedAffinity 7.33689165
REMARK minimizedRMSD -1
REMARK  0 active torsions:
REMARK  status: ('A' for Active; 'I' for Inactive)
ROOT
ATOM      1  O1  BZF d   1      -4.377  -5.672   4.752  0.00  0.00    -0.204 OA
ATOM      2  C2  BZF d   1      -5.602  -5.836   5.371  0.00  0.00     0.174 A 
ATOM      3  C3  BZF d   1      -5.975  -4.703   6.000  0.00  0.00    -0.012 A 
ATOM      4  C3A BZF d   1      -4.962  -3.744   5.682  0.00  0.00    -0.107 A 
ATOM      5  C4  BZF d   1      -4.781  -2.429   6.000  0.00  0.00     0.055 A 
ATOM      6  C5  BZF d   1      -3.648  -1.800   5.590  0.00  0.00    -0.016 A 
ATOM      7  C6  BZF d   1      -2.675  -2.456   4.866  0.00  0.00     0.022 A 
ATOM      8  C7  BZF d   1      -2.812  -3.760   4.522  0.00  0.00     0.029 A 
ATOM      9  C7A BZF d   1      -3.971  -4.389   4.906  0.00  0.00     0.058 A 
ENDROOT
TORSDOF 0
ENDMDL
