MODEL 1
REMARK minimizedAffinity 8.11521912
REMARK minimizedRMSD -1
REMARK  0 active torsions:
REMARK  status: ('A' for Active; 'I' for Inactive)
ROOT
ATOM      1  O1  BZF d   1      -1.673   3.142   2.023  0.00  0.00    -0.204 OA
ATOM      2  C2  BZF d   1      -2.551   2.318   1.345  0.00  0.00     0.174 A 
ATOM      3  C3  BZF d   1      -2.243   1.021   1.546  0.00  0.00    -0.012 A 
ATOM      4  C3A BZF d   1      -1.156   1.033   2.478  0.00  0.00    -0.107 A 
ATOM      5  C4  BZF d   1      -0.423   0.049   3.077  0.00  0.00     0.055 A 
ATOM      6  C5  BZF d   1       0.616   0.396   3.881  0.00  0.00    -0.016 A 
ATOM      7  C6  BZF d   1       0.954   1.716   4.101  0.00  0.00     0.022 A 
ATOM      8  C7  BZF d   1       0.253   2.727   3.532  0.00  0.00     0.029 A 
ATOM      9  C7A BZF d   1      -0.819   2.379   2.747  0.00  0.00     0.058 A 
ENDROOT
TORSDOF 0
ENDMDL
