MODEL 1
REMARK minimizedAffinity 7.66601849
REMARK minimizedRMSD -1
REMARK  0 active torsions:
REMARK  status: ('A' for Active; 'I' for Inactive)
ROOT
ATOM      1  O1  BZF d   1      -1.723  -0.637  -2.647  0.00  0.00    -0.204 OA
ATOM      2  C2  BZF d   1      -2.783   0.247  -2.700  0.00  0.00     0.174 A 
ATOM      3  C3  BZF d   1      -2.378   1.499  -2.405  0.00  0.00    -0.012 A 
ATOM      4  C3A BZF d   1      -0.959   1.406  -2.242  0.00  0.00    -0.107 A 
ATOM      5  C4  BZF d   1       0.014   2.320  -1.955  0.00  0.00     0.055 A 
ATOM      6  C5  BZF d   1       1.294   1.893  -1.792  0.00  0.00    -0.016 A 
ATOM      7  C6  BZF d   1       1.634   0.560  -1.904  0.00  0.00     0.022 A 
ATOM      8  C7  BZF d   1       0.704  -0.382  -2.193  0.00  0.00     0.029 A 
ATOM      9  C7A BZF d   1      -0.584   0.051  -2.390  0.00  0.00     0.058 A 
ENDROOT
TORSDOF 0
ENDMDL
