MODEL 1
REMARK minimizedAffinity 13.9560165
REMARK minimizedRMSD -1
REMARK  0 active torsions:
REMARK  status: ('A' for Active; 'I' for Inactive)
ROOT
ATOM      1  O1  BZF d   1       0.869  -0.269  -1.899  0.00  0.00    -0.204 OA
ATOM      2  C2  BZF d   1       1.451   0.866  -1.367  0.00  0.00     0.174 A 
ATOM      3  C3  BZF d   1       0.595   1.907  -1.410  0.00  0.00    -0.012 A 
ATOM      4  C3A BZF d   1      -0.628   1.369  -1.922  0.00  0.00    -0.107 A 
ATOM      5  C4  BZF d   1      -1.856   1.908  -2.180  0.00  0.00     0.055 A 
ATOM      6  C5  BZF d   1      -2.814   1.127  -2.745  0.00  0.00    -0.016 A 
ATOM      7  C6  BZF d   1      -2.577  -0.192  -3.070  0.00  0.00     0.022 A 
ATOM      8  C7  BZF d   1      -1.376  -0.772  -2.829  0.00  0.00     0.029 A 
ATOM      9  C7A BZF d   1      -0.417   0.004  -2.227  0.00  0.00     0.058 A 
ENDROOT
TORSDOF 0
ENDMDL
