MODEL 1
REMARK minimizedAffinity -2.95671368
REMARK minimizedRMSD -1
REMARK  0 active torsions:
REMARK  status: ('A' for Active; 'I' for Inactive)
ROOT
ATOM      1  O1  BZF d   1       0.189   0.397   1.351  0.00  0.00    -0.204 OA
ATOM      2  C2  BZF d   1      -0.483   1.588   1.545  0.00  0.00     0.174 A 
ATOM      3  C3  BZF d   1      -1.021   2.027   0.389  0.00  0.00    -0.012 A 
ATOM      4  C3A BZF d   1      -0.741   1.002  -0.570  0.00  0.00    -0.107 A 
ATOM      5  C4  BZF d   1      -1.033   0.851  -1.895  0.00  0.00     0.055 A 
ATOM      6  C5  BZF d   1      -0.552  -0.232  -2.559  0.00  0.00    -0.016 A 
ATOM      7  C6  BZF d   1       0.229  -1.181  -1.930  0.00  0.00     0.022 A 
ATOM      8  C7  BZF d   1       0.541  -1.077  -0.615  0.00  0.00     0.029 A 
ATOM      9  C7A BZF d   1       0.028   0.000   0.066  0.00  0.00     0.058 A 
ENDROOT
TORSDOF 0
ENDMDL
