MODEL 1
REMARK minimizedAffinity 4.96732855
REMARK minimizedRMSD -1
REMARK  0 active torsions:
REMARK  status: ('A' for Active; 'I' for Inactive)
ROOT
ATOM      1  O1  BZF d   1       4.659  -0.976   0.176  0.00  0.00    -0.204 OA
ATOM      2  C2  BZF d   1       5.952  -1.181  -0.266  0.00  0.00     0.174 A 
ATOM      3  C3  BZF d   1       6.000  -2.197  -1.151  0.00  0.00    -0.012 A 
ATOM      4  C3A BZF d   1       4.639  -2.596  -1.339  0.00  0.00    -0.107 A 
ATOM      5  C4  BZF d   1       4.038  -3.548  -2.113  0.00  0.00     0.055 A 
ATOM      6  C5  BZF d   1       2.695  -3.731  -2.011  0.00  0.00    -0.016 A 
ATOM      7  C6  BZF d   1       1.925  -2.985  -1.143  0.00  0.00     0.022 A 
ATOM      8  C7  BZF d   1       2.475  -2.026  -0.359  0.00  0.00     0.029 A 
ATOM      9  C7A BZF d   1       3.827  -1.816  -0.484  0.00  0.00     0.058 A 
ENDROOT
TORSDOF 0
ENDMDL
