MODEL 1
REMARK minimizedAffinity 7.8817482
REMARK minimizedRMSD -1
REMARK  0 active torsions:
REMARK  status: ('A' for Active; 'I' for Inactive)
ROOT
ATOM      1  O1  BZF d   1      -1.127   1.274  -0.677  0.00  0.00    -0.204 OA
ATOM      2  C2  BZF d   1      -0.031   2.078  -0.431  0.00  0.00     0.174 A 
ATOM      3  C3  BZF d   1       0.902   1.924  -1.392  0.00  0.00    -0.012 A 
ATOM      4  C3A BZF d   1       0.316   1.032  -2.346  0.00  0.00    -0.107 A 
ATOM      5  C4  BZF d   1       0.747   0.510  -3.531  0.00  0.00     0.055 A 
ATOM      6  C5  BZF d   1      -0.038  -0.389  -4.182  0.00  0.00    -0.016 A 
ATOM      7  C6  BZF d   1      -1.256  -0.790  -3.673  0.00  0.00     0.022 A 
ATOM      8  C7  BZF d   1      -1.729  -0.296  -2.503  0.00  0.00     0.029 A 
ATOM      9  C7A BZF d   1      -0.952   0.637  -1.860  0.00  0.00     0.058 A 
ENDROOT
TORSDOF 0
ENDMDL
