MODEL 1
REMARK minimizedAffinity 11.063592
REMARK minimizedRMSD -1
REMARK  0 active torsions:
REMARK  status: ('A' for Active; 'I' for Inactive)
ROOT
ATOM      1  O1  BZF d   1      -2.396  -1.020   3.756  0.00  0.00    -0.204 OA
ATOM      2  C2  BZF d   1      -1.561  -2.075   4.068  0.00  0.00     0.174 A 
ATOM      3  C3  BZF d   1      -0.317  -1.857   3.596  0.00  0.00    -0.012 A 
ATOM      4  C3A BZF d   1      -0.355  -0.544   3.028  0.00  0.00    -0.107 A 
ATOM      5  C4  BZF d   1       0.580   0.242   2.416  0.00  0.00     0.055 A 
ATOM      6  C5  BZF d   1       0.202   1.445   1.909  0.00  0.00    -0.016 A 
ATOM      7  C6  BZF d   1      -1.101   1.890   1.992  0.00  0.00     0.022 A 
ATOM      8  C7  BZF d   1      -2.062   1.149   2.595  0.00  0.00     0.029 A 
ATOM      9  C7A BZF d   1      -1.676  -0.053   3.137  0.00  0.00     0.058 A 
ENDROOT
TORSDOF 0
ENDMDL
