MODEL 1
REMARK minimizedAffinity 12.1728163
REMARK minimizedRMSD -1
REMARK  0 active torsions:
REMARK  status: ('A' for Active; 'I' for Inactive)
ROOT
ATOM      1  O1  BZF d   1      -1.927   0.726  -2.054  0.00  0.00    -0.204 OA
ATOM      2  C2  BZF d   1      -2.564   0.035  -3.067  0.00  0.00     0.174 A 
ATOM      3  C3  BZF d   1      -1.773  -0.054  -4.156  0.00  0.00    -0.012 A 
ATOM      4  C3A BZF d   1      -0.532   0.543  -3.769  0.00  0.00    -0.107 A 
ATOM      5  C4  BZF d   1       0.656   0.741  -4.414  0.00  0.00     0.055 A 
ATOM      6  C5  BZF d   1       1.646   1.422  -3.779  0.00  0.00    -0.016 A 
ATOM      7  C6  BZF d   1       1.482   1.922  -2.504  0.00  0.00     0.022 A 
ATOM      8  C7  BZF d   1       0.323   1.746  -1.823  0.00  0.00     0.029 A 
ATOM      9  C7A BZF d   1      -0.668   1.030  -2.449  0.00  0.00     0.058 A 
ENDROOT
TORSDOF 0
ENDMDL
