MODEL 1
REMARK minimizedAffinity 17.3019848
REMARK minimizedRMSD -1
REMARK  0 active torsions:
REMARK  status: ('A' for Active; 'I' for Inactive)
ROOT
ATOM      1  C   UNL d   1       1.313  -0.126   1.667  0.00  0.00    -0.002 A 
ATOM      2  C1  UNL d   1       2.321  -0.458   0.773  0.00  0.00     0.010 A 
ATOM      3  C2  UNL d   1       2.574  -1.793   0.452  0.00  0.00     0.041 A 
ATOM      4  C3  UNL d   1       1.788  -2.798   1.049  0.00  0.00    -0.075 A 
ATOM      5  S   UNL d   1       1.916  -4.500   0.804  0.00  0.00     0.015 SA
ATOM      6  C4  UNL d   1       0.635  -4.826   1.881  0.00  0.00     0.022 A 
ATOM      7  C5  UNL d   1       0.111  -3.676   2.422  0.00  0.00     0.026 A 
ATOM      8  C6  UNL d   1       0.766  -2.488   1.951  0.00  0.00    -0.082 A 
ATOM      9  C7  UNL d   1       0.535  -1.126   2.257  0.00  0.00     0.045 A 
ENDROOT
TORSDOF 0
ENDMDL
