MODEL 1
REMARK minimizedAffinity 19.8069897
REMARK minimizedRMSD -1
REMARK  0 active torsions:
REMARK  status: ('A' for Active; 'I' for Inactive)
ROOT
ATOM      1  C   UNL d   1      -5.181   3.637  -0.249  0.00  0.00    -0.002 A 
ATOM      2  C1  UNL d   1      -5.096   5.019  -0.334  0.00  0.00     0.010 A 
ATOM      3  C2  UNL d   1      -4.216   5.622  -1.235  0.00  0.00     0.041 A 
ATOM      4  C3  UNL d   1      -3.417   4.804  -2.059  0.00  0.00    -0.075 A 
ATOM      5  S   UNL d   1      -2.269   5.320  -3.237  0.00  0.00     0.015 SA
ATOM      6  C4  UNL d   1      -1.866   3.718  -3.655  0.00  0.00     0.022 A 
ATOM      7  C5  UNL d   1      -2.580   2.799  -2.924  0.00  0.00     0.026 A 
ATOM      8  C6  UNL d   1      -3.486   3.410  -1.992  0.00  0.00    -0.082 A 
ATOM      9  C7  UNL d   1      -4.388   2.829  -1.068  0.00  0.00     0.045 A 
ENDROOT
TORSDOF 0
ENDMDL
