MODEL 1
REMARK minimizedAffinity 26.2625828
REMARK minimizedRMSD -1
REMARK  0 active torsions:
REMARK  status: ('A' for Active; 'I' for Inactive)
ROOT
ATOM      1  C   UNL d   1      -0.508  -4.514   1.789  0.00  0.00    -0.002 A 
ATOM      2  C1  UNL d   1       0.837  -4.843   1.692  0.00  0.00     0.010 A 
ATOM      3  C2  UNL d   1       1.810  -3.844   1.628  0.00  0.00     0.041 A 
ATOM      4  C3  UNL d   1       1.405  -2.495   1.665  0.00  0.00    -0.075 A 
ATOM      5  S   UNL d   1       2.420  -1.103   1.601  0.00  0.00     0.015 SA
ATOM      6  C4  UNL d   1       1.093  -0.039   1.701  0.00  0.00     0.022 A 
ATOM      7  C5  UNL d   1      -0.103  -0.712   1.782  0.00  0.00     0.026 A 
ATOM      8  C6  UNL d   1       0.057  -2.139   1.763  0.00  0.00    -0.082 A 
ATOM      9  C7  UNL d   1      -0.906  -3.175   1.825  0.00  0.00     0.045 A 
ENDROOT
TORSDOF 0
ENDMDL
