MODEL 1
REMARK minimizedAffinity 12.8302422
REMARK minimizedRMSD -1
REMARK  0 active torsions:
REMARK  status: ('A' for Active; 'I' for Inactive)
ROOT
ATOM      1  C   UNL d   1      -0.214  -2.846   2.718  0.00  0.00    -0.002 A 
ATOM      2  C1  UNL d   1      -0.994  -1.701   2.630  0.00  0.00     0.010 A 
ATOM      3  C2  UNL d   1      -0.489  -0.541   2.039  0.00  0.00     0.041 A 
ATOM      4  C3  UNL d   1       0.825  -0.552   1.531  0.00  0.00    -0.075 A 
ATOM      5  S   UNL d   1       1.653   0.752   0.765  0.00  0.00     0.015 SA
ATOM      6  C4  UNL d   1       3.062  -0.180   0.535  0.00  0.00     0.022 A 
ATOM      7  C5  UNL d   1       2.921  -1.456   1.026  0.00  0.00     0.026 A 
ATOM      8  C6  UNL d   1       1.629  -1.692   1.607  0.00  0.00    -0.082 A 
ATOM      9  C7  UNL d   1       1.089  -2.852   2.213  0.00  0.00     0.045 A 
ENDROOT
TORSDOF 0
ENDMDL
