MODEL 1
REMARK minimizedAffinity 17.4457111
REMARK minimizedRMSD -1
REMARK  0 active torsions:
REMARK  status: ('A' for Active; 'I' for Inactive)
ROOT
ATOM      1  C   UNL d   1      -3.701   3.888  -1.507  0.00  0.00    -0.002 A 
ATOM      2  C1  UNL d   1      -3.592   5.269  -1.424  0.00  0.00     0.010 A 
ATOM      3  C2  UNL d   1      -3.013   6.000  -2.464  0.00  0.00     0.041 A 
ATOM      4  C3  UNL d   1      -2.543   5.313  -3.600  0.00  0.00    -0.075 A 
ATOM      5  S   UNL d   1      -1.800   5.999  -4.996  0.00  0.00     0.015 SA
ATOM      6  C4  UNL d   1      -1.611   4.476  -5.736  0.00  0.00     0.022 A 
ATOM      7  C5  UNL d   1      -2.097   3.457  -4.952  0.00  0.00     0.026 A 
ATOM      8  C6  UNL d   1      -2.643   3.923  -3.708  0.00  0.00    -0.082 A 
ATOM      9  C7  UNL d   1      -3.234   3.210  -2.637  0.00  0.00     0.045 A 
ENDROOT
TORSDOF 0
ENDMDL
