MODEL 1
REMARK minimizedAffinity 20.4419785
REMARK minimizedRMSD -1
REMARK  0 active torsions:
REMARK  status: ('A' for Active; 'I' for Inactive)
ROOT
ATOM      1  C   UNL d   1       2.043  -3.970  -0.534  0.00  0.00    -0.002 A 
ATOM      2  C1  UNL d   1       0.867  -4.223   0.157  0.00  0.00     0.010 A 
ATOM      3  C2  UNL d   1       0.327  -3.264   1.016  0.00  0.00     0.041 A 
ATOM      4  C3  UNL d   1       0.994  -2.033   1.168  0.00  0.00    -0.075 A 
ATOM      5  S   UNL d   1       0.518  -0.708   2.165  0.00  0.00     0.015 SA
ATOM      6  C4  UNL d   1       1.864   0.226   1.695  0.00  0.00     0.022 A 
ATOM      7  C5  UNL d   1       2.668  -0.441   0.801  0.00  0.00     0.026 A 
ATOM      8  C6  UNL d   1       2.180  -1.753   0.482  0.00  0.00    -0.082 A 
ATOM      9  C7  UNL d   1       2.702  -2.747  -0.380  0.00  0.00     0.045 A 
ENDROOT
TORSDOF 0
ENDMDL
