MODEL 1
REMARK minimizedAffinity 17.502985
REMARK minimizedRMSD -1
REMARK  0 active torsions:
REMARK  status: ('A' for Active; 'I' for Inactive)
ROOT
ATOM      1  C   UNL d   1      -1.301  -3.915   0.358  0.00  0.00    -0.002 A 
ATOM      2  C1  UNL d   1      -1.309  -5.272   0.066  0.00  0.00     0.010 A 
ATOM      3  C2  UNL d   1      -2.507  -5.989   0.058  0.00  0.00     0.041 A 
ATOM      4  C3  UNL d   1      -3.708  -5.314   0.351  0.00  0.00    -0.075 A 
ATOM      5  S   UNL d   1      -5.294  -5.987   0.400  0.00  0.00     0.015 SA
ATOM      6  C4  UNL d   1      -5.998  -4.490   0.809  0.00  0.00     0.022 A 
ATOM      7  C5  UNL d   1      -5.061  -3.490   0.911  0.00  0.00     0.026 A 
ATOM      8  C6  UNL d   1      -3.725  -3.948   0.648  0.00  0.00    -0.082 A 
ATOM      9  C7  UNL d   1      -2.494  -3.249   0.648  0.00  0.00     0.045 A 
ENDROOT
TORSDOF 0
ENDMDL
