MODEL 1
REMARK minimizedAffinity 4.50066328
REMARK minimizedRMSD -1
REMARK  0 active torsions:
REMARK  status: ('A' for Active; 'I' for Inactive)
ROOT
ATOM      1  C   UNL d   1      -5.440  -4.051   5.286  0.00  0.00    -0.002 A 
ATOM      2  C1  UNL d   1      -6.000  -5.316   5.175  0.00  0.00     0.010 A 
ATOM      3  C2  UNL d   1      -5.996  -5.989   3.952  0.00  0.00     0.041 A 
ATOM      4  C3  UNL d   1      -5.413  -5.365   2.832  0.00  0.00    -0.075 A 
ATOM      5  S   UNL d   1      -5.292  -5.999   1.233  0.00  0.00     0.015 SA
ATOM      6  C4  UNL d   1      -4.494  -4.606   0.660  0.00  0.00     0.022 A 
ATOM      7  C5  UNL d   1      -4.316  -3.670   1.651  0.00  0.00     0.026 A 
ATOM      8  C6  UNL d   1      -4.842  -4.092   2.919  0.00  0.00    -0.082 A 
ATOM      9  C7  UNL d   1      -4.863  -3.434   4.173  0.00  0.00     0.045 A 
ENDROOT
TORSDOF 0
ENDMDL
