MODEL 1
REMARK minimizedAffinity 20.8631783
REMARK minimizedRMSD -1
REMARK  0 active torsions:
REMARK  status: ('A' for Active; 'I' for Inactive)
ROOT
ATOM      1  C   UNL d   1      -2.342   3.889  -4.045  0.00  0.00    -0.002 A 
ATOM      2  C1  UNL d   1      -2.222   5.261  -4.211  0.00  0.00     0.010 A 
ATOM      3  C2  UNL d   1      -1.304   5.991  -3.454  0.00  0.00     0.041 A 
ATOM      4  C3  UNL d   1      -0.499   5.311  -2.519  0.00  0.00    -0.075 A 
ATOM      5  S   UNL d   1       0.696   5.998  -1.482  0.00  0.00     0.015 SA
ATOM      6  C4  UNL d   1       1.076   4.485  -0.795  0.00  0.00     0.022 A 
ATOM      7  C5  UNL d   1       0.319   3.470  -1.331  0.00  0.00     0.026 A 
ATOM      8  C6  UNL d   1      -0.600   3.929  -2.334  0.00  0.00    -0.082 A 
ATOM      9  C7  UNL d   1      -1.542   3.218  -3.116  0.00  0.00     0.045 A 
ENDROOT
TORSDOF 0
ENDMDL
