MODEL 1
REMARK minimizedAffinity 22.7103443
REMARK minimizedRMSD -1
REMARK  0 active torsions:
REMARK  status: ('A' for Active; 'I' for Inactive)
ROOT
ATOM      1  C   UNL d   1       4.995  -5.242  -5.918  0.00  0.00    -0.002 A 
ATOM      2  C1  UNL d   1       4.935  -3.857  -5.839  0.00  0.00     0.010 A 
ATOM      3  C2  UNL d   1       3.704  -3.201  -5.794  0.00  0.00     0.041 A 
ATOM      4  C3  UNL d   1       2.522  -3.966  -5.828  0.00  0.00    -0.075 A 
ATOM      5  S   UNL d   1       0.902  -3.378  -5.783  0.00  0.00     0.015 SA
ATOM      6  C4  UNL d   1       0.250  -4.951  -5.866  0.00  0.00     0.022 A 
ATOM      7  C5  UNL d   1       1.230  -5.913  -5.927  0.00  0.00     0.026 A 
ATOM      8  C6  UNL d   1       2.556  -5.361  -5.906  0.00  0.00    -0.082 A 
ATOM      9  C7  UNL d   1       3.819  -5.997  -5.951  0.00  0.00     0.045 A 
ENDROOT
TORSDOF 0
ENDMDL
