MODEL 1
REMARK minimizedAffinity 6.51675081
REMARK minimizedRMSD -1
REMARK  0 active torsions:
REMARK  status: ('A' for Active; 'I' for Inactive)
ROOT
ATOM      1  C   UNL d   1      -3.242  -2.966   2.622  0.00  0.00    -0.002 A 
ATOM      2  C1  UNL d   1      -4.338  -3.514   3.273  0.00  0.00     0.010 A 
ATOM      3  C2  UNL d   1      -5.142  -4.461   2.637  0.00  0.00     0.041 A 
ATOM      4  C3  UNL d   1      -4.822  -4.854   1.322  0.00  0.00    -0.075 A 
ATOM      5  S   UNL d   1      -5.663  -5.999   0.346  0.00  0.00     0.015 SA
ATOM      6  C4  UNL d   1      -4.587  -5.789  -0.959  0.00  0.00     0.022 A 
ATOM      7  C5  UNL d   1      -3.604  -4.871  -0.674  0.00  0.00     0.026 A 
ATOM      8  C6  UNL d   1      -3.723  -4.318   0.646  0.00  0.00    -0.082 A 
ATOM      9  C7  UNL d   1      -2.928  -3.359   1.318  0.00  0.00     0.045 A 
ENDROOT
TORSDOF 0
ENDMDL
