MODEL 1
REMARK minimizedAffinity -1.05406952
REMARK minimizedRMSD -1
REMARK  0 active torsions:
REMARK  status: ('A' for Active; 'I' for Inactive)
ROOT
ATOM      1  O1  BZF d   1      -2.506   2.921   4.701  0.00  0.00    -0.204 OA
ATOM      2  C2  BZF d   1      -1.513   3.763   4.239  0.00  0.00     0.174 A 
ATOM      3  C3  BZF d   1      -0.646   3.094   3.453  0.00  0.00    -0.012 A 
ATOM      4  C3A BZF d   1      -1.178   1.770   3.347  0.00  0.00    -0.107 A 
ATOM      5  C4  BZF d   1      -0.773   0.645   2.686  0.00  0.00     0.055 A 
ATOM      6  C5  BZF d   1      -1.477  -0.505   2.849  0.00  0.00    -0.016 A 
ATOM      7  C6  BZF d   1      -2.586  -0.569   3.666  0.00  0.00     0.022 A 
ATOM      8  C7  BZF d   1      -3.029   0.522   4.338  0.00  0.00     0.029 A 
ATOM      9  C7A BZF d   1      -2.339   1.695   4.150  0.00  0.00     0.058 A 
ENDROOT
TORSDOF 0
ENDMDL
