MODEL 1
REMARK minimizedAffinity -0.706457257
REMARK minimizedRMSD -1
REMARK  0 active torsions:
REMARK  status: ('A' for Active; 'I' for Inactive)
ROOT
ATOM      1  O1  BZF d   1       4.317   0.734   4.888  0.00  0.00    -0.204 OA
ATOM      2  C2  BZF d   1       5.221  -0.199   4.418  0.00  0.00     0.174 A 
ATOM      3  C3  BZF d   1       5.984   0.327   3.438  0.00  0.00    -0.012 A 
ATOM      4  C3A BZF d   1       5.591   1.700   3.350  0.00  0.00    -0.107 A 
ATOM      5  C4  BZF d   1       6.000   2.745   2.572  0.00  0.00     0.055 A 
ATOM      6  C5  BZF d   1       5.362   3.940   2.684  0.00  0.00    -0.016 A 
ATOM      7  C6  BZF d   1       4.310   4.123   3.557  0.00  0.00     0.022 A 
ATOM      8  C7  BZF d   1       3.873   3.117   4.353  0.00  0.00     0.029 A 
ATOM      9  C7A BZF d   1       4.537   1.917   4.266  0.00  0.00     0.058 A 
ENDROOT
TORSDOF 0
ENDMDL
