MODEL 1
REMARK minimizedAffinity -2.45879269
REMARK minimizedRMSD -1
REMARK  0 active torsions:
REMARK  status: ('A' for Active; 'I' for Inactive)
ROOT
ATOM      1  O1  BZF d   1       5.970   4.358   4.846  0.00  0.00    -0.204 OA
ATOM      2  C2  BZF d   1       5.956   4.776   3.529  0.00  0.00     0.174 A 
ATOM      3  C3  BZF d   1       5.999   3.720   2.691  0.00  0.00    -0.012 A 
ATOM      4  C3A BZF d   1       5.949   2.567   3.537  0.00  0.00    -0.107 A 
ATOM      5  C4  BZF d   1       5.945   1.223   3.293  0.00  0.00     0.055 A 
ATOM      6  C5  BZF d   1       5.965   0.361   4.344  0.00  0.00    -0.016 A 
ATOM      7  C6  BZF d   1       5.995   0.807   5.649  0.00  0.00     0.022 A 
ATOM      8  C7  BZF d   1       5.996   2.131   5.941  0.00  0.00     0.029 A 
ATOM      9  C7A BZF d   1       5.942   3.004   4.882  0.00  0.00     0.058 A 
ENDROOT
TORSDOF 0
ENDMDL
