MODEL 1
REMARK minimizedAffinity 0.0489884242
REMARK minimizedRMSD -1
REMARK  0 active torsions:
REMARK  status: ('A' for Active; 'I' for Inactive)
ROOT
ATOM      1  O1  BZF d   1       6.000   5.573   3.580  0.00  0.00    -0.204 OA
ATOM      2  C2  BZF d   1       5.988   5.980   2.260  0.00  0.00     0.174 A 
ATOM      3  C3  BZF d   1       6.000   4.916   1.431  0.00  0.00    -0.012 A 
ATOM      4  C3A BZF d   1       5.928   3.772   2.287  0.00  0.00    -0.107 A 
ATOM      5  C4  BZF d   1       5.888   2.426   2.055  0.00  0.00     0.055 A 
ATOM      6  C5  BZF d   1       5.894   1.573   3.113  0.00  0.00    -0.016 A 
ATOM      7  C6  BZF d   1       5.943   2.030   4.414  0.00  0.00     0.022 A 
ATOM      8  C7  BZF d   1       5.978   3.355   4.694  0.00  0.00     0.029 A 
ATOM      9  C7A BZF d   1       5.940   4.221   3.628  0.00  0.00     0.058 A 
ENDROOT
TORSDOF 0
ENDMDL
