MODEL 1
REMARK minimizedAffinity -3.24496651
REMARK minimizedRMSD -1
REMARK  0 active torsions:
REMARK  status: ('A' for Active; 'I' for Inactive)
ROOT
ATOM      1  O1  BZF d   1       5.952   0.882   5.980  0.00  0.00    -0.204 OA
ATOM      2  C2  BZF d   1       5.931  -0.408   5.485  0.00  0.00     0.174 A 
ATOM      3  C3  BZF d   1       5.882  -0.402   4.137  0.00  0.00    -0.012 A 
ATOM      4  C3A BZF d   1       5.965   0.976   3.763  0.00  0.00    -0.107 A 
ATOM      5  C4  BZF d   1       5.981   1.624   2.561  0.00  0.00     0.055 A 
ATOM      6  C5  BZF d   1       5.996   2.983   2.543  0.00  0.00    -0.016 A 
ATOM      7  C6  BZF d   1       5.990   3.724   3.706  0.00  0.00     0.022 A 
ATOM      8  C7  BZF d   1       5.979   3.127   4.922  0.00  0.00     0.029 A 
ATOM      9  C7A BZF d   1       5.997   1.754   4.944  0.00  0.00     0.058 A 
ENDROOT
TORSDOF 0
ENDMDL
