MODEL 1
REMARK minimizedAffinity -0.687408566
REMARK minimizedRMSD -1
REMARK  0 active torsions:
REMARK  status: ('A' for Active; 'I' for Inactive)
ROOT
ATOM      1  O1  BZF d   1       4.863   1.835   5.254  0.00  0.00    -0.204 OA
ATOM      2  C2  BZF d   1       5.484   0.835   4.531  0.00  0.00     0.174 A 
ATOM      3  C3  BZF d   1       5.979   1.318   3.373  0.00  0.00    -0.012 A 
ATOM      4  C3A BZF d   1       5.727   2.726   3.415  0.00  0.00    -0.107 A 
ATOM      5  C4  BZF d   1       6.000   3.755   2.559  0.00  0.00     0.055 A 
ATOM      6  C5  BZF d   1       5.555   5.002   2.862  0.00  0.00    -0.016 A 
ATOM      7  C6  BZF d   1       4.831   5.256   4.009  0.00  0.00     0.022 A 
ATOM      8  C7  BZF d   1       4.540   4.269   4.891  0.00  0.00     0.029 A 
ATOM      9  C7A BZF d   1       5.017   3.014   4.604  0.00  0.00     0.058 A 
ENDROOT
TORSDOF 0
ENDMDL
