MODEL 1
REMARK minimizedAffinity -3.06754899
REMARK minimizedRMSD -1
REMARK  0 active torsions:
REMARK  status: ('A' for Active; 'I' for Inactive)
ROOT
ATOM      1  O1  BZF d   1       5.259  -1.750   5.951  0.00  0.00    -0.204 OA
ATOM      2  C2  BZF d   1       5.364  -2.701   4.955  0.00  0.00     0.174 A 
ATOM      3  C3  BZF d   1       5.601  -2.120   3.762  0.00  0.00    -0.012 A 
ATOM      4  C3A BZF d   1       5.739  -0.724   4.044  0.00  0.00    -0.107 A 
ATOM      5  C4  BZF d   1       6.000   0.370   3.268  0.00  0.00     0.055 A 
ATOM      6  C5  BZF d   1       5.996   1.602   3.842  0.00  0.00    -0.016 A 
ATOM      7  C6  BZF d   1       5.732   1.777   5.184  0.00  0.00     0.022 A 
ATOM      8  C7  BZF d   1       5.473   0.722   5.995  0.00  0.00     0.029 A 
ATOM      9  C7A BZF d   1       5.508  -0.527   5.425  0.00  0.00     0.058 A 
ENDROOT
TORSDOF 0
ENDMDL
