MODEL 1
REMARK minimizedAffinity 4.08514166
REMARK minimizedRMSD -1
REMARK  0 active torsions:
REMARK  status: ('A' for Active; 'I' for Inactive)
ROOT
ATOM      1  O1  BZF d   1       5.940   2.612   5.619  0.00  0.00    -0.204 OA
ATOM      2  C2  BZF d   1       5.978   1.498   4.803  0.00  0.00     0.174 A 
ATOM      3  C3  BZF d   1       5.952   1.857   3.503  0.00  0.00    -0.012 A 
ATOM      4  C3A BZF d   1       5.988   3.288   3.506  0.00  0.00    -0.107 A 
ATOM      5  C4  BZF d   1       5.999   4.229   2.517  0.00  0.00     0.055 A 
ATOM      6  C5  BZF d   1       5.961   5.544   2.857  0.00  0.00    -0.016 A 
ATOM      7  C6  BZF d   1       5.905   5.953   4.173  0.00  0.00     0.022 A 
ATOM      8  C7  BZF d   1       5.897   5.056   5.189  0.00  0.00     0.029 A 
ATOM      9  C7A BZF d   1       5.969   3.727   4.850  0.00  0.00     0.058 A 
ENDROOT
TORSDOF 0
ENDMDL
