MODEL 1
REMARK minimizedAffinity -2.02948403
REMARK minimizedRMSD -1
REMARK  0 active torsions:
REMARK  status: ('A' for Active; 'I' for Inactive)
ROOT
ATOM      1  O1  BZF d   1       5.951   1.729   5.374  0.00  0.00    -0.204 OA
ATOM      2  C2  BZF d   1       5.923   0.744   4.405  0.00  0.00     0.174 A 
ATOM      3  C3  BZF d   1       5.872   1.288   3.172  0.00  0.00    -0.012 A 
ATOM      4  C3A BZF d   1       5.961   2.701   3.379  0.00  0.00    -0.107 A 
ATOM      5  C4  BZF d   1       5.978   3.774   2.536  0.00  0.00     0.055 A 
ATOM      6  C5  BZF d   1       6.000   5.027   3.061  0.00  0.00    -0.016 A 
ATOM      7  C6  BZF d   1       5.999   5.243   4.424  0.00  0.00     0.022 A 
ATOM      8  C7  BZF d   1       5.987   4.209   5.301  0.00  0.00     0.029 A 
ATOM      9  C7A BZF d   1       5.999   2.941   4.772  0.00  0.00     0.058 A 
ENDROOT
TORSDOF 0
ENDMDL
