MODEL 1
REMARK minimizedAffinity 0.4335697
REMARK minimizedRMSD -1
REMARK  0 active torsions:
REMARK  status: ('A' for Active; 'I' for Inactive)
ROOT
ATOM      1  O1  BZF d   1       5.952   3.678   3.064  0.00  0.00    -0.204 OA
ATOM      2  C2  BZF d   1       5.931   4.709   3.984  0.00  0.00     0.174 A 
ATOM      3  C3  BZF d   1       5.884   4.226   5.242  0.00  0.00    -0.012 A 
ATOM      4  C3A BZF d   1       5.967   2.804   5.103  0.00  0.00    -0.107 A 
ATOM      5  C4  BZF d   1       5.985   1.773   5.998  0.00  0.00     0.055 A 
ATOM      6  C5  BZF d   1       6.000   0.496   5.534  0.00  0.00    -0.016 A 
ATOM      7  C6  BZF d   1       5.993   0.214   4.184  0.00  0.00     0.022 A 
ATOM      8  C7  BZF d   1       5.981   1.204   3.258  0.00  0.00     0.029 A 
ATOM      9  C7A BZF d   1       5.999   2.496   3.724  0.00  0.00     0.058 A 
ENDROOT
TORSDOF 0
ENDMDL
