MODEL 1
REMARK minimizedAffinity -0.721515238
REMARK minimizedRMSD -1
REMARK  0 active torsions:
REMARK  status: ('A' for Active; 'I' for Inactive)
ROOT
ATOM      1  O1  BZF d   1       5.968   2.710   4.754  0.00  0.00    -0.204 OA
ATOM      2  C2  BZF d   1       5.954   3.051   3.416  0.00  0.00     0.174 A 
ATOM      3  C3  BZF d   1       5.999   1.948   2.640  0.00  0.00    -0.012 A 
ATOM      4  C3A BZF d   1       5.951   0.846   3.551  0.00  0.00    -0.107 A 
ATOM      5  C4  BZF d   1       5.949  -0.510   3.385  0.00  0.00     0.055 A 
ATOM      6  C5  BZF d   1       5.970  -1.310   4.484  0.00  0.00    -0.016 A 
ATOM      7  C6  BZF d   1       6.000  -0.789   5.761  0.00  0.00     0.022 A 
ATOM      8  C7  BZF d   1       5.998   0.549   5.976  0.00  0.00     0.029 A 
ATOM      9  C7A BZF d   1       5.943   1.360   4.868  0.00  0.00     0.058 A 
ENDROOT
TORSDOF 0
ENDMDL
