MODEL 1
REMARK minimizedAffinity -0.435148954
REMARK minimizedRMSD -1
REMARK  0 active torsions:
REMARK  status: ('A' for Active; 'I' for Inactive)
ROOT
ATOM      1  O1  BZF d   1       5.975   0.380   3.684  0.00  0.00    -0.204 OA
ATOM      2  C2  BZF d   1       5.619   0.015   4.968  0.00  0.00     0.174 A 
ATOM      3  C3  BZF d   1       5.240   1.094   5.684  0.00  0.00    -0.012 A 
ATOM      4  C3A BZF d   1       5.279   2.189   4.764  0.00  0.00    -0.107 A 
ATOM      5  C4  BZF d   1       4.995   3.520   4.876  0.00  0.00     0.055 A 
ATOM      6  C5  BZF d   1       5.206   4.333   3.808  0.00  0.00    -0.016 A 
ATOM      7  C6  BZF d   1       5.705   3.850   2.616  0.00  0.00     0.022 A 
ATOM      8  C7  BZF d   1       5.997   2.537   2.455  0.00  0.00     0.029 A 
ATOM      9  C7A BZF d   1       5.754   1.707   3.522  0.00  0.00     0.058 A 
ENDROOT
TORSDOF 0
ENDMDL
