MODEL 1
REMARK minimizedAffinity -2.65729737
REMARK minimizedRMSD -1
REMARK  0 active torsions:
REMARK  status: ('A' for Active; 'I' for Inactive)
ROOT
ATOM      1  O1  BZF d   1       5.974  -0.533   3.773  0.00  0.00    -0.204 OA
ATOM      2  C2  BZF d   1       5.958  -1.147   5.011  0.00  0.00     0.174 A 
ATOM      3  C3  BZF d   1       5.998  -0.230   5.999  0.00  0.00    -0.012 A 
ATOM      4  C3A BZF d   1       5.949   1.038   5.339  0.00  0.00    -0.107 A 
ATOM      5  C4  BZF d   1       5.942   2.329   5.784  0.00  0.00     0.055 A 
ATOM      6  C5  BZF d   1       5.963   3.341   4.877  0.00  0.00    -0.016 A 
ATOM      7  C6  BZF d   1       5.996   3.098   3.519  0.00  0.00     0.022 A 
ATOM      8  C7  BZF d   1       5.999   1.834   3.030  0.00  0.00     0.029 A 
ATOM      9  C7A BZF d   1       5.945   0.810   3.943  0.00  0.00     0.058 A 
ENDROOT
TORSDOF 0
ENDMDL
