MODEL 1
REMARK minimizedAffinity -3.20549464
REMARK minimizedRMSD -1
REMARK  0 active torsions:
REMARK  status: ('A' for Active; 'I' for Inactive)
ROOT
ATOM      1  O1  BZF d   1       5.999   4.569   4.874  0.00  0.00    -0.204 OA
ATOM      2  C2  BZF d   1       5.981   5.129   3.611  0.00  0.00     0.174 A 
ATOM      3  C3  BZF d   1       6.000   4.170   2.662  0.00  0.00    -0.012 A 
ATOM      4  C3A BZF d   1       5.939   2.932   3.377  0.00  0.00    -0.107 A 
ATOM      5  C4  BZF d   1       5.911   1.623   2.988  0.00  0.00     0.055 A 
ATOM      6  C5  BZF d   1       5.926   0.651   3.937  0.00  0.00    -0.016 A 
ATOM      7  C6  BZF d   1       5.974   0.951   5.283  0.00  0.00     0.022 A 
ATOM      8  C7  BZF d   1       5.998   2.235   5.718  0.00  0.00     0.029 A 
ATOM      9  C7A BZF d   1       5.950   3.220   4.762  0.00  0.00     0.058 A 
ENDROOT
TORSDOF 0
ENDMDL
