MODEL 1
REMARK minimizedAffinity 0.219419792
REMARK minimizedRMSD -1
REMARK  0 active torsions:
REMARK  status: ('A' for Active; 'I' for Inactive)
ROOT
ATOM      1  O1  BZF d   1       5.898   1.850   5.262  0.00  0.00    -0.204 OA
ATOM      2  C2  BZF d   1       5.899   2.471   4.028  0.00  0.00     0.174 A 
ATOM      3  C3  BZF d   1       5.985   1.562   3.035  0.00  0.00    -0.012 A 
ATOM      4  C3A BZF d   1       5.947   0.289   3.686  0.00  0.00    -0.107 A 
ATOM      5  C4  BZF d   1       5.979  -0.999   3.232  0.00  0.00     0.055 A 
ATOM      6  C5  BZF d   1       6.000  -2.016   4.133  0.00  0.00    -0.016 A 
ATOM      7  C6  BZF d   1       5.993  -1.782   5.493  0.00  0.00     0.022 A 
ATOM      8  C7  BZF d   1       5.956  -0.522   5.990  0.00  0.00     0.029 A 
ATOM      9  C7A BZF d   1       5.902   0.507   5.082  0.00  0.00     0.058 A 
ENDROOT
TORSDOF 0
ENDMDL
