MODEL 1
REMARK minimizedAffinity 1.04322267
REMARK minimizedRMSD -1
REMARK  0 active torsions:
REMARK  status: ('A' for Active; 'I' for Inactive)
ROOT
ATOM      1  O1  BZF d   1       1.038  -3.480  -2.334  0.00  0.00    -0.204 OA
ATOM      2  C2  BZF d   1       1.518  -3.442  -3.628  0.00  0.00     0.174 A 
ATOM      3  C3  BZF d   1       1.659  -2.169  -4.050  0.00  0.00    -0.012 A 
ATOM      4  C3A BZF d   1       1.328  -1.359  -2.917  0.00  0.00    -0.107 A 
ATOM      5  C4  BZF d   1       1.295  -0.011  -2.705  0.00  0.00     0.055 A 
ATOM      6  C5  BZF d   1       0.857   0.459  -1.507  0.00  0.00    -0.016 A 
ATOM      7  C6  BZF d   1       0.441  -0.390  -0.503  0.00  0.00     0.022 A 
ATOM      8  C7  BZF d   1       0.461  -1.736  -0.665  0.00  0.00     0.029 A 
ATOM      9  C7A BZF d   1       0.934  -2.214  -1.862  0.00  0.00     0.058 A 
ENDROOT
TORSDOF 0
ENDMDL
