MODEL 1
REMARK minimizedAffinity -4.67085218
REMARK minimizedRMSD -1
REMARK  0 active torsions:
REMARK  status: ('A' for Active; 'I' for Inactive)
ROOT
ATOM      1  C   UNL d   1       1.453   3.672   2.085  0.00  0.00     0.020 A 
ATOM      2  C1  UNL d   1       0.303   2.884   2.108  0.00  0.00     0.020 A 
ATOM      3  C2  UNL d   1       0.192   1.785   1.254  0.00  0.00     0.034 A 
ATOM      4  C3  UNL d   1       1.233   1.471   0.372  0.00  0.00     0.017 A 
ATOM      5  C4  UNL d   1       2.387   2.262   0.350  0.00  0.00     0.017 A 
ATOM      6  C5  UNL d   1       2.493   3.361   1.208  0.00  0.00     0.034 A 
ATOM      7 Cl   UNL d   1       3.713   1.938  -0.710  0.00  0.00    -0.070 Cl
ATOM      8 Cl1  UNL d   1       1.028   0.097  -0.656  0.00  0.00    -0.070 Cl
ENDROOT
TORSDOF 0
ENDMDL
