MODEL 1
REMARK minimizedAffinity -1.57662988
REMARK minimizedRMSD -1
REMARK  0 active torsions:
REMARK  status: ('A' for Active; 'I' for Inactive)
ROOT
ATOM      1  C   UNL d   1      -0.487  -0.779   0.618  0.00  0.00     0.020 A 
ATOM      2  C1  UNL d   1       0.770  -1.007   1.176  0.00  0.00     0.020 A 
ATOM      3  C2  UNL d   1       1.748  -0.011   1.124  0.00  0.00     0.034 A 
ATOM      4  C3  UNL d   1       1.470   1.217   0.513  0.00  0.00     0.017 A 
ATOM      5  C4  UNL d   1       0.208   1.445  -0.047  0.00  0.00     0.017 A 
ATOM      6  C5  UNL d   1      -0.768   0.445   0.008  0.00  0.00     0.034 A 
ATOM      7 Cl   UNL d   1      -0.210   2.935  -0.817  0.00  0.00    -0.070 Cl
ATOM      8 Cl1  UNL d   1       2.726   2.403   0.485  0.00  0.00    -0.070 Cl
ENDROOT
TORSDOF 0
ENDMDL
