MODEL 1
REMARK minimizedAffinity 1.07060516
REMARK minimizedRMSD -1
REMARK  0 active torsions:
REMARK  status: ('A' for Active; 'I' for Inactive)
ROOT
ATOM      1  C   UNL d   1       0.979  -1.598   1.102  0.00  0.00     0.020 A 
ATOM      2  C1  UNL d   1      -0.344  -1.407   0.706  0.00  0.00     0.020 A 
ATOM      3  C2  UNL d   1      -0.752  -0.169   0.205  0.00  0.00     0.034 A 
ATOM      4  C3  UNL d   1       0.164   0.883   0.099  0.00  0.00     0.017 A 
ATOM      5  C4  UNL d   1       1.492   0.691   0.496  0.00  0.00     0.017 A 
ATOM      6  C5  UNL d   1       1.895  -0.550   0.997  0.00  0.00     0.034 A 
ATOM      7 Cl   UNL d   1       2.680   1.943   0.395  0.00  0.00    -0.070 Cl
ATOM      8 Cl1  UNL d   1      -0.409   2.387  -0.530  0.00  0.00    -0.070 Cl
ENDROOT
TORSDOF 0
ENDMDL
