MODEL 1
REMARK minimizedAffinity -5.8950491
REMARK minimizedRMSD -1
REMARK  0 active torsions:
REMARK  status: ('A' for Active; 'I' for Inactive)
ROOT
ATOM      1  C   UNL d   1      -3.764  -0.710  -0.618  0.00  0.00     0.020 A 
ATOM      2  C1  UNL d   1      -3.029  -1.139   0.486  0.00  0.00     0.020 A 
ATOM      3  C2  UNL d   1      -1.659  -0.882   0.556  0.00  0.00     0.034 A 
ATOM      4  C3  UNL d   1      -1.018  -0.193  -0.481  0.00  0.00     0.017 A 
ATOM      5  C4  UNL d   1      -1.757   0.237  -1.589  0.00  0.00     0.017 A 
ATOM      6  C5  UNL d   1      -3.129  -0.024  -1.654  0.00  0.00     0.034 A 
ATOM      7 Cl   UNL d   1      -1.037   1.092  -2.908  0.00  0.00    -0.070 Cl
ATOM      8 Cl1  UNL d   1       0.679   0.091  -0.328  0.00  0.00    -0.070 Cl
ENDROOT
TORSDOF 0
ENDMDL
