MODEL 1
REMARK minimizedAffinity -2.98789096
REMARK minimizedRMSD -1
REMARK  0 active torsions:
REMARK  status: ('A' for Active; 'I' for Inactive)
ROOT
ATOM      1  C   UNL d   1      -2.245  -1.264  -1.815  0.00  0.00     0.020 A 
ATOM      2  C1  UNL d   1      -1.766  -0.030  -2.252  0.00  0.00     0.020 A 
ATOM      3  C2  UNL d   1      -0.822   0.662  -1.489  0.00  0.00     0.034 A 
ATOM      4  C3  UNL d   1      -0.354   0.119  -0.287  0.00  0.00     0.017 A 
ATOM      5  C4  UNL d   1      -0.836  -1.120   0.150  0.00  0.00     0.017 A 
ATOM      6  C5  UNL d   1      -1.781  -1.808  -0.617  0.00  0.00     0.034 A 
ATOM      7 Cl   UNL d   1      -0.307  -1.853   1.623  0.00  0.00    -0.070 Cl
ATOM      8 Cl1  UNL d   1       0.813   1.029   0.605  0.00  0.00    -0.070 Cl
ENDROOT
TORSDOF 0
ENDMDL
