MODEL 1
REMARK minimizedAffinity -4.41874313
REMARK minimizedRMSD -1
REMARK  0 active torsions:
REMARK  status: ('A' for Active; 'I' for Inactive)
ROOT
ATOM      1  C   UNL d   1       0.918   0.542  -0.631  0.00  0.00     0.020 A 
ATOM      2  C1  UNL d   1      -0.131   1.090  -1.368  0.00  0.00     0.020 A 
ATOM      3  C2  UNL d   1      -1.436   0.637  -1.168  0.00  0.00     0.034 A 
ATOM      4  C3  UNL d   1      -1.696  -0.368  -0.229  0.00  0.00     0.017 A 
ATOM      5  C4  UNL d   1      -0.643  -0.918   0.510  0.00  0.00     0.017 A 
ATOM      6  C5  UNL d   1       0.662  -0.460   0.306  0.00  0.00     0.034 A 
ATOM      7 Cl   UNL d   1      -0.886  -2.161   1.686  0.00  0.00    -0.070 Cl
ATOM      8 Cl1  UNL d   1      -3.335  -0.880  -0.034  0.00  0.00    -0.070 Cl
ENDROOT
TORSDOF 0
ENDMDL
