MODEL 1
REMARK minimizedAffinity 0.855981827
REMARK minimizedRMSD -1
REMARK  0 active torsions:
REMARK  status: ('A' for Active; 'I' for Inactive)
ROOT
ATOM      1  C   UNL d   1      -2.425  -0.937   2.351  0.00  0.00     0.020 A 
ATOM      2  C1  UNL d   1      -2.792  -0.229   1.208  0.00  0.00     0.020 A 
ATOM      3  C2  UNL d   1      -1.853   0.003   0.200  0.00  0.00     0.034 A 
ATOM      4  C3  UNL d   1      -0.544  -0.474   0.334  0.00  0.00     0.017 A 
ATOM      5  C4  UNL d   1      -0.177  -1.185   1.482  0.00  0.00     0.017 A 
ATOM      6  C5  UNL d   1      -1.121  -1.414   2.488  0.00  0.00     0.034 A 
ATOM      7 Cl   UNL d   1       1.419  -1.804   1.719  0.00  0.00    -0.070 Cl
ATOM      8 Cl1  UNL d   1       0.564  -0.151  -0.952  0.00  0.00    -0.070 Cl
ENDROOT
TORSDOF 0
ENDMDL
