MODEL 1
REMARK minimizedAffinity -2.78882933
REMARK minimizedRMSD -1
REMARK  0 active torsions:
REMARK  status: ('A' for Active; 'I' for Inactive)
ROOT
ATOM      1  C   UNL d   1       1.110  -0.310  -0.619  0.00  0.00     0.020 A 
ATOM      2  C1  UNL d   1       0.159   0.097  -1.554  0.00  0.00     0.020 A 
ATOM      3  C2  UNL d   1      -1.184  -0.242  -1.377  0.00  0.00     0.034 A 
ATOM      4  C3  UNL d   1      -1.579  -0.991  -0.262  0.00  0.00     0.017 A 
ATOM      5  C4  UNL d   1      -0.624  -1.399   0.675  0.00  0.00     0.017 A 
ATOM      6  C5  UNL d   1       0.719  -1.057   0.493  0.00  0.00     0.034 A 
ATOM      7 Cl   UNL d   1      -1.036  -2.325   2.075  0.00  0.00    -0.070 Cl
ATOM      8 Cl1  UNL d   1      -3.257  -1.374  -0.107  0.00  0.00    -0.070 Cl
ENDROOT
TORSDOF 0
ENDMDL
