MODEL 1
REMARK minimizedAffinity -5.48258591
REMARK minimizedRMSD -1
REMARK  0 active torsions:
REMARK  status: ('A' for Active; 'I' for Inactive)
ROOT
ATOM      1  C   UNL d   1      -2.502   0.137  -2.086  0.00  0.00     0.020 A 
ATOM      2  C1  UNL d   1      -3.350  -0.503  -1.183  0.00  0.00     0.020 A 
ATOM      3  C2  UNL d   1      -2.857  -0.939   0.049  0.00  0.00     0.034 A 
ATOM      4  C3  UNL d   1      -1.513  -0.737   0.381  0.00  0.00     0.017 A 
ATOM      5  C4  UNL d   1      -0.662  -0.094  -0.527  0.00  0.00     0.017 A 
ATOM      6  C5  UNL d   1      -1.161   0.341  -1.758  0.00  0.00     0.034 A 
ATOM      7 Cl   UNL d   1       1.008   0.192  -0.188  0.00  0.00    -0.070 Cl
ATOM      8 Cl1  UNL d   1      -0.971  -1.302   1.921  0.00  0.00    -0.070 Cl
ENDROOT
TORSDOF 0
ENDMDL
