MODEL 1
REMARK minimizedAffinity -5.36550951
REMARK minimizedRMSD -1
REMARK  0 active torsions:
REMARK  status: ('A' for Active; 'I' for Inactive)
ROOT
ATOM      1  C   UNL d   1       0.656  -0.280   0.555  0.00  0.00     0.020 A 
ATOM      2  C1  UNL d   1       1.025   0.180  -0.708  0.00  0.00     0.020 A 
ATOM      3  C2  UNL d   1       0.052   0.381  -1.690  0.00  0.00     0.034 A 
ATOM      4  C3  UNL d   1      -1.295   0.121  -1.410  0.00  0.00     0.017 A 
ATOM      5  C4  UNL d   1      -1.664  -0.341  -0.141  0.00  0.00     0.017 A 
ATOM      6  C5  UNL d   1      -0.686  -0.540   0.838  0.00  0.00     0.034 A 
ATOM      7 Cl   UNL d   1      -3.305  -0.683   0.279  0.00  0.00    -0.070 Cl
ATOM      8 Cl1  UNL d   1      -2.444   0.392  -2.671  0.00  0.00    -0.070 Cl
ENDROOT
TORSDOF 0
ENDMDL
