MODEL 1
REMARK minimizedAffinity -4.59272099
REMARK minimizedRMSD -1
REMARK  0 active torsions:
REMARK  status: ('A' for Active; 'I' for Inactive)
ROOT
ATOM      1  C   UNL d   1       1.342  -0.080   0.440  0.00  0.00     0.020 A 
ATOM      2  C1  UNL d   1       0.557  -0.764   1.368  0.00  0.00     0.020 A 
ATOM      3  C2  UNL d   1      -0.783  -1.036   1.081  0.00  0.00     0.034 A 
ATOM      4  C3  UNL d   1      -1.340  -0.626  -0.135  0.00  0.00     0.017 A 
ATOM      5  C4  UNL d   1      -0.551   0.060  -1.065  0.00  0.00     0.017 A 
ATOM      6  C5  UNL d   1       0.790   0.331  -0.773  0.00  0.00     0.034 A 
ATOM      7 Cl   UNL d   1      -1.168   0.598  -2.587  0.00  0.00    -0.070 Cl
ATOM      8 Cl1  UNL d   1      -3.003  -0.997  -0.422  0.00  0.00    -0.070 Cl
ENDROOT
TORSDOF 0
ENDMDL
