MODEL 1
REMARK minimizedAffinity -2.09681249
REMARK minimizedRMSD -1
REMARK  0 active torsions:
REMARK  status: ('A' for Active; 'I' for Inactive)
ROOT
ATOM      1  C   UNL d   1      -2.057  -0.079  -2.015  0.00  0.00     0.020 A 
ATOM      2  C1  UNL d   1      -2.643  -1.250  -1.535  0.00  0.00     0.020 A 
ATOM      3  C2  UNL d   1      -2.164  -1.839  -0.363  0.00  0.00     0.034 A 
ATOM      4  C3  UNL d   1      -1.098  -1.259   0.333  0.00  0.00     0.017 A 
ATOM      5  C4  UNL d   1      -0.511  -0.083  -0.149  0.00  0.00     0.017 A 
ATOM      6  C5  UNL d   1      -0.994   0.503  -1.323  0.00  0.00     0.034 A 
ATOM      7 Cl   UNL d   1       0.808   0.692   0.654  0.00  0.00    -0.070 Cl
ATOM      8 Cl1  UNL d   1      -0.558  -2.042   1.776  0.00  0.00    -0.070 Cl
ENDROOT
TORSDOF 0
ENDMDL
