MODEL 1
REMARK minimizedAffinity -4.60225916
REMARK minimizedRMSD -1
REMARK  0 active torsions:
REMARK  status: ('A' for Active; 'I' for Inactive)
ROOT
ATOM      1  C   UNL d   1      -2.913   0.289   0.733  0.00  0.00     0.020 A 
ATOM      2  C1  UNL d   1      -3.318  -0.380  -0.422  0.00  0.00     0.020 A 
ATOM      3  C2  UNL d   1      -2.397  -0.634  -1.441  0.00  0.00     0.034 A 
ATOM      4  C3  UNL d   1      -1.068  -0.218  -1.307  0.00  0.00     0.017 A 
ATOM      5  C4  UNL d   1      -0.662   0.453  -0.148  0.00  0.00     0.017 A 
ATOM      6  C5  UNL d   1      -1.588   0.705   0.869  0.00  0.00     0.034 A 
ATOM      7 Cl   UNL d   1       0.961   0.996   0.088  0.00  0.00    -0.070 Cl
ATOM      8 Cl1  UNL d   1       0.017  -0.566  -2.607  0.00  0.00    -0.070 Cl
ENDROOT
TORSDOF 0
ENDMDL
