MODEL 1
REMARK minimizedAffinity -4.24267912
REMARK minimizedRMSD -1
REMARK  0 active torsions:
REMARK  status: ('A' for Active; 'I' for Inactive)
ROOT
ATOM      1  C   UNL d   1       2.262   1.931   2.656  0.00  0.00     0.020 A 
ATOM      2  C1  UNL d   1       2.016   2.670   1.499  0.00  0.00     0.020 A 
ATOM      3  C2  UNL d   1       1.358   2.077   0.419  0.00  0.00     0.034 A 
ATOM      4  C3  UNL d   1       0.944   0.742   0.494  0.00  0.00     0.017 A 
ATOM      5  C4  UNL d   1       1.191   0.002   1.656  0.00  0.00     0.017 A 
ATOM      6  C5  UNL d   1       1.851   0.600   2.734  0.00  0.00     0.034 A 
ATOM      7 Cl   UNL d   1       0.711  -1.650   1.822  0.00  0.00    -0.070 Cl
ATOM      8 Cl1  UNL d   1       0.135   0.074  -0.879  0.00  0.00    -0.070 Cl
ENDROOT
TORSDOF 0
ENDMDL
