MODEL 1
REMARK minimizedAffinity -2.5306704
REMARK minimizedRMSD -1
REMARK  0 active torsions:
REMARK  status: ('A' for Active; 'I' for Inactive)
ROOT
ATOM      1  C   UNL d   1       1.619   0.750  -0.104  0.00  0.00     0.020 A 
ATOM      2  C1  UNL d   1       0.604   1.323  -0.869  0.00  0.00     0.020 A 
ATOM      3  C2  UNL d   1      -0.723   0.935  -0.672  0.00  0.00     0.034 A 
ATOM      4  C3  UNL d   1      -1.039  -0.029   0.293  0.00  0.00     0.017 A 
ATOM      5  C4  UNL d   1      -0.019  -0.603   1.061  0.00  0.00     0.017 A 
ATOM      6  C5  UNL d   1       1.308  -0.210   0.859  0.00  0.00     0.034 A 
ATOM      7 Cl   UNL d   1      -0.330  -1.797   2.271  0.00  0.00    -0.070 Cl
ATOM      8 Cl1  UNL d   1      -2.701  -0.461   0.484  0.00  0.00    -0.070 Cl
ENDROOT
TORSDOF 0
ENDMDL
