MODEL 1
REMARK minimizedAffinity 5.10208607
REMARK minimizedRMSD -1
REMARK  0 active torsions:
REMARK  status: ('A' for Active; 'I' for Inactive)
ROOT
ATOM      1  C4' PXY d   1       5.445   1.803  -2.629  0.00  0.00     0.077 C 
ATOM      2  C1' PXY d   1       0.699  -0.814  -0.617  0.00  0.00     0.077 C 
ATOM      3  C1  PXY d   1       1.944  -0.135  -1.155  0.00  0.00    -0.082 A 
ATOM      4  C2  PXY d   1       2.768   0.477  -0.320  0.00  0.00     0.003 A 
ATOM      5  C3  PXY d   1       3.881   1.123  -0.794  0.00  0.00     0.003 A 
ATOM      6  C4  PXY d   1       4.181   1.097  -2.129  0.00  0.00    -0.082 A 
ATOM      7  C5  PXY d   1       3.351   0.465  -2.986  0.00  0.00     0.003 A 
ATOM      8  C6  PXY d   1       2.205  -0.149  -2.490  0.00  0.00     0.003 A 
ENDROOT
TORSDOF 0
ENDMDL
