MODEL 1
REMARK minimizedAffinity 4.03522491
REMARK minimizedRMSD -1
REMARK  0 active torsions:
REMARK  status: ('A' for Active; 'I' for Inactive)
ROOT
ATOM      1  C4' PXY d   1      -2.224   3.866   0.214  0.00  0.00     0.077 C 
ATOM      2  C1' PXY d   1       2.136   0.141  -0.520  0.00  0.00     0.077 C 
ATOM      3  C1  PXY d   1       0.997   1.121  -0.316  0.00  0.00    -0.082 A 
ATOM      4  C2  PXY d   1      -0.131   0.962  -0.988  0.00  0.00     0.003 A 
ATOM      5  C3  PXY d   1      -1.160   1.857  -0.839  0.00  0.00     0.003 A 
ATOM      6  C4  PXY d   1      -1.051   2.895   0.047  0.00  0.00    -0.082 A 
ATOM      7  C5  PXY d   1       0.093   3.059   0.744  0.00  0.00     0.003 A 
ATOM      8  C6  PXY d   1       1.140   2.163   0.548  0.00  0.00     0.003 A 
ENDROOT
TORSDOF 0
ENDMDL
