MODEL 1
REMARK minimizedAffinity 4.06978655
REMARK minimizedRMSD -1
REMARK  0 active torsions:
REMARK  status: ('A' for Active; 'I' for Inactive)
ROOT
ATOM      1  C4' PXY d   1      -0.261  -0.658  -0.839  0.00  0.00     0.077 C 
ATOM      2  C1' PXY d   1       4.965   1.512   0.340  0.00  0.00     0.077 C 
ATOM      3  C1  PXY d   1       3.596   0.946   0.019  0.00  0.00    -0.082 A 
ATOM      4  C2  PXY d   1       2.694   0.829   0.980  0.00  0.00     0.003 A 
ATOM      5  C3  PXY d   1       1.462   0.290   0.713  0.00  0.00     0.003 A 
ATOM      6  C4  PXY d   1       1.131  -0.084  -0.562  0.00  0.00    -0.082 A 
ATOM      7  C5  PXY d   1       2.042   0.042  -1.550  0.00  0.00     0.003 A 
ATOM      8  C6  PXY d   1       3.301   0.553  -1.250  0.00  0.00     0.003 A 
ENDROOT
TORSDOF 0
ENDMDL
