MODEL 1
REMARK minimizedAffinity 3.8545835
REMARK minimizedRMSD -1
REMARK  0 active torsions:
REMARK  status: ('A' for Active; 'I' for Inactive)
ROOT
ATOM      1  C4' PXY d   1       5.999   2.147  -2.530  0.00  0.00     0.077 C 
ATOM      2  C1' PXY d   1       1.049  -0.216  -0.706  0.00  0.00     0.077 C 
ATOM      3  C1  PXY d   1       2.349   0.410  -1.173  0.00  0.00    -0.082 A 
ATOM      4  C2  PXY d   1       2.581   0.545  -2.469  0.00  0.00     0.003 A 
ATOM      5  C3  PXY d   1       3.765   1.079  -2.909  0.00  0.00     0.003 A 
ATOM      6  C4  PXY d   1       4.697   1.530  -2.013  0.00  0.00    -0.082 A 
ATOM      7  C5  PXY d   1       4.463   1.406  -0.690  0.00  0.00     0.003 A 
ATOM      8  C6  PXY d   1       3.273   0.822  -0.263  0.00  0.00     0.003 A 
ENDROOT
TORSDOF 0
ENDMDL
