MODEL 1
REMARK minimizedAffinity 2.75607848
REMARK minimizedRMSD -1
REMARK  0 active torsions:
REMARK  status: ('A' for Active; 'I' for Inactive)
ROOT
ATOM      1  C4' PXY d   1      -3.169   2.211  -0.480  0.00  0.00     0.077 C 
ATOM      2  C1' PXY d   1       2.281   0.388  -1.106  0.00  0.00     0.077 C 
ATOM      3  C1  PXY d   1       0.856   0.875  -0.934  0.00  0.00    -0.082 A 
ATOM      4  C2  PXY d   1      -0.150   0.035  -1.117  0.00  0.00     0.003 A 
ATOM      5  C3  PXY d   1      -1.445   0.468  -0.997  0.00  0.00     0.003 A 
ATOM      6  C4  PXY d   1      -1.713   1.760  -0.634  0.00  0.00    -0.082 A 
ATOM      7  C5  PXY d   1      -0.693   2.621  -0.435  0.00  0.00     0.003 A 
ATOM      8  C6  PXY d   1       0.614   2.173  -0.602  0.00  0.00     0.003 A 
ENDROOT
TORSDOF 0
ENDMDL
