MODEL 1
REMARK minimizedAffinity 7.97208738
REMARK minimizedRMSD -1
REMARK  0 active torsions:
REMARK  status: ('A' for Active; 'I' for Inactive)
ROOT
ATOM      1  C4' PXY d   1       3.190   1.577   1.508  0.00  0.00     0.077 C 
ATOM      2  C1' PXY d   1      -1.245   1.143  -2.174  0.00  0.00     0.077 C 
ATOM      3  C1  PXY d   1      -0.083   1.270  -1.209  0.00  0.00    -0.082 A 
ATOM      4  C2  PXY d   1       0.753   0.255  -1.055  0.00  0.00     0.003 A 
ATOM      5  C3  PXY d   1       1.791   0.342  -0.163  0.00  0.00     0.003 A 
ATOM      6  C4  PXY d   1       2.008   1.497   0.538  0.00  0.00    -0.082 A 
ATOM      7  C5  PXY d   1       1.166   2.541   0.378  0.00  0.00     0.003 A 
ATOM      8  C6  PXY d   1       0.094   2.418  -0.501  0.00  0.00     0.003 A 
ENDROOT
TORSDOF 0
ENDMDL
