MODEL 1
REMARK minimizedAffinity 3.69018531
REMARK minimizedRMSD -1
REMARK  0 active torsions:
REMARK  status: ('A' for Active; 'I' for Inactive)
ROOT
ATOM      1  C4' PXY d   1      -2.417   4.045   0.361  0.00  0.00     0.077 C 
ATOM      2  C1' PXY d   1       1.844   0.399  -1.041  0.00  0.00     0.077 C 
ATOM      3  C1  PXY d   1       0.733   1.358  -0.663  0.00  0.00    -0.082 A 
ATOM      4  C2  PXY d   1      -0.489   1.163  -1.132  0.00  0.00     0.003 A 
ATOM      5  C3  PXY d   1      -1.498   2.039  -0.826  0.00  0.00     0.003 A 
ATOM      6  C4  PXY d   1      -1.267   3.096   0.013  0.00  0.00    -0.082 A 
ATOM      7  C5  PXY d   1      -0.026   3.296   0.505  0.00  0.00     0.003 A 
ATOM      8  C6  PXY d   1       0.994   2.419   0.149  0.00  0.00     0.003 A 
ENDROOT
TORSDOF 0
ENDMDL
