MODEL 1
REMARK minimizedAffinity 2.88879061
REMARK minimizedRMSD -1
REMARK  0 active torsions:
REMARK  status: ('A' for Active; 'I' for Inactive)
ROOT
ATOM      1  C4' PXY d   1      -1.648   4.677   2.999  0.00  0.00     0.077 C 
ATOM      2  C1' PXY d   1      -4.237   0.922  -0.553  0.00  0.00     0.077 C 
ATOM      3  C1  PXY d   1      -3.548   1.908   0.370  0.00  0.00    -0.082 A 
ATOM      4  C2  PXY d   1      -3.807   1.881   1.667  0.00  0.00     0.003 A 
ATOM      5  C3  PXY d   1      -3.218   2.786   2.511  0.00  0.00     0.003 A 
ATOM      6  C4  PXY d   1      -2.313   3.694   2.031  0.00  0.00    -0.082 A 
ATOM      7  C5  PXY d   1      -2.035   3.721   0.710  0.00  0.00     0.003 A 
ATOM      8  C6  PXY d   1      -2.675   2.821  -0.136  0.00  0.00     0.003 A 
ENDROOT
TORSDOF 0
ENDMDL
