MODEL 1
REMARK minimizedAffinity 3.06318092
REMARK minimizedRMSD -1
REMARK  0 active torsions:
REMARK  status: ('A' for Active; 'I' for Inactive)
ROOT
ATOM      1  C4' PXY d   1       5.764   2.820  -3.007  0.00  0.00     0.077 C 
ATOM      2  C1' PXY d   1       2.971   0.133   1.282  0.00  0.00     0.077 C 
ATOM      3  C1  PXY d   1       3.699   0.828   0.149  0.00  0.00    -0.082 A 
ATOM      4  C2  PXY d   1       4.713   1.635   0.420  0.00  0.00     0.003 A 
ATOM      5  C3  PXY d   1       5.362   2.296  -0.590  0.00  0.00     0.003 A 
ATOM      6  C4  PXY d   1       5.005   2.090  -1.895  0.00  0.00    -0.082 A 
ATOM      7  C5  PXY d   1       3.979   1.260  -2.181  0.00  0.00     0.003 A 
ATOM      8  C6  PXY d   1       3.306   0.630  -1.138  0.00  0.00     0.003 A 
ENDROOT
TORSDOF 0
ENDMDL
