MODEL 1
REMARK minimizedAffinity 9.65370655
REMARK minimizedRMSD -1
REMARK  0 active torsions:
REMARK  status: ('A' for Active; 'I' for Inactive)
ROOT
ATOM      1  C4' PXY d   1       2.986   0.135   0.981  0.00  0.00     0.077 C 
ATOM      2  C1' PXY d   1       5.999   2.828  -3.152  0.00  0.00     0.077 C 
ATOM      3  C1  PXY d   1       5.199   2.121  -2.076  0.00  0.00    -0.082 A 
ATOM      4  C2  PXY d   1       5.538   2.268  -0.805  0.00  0.00     0.003 A 
ATOM      5  C3  PXY d   1       4.844   1.611   0.178  0.00  0.00     0.003 A 
ATOM      6  C4  PXY d   1       3.760   0.837  -0.138  0.00  0.00    -0.082 A 
ATOM      7  C5  PXY d   1       3.401   0.691  -1.431  0.00  0.00     0.003 A 
ATOM      8  C6  PXY d   1       4.143   1.334  -2.417  0.00  0.00     0.003 A 
ENDROOT
TORSDOF 0
ENDMDL
