MODEL 1
REMARK minimizedAffinity 4.75268459
REMARK minimizedRMSD -1
REMARK  0 active torsions:
REMARK  status: ('A' for Active; 'I' for Inactive)
ROOT
ATOM      1  C4' PXY d   1       2.281  -1.028   3.174  0.00  0.00     0.077 C 
ATOM      2  C1' PXY d   1       3.126   0.883  -2.216  0.00  0.00     0.077 C 
ATOM      3  C1  PXY d   1       2.915   0.389  -0.799  0.00  0.00    -0.082 A 
ATOM      4  C2  PXY d   1       2.339  -0.784  -0.594  0.00  0.00     0.003 A 
ATOM      5  C3  PXY d   1       2.111  -1.232   0.682  0.00  0.00     0.003 A 
ATOM      6  C4  PXY d   1       2.524  -0.494   1.759  0.00  0.00    -0.082 A 
ATOM      7  C5  PXY d   1       3.122   0.700   1.558  0.00  0.00     0.003 A 
ATOM      8  C6  PXY d   1       3.307   1.154   0.256  0.00  0.00     0.003 A 
ENDROOT
TORSDOF 0
ENDMDL
