MODEL 1
REMARK minimizedAffinity 7.92589855
REMARK minimizedRMSD -1
REMARK  0 active torsions:
REMARK  status: ('A' for Active; 'I' for Inactive)
ROOT
ATOM      1  C   UNL d   1       1.940   0.567   2.049  0.00  0.00     0.124 A 
ATOM      2  C1  UNL d   1       1.619  -0.752   2.342  0.00  0.00     0.062 A 
ATOM      3  C2  UNL d   1       0.311  -1.097   2.669  0.00  0.00     0.162 A 
ATOM      4  C3  UNL d   1      -0.687  -0.123   2.704  0.00  0.00    -0.034 A 
ATOM      5  C4  UNL d   1      -0.356   1.201   2.409  0.00  0.00     0.162 A 
ATOM      6  C5  UNL d   1       0.953   1.541   2.083  0.00  0.00     0.062 A 
ATOM      7  F   UNL d   1       1.261   2.815   1.801  0.00  0.00    -0.097 F 
ATOM      8  F1  UNL d   1      -1.291   2.163   2.434  0.00  0.00    -0.096 F 
ATOM      9  I   UNL d   1      -2.644  -0.636   3.192  0.00  0.00    -0.060 I 
ATOM     10  F2  UNL d   1       0.029  -2.379   2.947  0.00  0.00    -0.096 F 
ATOM     11  F3  UNL d   1       2.571  -1.695   2.311  0.00  0.00    -0.097 F 
ATOM     12  F4  UNL d   1       3.199   0.897   1.736  0.00  0.00    -0.092 F 
ENDROOT
TORSDOF 0
ENDMDL
