MODEL 1
REMARK minimizedAffinity 9.46159554
REMARK minimizedRMSD -1
REMARK  0 active torsions:
REMARK  status: ('A' for Active; 'I' for Inactive)
ROOT
ATOM      1  C   UNL d   1       1.440   2.683  -4.881  0.00  0.00     0.124 A 
ATOM      2  C1  UNL d   1       2.183   1.638  -4.348  0.00  0.00     0.062 A 
ATOM      3  C2  UNL d   1       1.762   1.001  -3.185  0.00  0.00     0.162 A 
ATOM      4  C3  UNL d   1       0.590   1.405  -2.546  0.00  0.00    -0.034 A 
ATOM      5  C4  UNL d   1      -0.152   2.457  -3.087  0.00  0.00     0.162 A 
ATOM      6  C5  UNL d   1       0.274   3.091  -4.250  0.00  0.00     0.062 A 
ATOM      7  F   UNL d   1      -0.445   4.100  -4.762  0.00  0.00    -0.097 F 
ATOM      8  F1  UNL d   1      -1.283   2.872  -2.498  0.00  0.00    -0.096 F 
ATOM      9  I   UNL d   1      -0.044   0.455  -0.807  0.00  0.00    -0.060 I 
ATOM     10  F2  UNL d   1       2.500  -0.006  -2.693  0.00  0.00    -0.096 F 
ATOM     11  F3  UNL d   1       3.311   1.242  -4.956  0.00  0.00    -0.097 F 
ATOM     12  F4  UNL d   1       1.849   3.295  -5.999  0.00  0.00    -0.092 F 
ENDROOT
TORSDOF 0
ENDMDL
