MODEL 1
REMARK minimizedAffinity 15.517149
REMARK minimizedRMSD -1
REMARK  0 active torsions:
REMARK  status: ('A' for Active; 'I' for Inactive)
ROOT
ATOM      1  C   UNL d   1       0.661   1.049   1.768  0.00  0.00     0.124 A 
ATOM      2  C1  UNL d   1       0.152   0.229   2.765  0.00  0.00     0.062 A 
ATOM      3  C2  UNL d   1      -1.141  -0.276   2.663  0.00  0.00     0.162 A 
ATOM      4  C3  UNL d   1      -1.934   0.036   1.559  0.00  0.00    -0.034 A 
ATOM      5  C4  UNL d   1      -1.415   0.862   0.560  0.00  0.00     0.162 A 
ATOM      6  C5  UNL d   1      -0.122   1.365   0.667  0.00  0.00     0.062 A 
ATOM      7  F   UNL d   1       0.369   2.157  -0.298  0.00  0.00    -0.097 F 
ATOM      8  F1  UNL d   1      -2.149   1.182  -0.515  0.00  0.00    -0.096 F 
ATOM      9  I   UNL d   1      -3.867  -0.718   1.403  0.00  0.00    -0.060 I 
ATOM     10  F2  UNL d   1      -1.607  -1.066   3.642  0.00  0.00    -0.096 F 
ATOM     11  F3  UNL d   1       0.906  -0.076   3.830  0.00  0.00    -0.097 F 
ATOM     12  F4  UNL d   1       1.905   1.535   1.869  0.00  0.00    -0.092 F 
ENDROOT
TORSDOF 0
ENDMDL
