MODEL 1
REMARK minimizedAffinity 7.88769293
REMARK minimizedRMSD -1
REMARK  0 active torsions:
REMARK  status: ('A' for Active; 'I' for Inactive)
ROOT
ATOM      1  C   UNL d   1      -2.718   0.762   0.892  0.00  0.00     0.124 A 
ATOM      2  C1  UNL d   1      -2.281   0.443   2.170  0.00  0.00     0.062 A 
ATOM      3  C2  UNL d   1      -0.924   0.262   2.421  0.00  0.00     0.162 A 
ATOM      4  C3  UNL d   1       0.006   0.400   1.391  0.00  0.00    -0.034 A 
ATOM      5  C4  UNL d   1      -0.441   0.720   0.108  0.00  0.00     0.162 A 
ATOM      6  C5  UNL d   1      -1.798   0.900  -0.138  0.00  0.00     0.062 A 
ATOM      7  F   UNL d   1      -2.219   1.207  -1.374  0.00  0.00    -0.097 F 
ATOM      8  F1  UNL d   1       0.427   0.860  -0.906  0.00  0.00    -0.096 F 
ATOM      9  I   UNL d   1       2.036   0.130   1.762  0.00  0.00    -0.060 I 
ATOM     10  F2  UNL d   1      -0.530  -0.045   3.666  0.00  0.00    -0.096 F 
ATOM     11  F3  UNL d   1      -3.168   0.309   3.166  0.00  0.00    -0.097 F 
ATOM     12  F4  UNL d   1      -4.025   0.935   0.653  0.00  0.00    -0.092 F 
ENDROOT
TORSDOF 0
ENDMDL
