MODEL 1
REMARK minimizedAffinity -2.63583565
REMARK minimizedRMSD -1
REMARK  0 active torsions:
REMARK  status: ('A' for Active; 'I' for Inactive)
ROOT
ATOM      1  C   UNL d   1      -0.314   0.330   1.329  0.00  0.00     0.124 A 
ATOM      2  C1  UNL d   1      -1.690   0.149   1.275  0.00  0.00     0.062 A 
ATOM      3  C2  UNL d   1      -2.386  -0.267   2.406  0.00  0.00     0.162 A 
ATOM      4  C3  UNL d   1      -1.708  -0.504   3.602  0.00  0.00    -0.034 A 
ATOM      5  C4  UNL d   1      -0.325  -0.322   3.648  0.00  0.00     0.162 A 
ATOM      6  C5  UNL d   1       0.367   0.094   2.515  0.00  0.00     0.062 A 
ATOM      7  F   UNL d   1       1.695   0.268   2.569  0.00  0.00    -0.097 F 
ATOM      8  F1  UNL d   1       0.358  -0.542   4.782  0.00  0.00    -0.096 F 
ATOM      9  I   UNL d   1      -2.745  -1.127   5.296  0.00  0.00    -0.060 I 
ATOM     10  F2  UNL d   1      -3.714  -0.433   2.325  0.00  0.00    -0.096 F 
ATOM     11  F3  UNL d   1      -2.350   0.376   0.130  0.00  0.00    -0.097 F 
ATOM     12  F4  UNL d   1       0.353   0.729   0.239  0.00  0.00    -0.092 F 
ENDROOT
TORSDOF 0
ENDMDL
