MODEL 1
REMARK minimizedAffinity 1.68983412
REMARK minimizedRMSD -1
REMARK  0 active torsions:
REMARK  status: ('A' for Active; 'I' for Inactive)
ROOT
ATOM      1  C   UNL d   1      -3.415  -0.885   2.924  0.00  0.00     0.124 A 
ATOM      2  C1  UNL d   1      -3.568  -0.228   1.711  0.00  0.00     0.062 A 
ATOM      3  C2  UNL d   1      -2.482   0.408   1.118  0.00  0.00     0.162 A 
ATOM      4  C3  UNL d   1      -1.232   0.390   1.737  0.00  0.00    -0.034 A 
ATOM      5  C4  UNL d   1      -1.086  -0.271   2.958  0.00  0.00     0.162 A 
ATOM      6  C5  UNL d   1      -2.175  -0.906   3.546  0.00  0.00     0.062 A 
ATOM      7  F   UNL d   1      -2.026  -1.539   4.719  0.00  0.00    -0.097 F 
ATOM      8  F1  UNL d   1       0.101  -0.308   3.580  0.00  0.00    -0.096 F 
ATOM      9  I   UNL d   1       0.395   1.341   0.853  0.00  0.00    -0.060 I 
ATOM     10  F2  UNL d   1      -2.658   1.035  -0.055  0.00  0.00    -0.096 F 
ATOM     11  F3  UNL d   1      -4.766  -0.206   1.108  0.00  0.00    -0.097 F 
ATOM     12  F4  UNL d   1      -4.463  -1.495   3.493  0.00  0.00    -0.092 F 
ENDROOT
TORSDOF 0
ENDMDL
