MODEL 1
REMARK minimizedAffinity 8.09178257
REMARK minimizedRMSD -1
REMARK  0 active torsions:
REMARK  status: ('A' for Active; 'I' for Inactive)
ROOT
ATOM      1  C   UNL d   1      -2.957   0.284   1.731  0.00  0.00     0.124 A 
ATOM      2  C1  UNL d   1      -2.204   0.430   0.574  0.00  0.00     0.062 A 
ATOM      3  C2  UNL d   1      -0.817   0.338   0.626  0.00  0.00     0.162 A 
ATOM      4  C3  UNL d   1      -0.172   0.098   1.839  0.00  0.00    -0.034 A 
ATOM      5  C4  UNL d   1      -0.936  -0.047   2.999  0.00  0.00     0.162 A 
ATOM      6  C5  UNL d   1      -2.322   0.046   2.942  0.00  0.00     0.062 A 
ATOM      7  F   UNL d   1      -3.048  -0.096   4.061  0.00  0.00    -0.097 F 
ATOM      8  F1  UNL d   1      -0.348  -0.279   4.182  0.00  0.00    -0.096 F 
ATOM      9  I   UNL d   1       1.903  -0.040   1.920  0.00  0.00    -0.060 I 
ATOM     10  F2  UNL d   1      -0.115   0.484  -0.508  0.00  0.00    -0.096 F 
ATOM     11  F3  UNL d   1      -2.815   0.661  -0.597  0.00  0.00    -0.097 F 
ATOM     12  F4  UNL d   1      -4.292   0.374   1.679  0.00  0.00    -0.092 F 
ENDROOT
TORSDOF 0
ENDMDL
