MODEL 1
REMARK minimizedAffinity 11.1978922
REMARK minimizedRMSD -1
REMARK  0 active torsions:
REMARK  status: ('A' for Active; 'I' for Inactive)
ROOT
ATOM      1  C   UNL d   1      -3.523   1.735   2.171  0.00  0.00     0.124 A 
ATOM      2  C1  UNL d   1      -2.673   2.460   2.996  0.00  0.00     0.062 A 
ATOM      3  C2  UNL d   1      -1.382   2.003   3.246  0.00  0.00     0.162 A 
ATOM      4  C3  UNL d   1      -0.932   0.815   2.669  0.00  0.00    -0.034 A 
ATOM      5  C4  UNL d   1      -1.793   0.092   1.842  0.00  0.00     0.162 A 
ATOM      6  C5  UNL d   1      -3.082   0.552   1.595  0.00  0.00     0.062 A 
ATOM      7  F   UNL d   1      -3.901  -0.149   0.798  0.00  0.00    -0.097 F 
ATOM      8  F1  UNL d   1      -1.392  -1.054   1.271  0.00  0.00    -0.096 F 
ATOM      9  I   UNL d   1       0.997   0.129   3.040  0.00  0.00    -0.060 I 
ATOM     10  F2  UNL d   1      -0.583   2.723   4.047  0.00  0.00    -0.096 F 
ATOM     11  F3  UNL d   1      -3.097   3.602   3.555  0.00  0.00    -0.097 F 
ATOM     12  F4  UNL d   1      -4.765   2.176   1.934  0.00  0.00    -0.092 F 
ENDROOT
TORSDOF 0
ENDMDL
