MODEL 1
REMARK minimizedAffinity 12.3705511
REMARK minimizedRMSD -1
REMARK  0 active torsions:
REMARK  status: ('A' for Active; 'I' for Inactive)
ROOT
ATOM      1  C   UNL d   1      -2.776   0.819   2.488  0.00  0.00     0.124 A 
ATOM      2  C1  UNL d   1      -3.473   0.765   1.289  0.00  0.00     0.062 A 
ATOM      3  C2  UNL d   1      -2.821   0.391   0.117  0.00  0.00     0.162 A 
ATOM      4  C3  UNL d   1      -1.465   0.066   0.139  0.00  0.00    -0.034 A 
ATOM      5  C4  UNL d   1      -0.771   0.124   1.349  0.00  0.00     0.162 A 
ATOM      6  C5  UNL d   1      -1.426   0.498   2.517  0.00  0.00     0.062 A 
ATOM      7  F   UNL d   1      -0.751   0.550   3.675  0.00  0.00    -0.097 F 
ATOM      8  F1  UNL d   1       0.534  -0.181   1.405  0.00  0.00    -0.096 F 
ATOM      9  I   UNL d   1      -0.487  -0.493  -1.611  0.00  0.00    -0.060 I 
ATOM     10  F2  UNL d   1      -3.520   0.347  -1.027  0.00  0.00    -0.096 F 
ATOM     11  F3  UNL d   1      -4.777   1.074   1.258  0.00  0.00    -0.097 F 
ATOM     12  F4  UNL d   1      -3.405   1.180   3.614  0.00  0.00    -0.092 F 
ENDROOT
TORSDOF 0
ENDMDL
