MODEL 1
REMARK minimizedAffinity 12.9954405
REMARK minimizedRMSD -1
REMARK  0 active torsions:
REMARK  status: ('A' for Active; 'I' for Inactive)
ROOT
ATOM      1  C   UNL d   1      -0.546  -2.183  -1.283  0.00  0.00     0.124 A 
ATOM      2  C1  UNL d   1      -0.869  -0.856  -1.532  0.00  0.00     0.062 A 
ATOM      3  C2  UNL d   1      -1.981  -0.280  -0.927  0.00  0.00     0.162 A 
ATOM      4  C3  UNL d   1      -2.780  -1.031  -0.064  0.00  0.00    -0.034 A 
ATOM      5  C4  UNL d   1      -2.451  -2.365   0.181  0.00  0.00     0.162 A 
ATOM      6  C5  UNL d   1      -1.337  -2.936  -0.427  0.00  0.00     0.062 A 
ATOM      7  F   UNL d   1      -1.028  -4.218  -0.185  0.00  0.00    -0.097 F 
ATOM      8  F1  UNL d   1      -3.197  -3.115   1.005  0.00  0.00    -0.096 F 
ATOM      9  I   UNL d   1      -4.445  -0.173   0.844  0.00  0.00    -0.060 I 
ATOM     10  F2  UNL d   1      -2.269   1.004  -1.186  0.00  0.00    -0.096 F 
ATOM     11  F3  UNL d   1      -0.106  -0.127  -2.360  0.00  0.00    -0.097 F 
ATOM     12  F4  UNL d   1       0.524  -2.735  -1.868  0.00  0.00    -0.092 F 
ENDROOT
TORSDOF 0
ENDMDL
