MODEL 1
REMARK minimizedAffinity 13.2107782
REMARK minimizedRMSD -1
REMARK  0 active torsions:
REMARK  status: ('A' for Active; 'I' for Inactive)
ROOT
ATOM      1  C   UNL d   1      -3.462  -0.145  -0.568  0.00  0.00     0.124 A 
ATOM      2  C1  UNL d   1      -3.707   0.271   0.733  0.00  0.00     0.062 A 
ATOM      3  C2  UNL d   1      -2.681   0.266   1.674  0.00  0.00     0.162 A 
ATOM      4  C3  UNL d   1      -1.400  -0.155   1.317  0.00  0.00    -0.034 A 
ATOM      5  C4  UNL d   1      -1.162  -0.573   0.006  0.00  0.00     0.162 A 
ATOM      6  C5  UNL d   1      -2.190  -0.566  -0.930  0.00  0.00     0.062 A 
ATOM      7  F   UNL d   1      -1.952  -0.968  -2.187  0.00  0.00    -0.097 F 
ATOM      8  F1  UNL d   1       0.058  -0.984  -0.371  0.00  0.00    -0.096 F 
ATOM      9  I   UNL d   1       0.136  -0.164   2.721  0.00  0.00    -0.060 I 
ATOM     10  F2  UNL d   1      -2.947   0.673   2.924  0.00  0.00    -0.096 F 
ATOM     11  F3  UNL d   1      -4.935   0.678   1.086  0.00  0.00    -0.097 F 
ATOM     12  F4  UNL d   1      -4.451  -0.140  -1.472  0.00  0.00    -0.092 F 
ENDROOT
TORSDOF 0
ENDMDL
