MODEL 1
REMARK minimizedAffinity 17.3007545
REMARK minimizedRMSD -1
REMARK  0 active torsions:
REMARK  status: ('A' for Active; 'I' for Inactive)
ROOT
ATOM      1  C   UNL d   1       1.649   3.553  -2.610  0.00  0.00     0.124 A 
ATOM      2  C1  UNL d   1       2.373   2.393  -2.371  0.00  0.00     0.062 A 
ATOM      3  C2  UNL d   1       3.615   2.207  -2.971  0.00  0.00     0.162 A 
ATOM      4  C3  UNL d   1       4.142   3.185  -3.815  0.00  0.00    -0.034 A 
ATOM      5  C4  UNL d   1       3.408   4.348  -4.051  0.00  0.00     0.162 A 
ATOM      6  C5  UNL d   1       2.167   4.529  -3.450  0.00  0.00     0.062 A 
ATOM      7  F   UNL d   1       1.469   5.651  -3.681  0.00  0.00    -0.097 F 
ATOM      8  F1  UNL d   1       3.885   5.308  -4.857  0.00  0.00    -0.096 F 
ATOM      9  I   UNL d   1       5.999   2.910  -4.714  0.00  0.00    -0.060 I 
ATOM     10  F2  UNL d   1       4.292   1.076  -2.723  0.00  0.00    -0.096 F 
ATOM     11  F3  UNL d   1       1.874   1.448  -1.561  0.00  0.00    -0.097 F 
ATOM     12  F4  UNL d   1       0.453   3.729  -2.033  0.00  0.00    -0.092 F 
ENDROOT
TORSDOF 0
ENDMDL
