MODEL 1
REMARK minimizedAffinity 26.4936638
REMARK minimizedRMSD -1
REMARK  0 active torsions:
REMARK  status: ('A' for Active; 'I' for Inactive)
ROOT
ATOM      1  C   UNL d   1      -0.264   1.896   2.614  0.00  0.00     0.124 A 
ATOM      2  C1  UNL d   1      -1.355   1.042   2.536  0.00  0.00     0.062 A 
ATOM      3  C2  UNL d   1      -1.587   0.305   1.378  0.00  0.00     0.162 A 
ATOM      4  C3  UNL d   1      -0.724   0.419   0.288  0.00  0.00    -0.034 A 
ATOM      5  C4  UNL d   1       0.371   1.281   0.373  0.00  0.00     0.162 A 
ATOM      6  C5  UNL d   1       0.598   2.015   1.533  0.00  0.00     0.062 A 
ATOM      7  F   UNL d   1       1.652   2.840   1.606  0.00  0.00    -0.097 F 
ATOM      8  F1  UNL d   1       1.220   1.414  -0.656  0.00  0.00    -0.096 F 
ATOM      9  I   UNL d   1      -1.066  -0.681  -1.445  0.00  0.00    -0.060 I 
ATOM     10  F2  UNL d   1      -2.649  -0.512   1.331  0.00  0.00    -0.096 F 
ATOM     11  F3  UNL d   1      -2.190   0.926   3.579  0.00  0.00    -0.097 F 
ATOM     12  F4  UNL d   1      -0.045   2.604   3.729  0.00  0.00    -0.092 F 
ENDROOT
TORSDOF 0
ENDMDL
