MODEL 1
REMARK minimizedAffinity 16.6434612
REMARK minimizedRMSD -1
REMARK  0 active torsions:
REMARK  status: ('A' for Active; 'I' for Inactive)
ROOT
ATOM      1  C   UNL d   1      -0.852  -2.664  -1.593  0.00  0.00     0.124 A 
ATOM      2  C1  UNL d   1      -0.984  -1.299  -1.808  0.00  0.00     0.062 A 
ATOM      3  C2  UNL d   1      -1.954  -0.573  -1.122  0.00  0.00     0.162 A 
ATOM      4  C3  UNL d   1      -2.799  -1.210  -0.214  0.00  0.00    -0.034 A 
ATOM      5  C4  UNL d   1      -2.661  -2.583  -0.004  0.00  0.00     0.162 A 
ATOM      6  C5  UNL d   1      -1.691  -3.305  -0.692  0.00  0.00     0.062 A 
ATOM      7  F   UNL d   1      -1.565  -4.623  -0.483  0.00  0.00    -0.097 F 
ATOM      8  F1  UNL d   1      -3.457  -3.228   0.862  0.00  0.00    -0.096 F 
ATOM      9  I   UNL d   1      -4.250  -0.128   0.814  0.00  0.00    -0.060 I 
ATOM     10  F2  UNL d   1      -2.059   0.745  -1.350  0.00  0.00    -0.096 F 
ATOM     11  F3  UNL d   1      -0.177  -0.677  -2.679  0.00  0.00    -0.097 F 
ATOM     12  F4  UNL d   1       0.081  -3.360  -2.255  0.00  0.00    -0.092 F 
ENDROOT
TORSDOF 0
ENDMDL
