MODEL 1
REMARK minimizedAffinity 18.4362793
REMARK minimizedRMSD -1
REMARK  0 active torsions:
REMARK  status: ('A' for Active; 'I' for Inactive)
ROOT
ATOM      1  C   UNL d   1      -0.770  -2.258  -2.287  0.00  0.00     0.124 A 
ATOM      2  C1  UNL d   1      -1.802  -1.567  -2.906  0.00  0.00     0.062 A 
ATOM      3  C2  UNL d   1      -2.934  -1.203  -2.183  0.00  0.00     0.162 A 
ATOM      4  C3  UNL d   1      -3.040  -1.529  -0.831  0.00  0.00    -0.034 A 
ATOM      5  C4  UNL d   1      -1.999  -2.225  -0.215  0.00  0.00     0.162 A 
ATOM      6  C5  UNL d   1      -0.869  -2.587  -0.942  0.00  0.00     0.062 A 
ATOM      7  F   UNL d   1       0.127  -3.255  -0.342  0.00  0.00    -0.097 F 
ATOM      8  F1  UNL d   1      -2.068  -2.555   1.083  0.00  0.00    -0.096 F 
ATOM      9  I   UNL d   1      -4.731  -0.987   0.254  0.00  0.00    -0.060 I 
ATOM     10  F2  UNL d   1      -3.916  -0.535  -2.808  0.00  0.00    -0.096 F 
ATOM     11  F3  UNL d   1      -1.709  -1.249  -4.206  0.00  0.00    -0.097 F 
ATOM     12  F4  UNL d   1       0.318  -2.608  -2.985  0.00  0.00    -0.092 F 
ENDROOT
TORSDOF 0
ENDMDL
