MODEL 1
REMARK minimizedAffinity 9.77283096
REMARK minimizedRMSD -1
REMARK  0 active torsions:
REMARK  status: ('A' for Active; 'I' for Inactive)
ROOT
ATOM      1  C   UNL d   1      -2.848   0.139   1.165  0.00  0.00     0.124 A 
ATOM      2  C1  UNL d   1      -2.187   0.470  -0.010  0.00  0.00     0.062 A 
ATOM      3  C2  UNL d   1      -0.847   0.844   0.022  0.00  0.00     0.162 A 
ATOM      4  C3  UNL d   1      -0.157   0.887   1.233  0.00  0.00    -0.034 A 
ATOM      5  C4  UNL d   1      -0.828   0.553   2.411  0.00  0.00     0.162 A 
ATOM      6  C5  UNL d   1      -2.168   0.180   2.374  0.00  0.00     0.062 A 
ATOM      7  F   UNL d   1      -2.804  -0.140   3.510  0.00  0.00    -0.097 F 
ATOM      8  F1  UNL d   1      -0.195   0.584   3.593  0.00  0.00    -0.096 F 
ATOM      9  I   UNL d   1       1.847   1.446   1.285  0.00  0.00    -0.060 I 
ATOM     10  F2  UNL d   1      -0.234   1.160  -1.129  0.00  0.00    -0.096 F 
ATOM     11  F3  UNL d   1      -2.842   0.432  -1.179  0.00  0.00    -0.097 F 
ATOM     12  F4  UNL d   1      -4.138  -0.220   1.131  0.00  0.00    -0.092 F 
ENDROOT
TORSDOF 0
ENDMDL
