MODEL 1
REMARK minimizedAffinity -5.57909489
REMARK minimizedRMSD -1
REMARK  0 active torsions:
REMARK  status: ('A' for Active; 'I' for Inactive)
ROOT
ATOM      1  O1  BZF d   1       0.461  -0.735   0.726  0.00  0.00    -0.204 OA
ATOM      2  C2  BZF d   1       0.448   0.291  -0.198  0.00  0.00     0.174 A 
ATOM      3  C3  BZF d   1      -0.750   0.364  -0.815  0.00  0.00    -0.012 A 
ATOM      4  C3A BZF d   1      -1.563  -0.623  -0.174  0.00  0.00    -0.107 A 
ATOM      5  C4  BZF d   1      -2.861  -1.019  -0.334  0.00  0.00     0.055 A 
ATOM      6  C5  BZF d   1      -3.329  -2.062   0.400  0.00  0.00    -0.016 A 
ATOM      7  C6  BZF d   1      -2.527  -2.734   1.300  0.00  0.00     0.022 A 
ATOM      8  C7  BZF d   1      -1.235  -2.375   1.497  0.00  0.00     0.029 A 
ATOM      9  C7A BZF d   1      -0.769  -1.300   0.780  0.00  0.00     0.058 A 
ENDROOT
TORSDOF 0
ENDMDL
