MODEL 1
REMARK minimizedAffinity -4.20619631
REMARK minimizedRMSD -1
REMARK  0 active torsions:
REMARK  status: ('A' for Active; 'I' for Inactive)
ROOT
ATOM      1  O1  BZF d   1       0.635  -0.664   0.528  0.00  0.00    -0.204 OA
ATOM      2  C2  BZF d   1       0.840   0.324  -0.415  0.00  0.00     0.174 A 
ATOM      3  C3  BZF d   1      -0.225   0.430  -1.236  0.00  0.00    -0.012 A 
ATOM      4  C3A BZF d   1      -1.191  -0.491  -0.721  0.00  0.00    -0.107 A 
ATOM      5  C4  BZF d   1      -2.459  -0.830  -1.097  0.00  0.00     0.055 A 
ATOM      6  C5  BZF d   1      -3.105  -1.820  -0.426  0.00  0.00    -0.016 A 
ATOM      7  C6  BZF d   1      -2.512  -2.493   0.622  0.00  0.00     0.022 A 
ATOM      8  C7  BZF d   1      -1.257  -2.189   1.035  0.00  0.00     0.029 A 
ATOM      9  C7A BZF d   1      -0.614  -1.167   0.380  0.00  0.00     0.058 A 
ENDROOT
TORSDOF 0
ENDMDL
