MODEL 1
REMARK minimizedAffinity -4.82129288
REMARK minimizedRMSD -1
REMARK  0 active torsions:
REMARK  status: ('A' for Active; 'I' for Inactive)
ROOT
ATOM      1  O1  BZF d   1       0.168  -0.641   0.853  0.00  0.00    -0.204 OA
ATOM      2  C2  BZF d   1       0.462   0.374  -0.038  0.00  0.00     0.174 A 
ATOM      3  C3  BZF d   1      -0.465   0.437  -1.014  0.00  0.00    -0.012 A 
ATOM      4  C3A BZF d   1      -1.447  -0.543  -0.665  0.00  0.00    -0.107 A 
ATOM      5  C4  BZF d   1      -2.621  -0.942  -1.238  0.00  0.00     0.055 A 
ATOM      6  C5  BZF d   1      -3.307  -1.977  -0.686  0.00  0.00    -0.016 A 
ATOM      7  C6  BZF d   1      -2.848  -2.636   0.435  0.00  0.00     0.022 A 
ATOM      8  C7  BZF d   1      -1.692  -2.273   1.042  0.00  0.00     0.029 A 
ATOM      9  C7A BZF d   1      -1.013  -1.207   0.505  0.00  0.00     0.058 A 
ENDROOT
TORSDOF 0
ENDMDL
