MODEL 1
REMARK minimizedAffinity -6.4191432
REMARK minimizedRMSD -1
REMARK  0 active torsions:
REMARK  status: ('A' for Active; 'I' for Inactive)
ROOT
ATOM      1  O1  BZF d   1       0.876  -0.750   1.054  0.00  0.00    -0.204 OA
ATOM      2  C2  BZF d   1       1.125   0.107  -0.000  0.00  0.00     0.174 A 
ATOM      3  C3  BZF d   1      -0.010   0.375  -0.677  0.00  0.00    -0.012 A 
ATOM      4  C3A BZF d   1      -1.048  -0.288   0.052  0.00  0.00    -0.107 A 
ATOM      5  C4  BZF d   1      -2.400  -0.381  -0.116  0.00  0.00     0.055 A 
ATOM      6  C5  BZF d   1      -3.118  -1.166   0.730  0.00  0.00    -0.016 A 
ATOM      7  C6  BZF d   1      -2.516  -1.875   1.749  0.00  0.00     0.022 A 
ATOM      8  C7  BZF d   1      -1.178  -1.810   1.958  0.00  0.00     0.029 A 
ATOM      9  C7A BZF d   1      -0.455  -0.991   1.125  0.00  0.00     0.058 A 
ENDROOT
TORSDOF 0
ENDMDL
