MODEL 1
REMARK minimizedAffinity -5.63755083
REMARK minimizedRMSD -1
REMARK  0 active torsions:
REMARK  status: ('A' for Active; 'I' for Inactive)
ROOT
ATOM      1  O1  BZF d   1      -2.778  -0.131  -0.154  0.00  0.00    -0.204 OA
ATOM      2  C2  BZF d   1      -3.329  -1.051   0.717  0.00  0.00     0.174 A 
ATOM      3  C3  BZF d   1      -2.364  -1.763   1.335  0.00  0.00    -0.012 A 
ATOM      4  C3A BZF d   1      -1.131  -1.193   0.886  0.00  0.00    -0.107 A 
ATOM      5  C4  BZF d   1       0.180  -1.460   1.158  0.00  0.00     0.055 A 
ATOM      6  C5  BZF d   1       1.146  -0.769   0.497  0.00  0.00    -0.016 A 
ATOM      7  C6  BZF d   1       0.837   0.191  -0.445  0.00  0.00     0.022 A 
ATOM      8  C7  BZF d   1      -0.450   0.494  -0.745  0.00  0.00     0.029 A 
ATOM      9  C7A BZF d   1      -1.428  -0.180  -0.055  0.00  0.00     0.058 A 
ENDROOT
TORSDOF 0
ENDMDL
