MODEL 1
REMARK minimizedAffinity -5.68540096
REMARK minimizedRMSD -1
REMARK  0 active torsions:
REMARK  status: ('A' for Active; 'I' for Inactive)
ROOT
ATOM      1  O1  BZF d   1       0.864  -0.690   0.598  0.00  0.00    -0.204 OA
ATOM      2  C2  BZF d   1       1.097   0.217  -0.417  0.00  0.00     0.174 A 
ATOM      3  C3  BZF d   1      -0.020   0.419  -1.144  0.00  0.00    -0.012 A 
ATOM      4  C3A BZF d   1      -1.038  -0.345  -0.491  0.00  0.00    -0.107 A 
ATOM      5  C4  BZF d   1      -2.369  -0.537  -0.731  0.00  0.00     0.055 A 
ATOM      6  C5  BZF d   1      -3.064  -1.403   0.053  0.00  0.00    -0.016 A 
ATOM      7  C6  BZF d   1      -2.460  -2.096   1.081  0.00  0.00     0.022 A 
ATOM      8  C7  BZF d   1      -1.144  -1.935   1.362  0.00  0.00     0.029 A 
ATOM      9  C7A BZF d   1      -0.446  -1.036   0.592  0.00  0.00     0.058 A 
ENDROOT
TORSDOF 0
ENDMDL
