MODEL 1
REMARK minimizedAffinity -3.78181577
REMARK minimizedRMSD -1
REMARK  0 active torsions:
REMARK  status: ('A' for Active; 'I' for Inactive)
ROOT
ATOM      1  O1  BZF d   1      -2.753  -1.322  -1.009  0.00  0.00    -0.204 OA
ATOM      2  C2  BZF d   1      -3.262  -1.750   0.202  0.00  0.00     0.174 A 
ATOM      3  C3  BZF d   1      -2.371  -1.547   1.194  0.00  0.00    -0.012 A 
ATOM      4  C3A BZF d   1      -1.271  -0.870   0.579  0.00  0.00    -0.107 A 
ATOM      5  C4  BZF d   1      -0.084  -0.386   1.050  0.00  0.00     0.055 A 
ATOM      6  C5  BZF d   1       0.802   0.157   0.175  0.00  0.00    -0.016 A 
ATOM      7  C6  BZF d   1       0.538   0.227  -1.177  0.00  0.00     0.022 A 
ATOM      8  C7  BZF d   1      -0.628  -0.236  -1.691  0.00  0.00     0.029 A 
ATOM      9  C7A BZF d   1      -1.540  -0.755  -0.805  0.00  0.00     0.058 A 
ENDROOT
TORSDOF 0
ENDMDL
