MODEL 1
REMARK minimizedAffinity -6.26151419
REMARK minimizedRMSD -1
REMARK  0 active torsions:
REMARK  status: ('A' for Active; 'I' for Inactive)
ROOT
ATOM      1  O1  BZF d   1       0.566  -0.784   0.855  0.00  0.00    -0.204 OA
ATOM      2  C2  BZF d   1       0.892  -0.092  -0.296  0.00  0.00     0.174 A 
ATOM      3  C3  BZF d   1      -0.207   0.139  -1.042  0.00  0.00    -0.012 A 
ATOM      4  C3A BZF d   1      -1.300  -0.363  -0.268  0.00  0.00    -0.107 A 
ATOM      5  C4  BZF d   1      -2.650  -0.408  -0.469  0.00  0.00     0.055 A 
ATOM      6  C5  BZF d   1      -3.434  -1.033   0.449  0.00  0.00    -0.016 A 
ATOM      7  C6  BZF d   1      -2.901  -1.626   1.575  0.00  0.00     0.022 A 
ATOM      8  C7  BZF d   1      -1.569  -1.603   1.820  0.00  0.00     0.029 A 
ATOM      9  C7A BZF d   1      -0.778  -0.944   0.911  0.00  0.00     0.058 A 
ENDROOT
TORSDOF 0
ENDMDL
