MODEL 1
REMARK minimizedAffinity 0.886352241
REMARK minimizedRMSD -1
REMARK  0 active torsions:
REMARK  status: ('A' for Active; 'I' for Inactive)
ROOT
ATOM      1  O1  BZF d   1      -0.100  -2.312   0.403  0.00  0.00    -0.204 OA
ATOM      2  C2  BZF d   1       0.492  -2.047   1.622  0.00  0.00     0.174 A 
ATOM      3  C3  BZF d   1       0.938  -0.775   1.671  0.00  0.00    -0.012 A 
ATOM      4  C3A BZF d   1       0.521  -0.183   0.437  0.00  0.00    -0.107 A 
ATOM      5  C4  BZF d   1       0.653   1.068  -0.096  0.00  0.00     0.055 A 
ATOM      6  C5  BZF d   1       0.197   1.300  -1.355  0.00  0.00    -0.016 A 
ATOM      7  C6  BZF d   1      -0.391   0.306  -2.110  0.00  0.00     0.022 A 
ATOM      8  C7  BZF d   1      -0.548  -0.948  -1.622  0.00  0.00     0.029 A 
ATOM      9  C7A BZF d   1      -0.118  -1.178  -0.338  0.00  0.00     0.058 A 
ENDROOT
TORSDOF 0
ENDMDL
