MODEL 1
REMARK minimizedAffinity -0.908019125
REMARK minimizedRMSD -1
REMARK  0 active torsions:
REMARK  status: ('A' for Active; 'I' for Inactive)
ROOT
ATOM      1  O1  BZF d   1      -0.985  -2.421   0.847  0.00  0.00    -0.204 OA
ATOM      2  C2  BZF d   1       0.139  -2.263   1.636  0.00  0.00     0.174 A 
ATOM      3  C3  BZF d   1       0.889  -1.231   1.198  0.00  0.00    -0.012 A 
ATOM      4  C3A BZF d   1       0.145  -0.654   0.121  0.00  0.00    -0.107 A 
ATOM      5  C4  BZF d   1       0.362   0.410  -0.707  0.00  0.00     0.055 A 
ATOM      6  C5  BZF d   1      -0.526   0.664  -1.704  0.00  0.00    -0.016 A 
ATOM      7  C6  BZF d   1      -1.637  -0.128  -1.905  0.00  0.00     0.022 A 
ATOM      8  C7  BZF d   1      -1.897  -1.192  -1.107  0.00  0.00     0.029 A 
ATOM      9  C7A BZF d   1      -1.020  -1.432  -0.078  0.00  0.00     0.058 A 
ENDROOT
TORSDOF 0
ENDMDL
