MODEL 1
REMARK minimizedAffinity -3.48911953
REMARK minimizedRMSD -1
REMARK  0 active torsions:
REMARK  status: ('A' for Active; 'I' for Inactive)
ROOT
ATOM      1  O1  BZF d   1       0.409  -0.783   0.917  0.00  0.00    -0.204 OA
ATOM      2  C2  BZF d   1       0.848   0.092  -0.057  0.00  0.00     0.174 A 
ATOM      3  C3  BZF d   1      -0.092   0.260  -1.009  0.00  0.00    -0.012 A 
ATOM      4  C3A BZF d   1      -1.223  -0.491  -0.557  0.00  0.00    -0.107 A 
ATOM      5  C4  BZF d   1      -2.474  -0.702  -1.064  0.00  0.00     0.055 A 
ATOM      6  C5  BZF d   1      -3.316  -1.547  -0.413  0.00  0.00    -0.016 A 
ATOM      7  C6  BZF d   1      -2.940  -2.201   0.742  0.00  0.00     0.022 A 
ATOM      8  C7  BZF d   1      -1.712  -2.019   1.286  0.00  0.00     0.029 A 
ATOM      9  C7A BZF d   1      -0.870  -1.140   0.649  0.00  0.00     0.058 A 
ENDROOT
TORSDOF 0
ENDMDL
