MODEL 1
REMARK minimizedAffinity 1.13372838
REMARK minimizedRMSD -1
REMARK  0 active torsions:
REMARK  status: ('A' for Active; 'I' for Inactive)
ROOT
ATOM      1  O1  BZF d   1       1.301   0.520  -0.577  0.00  0.00    -0.204 OA
ATOM      2  C2  BZF d   1       0.383  -0.249   0.111  0.00  0.00     0.174 A 
ATOM      3  C3  BZF d   1       0.211   0.219   1.364  0.00  0.00    -0.012 A 
ATOM      4  C3A BZF d   1       1.007   1.406   1.435  0.00  0.00    -0.107 A 
ATOM      5  C4  BZF d   1       1.236   2.325   2.419  0.00  0.00     0.055 A 
ATOM      6  C5  BZF d   1       2.125   3.328   2.191  0.00  0.00    -0.016 A 
ATOM      7  C6  BZF d   1       2.804   3.439   0.996  0.00  0.00     0.022 A 
ATOM      8  C7  BZF d   1       2.606   2.554  -0.011  0.00  0.00     0.029 A 
ATOM      9  C7A BZF d   1       1.685   1.558   0.203  0.00  0.00     0.058 A 
ENDROOT
TORSDOF 0
ENDMDL
