MODEL 1
REMARK minimizedAffinity -5.81490993
REMARK minimizedRMSD -1
REMARK  0 active torsions:
REMARK  status: ('A' for Active; 'I' for Inactive)
ROOT
ATOM      1  O1  BZF d   1       0.031  -0.927   0.573  0.00  0.00    -0.204 OA
ATOM      2  C2  BZF d   1       0.545   0.029  -0.281  0.00  0.00     0.174 A 
ATOM      3  C3  BZF d   1      -0.392   0.438  -1.160  0.00  0.00    -0.012 A 
ATOM      4  C3A BZF d   1      -1.591  -0.242  -0.776  0.00  0.00    -0.107 A 
ATOM      5  C4  BZF d   1      -2.869  -0.237  -1.258  0.00  0.00     0.055 A 
ATOM      6  C5  BZF d   1      -3.787  -1.071  -0.703  0.00  0.00    -0.016 A 
ATOM      7  C6  BZF d   1      -3.462  -1.925   0.330  0.00  0.00     0.022 A 
ATOM      8  C7  BZF d   1      -2.209  -1.962   0.845  0.00  0.00     0.029 A 
ATOM      9  C7A BZF d   1      -1.287  -1.097   0.308  0.00  0.00     0.058 A 
ENDROOT
TORSDOF 0
ENDMDL
