MODEL 1
REMARK minimizedAffinity -5.47096539
REMARK minimizedRMSD -1
REMARK  0 active torsions:
REMARK  status: ('A' for Active; 'I' for Inactive)
ROOT
ATOM      1  O1  BZF d   1       0.546  -0.542   0.838  0.00  0.00    -0.204 OA
ATOM      2  C2  BZF d   1       0.868   0.415  -0.106  0.00  0.00     0.174 A 
ATOM      3  C3  BZF d   1      -0.152   0.596  -0.969  0.00  0.00    -0.012 A 
ATOM      4  C3A BZF d   1      -1.210  -0.236  -0.483  0.00  0.00    -0.107 A 
ATOM      5  C4  BZF d   1      -2.486  -0.475  -0.905  0.00  0.00     0.055 A 
ATOM      6  C5  BZF d   1      -3.236  -1.400  -0.250  0.00  0.00    -0.016 A 
ATOM      7  C6  BZF d   1      -2.741  -2.106   0.826  0.00  0.00     0.022 A 
ATOM      8  C7  BZF d   1      -1.482  -1.900   1.285  0.00  0.00     0.029 A 
ATOM      9  C7A BZF d   1      -0.733  -0.943   0.645  0.00  0.00     0.058 A 
ENDROOT
TORSDOF 0
ENDMDL
