MODEL 1
REMARK minimizedAffinity -3.04590797
REMARK minimizedRMSD -1
REMARK  0 active torsions:
REMARK  status: ('A' for Active; 'I' for Inactive)
ROOT
ATOM      1  O1  BZF d   1      -0.749  -2.592   1.211  0.00  0.00    -0.204 OA
ATOM      2  C2  BZF d   1      -1.810  -3.416   0.888  0.00  0.00     0.174 A 
ATOM      3  C3  BZF d   1      -2.486  -2.932  -0.173  0.00  0.00    -0.012 A 
ATOM      4  C3A BZF d   1      -1.751  -1.779  -0.594  0.00  0.00    -0.107 A 
ATOM      5  C4  BZF d   1      -1.916  -0.879  -1.608  0.00  0.00     0.055 A 
ATOM      6  C5  BZF d   1      -1.063   0.175  -1.700  0.00  0.00    -0.016 A 
ATOM      7  C6  BZF d   1      -0.041   0.363  -0.794  0.00  0.00     0.022 A 
ATOM      8  C7  BZF d   1       0.165  -0.505   0.226  0.00  0.00     0.029 A 
ATOM      9  C7A BZF d   1      -0.674  -1.590   0.303  0.00  0.00     0.058 A 
ENDROOT
TORSDOF 0
ENDMDL
