MODEL 1
REMARK minimizedAffinity -6.23401022
REMARK minimizedRMSD -1
REMARK  0 active torsions:
REMARK  status: ('A' for Active; 'I' for Inactive)
ROOT
ATOM      1  O1  BZF d   1       0.588  -1.135   0.337  0.00  0.00    -0.204 OA
ATOM      2  C2  BZF d   1       0.717   0.192  -0.026  0.00  0.00     0.174 A 
ATOM      3  C3  BZF d   1      -0.493   0.773  -0.154  0.00  0.00    -0.012 A 
ATOM      4  C3A BZF d   1      -1.435  -0.231   0.236  0.00  0.00    -0.107 A 
ATOM      5  C4  BZF d   1      -2.797  -0.252   0.334  0.00  0.00     0.055 A 
ATOM      6  C5  BZF d   1      -3.417  -1.413   0.675  0.00  0.00    -0.016 A 
ATOM      7  C6  BZF d   1      -2.707  -2.570   0.919  0.00  0.00     0.022 A 
ATOM      8  C7  BZF d   1      -1.354  -2.596   0.840  0.00  0.00     0.029 A 
ATOM      9  C7A BZF d   1      -0.723  -1.417   0.527  0.00  0.00     0.058 A 
ENDROOT
TORSDOF 0
ENDMDL
