MODEL 1
REMARK minimizedAffinity -3.8501339
REMARK minimizedRMSD -1
REMARK  0 active torsions:
REMARK  status: ('A' for Active; 'I' for Inactive)
ROOT
ATOM      1  O1  BZF d   1      -0.277  -0.423  -1.626  0.00  0.00    -0.204 OA
ATOM      2  C2  BZF d   1       0.528   0.125  -0.645  0.00  0.00     0.174 A 
ATOM      3  C3  BZF d   1      -0.040  -0.010   0.570  0.00  0.00    -0.012 A 
ATOM      4  C3A BZF d   1      -1.234  -0.767   0.346  0.00  0.00    -0.107 A 
ATOM      5  C4  BZF d   1      -2.217  -1.236   1.170  0.00  0.00     0.055 A 
ATOM      6  C5  BZF d   1      -3.284  -1.877   0.625  0.00  0.00    -0.016 A 
ATOM      7  C6  BZF d   1      -3.404  -2.062  -0.737  0.00  0.00     0.022 A 
ATOM      8  C7  BZF d   1      -2.451  -1.619  -1.593  0.00  0.00     0.029 A 
ATOM      9  C7A BZF d   1      -1.355  -0.999  -1.044  0.00  0.00     0.058 A 
ENDROOT
TORSDOF 0
ENDMDL
