MODEL 1
REMARK minimizedAffinity -1.30252242
REMARK minimizedRMSD -1
REMARK  0 active torsions:
REMARK  status: ('A' for Active; 'I' for Inactive)
ROOT
ATOM      1  O1  BZF d   1      -1.996  -0.560  -1.385  0.00  0.00    -0.204 OA
ATOM      2  C2  BZF d   1      -2.782  -1.263  -0.492  0.00  0.00     0.174 A 
ATOM      3  C3  BZF d   1      -2.132  -1.446   0.675  0.00  0.00    -0.012 A 
ATOM      4  C3A BZF d   1      -0.897  -0.739   0.534  0.00  0.00    -0.107 A 
ATOM      5  C4  BZF d   1       0.169  -0.535   1.363  0.00  0.00     0.055 A 
ATOM      6  C5  BZF d   1       1.251   0.141   0.895  0.00  0.00    -0.016 A 
ATOM      7  C6  BZF d   1       1.302   0.624  -0.396  0.00  0.00     0.022 A 
ATOM      8  C7  BZF d   1       0.267   0.451  -1.254  0.00  0.00     0.029 A 
ATOM      9  C7A BZF d   1      -0.840  -0.204  -0.774  0.00  0.00     0.058 A 
ENDROOT
TORSDOF 0
ENDMDL
