MODEL 1
REMARK minimizedAffinity -2.18412614
REMARK minimizedRMSD -1
REMARK  0 active torsions:
REMARK  status: ('A' for Active; 'I' for Inactive)
ROOT
ATOM      1  O1  BZF d   1      -2.530  -2.043   0.185  0.00  0.00    -0.204 OA
ATOM      2  C2  BZF d   1      -3.261  -1.303  -0.724  0.00  0.00     0.174 A 
ATOM      3  C3  BZF d   1      -2.593  -0.187  -1.081  0.00  0.00    -0.012 A 
ATOM      4  C3A BZF d   1      -1.328  -0.278  -0.418  0.00  0.00    -0.107 A 
ATOM      5  C4  BZF d   1      -0.222   0.522  -0.392  0.00  0.00     0.055 A 
ATOM      6  C5  BZF d   1       0.819   0.185   0.413  0.00  0.00    -0.016 A 
ATOM      7  C6  BZF d   1       0.786  -0.942   1.208  0.00  0.00     0.022 A 
ATOM      8  C7  BZF d   1      -0.287  -1.770   1.212  0.00  0.00     0.029 A 
ATOM      9  C7A BZF d   1      -1.327  -1.449   0.375  0.00  0.00     0.058 A 
ENDROOT
TORSDOF 0
ENDMDL
