MODEL 1
REMARK minimizedAffinity 1.10496974
REMARK minimizedRMSD -1
REMARK  0 active torsions:
REMARK  status: ('A' for Active; 'I' for Inactive)
ROOT
ATOM      1  C   UNL d   1       1.758   0.905  -0.446  0.00  0.00     0.077 C 
ATOM      2  C1  UNL d   1       0.908  -0.078   0.303  0.00  0.00    -0.074 A 
ATOM      3  C2  UNL d   1       1.487  -1.143   1.001  0.00  0.00    -0.005 A 
ATOM      4  C3  UNL d   1       0.685  -2.043   1.702  0.00  0.00     0.006 A 
ATOM      5  C4  UNL d   1      -0.702  -1.888   1.712  0.00  0.00    -0.005 A 
ATOM      6  C5  UNL d   1      -1.298  -0.829   1.021  0.00  0.00    -0.074 A 
ATOM      7  C6  UNL d   1      -2.786  -0.642   1.029  0.00  0.00     0.077 C 
ATOM      8  C7  UNL d   1      -0.485   0.076   0.325  0.00  0.00    -0.001 A 
ENDROOT
TORSDOF 0
ENDMDL
