MODEL 1
REMARK minimizedAffinity -3.28172827
REMARK minimizedRMSD -1
REMARK  0 active torsions:
REMARK  status: ('A' for Active; 'I' for Inactive)
ROOT
ATOM      1  C   UNL d   1      -3.318  -1.152   0.259  0.00  0.00     0.077 C 
ATOM      2  C1  UNL d   1      -2.105  -0.462  -0.291  0.00  0.00    -0.074 A 
ATOM      3  C2  UNL d   1      -2.100   0.056  -1.591  0.00  0.00    -0.005 A 
ATOM      4  C3  UNL d   1      -0.968   0.703  -2.085  0.00  0.00     0.006 A 
ATOM      5  C4  UNL d   1       0.169   0.839  -1.288  0.00  0.00    -0.005 A 
ATOM      6  C5  UNL d   1       0.182   0.329   0.014  0.00  0.00    -0.074 A 
ATOM      7  C6  UNL d   1       1.392   0.475   0.889  0.00  0.00     0.077 C 
ATOM      8  C7  UNL d   1      -0.962  -0.314   0.507  0.00  0.00    -0.001 A 
ENDROOT
TORSDOF 0
ENDMDL
