MODEL 1
REMARK minimizedAffinity -4.17358923
REMARK minimizedRMSD -1
REMARK  0 active torsions:
REMARK  status: ('A' for Active; 'I' for Inactive)
ROOT
ATOM      1  C   UNL d   1       1.812   1.117   0.030  0.00  0.00     0.077 C 
ATOM      2  C1  UNL d   1       0.773   0.097   0.390  0.00  0.00    -0.074 A 
ATOM      3  C2  UNL d   1       1.079  -0.972   1.239  0.00  0.00    -0.005 A 
ATOM      4  C3  UNL d   1       0.100  -1.908   1.573  0.00  0.00     0.006 A 
ATOM      5  C4  UNL d   1      -1.193  -1.784   1.063  0.00  0.00    -0.005 A 
ATOM      6  C5  UNL d   1      -1.518  -0.721   0.214  0.00  0.00    -0.074 A 
ATOM      7  C6  UNL d   1      -2.905  -0.568  -0.335  0.00  0.00     0.077 C 
ATOM      8  C7  UNL d   1      -0.531   0.219  -0.112  0.00  0.00    -0.001 A 
ENDROOT
TORSDOF 0
ENDMDL
