MODEL 1
REMARK minimizedAffinity -1.54907894
REMARK minimizedRMSD -1
REMARK  0 active torsions:
REMARK  status: ('A' for Active; 'I' for Inactive)
ROOT
ATOM      1  C   UNL d   1       2.411   2.369   0.281  0.00  0.00     0.077 C 
ATOM      2  C1  UNL d   1       1.512   1.169   0.291  0.00  0.00    -0.074 A 
ATOM      3  C2  UNL d   1       1.697   0.140   1.220  0.00  0.00    -0.005 A 
ATOM      4  C3  UNL d   1       0.847  -0.966   1.224  0.00  0.00     0.006 A 
ATOM      5  C4  UNL d   1      -0.195  -1.054   0.300  0.00  0.00    -0.005 A 
ATOM      6  C5  UNL d   1      -0.397  -0.034  -0.635  0.00  0.00    -0.074 A 
ATOM      7  C6  UNL d   1      -1.519  -0.108  -1.628  0.00  0.00     0.077 C 
ATOM      8  C7  UNL d   1       0.457   1.077  -0.628  0.00  0.00    -0.001 A 
ENDROOT
TORSDOF 0
ENDMDL
