MODEL 1
REMARK minimizedAffinity -4.17822075
REMARK minimizedRMSD -1
REMARK  0 active torsions:
REMARK  status: ('A' for Active; 'I' for Inactive)
ROOT
ATOM      1  C   UNL d   1      -3.345  -0.434   0.067  0.00  0.00     0.077 C 
ATOM      2  C1  UNL d   1      -1.846  -0.422   0.034  0.00  0.00    -0.074 A 
ATOM      3  C2  UNL d   1      -1.152   0.424  -0.837  0.00  0.00    -0.005 A 
ATOM      4  C3  UNL d   1       0.243   0.430  -0.850  0.00  0.00     0.006 A 
ATOM      5  C4  UNL d   1       0.957  -0.408   0.007  0.00  0.00    -0.005 A 
ATOM      6  C5  UNL d   1       0.281  -1.261   0.886  0.00  0.00    -0.074 A 
ATOM      7  C6  UNL d   1       1.033  -2.161   1.820  0.00  0.00     0.077 C 
ATOM      8  C7  UNL d   1      -1.121  -1.256   0.898  0.00  0.00    -0.001 A 
ENDROOT
TORSDOF 0
ENDMDL
