MODEL 1
REMARK minimizedAffinity -3.57234669
REMARK minimizedRMSD -1
REMARK  0 active torsions:
REMARK  status: ('A' for Active; 'I' for Inactive)
ROOT
ATOM      1  C   UNL d   1      -3.313  -1.120  -0.008  0.00  0.00     0.077 C 
ATOM      2  C1  UNL d   1      -1.967  -0.652  -0.474  0.00  0.00    -0.074 A 
ATOM      3  C2  UNL d   1      -1.754  -0.292  -1.809  0.00  0.00    -0.005 A 
ATOM      4  C3  UNL d   1      -0.498   0.151  -2.226  0.00  0.00     0.006 A 
ATOM      5  C4  UNL d   1       0.554   0.239  -1.315  0.00  0.00    -0.005 A 
ATOM      6  C5  UNL d   1       0.360  -0.116   0.024  0.00  0.00    -0.074 A 
ATOM      7  C6  UNL d   1       1.478  -0.018   1.019  0.00  0.00     0.077 C 
ATOM      8  C7  UNL d   1      -0.906  -0.553   0.437  0.00  0.00    -0.001 A 
ENDROOT
TORSDOF 0
ENDMDL
