MODEL 1
REMARK minimizedAffinity -4.48917007
REMARK minimizedRMSD -1
REMARK  0 active torsions:
REMARK  status: ('A' for Active; 'I' for Inactive)
ROOT
ATOM      1  C   UNL d   1      -0.702   0.575  -2.835  0.00  0.00     0.077 C 
ATOM      2  C1  UNL d   1      -1.019   0.005  -1.485  0.00  0.00    -0.074 A 
ATOM      3  C2  UNL d   1      -2.287   0.166  -0.916  0.00  0.00    -0.005 A 
ATOM      4  C3  UNL d   1      -2.570  -0.378   0.336  0.00  0.00     0.006 A 
ATOM      5  C4  UNL d   1      -1.590  -1.087   1.032  0.00  0.00    -0.005 A 
ATOM      6  C5  UNL d   1      -0.317  -1.259   0.480  0.00  0.00    -0.074 A 
ATOM      7  C6  UNL d   1       0.744  -2.027   1.210  0.00  0.00     0.077 C 
ATOM      8  C7  UNL d   1      -0.042  -0.715  -0.783  0.00  0.00    -0.001 A 
ENDROOT
TORSDOF 0
ENDMDL
