MODEL 1
REMARK minimizedAffinity -4.2880969
REMARK minimizedRMSD -1
REMARK  0 active torsions:
REMARK  status: ('A' for Active; 'I' for Inactive)
ROOT
ATOM      1  C   UNL d   1      -3.522  -0.176   0.286  0.00  0.00     0.077 C 
ATOM      2  C1  UNL d   1      -2.153  -0.024  -0.306  0.00  0.00    -0.074 A 
ATOM      3  C2  UNL d   1      -1.897  -0.393  -1.631  0.00  0.00    -0.005 A 
ATOM      4  C3  UNL d   1      -0.621  -0.237  -2.171  0.00  0.00     0.006 A 
ATOM      5  C4  UNL d   1       0.411   0.289  -1.394  0.00  0.00    -0.005 A 
ATOM      6  C5  UNL d   1       0.175   0.665  -0.067  0.00  0.00    -0.074 A 
ATOM      7  C6  UNL d   1       1.271   1.241   0.779  0.00  0.00     0.077 C 
ATOM      8  C7  UNL d   1      -1.112   0.511   0.466  0.00  0.00    -0.001 A 
ENDROOT
TORSDOF 0
ENDMDL
