MODEL 1
REMARK minimizedAffinity -1.7707634
REMARK minimizedRMSD -1
REMARK  0 active torsions:
REMARK  status: ('A' for Active; 'I' for Inactive)
ROOT
ATOM      1  C   UNL d   1      -3.488  -0.278   0.467  0.00  0.00     0.077 C 
ATOM      2  C1  UNL d   1      -2.124  -0.185  -0.150  0.00  0.00    -0.074 A 
ATOM      3  C2  UNL d   1      -1.937  -0.409  -1.518  0.00  0.00    -0.005 A 
ATOM      4  C3  UNL d   1      -0.664  -0.310  -2.079  0.00  0.00     0.006 A 
ATOM      5  C4  UNL d   1       0.433   0.013  -1.279  0.00  0.00    -0.005 A 
ATOM      6  C5  UNL d   1       0.265   0.242   0.090  0.00  0.00    -0.074 A 
ATOM      7  C6  UNL d   1       1.432   0.600   0.962  0.00  0.00     0.077 C 
ATOM      8  C7  UNL d   1      -1.018   0.147   0.645  0.00  0.00    -0.001 A 
ENDROOT
TORSDOF 0
ENDMDL
