MODEL 1
REMARK minimizedAffinity -4.05339336
REMARK minimizedRMSD -1
REMARK  0 active torsions:
REMARK  status: ('A' for Active; 'I' for Inactive)
ROOT
ATOM      1  C   UNL d   1       2.347   2.068   0.241  0.00  0.00     0.077 C 
ATOM      2  C1  UNL d   1       1.451   0.880   0.432  0.00  0.00    -0.074 A 
ATOM      3  C2  UNL d   1       1.939  -0.306   0.988  0.00  0.00    -0.005 A 
ATOM      4  C3  UNL d   1       1.092  -1.399   1.168  0.00  0.00     0.006 A 
ATOM      5  C4  UNL d   1      -0.250  -1.317   0.794  0.00  0.00    -0.005 A 
ATOM      6  C5  UNL d   1      -0.756  -0.138   0.238  0.00  0.00    -0.074 A 
ATOM      7  C6  UNL d   1      -2.198  -0.030  -0.160  0.00  0.00     0.077 C 
ATOM      8  C7  UNL d   1       0.100   0.958   0.066  0.00  0.00    -0.001 A 
ENDROOT
TORSDOF 0
ENDMDL
