MODEL 1
REMARK minimizedAffinity -3.65840292
REMARK minimizedRMSD -1
REMARK  0 active torsions:
REMARK  status: ('A' for Active; 'I' for Inactive)
ROOT
ATOM      1  C   UNL d   1      -2.232  -0.196   0.299  0.00  0.00     0.077 C 
ATOM      2  C1  UNL d   1      -0.842  -0.476   0.788  0.00  0.00    -0.074 A 
ATOM      3  C2  UNL d   1      -0.593  -1.516   1.689  0.00  0.00    -0.005 A 
ATOM      4  C3  UNL d   1       0.706  -1.770   2.128  0.00  0.00     0.006 A 
ATOM      5  C4  UNL d   1       1.768  -0.988   1.672  0.00  0.00    -0.005 A 
ATOM      6  C5  UNL d   1       1.538   0.057   0.771  0.00  0.00    -0.074 A 
ATOM      7  C6  UNL d   1       2.669   0.902   0.264  0.00  0.00     0.077 C 
ATOM      8  C7  UNL d   1       0.230   0.302   0.329  0.00  0.00    -0.001 A 
ENDROOT
TORSDOF 0
ENDMDL
