MODEL 1
REMARK minimizedAffinity -4.85841751
REMARK minimizedRMSD -1
REMARK  0 active torsions:
REMARK  status: ('A' for Active; 'I' for Inactive)
ROOT
ATOM      1  C   UNL d   1      -3.515  -0.947   0.084  0.00  0.00     0.077 C 
ATOM      2  C1  UNL d   1      -2.180  -0.579  -0.492  0.00  0.00    -0.074 A 
ATOM      3  C2  UNL d   1      -1.902  -0.777  -1.848  0.00  0.00    -0.005 A 
ATOM      4  C3  UNL d   1      -0.659  -0.420  -2.371  0.00  0.00     0.006 A 
ATOM      5  C4  UNL d   1       0.317   0.138  -1.545  0.00  0.00    -0.005 A 
ATOM      6  C5  UNL d   1       0.057   0.345  -0.186  0.00  0.00    -0.074 A 
ATOM      7  C6  UNL d   1       1.091   0.953   0.714  0.00  0.00     0.077 C 
ATOM      8  C7  UNL d   1      -1.197  -0.010   0.330  0.00  0.00    -0.001 A 
ENDROOT
TORSDOF 0
ENDMDL
