MODEL 1
REMARK minimizedAffinity -4.38612175
REMARK minimizedRMSD -1
REMARK  0 active torsions:
REMARK  status: ('A' for Active; 'I' for Inactive)
ROOT
ATOM      1  C   UNL d   1      -1.501   0.965  -2.810  0.00  0.00     0.077 C 
ATOM      2  C1  UNL d   1      -1.271   0.416  -1.433  0.00  0.00    -0.074 A 
ATOM      3  C2  UNL d   1      -2.313  -0.176  -0.713  0.00  0.00    -0.005 A 
ATOM      4  C3  UNL d   1      -2.082  -0.691   0.563  0.00  0.00     0.006 A 
ATOM      5  C4  UNL d   1      -0.808  -0.619   1.130  0.00  0.00    -0.005 A 
ATOM      6  C5  UNL d   1       0.246  -0.031   0.423  0.00  0.00    -0.074 A 
ATOM      7  C6  UNL d   1       1.622   0.046   1.014  0.00  0.00     0.077 C 
ATOM      8  C7  UNL d   1       0.007   0.478  -0.861  0.00  0.00    -0.001 A 
ENDROOT
TORSDOF 0
ENDMDL
