MODEL 1
REMARK minimizedAffinity -4.22715473
REMARK minimizedRMSD -1
REMARK  0 active torsions:
REMARK  status: ('A' for Active; 'I' for Inactive)
ROOT
ATOM      1  C   UNL d   1      -2.868  -0.970   0.522  0.00  0.00     0.077 C 
ATOM      2  C1  UNL d   1      -1.562  -0.548  -0.085  0.00  0.00    -0.074 A 
ATOM      3  C2  UNL d   1      -1.352  -0.627  -1.465  0.00  0.00    -0.005 A 
ATOM      4  C3  UNL d   1      -0.136  -0.222  -2.016  0.00  0.00     0.006 A 
ATOM      5  C4  UNL d   1       0.880   0.264  -1.193  0.00  0.00    -0.005 A 
ATOM      6  C5  UNL d   1       0.689   0.350   0.189  0.00  0.00    -0.074 A 
ATOM      7  C6  UNL d   1       1.767   0.879   1.087  0.00  0.00     0.077 C 
ATOM      8  C7  UNL d   1      -0.539  -0.052   0.734  0.00  0.00    -0.001 A 
ENDROOT
TORSDOF 0
ENDMDL
