MODEL 1
REMARK minimizedAffinity -3.99835801
REMARK minimizedRMSD -1
REMARK  0 active torsions:
REMARK  status: ('A' for Active; 'I' for Inactive)
ROOT
ATOM      1  C   UNL d   1      -0.659  -2.780   2.784  0.00  0.00     0.077 C 
ATOM      2  C1  UNL d   1      -0.673  -1.701   1.742  0.00  0.00    -0.074 A 
ATOM      3  C2  UNL d   1      -1.870  -1.297   1.142  0.00  0.00    -0.005 A 
ATOM      4  C3  UNL d   1      -1.869  -0.286   0.182  0.00  0.00     0.006 A 
ATOM      5  C4  UNL d   1      -0.673   0.331  -0.188  0.00  0.00    -0.005 A 
ATOM      6  C5  UNL d   1       0.533  -0.059   0.402  0.00  0.00    -0.074 A 
ATOM      7  C6  UNL d   1       1.826   0.600   0.023  0.00  0.00     0.077 C 
ATOM      8  C7  UNL d   1       0.523  -1.071   1.371  0.00  0.00    -0.001 A 
ENDROOT
TORSDOF 0
ENDMDL
