MODEL 1
REMARK minimizedAffinity -3.24243522
REMARK minimizedRMSD -1
REMARK  0 active torsions:
REMARK  status: ('A' for Active; 'I' for Inactive)
ROOT
ATOM      1  C   UNL d   1      -1.624  -2.027  -2.959  0.00  0.00     0.077 C 
ATOM      2  C1  UNL d   1      -1.476  -1.107  -1.784  0.00  0.00    -0.074 A 
ATOM      3  C2  UNL d   1      -2.593  -0.683  -1.058  0.00  0.00    -0.005 A 
ATOM      4  C3  UNL d   1      -2.439   0.165   0.039  0.00  0.00     0.006 A 
ATOM      5  C4  UNL d   1      -1.168   0.597   0.420  0.00  0.00    -0.005 A 
ATOM      6  C5  UNL d   1      -0.039   0.183  -0.294  0.00  0.00    -0.074 A 
ATOM      7  C6  UNL d   1       1.335   0.631   0.107  0.00  0.00     0.077 C 
ATOM      8  C7  UNL d   1      -0.202  -0.674  -1.391  0.00  0.00    -0.001 A 
ENDROOT
TORSDOF 0
ENDMDL
