MODEL 1
REMARK minimizedAffinity -2.16008091
REMARK minimizedRMSD -1
REMARK  1 active torsions:
REMARK  status: ('A' for Active; 'I' for Inactive)
REMARK    1  A    between atoms: C1_2  and  C2_3 
ROOT
ATOM      1  C2  UNL d   1       5.957   3.198   2.713  0.00  0.00    -0.073 A 
ATOM      2  C3  UNL d   1       6.000   3.943   3.897  0.00  0.00    -0.002 A 
ATOM      3  C4  UNL d   1       5.954   5.337   3.855  0.00  0.00     0.004 A 
ATOM      4  C5  UNL d   1       5.859   6.000   2.632  0.00  0.00    -0.004 A 
ATOM      5  C6  UNL d   1       5.804   5.273   1.438  0.00  0.00    -0.075 A 
ATOM      6  C7  UNL d   1       5.703   5.971   0.114  0.00  0.00     0.076 C 
ATOM      7  C8  UNL d   1       5.853   3.873   1.489  0.00  0.00     0.001 A 
ENDROOT
BRANCH   1   8
ATOM      8  C1  UNL d   1       6.000   1.693   2.754  0.00  0.00     0.053 C 
ATOM      9  C   UNL d   1       5.646   1.150   4.129  0.00  0.00     0.018 C 
ENDBRANCH   1   8
TORSDOF 1
ENDMDL
