MODEL 1
REMARK minimizedAffinity 16.3169918
REMARK minimizedRMSD -1
REMARK  1 active torsions:
REMARK  status: ('A' for Active; 'I' for Inactive)
REMARK    1  A    between atoms: C1_2  and  C2_3 
ROOT
ATOM      1  C2  UNL d   1      -2.207   0.870   2.813  0.00  0.00    -0.073 A 
ATOM      2  C3  UNL d   1      -2.300   1.711   3.928  0.00  0.00    -0.002 A 
ATOM      3  C4  UNL d   1      -1.886   3.041   3.845  0.00  0.00     0.004 A 
ATOM      4  C5  UNL d   1      -1.382   3.545   2.646  0.00  0.00    -0.004 A 
ATOM      5  C6  UNL d   1      -1.292   2.724   1.517  0.00  0.00    -0.075 A 
ATOM      6  C7  UNL d   1      -0.750   3.251   0.221  0.00  0.00     0.076 C 
ATOM      7  C8  UNL d   1      -1.707   1.389   1.610  0.00  0.00     0.001 A 
ENDROOT
BRANCH   1   8
ATOM      8  C1  UNL d   1      -2.659  -0.565   2.897  0.00  0.00     0.053 C 
ATOM      9  C   UNL d   1      -3.769  -0.754   3.918  0.00  0.00     0.018 C 
ENDBRANCH   1   8
TORSDOF 1
ENDMDL
