MODEL 1
REMARK minimizedAffinity 1.26009548
REMARK minimizedRMSD -1
REMARK  1 active torsions:
REMARK  status: ('A' for Active; 'I' for Inactive)
REMARK    1  A    between atoms: C1_2  and  C2_3 
ROOT
ATOM      1  C2  UNL d   1       5.501   0.241   4.741  0.00  0.00    -0.073 A 
ATOM      2  C3  UNL d   1       4.612  -0.155   3.736  0.00  0.00    -0.002 A 
ATOM      3  C4  UNL d   1       4.167   0.765   2.785  0.00  0.00     0.004 A 
ATOM      4  C5  UNL d   1       4.613   2.086   2.825  0.00  0.00    -0.004 A 
ATOM      5  C6  UNL d   1       5.511   2.498   3.814  0.00  0.00    -0.075 A 
ATOM      6  C7  UNL d   1       5.998   3.916   3.872  0.00  0.00     0.076 C 
ATOM      7  C8  UNL d   1       5.951   1.569   4.767  0.00  0.00     0.001 A 
ENDROOT
BRANCH   1   8
ATOM      8  C1  UNL d   1       5.989  -0.750   5.766  0.00  0.00     0.053 C 
ATOM      9  C   UNL d   1       5.980  -2.173   5.232  0.00  0.00     0.018 C 
ENDBRANCH   1   8
TORSDOF 1
ENDMDL
