MODEL 1
REMARK minimizedAffinity -0.680501938
REMARK minimizedRMSD -1
REMARK  1 active torsions:
REMARK  status: ('A' for Active; 'I' for Inactive)
REMARK    1  A    between atoms: C1_2  and  C2_3 
ROOT
ATOM      1  C2  UNL d   1       5.611   1.253   4.475  0.00  0.00    -0.073 A 
ATOM      2  C3  UNL d   1       5.826   1.426   3.103  0.00  0.00    -0.002 A 
ATOM      3  C4  UNL d   1       5.991   0.319   2.270  0.00  0.00     0.004 A 
ATOM      4  C5  UNL d   1       5.935  -0.971   2.797  0.00  0.00    -0.004 A 
ATOM      5  C6  UNL d   1       5.709  -1.165   4.164  0.00  0.00    -0.075 A 
ATOM      6  C7  UNL d   1       5.648  -2.546   4.747  0.00  0.00     0.076 C 
ATOM      7  C8  UNL d   1       5.547  -0.048   4.994  0.00  0.00     0.001 A 
ENDROOT
BRANCH   1   8
ATOM      8  C1  UNL d   1       5.425   2.445   5.377  0.00  0.00     0.053 C 
ATOM      9  C   UNL d   1       5.998   3.715   4.768  0.00  0.00     0.018 C 
ENDBRANCH   1   8
TORSDOF 1
ENDMDL
