MODEL 1
REMARK minimizedAffinity 4.67436314
REMARK minimizedRMSD -1
REMARK  1 active torsions:
REMARK  status: ('A' for Active; 'I' for Inactive)
REMARK    1  A    between atoms: C1_2  and  C2_3 
ROOT
ATOM      1  C2  UNL d   1       5.385   5.128   2.460  0.00  0.00    -0.073 A 
ATOM      2  C3  UNL d   1       5.925   5.988   1.496  0.00  0.00    -0.002 A 
ATOM      3  C4  UNL d   1       5.415   5.999   0.197  0.00  0.00     0.004 A 
ATOM      4  C5  UNL d   1       4.358   5.158  -0.150  0.00  0.00    -0.004 A 
ATOM      5  C6  UNL d   1       3.798   4.300   0.802  0.00  0.00    -0.075 A 
ATOM      6  C7  UNL d   1       2.662   3.387   0.445  0.00  0.00     0.076 C 
ATOM      7  C8  UNL d   1       4.317   4.293   2.104  0.00  0.00     0.001 A 
ENDROOT
BRANCH   1   8
ATOM      8  C1  UNL d   1       5.928   5.117   3.865  0.00  0.00     0.053 C 
ATOM      9  C   UNL d   1       5.997   3.710   4.438  0.00  0.00     0.018 C 
ENDBRANCH   1   8
TORSDOF 1
ENDMDL
