MODEL 1
REMARK minimizedAffinity -2.18488455
REMARK minimizedRMSD -1
REMARK  1 active torsions:
REMARK  status: ('A' for Active; 'I' for Inactive)
REMARK    1  A    between atoms: C1_2  and  C2_3 
ROOT
ATOM      1  C2  UNL d   1       5.631   1.911   4.350  0.00  0.00    -0.073 A 
ATOM      2  C3  UNL d   1       4.935   1.572   3.184  0.00  0.00    -0.002 A 
ATOM      3  C4  UNL d   1       4.592   0.244   2.928  0.00  0.00     0.004 A 
ATOM      4  C5  UNL d   1       4.936  -0.757   3.837  0.00  0.00    -0.004 A 
ATOM      5  C6  UNL d   1       5.621  -0.437   5.013  0.00  0.00    -0.075 A 
ATOM      6  C7  UNL d   1       6.000  -1.502   6.000  0.00  0.00     0.076 C 
ATOM      7  C8  UNL d   1       5.964   0.899   5.262  0.00  0.00     0.001 A 
ENDROOT
BRANCH   1   8
ATOM      8  C1  UNL d   1       5.997   3.345   4.634  0.00  0.00     0.053 C 
ATOM      9  C   UNL d   1       5.592   4.272   3.498  0.00  0.00     0.018 C 
ENDBRANCH   1   8
TORSDOF 1
ENDMDL
