MODEL 1
REMARK minimizedAffinity -3.29122329
REMARK minimizedRMSD -1
REMARK  1 active torsions:
REMARK  status: ('A' for Active; 'I' for Inactive)
REMARK    1  A    between atoms: C1_2  and  C2_3 
ROOT
ATOM      1  C2  UNL d   1       5.892   2.364   4.001  0.00  0.00    -0.073 A 
ATOM      2  C3  UNL d   1       5.715   2.230   5.382  0.00  0.00    -0.002 A 
ATOM      3  C4  UNL d   1       5.623   0.964   5.962  0.00  0.00     0.004 A 
ATOM      4  C5  UNL d   1       5.714  -0.180   5.168  0.00  0.00    -0.004 A 
ATOM      5  C6  UNL d   1       5.902  -0.067   3.787  0.00  0.00    -0.075 A 
ATOM      6  C7  UNL d   1       6.000  -1.287   2.919  0.00  0.00     0.076 C 
ATOM      7  C8  UNL d   1       5.991   1.208   3.212  0.00  0.00     0.001 A 
ENDROOT
BRANCH   1   8
ATOM      8  C1  UNL d   1       5.997   3.729   3.371  0.00  0.00     0.053 C 
ATOM      9  C   UNL d   1       5.977   4.839   4.410  0.00  0.00     0.018 C 
ENDBRANCH   1   8
TORSDOF 1
ENDMDL
