MODEL 1
REMARK minimizedAffinity 3.57012558
REMARK minimizedRMSD -1
REMARK  1 active torsions:
REMARK  status: ('A' for Active; 'I' for Inactive)
REMARK    1  A    between atoms: C1_2  and  C2_3 
ROOT
ATOM      1  C2  UNL d   1       5.673   2.504   3.563  0.00  0.00    -0.073 A 
ATOM      2  C3  UNL d   1       5.779   1.843   2.334  0.00  0.00    -0.002 A 
ATOM      3  C4  UNL d   1       5.944   0.458   2.291  0.00  0.00     0.004 A 
ATOM      4  C5  UNL d   1       5.999  -0.280   3.473  0.00  0.00    -0.004 A 
ATOM      5  C6  UNL d   1       5.883   0.361   4.711  0.00  0.00    -0.075 A 
ATOM      6  C7  UNL d   1       5.942  -0.418   5.992  0.00  0.00     0.076 C 
ATOM      7  C8  UNL d   1       5.719   1.753   4.746  0.00  0.00     0.001 A 
ENDROOT
BRANCH   1   8
ATOM      8  C1  UNL d   1       5.487   3.998   3.615  0.00  0.00     0.053 C 
ATOM      9  C   UNL d   1       5.558   4.630   2.233  0.00  0.00     0.018 C 
ENDBRANCH   1   8
TORSDOF 1
ENDMDL
