MODEL 1
REMARK minimizedAffinity -3.26128745
REMARK minimizedRMSD -1
REMARK  1 active torsions:
REMARK  status: ('A' for Active; 'I' for Inactive)
REMARK    1  A    between atoms: C1_2  and  C2_3 
ROOT
ATOM      1  C2  UNL d   1       5.700   0.572   4.283  0.00  0.00    -0.073 A 
ATOM      2  C3  UNL d   1       5.702   1.076   5.588  0.00  0.00    -0.002 A 
ATOM      3  C4  UNL d   1       5.808   2.449   5.814  0.00  0.00     0.004 A 
ATOM      4  C5  UNL d   1       5.906   3.332   4.738  0.00  0.00    -0.004 A 
ATOM      5  C6  UNL d   1       5.894   2.849   3.426  0.00  0.00    -0.075 A 
ATOM      6  C7  UNL d   1       6.000   3.785   2.258  0.00  0.00     0.076 C 
ATOM      7  C8  UNL d   1       5.789   1.468   3.207  0.00  0.00     0.001 A 
ENDROOT
BRANCH   1   8
ATOM      8  C1  UNL d   1       5.579  -0.909   4.034  0.00  0.00     0.053 C 
ATOM      9  C   UNL d   1       6.000  -1.726   5.245  0.00  0.00     0.018 C 
ENDBRANCH   1   8
TORSDOF 1
ENDMDL
