MODEL 1
REMARK minimizedAffinity 0.363353908
REMARK minimizedRMSD -1
REMARK  1 active torsions:
REMARK  status: ('A' for Active; 'I' for Inactive)
REMARK    1  A    between atoms: C1_2  and  C2_3 
ROOT
ATOM      1  C2  UNL d   1       5.890   0.029   4.722  0.00  0.00    -0.073 A 
ATOM      2  C3  UNL d   1       5.970  -0.573   3.460  0.00  0.00    -0.002 A 
ATOM      3  C4  UNL d   1       6.000   0.211   2.306  0.00  0.00     0.004 A 
ATOM      4  C5  UNL d   1       5.958   1.602   2.401  0.00  0.00    -0.004 A 
ATOM      5  C6  UNL d   1       5.890   2.222   3.653  0.00  0.00    -0.075 A 
ATOM      6  C7  UNL d   1       5.842   3.717   3.772  0.00  0.00     0.076 C 
ATOM      7  C8  UNL d   1       5.857   1.428   4.807  0.00  0.00     0.001 A 
ENDROOT
BRANCH   1   8
ATOM      8  C1  UNL d   1       5.864  -0.814   5.971  0.00  0.00     0.053 C 
ATOM      9  C   UNL d   1       6.000  -2.296   5.662  0.00  0.00     0.018 C 
ENDBRANCH   1   8
TORSDOF 1
ENDMDL
