MODEL 1
REMARK minimizedAffinity -1.15803933
REMARK minimizedRMSD -1
REMARK  1 active torsions:
REMARK  status: ('A' for Active; 'I' for Inactive)
REMARK    1  A    between atoms: C1_2  and  C2_3 
ROOT
ATOM      1  C2  UNL d   1       5.953   0.458   3.977  0.00  0.00    -0.073 A 
ATOM      2  C3  UNL d   1       5.895   0.582   5.370  0.00  0.00    -0.002 A 
ATOM      3  C4  UNL d   1       5.880   1.844   5.966  0.00  0.00     0.004 A 
ATOM      4  C5  UNL d   1       5.914   2.993   5.177  0.00  0.00    -0.004 A 
ATOM      5  C6  UNL d   1       5.960   2.890   3.783  0.00  0.00    -0.075 A 
ATOM      6  C7  UNL d   1       6.000   4.117   2.919  0.00  0.00     0.076 C 
ATOM      7  C8  UNL d   1       5.978   1.620   3.192  0.00  0.00     0.001 A 
ENDROOT
BRANCH   1   8
ATOM      8  C1  UNL d   1       5.963  -0.902   3.329  0.00  0.00     0.053 C 
ATOM      9  C   UNL d   1       5.973  -2.023   4.357  0.00  0.00     0.018 C 
ENDBRANCH   1   8
TORSDOF 1
ENDMDL
