MODEL 1
REMARK minimizedAffinity -0.522509336
REMARK minimizedRMSD -1
REMARK  1 active torsions:
REMARK  status: ('A' for Active; 'I' for Inactive)
REMARK    1  A    between atoms: C1_2  and  C2_3 
ROOT
ATOM      1  C2  UNL d   1       5.866   2.779   4.174  0.00  0.00    -0.073 A 
ATOM      2  C3  UNL d   1       5.639   2.452   5.516  0.00  0.00    -0.002 A 
ATOM      3  C4  UNL d   1       5.522   1.117   5.906  0.00  0.00     0.004 A 
ATOM      4  C5  UNL d   1       5.637   0.097   4.962  0.00  0.00    -0.004 A 
ATOM      5  C6  UNL d   1       5.875   0.403   3.619  0.00  0.00    -0.075 A 
ATOM      6  C7  UNL d   1       6.000  -0.683   2.590  0.00  0.00     0.076 C 
ATOM      7  C8  UNL d   1       5.989   1.746   3.234  0.00  0.00     0.001 A 
ENDROOT
BRANCH   1   8
ATOM      8  C1  UNL d   1       5.999   4.218   3.749  0.00  0.00     0.053 C 
ATOM      9  C   UNL d   1       5.999   5.166   4.938  0.00  0.00     0.018 C 
ENDBRANCH   1   8
TORSDOF 1
ENDMDL
