MODEL 1
REMARK minimizedAffinity 2.73203635
REMARK minimizedRMSD -1
REMARK  1 active torsions:
REMARK  status: ('A' for Active; 'I' for Inactive)
REMARK    1  A    between atoms: C1_2  and  C2_3 
ROOT
ATOM      1  C2  UNL d   1       0.270   2.638   0.275  0.00  0.00    -0.073 A 
ATOM      2  C3  UNL d   1       1.662   2.760   0.357  0.00  0.00    -0.002 A 
ATOM      3  C4  UNL d   1       2.485   1.692  -0.003  0.00  0.00     0.004 A 
ATOM      4  C5  UNL d   1       1.927   0.497  -0.456  0.00  0.00    -0.004 A 
ATOM      5  C6  UNL d   1       0.539   0.360  -0.556  0.00  0.00    -0.075 A 
ATOM      6  C7  UNL d   1      -0.077  -0.921  -1.038  0.00  0.00     0.076 C 
ATOM      7  C8  UNL d   1      -0.281   1.435  -0.189  0.00  0.00     0.001 A 
ENDROOT
BRANCH   1   8
ATOM      8  C1  UNL d   1      -0.622   3.790   0.657  0.00  0.00     0.053 C 
ATOM      9  C   UNL d   1      -0.574   4.078   2.150  0.00  0.00     0.018 C 
ENDBRANCH   1   8
TORSDOF 1
ENDMDL
