MODEL 1
REMARK minimizedAffinity -2.63862944
REMARK minimizedRMSD -1
REMARK  3 active torsions:
REMARK  status: ('A' for Active; 'I' for Inactive)
REMARK    1  A    between atoms: C3'_2  and  C2'_3 
REMARK    2  A    between atoms: C2'_3  and  C1'_4 
REMARK    3  A    between atoms: C1'_4  and  C1_5 
ROOT
ATOM      1  C1  N4B d   1       0.176  -0.649   0.090  0.00  0.00    -0.075 A 
ATOM      2  C2  N4B d   1       0.728  -0.294   1.340  0.00  0.00     0.002 A 
ATOM      3  C3  N4B d   1       0.195   0.753   2.053  0.00  0.00     0.002 A 
ATOM      4  C4  N4B d   1      -0.871   1.467   1.528  0.00  0.00    -0.004 A 
ATOM      5  C5  N4B d   1      -1.414   1.101   0.331  0.00  0.00     0.002 A 
ATOM      6  C6  N4B d   1      -0.892   0.049  -0.394  0.00  0.00     0.002 A 
ENDROOT
BRANCH   1   7
ATOM      7  C1' N4B d   1       0.779  -1.731  -0.765  0.00  0.00     0.057 C 
BRANCH   7   8
ATOM      8  C2' N4B d   1      -0.145  -2.007  -1.948  0.00  0.00     0.009 C 
BRANCH   8   9
ATOM      9  C3' N4B d   1      -0.054  -3.449  -2.415  0.00  0.00     0.004 C 
ATOM     10  C4' N4B d   1      -0.851  -3.708  -3.659  0.00  0.00     0.003 C 
ENDBRANCH   8   9
ENDBRANCH   7   8
ENDBRANCH   1   7
TORSDOF 3
ENDMDL
