MODEL 1
REMARK minimizedAffinity -4.33995819
REMARK minimizedRMSD -1
REMARK  3 active torsions:
REMARK  status: ('A' for Active; 'I' for Inactive)
REMARK    1  A    between atoms: C3'_2  and  C2'_3 
REMARK    2  A    between atoms: C2'_3  and  C1'_4 
REMARK    3  A    between atoms: C1'_4  and  C1_5 
ROOT
ATOM      1  C1  N4B d   1      -0.485  -0.058   0.559  0.00  0.00    -0.075 A 
ATOM      2  C2  N4B d   1      -0.631   1.343   0.649  0.00  0.00     0.002 A 
ATOM      3  C3  N4B d   1      -1.072   1.915   1.817  0.00  0.00     0.002 A 
ATOM      4  C4  N4B d   1      -1.391   1.106   2.898  0.00  0.00    -0.004 A 
ATOM      5  C5  N4B d   1      -1.223  -0.245   2.812  0.00  0.00     0.002 A 
ATOM      6  C6  N4B d   1      -0.776  -0.832   1.645  0.00  0.00     0.002 A 
ENDROOT
BRANCH   1   7
ATOM      7  C1' N4B d   1      -0.088  -0.735  -0.724  0.00  0.00     0.057 C 
BRANCH   7   8
ATOM      8  C2' N4B d   1       1.375  -1.160  -0.634  0.00  0.00     0.009 C 
BRANCH   8   9
ATOM      9  C3' N4B d   1       1.656  -2.406  -1.456  0.00  0.00     0.004 C 
ATOM     10  C4' N4B d   1       0.730  -2.552  -2.626  0.00  0.00     0.003 C 
ENDBRANCH   8   9
ENDBRANCH   7   8
ENDBRANCH   1   7
TORSDOF 3
ENDMDL
