MODEL 1
REMARK minimizedAffinity -4.82733583
REMARK minimizedRMSD -1
REMARK  3 active torsions:
REMARK  status: ('A' for Active; 'I' for Inactive)
REMARK    1  A    between atoms: C3'_2  and  C2'_3 
REMARK    2  A    between atoms: C2'_3  and  C1'_4 
REMARK    3  A    between atoms: C1'_4  and  C1_5 
ROOT
ATOM      1  C1  N4B d   1      -0.112   0.298   0.985  0.00  0.00    -0.075 A 
ATOM      2  C2  N4B d   1      -0.927   0.688  -0.100  0.00  0.00     0.002 A 
ATOM      3  C3  N4B d   1      -2.164   1.237   0.134  0.00  0.00     0.002 A 
ATOM      4  C4  N4B d   1      -2.613   1.388   1.437  0.00  0.00    -0.004 A 
ATOM      5  C5  N4B d   1      -1.808   1.033   2.480  0.00  0.00     0.002 A 
ATOM      6  C6  N4B d   1      -0.561   0.483   2.261  0.00  0.00     0.002 A 
ENDROOT
BRANCH   1   7
ATOM      7  C1' N4B d   1       1.212  -0.386   0.778  0.00  0.00     0.057 C 
BRANCH   7   8
ATOM      8  C2' N4B d   1       1.462  -0.550  -0.718  0.00  0.00     0.009 C 
BRANCH   8   9
ATOM      9  C3' N4B d   1       1.542  -2.011  -1.124  0.00  0.00     0.004 C 
ATOM     10  C4' N4B d   1       0.737  -2.317  -2.352  0.00  0.00     0.003 C 
ENDBRANCH   8   9
ENDBRANCH   7   8
ENDBRANCH   1   7
TORSDOF 3
ENDMDL
