MODEL 1
REMARK minimizedAffinity -3.33959603
REMARK minimizedRMSD -1
REMARK  3 active torsions:
REMARK  status: ('A' for Active; 'I' for Inactive)
REMARK    1  A    between atoms: C3'_2  and  C2'_3 
REMARK    2  A    between atoms: C2'_3  and  C1'_4 
REMARK    3  A    between atoms: C1'_4  and  C1_5 
ROOT
ATOM      1  C1  N4B d   1       0.313   0.034   0.354  0.00  0.00    -0.075 A 
ATOM      2  C2  N4B d   1      -0.654   1.063   0.386  0.00  0.00     0.002 A 
ATOM      3  C3  N4B d   1      -1.365   1.301   1.536  0.00  0.00     0.002 A 
ATOM      4  C4  N4B d   1      -1.141   0.514   2.656  0.00  0.00    -0.004 A 
ATOM      5  C5  N4B d   1      -0.187  -0.461   2.625  0.00  0.00     0.002 A 
ATOM      6  C6  N4B d   1       0.538  -0.709   1.477  0.00  0.00     0.002 A 
ENDROOT
BRANCH   1   7
ATOM      7  C1' N4B d   1       1.055  -0.319  -0.906  0.00  0.00     0.057 C 
BRANCH   7   8
ATOM      8  C2' N4B d   1       1.388  -1.808  -0.890  0.00  0.00     0.009 C 
BRANCH   8   9
ATOM      9  C3' N4B d   1       0.588  -2.581  -1.924  0.00  0.00     0.004 C 
ATOM     10  C4' N4B d   1      -0.110  -3.775  -1.345  0.00  0.00     0.003 C 
ENDBRANCH   8   9
ENDBRANCH   7   8
ENDBRANCH   1   7
TORSDOF 3
ENDMDL
