MODEL 1
REMARK minimizedAffinity -4.97161341
REMARK minimizedRMSD -1
REMARK  3 active torsions:
REMARK  status: ('A' for Active; 'I' for Inactive)
REMARK    1  A    between atoms: C3'_2  and  C2'_3 
REMARK    2  A    between atoms: C2'_3  and  C1'_4 
REMARK    3  A    between atoms: C1'_4  and  C1_5 
ROOT
ATOM      1  C1  N4B d   1      -0.583   0.798  -0.327  0.00  0.00    -0.075 A 
ATOM      2  C2  N4B d   1       0.057  -0.438  -0.092  0.00  0.00     0.002 A 
ATOM      3  C3  N4B d   1       1.288  -0.691  -0.648  0.00  0.00     0.002 A 
ATOM      4  C4  N4B d   1       1.885   0.267  -1.454  0.00  0.00    -0.004 A 
ATOM      5  C5  N4B d   1       1.272   1.468  -1.655  0.00  0.00     0.002 A 
ATOM      6  C6  N4B d   1       0.037   1.737  -1.099  0.00  0.00     0.002 A 
ENDROOT
BRANCH   1   7
ATOM      7  C1' N4B d   1      -1.967   1.086   0.189  0.00  0.00     0.057 C 
BRANCH   7   8
ATOM      8  C2' N4B d   1      -1.878   2.117   1.311  0.00  0.00     0.009 C 
BRANCH   8   9
ATOM      9  C3' N4B d   1      -1.091   1.595   2.501  0.00  0.00     0.004 C 
ATOM     10  C4' N4B d   1      -0.302   2.668   3.190  0.00  0.00     0.003 C 
ENDBRANCH   8   9
ENDBRANCH   7   8
ENDBRANCH   1   7
TORSDOF 3
ENDMDL
