MODEL 1
REMARK minimizedAffinity -3.9682672
REMARK minimizedRMSD -1
REMARK  3 active torsions:
REMARK  status: ('A' for Active; 'I' for Inactive)
REMARK    1  A    between atoms: C3'_2  and  C2'_3 
REMARK    2  A    between atoms: C2'_3  and  C1'_4 
REMARK    3  A    between atoms: C1'_4  and  C1_5 
ROOT
ATOM      1  C1  N4B d   1      -0.205   0.099   0.027  0.00  0.00    -0.075 A 
ATOM      2  C2  N4B d   1      -0.043  -0.201   1.397  0.00  0.00     0.002 A 
ATOM      3  C3  N4B d   1      -0.683   0.557   2.347  0.00  0.00     0.002 A 
ATOM      4  C4  N4B d   1      -1.472   1.627   1.952  0.00  0.00    -0.004 A 
ATOM      5  C5  N4B d   1      -1.644   1.894   0.625  0.00  0.00     0.002 A 
ATOM      6  C6  N4B d   1      -1.010   1.138  -0.340  0.00  0.00     0.002 A 
ENDROOT
BRANCH   1   7
ATOM      7  C1' N4B d   1       0.543  -0.648  -1.043  0.00  0.00     0.057 C 
BRANCH   7   8
ATOM      8  C2' N4B d   1       1.044  -1.972  -0.474  0.00  0.00     0.009 C 
BRANCH   8   9
ATOM      9  C3' N4B d   1       0.925  -3.104  -1.479  0.00  0.00     0.004 C 
ATOM     10  C4' N4B d   1       0.462  -2.638  -2.827  0.00  0.00     0.003 C 
ENDBRANCH   8   9
ENDBRANCH   7   8
ENDBRANCH   1   7
TORSDOF 3
ENDMDL
