MODEL 1
REMARK minimizedAffinity -1.61467707
REMARK minimizedRMSD -1
REMARK  3 active torsions:
REMARK  status: ('A' for Active; 'I' for Inactive)
REMARK    1  A    between atoms: C3'_2  and  C2'_3 
REMARK    2  A    between atoms: C2'_3  and  C1'_4 
REMARK    3  A    between atoms: C1'_4  and  C1_5 
ROOT
ATOM      1  C1  N4B d   1       0.039   0.517   0.607  0.00  0.00    -0.075 A 
ATOM      2  C2  N4B d   1       0.888   1.155  -0.324  0.00  0.00     0.002 A 
ATOM      3  C3  N4B d   1       0.362   2.019  -1.253  0.00  0.00     0.002 A 
ATOM      4  C4  N4B d   1      -1.006   2.246  -1.282  0.00  0.00    -0.004 A 
ATOM      5  C5  N4B d   1      -1.816   1.646  -0.362  0.00  0.00     0.002 A 
ATOM      6  C6  N4B d   1      -1.301   0.778   0.579  0.00  0.00     0.002 A 
ENDROOT
BRANCH   1   7
ATOM      7  C1' N4B d   1       0.556  -0.501   1.586  0.00  0.00     0.057 C 
BRANCH   7   8
ATOM      8  C2' N4B d   1      -0.049  -0.228   2.960  0.00  0.00     0.009 C 
BRANCH   8   9
ATOM      9  C3' N4B d   1       0.288  -1.323   3.957  0.00  0.00     0.004 C 
ATOM     10  C4' N4B d   1      -0.867  -1.673   4.847  0.00  0.00     0.003 C 
ENDBRANCH   8   9
ENDBRANCH   7   8
ENDBRANCH   1   7
TORSDOF 3
ENDMDL
