MODEL 1
REMARK minimizedAffinity -2.90112329
REMARK minimizedRMSD -1
REMARK  3 active torsions:
REMARK  status: ('A' for Active; 'I' for Inactive)
REMARK    1  A    between atoms: C3'_2  and  C2'_3 
REMARK    2  A    between atoms: C2'_3  and  C1'_4 
REMARK    3  A    between atoms: C1'_4  and  C1_5 
ROOT
ATOM      1  C1  N4B d   1      -0.541   0.613   0.521  0.00  0.00    -0.075 A 
ATOM      2  C2  N4B d   1       0.127  -0.617   0.710  0.00  0.00     0.002 A 
ATOM      3  C3  N4B d   1       1.103  -1.010  -0.172  0.00  0.00     0.002 A 
ATOM      4  C4  N4B d   1       1.415  -0.203  -1.256  0.00  0.00    -0.004 A 
ATOM      5  C5  N4B d   1       0.784   0.996  -1.416  0.00  0.00     0.002 A 
ATOM      6  C6  N4B d   1      -0.197   1.406  -0.535  0.00  0.00     0.002 A 
ENDROOT
BRANCH   1   7
ATOM      7  C1' N4B d   1      -1.675   1.046   1.410  0.00  0.00     0.057 C 
BRANCH   7   8
ATOM      8  C2' N4B d   1      -1.153   2.048   2.436  0.00  0.00     0.009 C 
BRANCH   8   9
ATOM      9  C3' N4B d   1      -0.409   1.364   3.570  0.00  0.00     0.004 C 
ATOM     10  C4' N4B d   1       0.456   2.309   4.350  0.00  0.00     0.003 C 
ENDBRANCH   8   9
ENDBRANCH   7   8
ENDBRANCH   1   7
TORSDOF 3
ENDMDL
