MODEL 1
REMARK minimizedAffinity 15.1715345
REMARK minimizedRMSD -1
REMARK  1 active torsions:
REMARK  status: ('A' for Active; 'I' for Inactive)
REMARK    1  A    between atoms: N_2  and  C1_3 
ROOT
ATOM      1  C1  UNL d   1       5.684   1.926   0.083  0.00  0.00     0.143 A 
ATOM      2  C2  UNL d   1       5.826   0.544   0.247  0.00  0.00    -0.057 A 
ATOM      3  C3  UNL d   1       5.996  -0.304  -0.854  0.00  0.00     0.033 A 
ATOM      4  C4  UNL d   1       5.999   0.214  -2.145  0.00  0.00    -0.042 A 
ATOM      5  C5  UNL d   1       5.835   1.582  -2.333  0.00  0.00     0.033 A 
ATOM      6  C6  UNL d   1       5.671   2.424  -1.229  0.00  0.00    -0.057 A 
ENDROOT
BRANCH   1   7
ATOM      7  N   UNL d   1       5.412   2.810   1.130  0.00  0.00    -0.732 N 
ATOM      8  C   UNL d   1       6.000   4.132   1.150  0.00  0.00     0.284 C 
ATOM      9  H3  UNL d   1       4.436   2.784   1.417  0.00  0.00     0.395 HD
ENDBRANCH   1   7
TORSDOF 1
ENDMDL
