MODEL 1
REMARK minimizedAffinity 10.6893044
REMARK minimizedRMSD -1
REMARK  1 active torsions:
REMARK  status: ('A' for Active; 'I' for Inactive)
REMARK    1  A    between atoms: N_2  and  C1_3 
ROOT
ATOM      1  C1  UNL d   1       3.795  -2.632   0.329  0.00  0.00     0.143 A 
ATOM      2  C2  UNL d   1       3.059  -3.691  -0.213  0.00  0.00    -0.057 A 
ATOM      3  C3  UNL d   1       1.694  -3.841   0.059  0.00  0.00     0.033 A 
ATOM      4  C4  UNL d   1       1.045  -2.947   0.905  0.00  0.00    -0.042 A 
ATOM      5  C5  UNL d   1       1.762  -1.901   1.475  0.00  0.00     0.033 A 
ATOM      6  C6  UNL d   1       3.123  -1.753   1.194  0.00  0.00    -0.057 A 
ENDROOT
BRANCH   1   7
ATOM      7  N   UNL d   1       5.176  -2.485   0.176  0.00  0.00    -0.732 N 
ATOM      8  C   UNL d   1       5.732  -1.259  -0.354  0.00  0.00     0.284 C 
ATOM      9  H3  UNL d   1       5.697  -2.874   0.958  0.00  0.00     0.395 HD
ENDBRANCH   1   7
TORSDOF 1
ENDMDL
