MODEL 1
REMARK minimizedAffinity 9.59529495
REMARK minimizedRMSD -1
REMARK  1 active torsions:
REMARK  status: ('A' for Active; 'I' for Inactive)
REMARK    1  A    between atoms: N_2  and  C1_3 
ROOT
ATOM      1  C1  UNL d   1       2.128  -0.982   2.249  0.00  0.00     0.143 A 
ATOM      2  C2  UNL d   1       3.029  -1.218   1.204  0.00  0.00    -0.057 A 
ATOM      3  C3  UNL d   1       2.645  -1.930   0.061  0.00  0.00     0.033 A 
ATOM      4  C4  UNL d   1       1.358  -2.446  -0.044  0.00  0.00    -0.042 A 
ATOM      5  C5  UNL d   1       0.453  -2.246   0.993  0.00  0.00     0.033 A 
ATOM      6  C6  UNL d   1       0.841  -1.528   2.129  0.00  0.00    -0.057 A 
ENDROOT
BRANCH   1   7
ATOM      7  N   UNL d   1       2.478  -0.367   3.453  0.00  0.00    -0.732 N 
ATOM      8  C   UNL d   1       3.345  -1.037   4.399  0.00  0.00     0.284 C 
ATOM      9  H3  UNL d   1       2.674   0.625   3.340  0.00  0.00     0.395 HD
ENDBRANCH   1   7
TORSDOF 1
ENDMDL
