MODEL 1
REMARK minimizedAffinity 11.9909801
REMARK minimizedRMSD -1
REMARK  3 active torsions:
REMARK  status: ('A' for Active; 'I' for Inactive)
REMARK    1  A    between atoms: C3'_2  and  C2'_3 
REMARK    2  A    between atoms: C2'_3  and  C1'_4 
REMARK    3  A    between atoms: C1'_4  and  C1_5 
ROOT
ATOM      1  C1  N4B d   1      -0.987  -1.786   1.639  0.00  0.00    -0.075 A 
ATOM      2  C2  N4B d   1      -0.931  -2.037   3.028  0.00  0.00     0.002 A 
ATOM      3  C3  N4B d   1      -1.131  -1.011   3.919  0.00  0.00     0.002 A 
ATOM      4  C4  N4B d   1      -1.370   0.271   3.447  0.00  0.00    -0.004 A 
ATOM      5  C5  N4B d   1      -1.448   0.500   2.104  0.00  0.00     0.002 A 
ATOM      6  C6  N4B d   1      -1.253  -0.522   1.197  0.00  0.00     0.002 A 
ENDROOT
BRANCH   1   7
ATOM      7  C1' N4B d   1      -0.690  -2.858   0.626  0.00  0.00     0.057 C 
BRANCH   7   8
ATOM      8  C2' N4B d   1      -0.645  -4.212   1.328  0.00  0.00     0.009 C 
BRANCH   8   9
ATOM      9  C3' N4B d   1      -1.027  -5.348   0.395  0.00  0.00     0.004 C 
ATOM     10  C4' N4B d   1      -1.010  -4.945  -1.049  0.00  0.00     0.003 C 
ENDBRANCH   8   9
ENDBRANCH   7   8
ENDBRANCH   1   7
TORSDOF 3
ENDMDL
