MODEL 1
REMARK minimizedAffinity 6.01913643
REMARK minimizedRMSD -1
REMARK  3 active torsions:
REMARK  status: ('A' for Active; 'I' for Inactive)
REMARK    1  A    between atoms: C3'_2  and  C2'_3 
REMARK    2  A    between atoms: C2'_3  and  C1'_4 
REMARK    3  A    between atoms: C1'_4  and  C1_5 
ROOT
ATOM      1  C1  N4B d   1      -0.934  -2.906   1.308  0.00  0.00    -0.075 A 
ATOM      2  C2  N4B d   1      -1.115  -3.396  -0.005  0.00  0.00     0.002 A 
ATOM      3  C3  N4B d   1      -1.845  -2.671  -0.914  0.00  0.00     0.002 A 
ATOM      4  C4  N4B d   1      -2.417  -1.467  -0.531  0.00  0.00    -0.004 A 
ATOM      5  C5  N4B d   1      -2.217  -0.989   0.731  0.00  0.00     0.002 A 
ATOM      6  C6  N4B d   1      -1.482  -1.705   1.654  0.00  0.00     0.002 A 
ENDROOT
BRANCH   1   7
ATOM      7  C1' N4B d   1      -0.217  -3.704   2.362  0.00  0.00     0.057 C 
BRANCH   7   8
ATOM      8  C2' N4B d   1      -0.570  -5.180   2.199  0.00  0.00     0.009 C 
BRANCH   8   9
ATOM      9  C3' N4B d   1      -0.156  -5.999   3.409  0.00  0.00     0.004 C 
ATOM     10  C4' N4B d   1      -0.925  -5.640   4.645  0.00  0.00     0.003 C 
ENDBRANCH   8   9
ENDBRANCH   7   8
ENDBRANCH   1   7
TORSDOF 3
ENDMDL
