MODEL 1
REMARK minimizedAffinity 12.5308294
REMARK minimizedRMSD -1
REMARK  3 active torsions:
REMARK  status: ('A' for Active; 'I' for Inactive)
REMARK    1  A    between atoms: C3'_2  and  C2'_3 
REMARK    2  A    between atoms: C2'_3  and  C1'_4 
REMARK    3  A    between atoms: C1'_4  and  C1_5 
ROOT
ATOM      1  C1  N4B d   1      -0.761  -2.186   2.570  0.00  0.00    -0.075 A 
ATOM      2  C2  N4B d   1      -0.668  -3.579   2.356  0.00  0.00     0.002 A 
ATOM      3  C3  N4B d   1      -0.785  -4.088   1.085  0.00  0.00     0.002 A 
ATOM      4  C4  N4B d   1      -1.014  -3.229   0.021  0.00  0.00    -0.004 A 
ATOM      5  C5  N4B d   1      -1.077  -1.883   0.233  0.00  0.00     0.002 A 
ATOM      6  C6  N4B d   1      -0.957  -1.357   1.503  0.00  0.00     0.002 A 
ENDROOT
BRANCH   1   7
ATOM      7  C1' N4B d   1      -0.725  -1.591   3.950  0.00  0.00     0.057 C 
BRANCH   7   8
ATOM      8  C2' N4B d   1      -1.907  -0.640   4.117  0.00  0.00     0.009 C 
BRANCH   8   9
ATOM      9  C3' N4B d   1      -1.460   0.808   4.229  0.00  0.00     0.004 C 
ATOM     10  C4' N4B d   1      -1.530   1.540   2.922  0.00  0.00     0.003 C 
ENDBRANCH   8   9
ENDBRANCH   7   8
ENDBRANCH   1   7
TORSDOF 3
ENDMDL
