MODEL 1
REMARK minimizedAffinity 5.49761868
REMARK minimizedRMSD -1
REMARK  3 active torsions:
REMARK  status: ('A' for Active; 'I' for Inactive)
REMARK    1  A    between atoms: C3'_2  and  C2'_3 
REMARK    2  A    between atoms: C2'_3  and  C1'_4 
REMARK    3  A    between atoms: C1'_4  and  C1_5 
ROOT
ATOM      1  C1  N4B d   1      -1.880  -2.155   0.936  0.00  0.00    -0.075 A 
ATOM      2  C2  N4B d   1      -1.197  -2.824   1.976  0.00  0.00     0.002 A 
ATOM      3  C3  N4B d   1      -0.572  -4.022   1.727  0.00  0.00     0.002 A 
ATOM      4  C4  N4B d   1      -0.634  -4.577   0.458  0.00  0.00    -0.004 A 
ATOM      5  C5  N4B d   1      -1.274  -3.912  -0.547  0.00  0.00     0.002 A 
ATOM      6  C6  N4B d   1      -1.902  -2.705  -0.312  0.00  0.00     0.002 A 
ENDROOT
BRANCH   1   7
ATOM      7  C1' N4B d   1      -2.650  -0.886   1.180  0.00  0.00     0.057 C 
BRANCH   7   8
ATOM      8  C2' N4B d   1      -4.108  -1.101   0.785  0.00  0.00     0.009 C 
BRANCH   8   9
ATOM      9  C3' N4B d   1      -4.868  -1.902   1.828  0.00  0.00     0.004 C 
ATOM     10  C4' N4B d   1      -6.000  -2.693   1.243  0.00  0.00     0.003 C 
ENDBRANCH   8   9
ENDBRANCH   7   8
ENDBRANCH   1   7
TORSDOF 3
ENDMDL
