MODEL 1
REMARK minimizedAffinity 5.86090899
REMARK minimizedRMSD -1
REMARK  3 active torsions:
REMARK  status: ('A' for Active; 'I' for Inactive)
REMARK    1  A    between atoms: C3'_2  and  C2'_3 
REMARK    2  A    between atoms: C2'_3  and  C1'_4 
REMARK    3  A    between atoms: C1'_4  and  C1_5 
ROOT
ATOM      1  C1  N4B d   1      -1.045  -3.692   1.043  0.00  0.00    -0.075 A 
ATOM      2  C2  N4B d   1      -1.049  -2.847  -0.089  0.00  0.00     0.002 A 
ATOM      3  C3  N4B d   1      -1.298  -1.504   0.057  0.00  0.00     0.002 A 
ATOM      4  C4  N4B d   1      -1.563  -0.989   1.317  0.00  0.00    -0.004 A 
ATOM      5  C5  N4B d   1      -1.533  -1.808   2.409  0.00  0.00     0.002 A 
ATOM      6  C6  N4B d   1      -1.280  -3.158   2.277  0.00  0.00     0.002 A 
ENDROOT
BRANCH   1   7
ATOM      7  C1' N4B d   1      -0.862  -5.180   0.922  0.00  0.00     0.057 C 
BRANCH   7   8
ATOM      8  C2' N4B d   1      -1.707  -5.876   1.985  0.00  0.00     0.009 C 
BRANCH   8   9
ATOM      9  C3' N4B d   1      -1.041  -5.847   3.350  0.00  0.00     0.004 C 
ATOM     10  C4' N4B d   1       0.449  -5.998   3.272  0.00  0.00     0.003 C 
ENDBRANCH   8   9
ENDBRANCH   7   8
ENDBRANCH   1   7
TORSDOF 3
ENDMDL
