MODEL 1
REMARK minimizedAffinity 6.24599981
REMARK minimizedRMSD -1
REMARK  3 active torsions:
REMARK  status: ('A' for Active; 'I' for Inactive)
REMARK    1  A    between atoms: C3'_2  and  C2'_3 
REMARK    2  A    between atoms: C2'_3  and  C1'_4 
REMARK    3  A    between atoms: C1'_4  and  C1_5 
ROOT
ATOM      1  C1  N4B d   1      -1.389  -2.462   0.025  0.00  0.00    -0.075 A 
ATOM      2  C2  N4B d   1      -2.322  -1.431  -0.222  0.00  0.00     0.002 A 
ATOM      3  C3  N4B d   1      -2.799  -1.227  -1.493  0.00  0.00     0.002 A 
ATOM      4  C4  N4B d   1      -2.346  -2.025  -2.532  0.00  0.00    -0.004 A 
ATOM      5  C5  N4B d   1      -1.464  -3.035  -2.281  0.00  0.00     0.002 A 
ATOM      6  C6  N4B d   1      -0.979  -3.255  -1.008  0.00  0.00     0.002 A 
ENDROOT
BRANCH   1   7
ATOM      7  C1' N4B d   1      -0.773  -2.668   1.382  0.00  0.00     0.057 C 
BRANCH   7   8
ATOM      8  C2' N4B d   1      -1.070  -1.454   2.257  0.00  0.00     0.009 C 
BRANCH   8   9
ATOM      9  C3' N4B d   1      -1.097  -1.810   3.733  0.00  0.00     0.004 C 
ATOM     10  C4' N4B d   1      -1.339  -0.620   4.613  0.00  0.00     0.003 C 
ENDBRANCH   8   9
ENDBRANCH   7   8
ENDBRANCH   1   7
TORSDOF 3
ENDMDL
