MODEL 1
REMARK minimizedAffinity 12.5344954
REMARK minimizedRMSD -1
REMARK  3 active torsions:
REMARK  status: ('A' for Active; 'I' for Inactive)
REMARK    1  A    between atoms: C3'_2  and  C2'_3 
REMARK    2  A    between atoms: C2'_3  and  C1'_4 
REMARK    3  A    between atoms: C1'_4  and  C1_5 
ROOT
ATOM      1  C1  N4B d   1      -1.464  -0.566   2.140  0.00  0.00    -0.075 A 
ATOM      2  C2  N4B d   1      -1.227  -0.910   0.791  0.00  0.00     0.002 A 
ATOM      3  C3  N4B d   1      -0.868  -2.194   0.462  0.00  0.00     0.002 A 
ATOM      4  C4  N4B d   1      -0.722  -3.143   1.463  0.00  0.00    -0.004 A 
ATOM      5  C5  N4B d   1      -0.977  -2.809   2.761  0.00  0.00     0.002 A 
ATOM      6  C6  N4B d   1      -1.343  -1.524   3.106  0.00  0.00     0.002 A 
ENDROOT
BRANCH   1   7
ATOM      7  C1' N4B d   1      -1.775   0.845   2.558  0.00  0.00     0.057 C 
BRANCH   7   8
ATOM      8  C2' N4B d   1      -1.600   1.772   1.358  0.00  0.00     0.009 C 
BRANCH   8   9
ATOM      9  C3' N4B d   1      -2.827   2.637   1.125  0.00  0.00     0.004 C 
ATOM     10  C4' N4B d   1      -3.989   1.862   0.581  0.00  0.00     0.003 C 
ENDBRANCH   8   9
ENDBRANCH   7   8
ENDBRANCH   1   7
TORSDOF 3
ENDMDL
