MODEL 1
REMARK minimizedAffinity 4.30903292
REMARK minimizedRMSD -1
REMARK  3 active torsions:
REMARK  status: ('A' for Active; 'I' for Inactive)
REMARK    1  A    between atoms: C3'_2  and  C2'_3 
REMARK    2  A    between atoms: C2'_3  and  C1'_4 
REMARK    3  A    between atoms: C1'_4  and  C1_5 
ROOT
ATOM      1  C1  N4B d   1      -1.821  -2.271  -0.305  0.00  0.00    -0.075 A 
ATOM      2  C2  N4B d   1      -1.293  -3.566  -0.501  0.00  0.00     0.002 A 
ATOM      3  C3  N4B d   1      -0.711  -4.236   0.548  0.00  0.00     0.002 A 
ATOM      4  C4  N4B d   1      -0.631  -3.627   1.791  0.00  0.00    -0.004 A 
ATOM      5  C5  N4B d   1      -1.166  -2.386   1.978  0.00  0.00     0.002 A 
ATOM      6  C6  N4B d   1      -1.757  -1.703   0.934  0.00  0.00     0.002 A 
ENDROOT
BRANCH   1   7
ATOM      7  C1' N4B d   1      -2.389  -1.465  -1.441  0.00  0.00     0.057 C 
BRANCH   7   8
ATOM      8  C2' N4B d   1      -2.639  -2.385  -2.632  0.00  0.00     0.009 C 
BRANCH   8   9
ATOM      9  C3' N4B d   1      -1.575  -2.227  -3.705  0.00  0.00     0.004 C 
ATOM     10  C4' N4B d   1      -0.485  -1.278  -3.307  0.00  0.00     0.003 C 
ENDBRANCH   8   9
ENDBRANCH   7   8
ENDBRANCH   1   7
TORSDOF 3
ENDMDL
