MODEL 1
REMARK minimizedAffinity 2.61168408
REMARK minimizedRMSD -1
REMARK  3 active torsions:
REMARK  status: ('A' for Active; 'I' for Inactive)
REMARK    1  A    between atoms: C3'_2  and  C2'_3 
REMARK    2  A    between atoms: C2'_3  and  C1'_4 
REMARK    3  A    between atoms: C1'_4  and  C1_5 
ROOT
ATOM      1  C1  N4B d   1      -3.180  -1.387   5.566  0.00  0.00    -0.075 A 
ATOM      2  C2  N4B d   1      -1.883  -0.957   5.923  0.00  0.00     0.002 A 
ATOM      3  C3  N4B d   1      -0.792  -1.729   5.605  0.00  0.00     0.002 A 
ATOM      4  C4  N4B d   1      -0.975  -2.937   4.950  0.00  0.00    -0.004 A 
ATOM      5  C5  N4B d   1      -2.229  -3.333   4.586  0.00  0.00     0.002 A 
ATOM      6  C6  N4B d   1      -3.334  -2.565   4.895  0.00  0.00     0.002 A 
ENDROOT
BRANCH   1   7
ATOM      7  C1' N4B d   1      -4.410  -0.619   5.968  0.00  0.00     0.057 C 
BRANCH   7   8
ATOM      8  C2' N4B d   1      -4.081   0.871   5.999  0.00  0.00     0.009 C 
BRANCH   8   9
ATOM      9  C3' N4B d   1      -5.334   1.730   5.975  0.00  0.00     0.004 C 
ATOM     10  C4' N4B d   1      -5.032   3.198   5.969  0.00  0.00     0.003 C 
ENDBRANCH   8   9
ENDBRANCH   7   8
ENDBRANCH   1   7
TORSDOF 3
ENDMDL
