MODEL 1
REMARK minimizedAffinity 10.2981033
REMARK minimizedRMSD -1
REMARK  1 active torsions:
REMARK  status: ('A' for Active; 'I' for Inactive)
REMARK    1  A    between atoms: C1_2  and  C2_3 
ROOT
ATOM      1  C2  UNL d   1      -1.345  -2.058  -0.895  0.00  0.00    -0.076 A 
ATOM      2  C3  UNL d   1      -2.503  -1.462  -0.367  0.00  0.00     0.004 A 
ATOM      3  C4  UNL d   1      -2.731  -1.431   1.008  0.00  0.00    -0.003 A 
ATOM      4  C5  UNL d   1      -1.803  -1.994   1.877  0.00  0.00     0.000 A 
ATOM      5  C6  UNL d   1      -0.640  -2.574   1.372  0.00  0.00     0.000 A 
ATOM      6  C7  UNL d   1      -0.387  -2.599  -0.011  0.00  0.00    -0.073 A 
ATOM      7  C8  UNL d   1       0.881  -3.242  -0.501  0.00  0.00     0.078 C 
ENDROOT
BRANCH   1   8
ATOM      8  C1  UNL d   1      -1.165  -2.086  -2.396  0.00  0.00     0.053 C 
ATOM      9  C   UNL d   1      -1.785  -3.319  -3.034  0.00  0.00     0.018 C 
ENDBRANCH   1   8
TORSDOF 1
ENDMDL
