MODEL 1
REMARK minimizedAffinity 11.0939302
REMARK minimizedRMSD -1
REMARK  1 active torsions:
REMARK  status: ('A' for Active; 'I' for Inactive)
REMARK    1  A    between atoms: C1_2  and  C2_3 
ROOT
ATOM      1  C2  UNL d   1      -2.055  -4.075  -3.592  0.00  0.00    -0.076 A 
ATOM      2  C3  UNL d   1      -2.394  -4.506  -4.887  0.00  0.00     0.004 A 
ATOM      3  C4  UNL d   1      -2.199  -3.679  -5.992  0.00  0.00    -0.003 A 
ATOM      4  C5  UNL d   1      -1.662  -2.408  -5.821  0.00  0.00     0.000 A 
ATOM      5  C6  UNL d   1      -1.303  -1.971  -4.546  0.00  0.00     0.000 A 
ATOM      6  C7  UNL d   1      -1.478  -2.798  -3.423  0.00  0.00    -0.073 A 
ATOM      7  C8  UNL d   1      -1.080  -2.273  -2.071  0.00  0.00     0.078 C 
ENDROOT
BRANCH   1   8
ATOM      8  C1  UNL d   1      -2.315  -5.005  -2.429  0.00  0.00     0.053 C 
ATOM      9  C   UNL d   1      -1.114  -5.879  -2.103  0.00  0.00     0.018 C 
ENDBRANCH   1   8
TORSDOF 1
ENDMDL
