MODEL 1
REMARK minimizedAffinity 5.68451881
REMARK minimizedRMSD -1
REMARK  1 active torsions:
REMARK  status: ('A' for Active; 'I' for Inactive)
REMARK    1  A    between atoms: C1_2  and  C2_3 
ROOT
ATOM      1  C2  UNL d   1      -0.967  -2.789  -4.852  0.00  0.00    -0.076 A 
ATOM      2  C3  UNL d   1       0.428  -2.954  -4.877  0.00  0.00     0.004 A 
ATOM      3  C4  UNL d   1       1.007  -4.087  -5.446  0.00  0.00    -0.003 A 
ATOM      4  C5  UNL d   1       0.198  -5.074  -6.000  0.00  0.00     0.000 A 
ATOM      5  C6  UNL d   1      -1.187  -4.918  -6.000  0.00  0.00     0.000 A 
ATOM      6  C7  UNL d   1      -1.786  -3.774  -5.445  0.00  0.00    -0.073 A 
ATOM      7  C8  UNL d   1      -3.285  -3.661  -5.467  0.00  0.00     0.078 C 
ENDROOT
BRANCH   1   8
ATOM      8  C1  UNL d   1      -1.539  -1.552  -4.197  0.00  0.00     0.053 C 
ATOM      9  C   UNL d   1      -1.837  -1.759  -2.720  0.00  0.00     0.018 C 
ENDBRANCH   1   8
TORSDOF 1
ENDMDL
