MODEL 1
REMARK minimizedAffinity -0.49184975
REMARK minimizedRMSD -1
REMARK  1 active torsions:
REMARK  status: ('A' for Active; 'I' for Inactive)
REMARK    1  A    between atoms: C1_2  and  C2_3 
ROOT
ATOM      1  C2  UNL d   1       4.500   2.306  -4.750  0.00  0.00    -0.076 A 
ATOM      2  C3  UNL d   1       4.268   2.998  -3.549  0.00  0.00     0.004 A 
ATOM      3  C4  UNL d   1       4.883   2.603  -2.362  0.00  0.00    -0.003 A 
ATOM      4  C5  UNL d   1       5.741   1.509  -2.358  0.00  0.00     0.000 A 
ATOM      5  C6  UNL d   1       5.997   0.821  -3.544  0.00  0.00     0.000 A 
ATOM      6  C7  UNL d   1       5.397   1.217  -4.752  0.00  0.00    -0.073 A 
ATOM      7  C8  UNL d   1       5.704   0.436  -6.000  0.00  0.00     0.078 C 
ENDROOT
BRANCH   1   8
ATOM      8  C1  UNL d   1       3.783   2.765  -6.000  0.00  0.00     0.053 C 
ATOM      9  C   UNL d   1       3.492   4.257  -5.991  0.00  0.00     0.018 C 
ENDBRANCH   1   8
TORSDOF 1
ENDMDL
