MODEL 1
REMARK minimizedAffinity 11.3262033
REMARK minimizedRMSD -1
REMARK  1 active torsions:
REMARK  status: ('A' for Active; 'I' for Inactive)
REMARK    1  A    between atoms: C1_2  and  C2_3 
ROOT
ATOM      1  C2  UNL d   1      -1.504  -1.747  -0.966  0.00  0.00    -0.076 A 
ATOM      2  C3  UNL d   1      -2.718  -1.282  -0.431  0.00  0.00     0.004 A 
ATOM      3  C4  UNL d   1      -2.949  -1.298   0.943  0.00  0.00    -0.003 A 
ATOM      4  C5  UNL d   1      -1.970  -1.779   1.805  0.00  0.00     0.000 A 
ATOM      5  C6  UNL d   1      -0.753  -2.228   1.294  0.00  0.00     0.000 A 
ATOM      6  C7  UNL d   1      -0.498  -2.204  -0.088  0.00  0.00    -0.073 A 
ATOM      7  C8  UNL d   1       0.830  -2.706  -0.586  0.00  0.00     0.078 C 
ENDROOT
BRANCH   1   8
ATOM      8  C1  UNL d   1      -1.320  -1.731  -2.467  0.00  0.00     0.053 C 
ATOM      9  C   UNL d   1      -1.944  -2.941  -3.144  0.00  0.00     0.018 C 
ENDBRANCH   1   8
TORSDOF 1
ENDMDL
