MODEL 1
REMARK minimizedAffinity 4.8835659
REMARK minimizedRMSD -1
REMARK  1 active torsions:
REMARK  status: ('A' for Active; 'I' for Inactive)
REMARK    1  A    between atoms: C1_2  and  C2_3 
ROOT
ATOM      1  C2  UNL d   1       2.249   3.915  -3.603  0.00  0.00    -0.076 A 
ATOM      2  C3  UNL d   1       1.857   5.265  -3.615  0.00  0.00     0.004 A 
ATOM      3  C4  UNL d   1       1.854   6.000  -4.800  0.00  0.00    -0.003 A 
ATOM      4  C5  UNL d   1       2.241   5.397  -5.991  0.00  0.00     0.000 A 
ATOM      5  C6  UNL d   1       2.616   4.053  -6.000  0.00  0.00     0.000 A 
ATOM      6  C7  UNL d   1       2.610   3.294  -4.818  0.00  0.00    -0.073 A 
ATOM      7  C8  UNL d   1       3.029   1.851  -4.884  0.00  0.00     0.078 C 
ENDROOT
BRANCH   1   8
ATOM      8  C1  UNL d   1       2.259   3.176  -2.284  0.00  0.00     0.053 C 
ATOM      9  C   UNL d   1       3.559   3.368  -1.518  0.00  0.00     0.018 C 
ENDBRANCH   1   8
TORSDOF 1
ENDMDL
