MODEL 1
REMARK minimizedAffinity -3.08486485
REMARK minimizedRMSD -1
REMARK  1 active torsions:
REMARK  status: ('A' for Active; 'I' for Inactive)
REMARK    1  A    between atoms: C1_2  and  C2_3 
ROOT
ATOM      1  C2  UNL d   1       3.893   4.683  -5.332  0.00  0.00    -0.076 A 
ATOM      2  C3  UNL d   1       4.531   3.478  -5.674  0.00  0.00     0.004 A 
ATOM      3  C4  UNL d   1       3.792   2.341  -5.995  0.00  0.00    -0.003 A 
ATOM      4  C5  UNL d   1       2.402   2.391  -5.980  0.00  0.00     0.000 A 
ATOM      5  C6  UNL d   1       1.753   3.582  -5.660  0.00  0.00     0.000 A 
ATOM      6  C7  UNL d   1       2.483   4.742  -5.350  0.00  0.00    -0.073 A 
ATOM      7  C8  UNL d   1       1.731   5.999  -5.006  0.00  0.00     0.078 C 
ENDROOT
BRANCH   1   8
ATOM      8  C1  UNL d   1       4.747   5.876  -4.967  0.00  0.00     0.053 C 
ATOM      9  C   UNL d   1       5.992   5.989  -5.833  0.00  0.00     0.018 C 
ENDBRANCH   1   8
TORSDOF 1
ENDMDL
