MODEL 1
REMARK minimizedAffinity 10.7866316
REMARK minimizedRMSD -1
REMARK  1 active torsions:
REMARK  status: ('A' for Active; 'I' for Inactive)
REMARK    1  A    between atoms: C1_2  and  C2_3 
ROOT
ATOM      1  C2  UNL d   1       0.557  -0.104   2.764  0.00  0.00    -0.076 A 
ATOM      2  C3  UNL d   1       0.186  -0.913   1.676  0.00  0.00     0.004 A 
ATOM      3  C4  UNL d   1      -0.909  -1.771   1.760  0.00  0.00    -0.003 A 
ATOM      4  C5  UNL d   1      -1.652  -1.833   2.933  0.00  0.00     0.000 A 
ATOM      5  C6  UNL d   1      -1.309  -1.025   4.017  0.00  0.00     0.000 A 
ATOM      6  C7  UNL d   1      -0.218  -0.143   3.943  0.00  0.00    -0.073 A 
ATOM      7  C8  UNL d   1       0.111   0.701   5.144  0.00  0.00     0.078 C 
ENDROOT
BRANCH   1   8
ATOM      8  C1  UNL d   1       1.770   0.787   2.624  0.00  0.00     0.053 C 
ATOM      9  C   UNL d   1       1.601   1.836   1.535  0.00  0.00     0.018 C 
ENDBRANCH   1   8
TORSDOF 1
ENDMDL
