MODEL 1
REMARK minimizedAffinity 1.92763865
REMARK minimizedRMSD -1
REMARK  1 active torsions:
REMARK  status: ('A' for Active; 'I' for Inactive)
REMARK    1  A    between atoms: C1_2  and  C2_3 
ROOT
ATOM      1  C2  UNL d   1       4.508   2.427  -5.276  0.00  0.00    -0.076 A 
ATOM      2  C3  UNL d   1       4.057   1.144  -5.631  0.00  0.00     0.004 A 
ATOM      3  C4  UNL d   1       4.575   0.005  -5.016  0.00  0.00    -0.003 A 
ATOM      4  C5  UNL d   1       5.553   0.131  -4.036  0.00  0.00     0.000 A 
ATOM      5  C6  UNL d   1       6.000   1.397  -3.658  0.00  0.00     0.000 A 
ATOM      6  C7  UNL d   1       5.476   2.556  -4.257  0.00  0.00    -0.073 A 
ATOM      7  C8  UNL d   1       5.999   3.895  -3.815  0.00  0.00     0.078 C 
ENDROOT
BRANCH   1   8
ATOM      8  C1  UNL d   1       3.929   3.623  -5.996  0.00  0.00     0.053 C 
ATOM      9  C   UNL d   1       2.409   3.624  -5.996  0.00  0.00     0.018 C 
ENDBRANCH   1   8
TORSDOF 1
ENDMDL
