MODEL 1
REMARK minimizedAffinity -3.59874725
REMARK minimizedRMSD -1
REMARK  1 active torsions:
REMARK  status: ('A' for Active; 'I' for Inactive)
REMARK    1  A    between atoms: C1_2  and  C2_3 
ROOT
ATOM      1  C2  UNL d   1       4.111   3.193  -5.563  0.00  0.00    -0.076 A 
ATOM      2  C3  UNL d   1       5.316   3.871  -5.306  0.00  0.00     0.004 A 
ATOM      3  C4  UNL d   1       5.358   5.263  -5.250  0.00  0.00    -0.003 A 
ATOM      4  C5  UNL d   1       4.196   6.000  -5.450  0.00  0.00     0.000 A 
ATOM      5  C6  UNL d   1       2.989   5.344  -5.689  0.00  0.00     0.000 A 
ATOM      6  C7  UNL d   1       2.926   3.941  -5.732  0.00  0.00    -0.073 A 
ATOM      7  C8  UNL d   1       1.599   3.286  -6.000  0.00  0.00     0.078 C 
ENDROOT
BRANCH   1   8
ATOM      8  C1  UNL d   1       4.131   1.683  -5.639  0.00  0.00     0.053 C 
ATOM      9  C   UNL d   1       5.020   1.058  -4.575  0.00  0.00     0.018 C 
ENDBRANCH   1   8
TORSDOF 1
ENDMDL
