MODEL 1
REMARK minimizedAffinity 6.77762127
REMARK minimizedRMSD -1
REMARK  3 active torsions:
REMARK  status: ('A' for Active; 'I' for Inactive)
REMARK    1  A    between atoms: C3'_2  and  C2'_3 
REMARK    2  A    between atoms: C2'_3  and  C1'_4 
REMARK    3  A    between atoms: C1'_4  and  C1_5 
ROOT
ATOM      1  C1  N4B d   1       2.813  -2.276   1.731  0.00  0.00    -0.075 A 
ATOM      2  C2  N4B d   1       2.116  -1.470   2.658  0.00  0.00     0.002 A 
ATOM      3  C3  N4B d   1       0.833  -1.065   2.387  0.00  0.00     0.002 A 
ATOM      4  C4  N4B d   1       0.234  -1.435   1.192  0.00  0.00    -0.004 A 
ATOM      5  C5  N4B d   1       0.905  -2.235   0.313  0.00  0.00     0.002 A 
ATOM      6  C6  N4B d   1       2.194  -2.653   0.574  0.00  0.00     0.002 A 
ENDROOT
BRANCH   1   7
ATOM      7  C1' N4B d   1       4.248  -2.673   1.944  0.00  0.00     0.057 C 
BRANCH   7   8
ATOM      8  C2' N4B d   1       4.394  -3.300   3.328  0.00  0.00     0.009 C 
BRANCH   8   9
ATOM      9  C3' N4B d   1       5.238  -2.442   4.254  0.00  0.00     0.004 C 
ATOM     10  C4' N4B d   1       5.012  -2.757   5.703  0.00  0.00     0.003 C 
ENDBRANCH   8   9
ENDBRANCH   7   8
ENDBRANCH   1   7
TORSDOF 3
ENDMDL
