MODEL 1
REMARK minimizedAffinity 3.95610332
REMARK minimizedRMSD -1
REMARK  3 active torsions:
REMARK  status: ('A' for Active; 'I' for Inactive)
REMARK    1  A    between atoms: C3'_2  and  C2'_3 
REMARK    2  A    between atoms: C2'_3  and  C1'_4 
REMARK    3  A    between atoms: C1'_4  and  C1_5 
ROOT
ATOM      1  C1  N4B d   1       2.265   3.621  -5.856  0.00  0.00    -0.075 A 
ATOM      2  C2  N4B d   1       3.676   3.613  -5.930  0.00  0.00     0.002 A 
ATOM      3  C3  N4B d   1       4.369   4.799  -5.941  0.00  0.00     0.002 A 
ATOM      4  C4  N4B d   1       3.676   5.999  -5.899  0.00  0.00    -0.004 A 
ATOM      5  C5  N4B d   1       2.315   5.998  -5.803  0.00  0.00     0.002 A 
ATOM      6  C6  N4B d   1       1.605   4.814  -5.786  0.00  0.00     0.002 A 
ENDROOT
BRANCH   1   7
ATOM      7  C1' N4B d   1       1.459   2.353  -5.928  0.00  0.00     0.057 C 
BRANCH   7   8
ATOM      8  C2' N4B d   1       2.405   1.156  -5.894  0.00  0.00     0.009 C 
BRANCH   8   9
ATOM      9  C3' N4B d   1       3.678   1.459  -5.122  0.00  0.00     0.004 C 
ATOM     10  C4' N4B d   1       4.886   0.792  -5.708  0.00  0.00     0.003 C 
ENDBRANCH   8   9
ENDBRANCH   7   8
ENDBRANCH   1   7
TORSDOF 3
ENDMDL
