MODEL 1
REMARK minimizedAffinity 1.84013128
REMARK minimizedRMSD -1
REMARK  3 active torsions:
REMARK  status: ('A' for Active; 'I' for Inactive)
REMARK    1  A    between atoms: C3'_2  and  C2'_3 
REMARK    2  A    between atoms: C2'_3  and  C1'_4 
REMARK    3  A    between atoms: C1'_4  and  C1_5 
ROOT
ATOM      1  C1  N4B d   1       3.183   3.732  -5.932  0.00  0.00    -0.075 A 
ATOM      2  C2  N4B d   1       4.514   3.263  -5.897  0.00  0.00     0.002 A 
ATOM      3  C3  N4B d   1       5.557   4.156  -5.917  0.00  0.00     0.002 A 
ATOM      4  C4  N4B d   1       5.295   5.516  -5.990  0.00  0.00    -0.004 A 
ATOM      5  C5  N4B d   1       4.006   5.962  -5.998  0.00  0.00     0.002 A 
ATOM      6  C6  N4B d   1       2.947   5.076  -5.974  0.00  0.00     0.002 A 
ENDROOT
BRANCH   1   7
ATOM      7  C1' N4B d   1       2.011   2.791  -5.999  0.00  0.00     0.057 C 
BRANCH   7   8
ATOM      8  C2' N4B d   1       0.789   3.468  -5.385  0.00  0.00     0.009 C 
BRANCH   8   9
ATOM      9  C3' N4B d   1      -0.294   2.466  -5.023  0.00  0.00     0.004 C 
ATOM     10  C4' N4B d   1      -1.369   3.059  -4.162  0.00  0.00     0.003 C 
ENDBRANCH   8   9
ENDBRANCH   7   8
ENDBRANCH   1   7
TORSDOF 3
ENDMDL
