MODEL 1
REMARK minimizedAffinity -2.19085121
REMARK minimizedRMSD -1
REMARK  3 active torsions:
REMARK  status: ('A' for Active; 'I' for Inactive)
REMARK    1  A    between atoms: C3'_2  and  C2'_3 
REMARK    2  A    between atoms: C2'_3  and  C1'_4 
REMARK    3  A    between atoms: C1'_4  and  C1_5 
ROOT
ATOM      1  C1  N4B d   1       4.318  -4.356   3.471  0.00  0.00    -0.075 A 
ATOM      2  C2  N4B d   1       4.233  -5.193   4.606  0.00  0.00     0.002 A 
ATOM      3  C3  N4B d   1       4.450  -4.674   5.859  0.00  0.00     0.002 A 
ATOM      4  C4  N4B d   1       4.769  -3.332   6.000  0.00  0.00    -0.004 A 
ATOM      5  C5  N4B d   1       4.824  -2.525   4.901  0.00  0.00     0.002 A 
ATOM      6  C6  N4B d   1       4.605  -3.032   3.636  0.00  0.00     0.002 A 
ENDROOT
BRANCH   1   7
ATOM      7  C1' N4B d   1       4.174  -4.895   2.074  0.00  0.00     0.057 C 
BRANCH   7   8
ATOM      8  C2' N4B d   1       4.576  -3.813   1.076  0.00  0.00     0.009 C 
BRANCH   8   9
ATOM      9  C3' N4B d   1       3.488  -3.557   0.047  0.00  0.00     0.004 C 
ATOM     10  C4' N4B d   1       2.226  -3.024   0.658  0.00  0.00     0.003 C 
ENDBRANCH   8   9
ENDBRANCH   7   8
ENDBRANCH   1   7
TORSDOF 3
ENDMDL
