MODEL 1
REMARK minimizedAffinity 3.81686282
REMARK minimizedRMSD -1
REMARK  3 active torsions:
REMARK  status: ('A' for Active; 'I' for Inactive)
REMARK    1  A    between atoms: C3'_2  and  C2'_3 
REMARK    2  A    between atoms: C2'_3  and  C1'_4 
REMARK    3  A    between atoms: C1'_4  and  C1_5 
ROOT
ATOM      1  C1  N4B d   1       3.377   3.892  -5.946  0.00  0.00    -0.075 A 
ATOM      2  C2  N4B d   1       4.540   4.692  -5.962  0.00  0.00     0.002 A 
ATOM      3  C3  N4B d   1       5.780   4.102  -5.991  0.00  0.00     0.002 A 
ATOM      4  C4  N4B d   1       5.881   2.719  -5.986  0.00  0.00    -0.004 A 
ATOM      5  C5  N4B d   1       4.752   1.953  -5.996  0.00  0.00     0.002 A 
ATOM      6  C6  N4B d   1       3.500   2.532  -5.971  0.00  0.00     0.002 A 
ENDROOT
BRANCH   1   7
ATOM      7  C1' N4B d   1       2.002   4.490  -5.828  0.00  0.00     0.057 C 
BRANCH   7   8
ATOM      8  C2' N4B d   1       1.121   3.561  -4.999  0.00  0.00     0.009 C 
BRANCH   8   9
ATOM      9  C3' N4B d   1       1.090   2.152  -5.567  0.00  0.00     0.004 C 
ATOM     10  C4' N4B d   1      -0.278   1.539  -5.523  0.00  0.00     0.003 C 
ENDBRANCH   8   9
ENDBRANCH   7   8
ENDBRANCH   1   7
TORSDOF 3
ENDMDL
