MODEL 1
REMARK minimizedAffinity 13.2595081
REMARK minimizedRMSD -1
REMARK  3 active torsions:
REMARK  status: ('A' for Active; 'I' for Inactive)
REMARK    1  A    between atoms: C3'_2  and  C2'_3 
REMARK    2  A    between atoms: C2'_3  and  C1'_4 
REMARK    3  A    between atoms: C1'_4  and  C1_5 
ROOT
ATOM      1  C1  N4B d   1       1.790  -2.762   1.378  0.00  0.00    -0.075 A 
ATOM      2  C2  N4B d   1       0.647  -2.114   1.896  0.00  0.00     0.002 A 
ATOM      3  C3  N4B d   1       0.645  -0.750   2.057  0.00  0.00     0.002 A 
ATOM      4  C4  N4B d   1       1.775  -0.018   1.725  0.00  0.00    -0.004 A 
ATOM      5  C5  N4B d   1       2.866  -0.649   1.202  0.00  0.00     0.002 A 
ATOM      6  C6  N4B d   1       2.881  -2.018   1.031  0.00  0.00     0.002 A 
ENDROOT
BRANCH   1   7
ATOM      7  C1' N4B d   1       1.871  -4.260   1.265  0.00  0.00     0.057 C 
BRANCH   7   8
ATOM      8  C2' N4B d   1       1.064  -4.715   0.053  0.00  0.00     0.009 C 
BRANCH   8   9
ATOM      9  C3' N4B d   1       0.299  -5.998   0.328  0.00  0.00     0.004 C 
ATOM     10  C4' N4B d   1      -1.081  -5.988  -0.258  0.00  0.00     0.003 C 
ENDBRANCH   8   9
ENDBRANCH   7   8
ENDBRANCH   1   7
TORSDOF 3
ENDMDL
