MODEL 1
REMARK minimizedAffinity 10.7526035
REMARK minimizedRMSD -1
REMARK  3 active torsions:
REMARK  status: ('A' for Active; 'I' for Inactive)
REMARK    1  A    between atoms: C3'_2  and  C2'_3 
REMARK    2  A    between atoms: C2'_3  and  C1'_4 
REMARK    3  A    between atoms: C1'_4  and  C1_5 
ROOT
ATOM      1  C1  N4B d   1       1.694  -2.175   2.445  0.00  0.00    -0.075 A 
ATOM      2  C2  N4B d   1       1.644  -0.900   1.839  0.00  0.00     0.002 A 
ATOM      3  C3  N4B d   1       1.346   0.207   2.595  0.00  0.00     0.002 A 
ATOM      4  C4  N4B d   1       1.077   0.063   3.947  0.00  0.00    -0.004 A 
ATOM      5  C5  N4B d   1       1.152  -1.169   4.530  0.00  0.00     0.002 A 
ATOM      6  C6  N4B d   1       1.454  -2.290   3.783  0.00  0.00     0.002 A 
ENDROOT
BRANCH   1   7
ATOM      7  C1' N4B d   1       1.931  -3.426   1.643  0.00  0.00     0.057 C 
BRANCH   7   8
ATOM      8  C2' N4B d   1       1.952  -4.627   2.584  0.00  0.00     0.009 C 
BRANCH   8   9
ATOM      9  C3' N4B d   1       1.963  -5.943   1.826  0.00  0.00     0.004 C 
ATOM     10  C4' N4B d   1       1.054  -5.933   0.633  0.00  0.00     0.003 C 
ENDBRANCH   8   9
ENDBRANCH   7   8
ENDBRANCH   1   7
TORSDOF 3
ENDMDL
