MODEL 1
REMARK minimizedAffinity 10.5884609
REMARK minimizedRMSD -1
REMARK  3 active torsions:
REMARK  status: ('A' for Active; 'I' for Inactive)
REMARK    1  A    between atoms: C3'_2  and  C2'_3 
REMARK    2  A    between atoms: C2'_3  and  C1'_4 
REMARK    3  A    between atoms: C1'_4  and  C1_5 
ROOT
ATOM      1  C1  N4B d   1      -4.897  -3.269  -5.097  0.00  0.00    -0.075 A 
ATOM      2  C2  N4B d   1      -5.992  -3.865  -5.760  0.00  0.00     0.002 A 
ATOM      3  C3  N4B d   1      -5.996  -5.217  -5.999  0.00  0.00     0.002 A 
ATOM      4  C4  N4B d   1      -4.914  -5.987  -5.602  0.00  0.00    -0.004 A 
ATOM      5  C5  N4B d   1      -3.872  -5.408  -4.939  0.00  0.00     0.002 A 
ATOM      6  C6  N4B d   1      -3.855  -4.051  -4.689  0.00  0.00     0.002 A 
ENDROOT
BRANCH   1   7
ATOM      7  C1' N4B d   1      -4.808  -1.781  -4.890  0.00  0.00     0.057 C 
BRANCH   7   8
ATOM      8  C2' N4B d   1      -4.078  -1.501  -3.580  0.00  0.00     0.009 C 
BRANCH   8   9
ATOM      9  C3' N4B d   1      -4.039  -0.017  -3.257  0.00  0.00     0.004 C 
ATOM     10  C4' N4B d   1      -2.836   0.370  -2.450  0.00  0.00     0.003 C 
ENDBRANCH   8   9
ENDBRANCH   7   8
ENDBRANCH   1   7
TORSDOF 3
ENDMDL
