MODEL 1
REMARK minimizedAffinity 10.1192961
REMARK minimizedRMSD -1
REMARK  0 active torsions:
REMARK  status: ('A' for Active; 'I' for Inactive)
ROOT
ATOM      1  C1  DEN d   1      -3.093   1.358   0.749  0.00  0.00     0.130 A 
ATOM      2  C2  DEN d   1      -3.078   0.004   1.294  0.00  0.00    -0.031 A 
ATOM      3  C3  DEN d   1      -1.681  -0.477   1.283  0.00  0.00     0.027 A 
ATOM      4  C4  DEN d   1       0.447   0.739   0.483  0.00  0.00     0.027 A 
ATOM      5  C5  DEN d   1       0.934   1.903  -0.071  0.00  0.00    -0.003 A 
ATOM      6  C6  DEN d   1       0.116   2.945  -0.418  0.00  0.00     0.001 A 
ATOM      7  C7  DEN d   1      -1.229   2.861  -0.174  0.00  0.00     0.017 A 
ATOM      8  C8  DEN d   1      -1.729   1.689   0.377  0.00  0.00    -0.094 A 
ATOM      9  C9  DEN d   1      -0.884   0.652   0.733  0.00  0.00    -0.072 A 
ENDROOT
TORSDOF 0
ENDMDL
