MODEL 1
REMARK minimizedAffinity -0.492185324
REMARK minimizedRMSD -1
REMARK  0 active torsions:
REMARK  status: ('A' for Active; 'I' for Inactive)
ROOT
ATOM      1  C1  DEN d   1      -1.625   4.397  -5.949  0.00  0.00     0.130 A 
ATOM      2  C2  DEN d   1      -1.507   2.941  -5.979  0.00  0.00    -0.031 A 
ATOM      3  C3  DEN d   1      -2.869   2.373  -5.998  0.00  0.00     0.027 A 
ATOM      4  C4  DEN d   1      -5.139   3.598  -5.989  0.00  0.00     0.027 A 
ATOM      5  C5  DEN d   1      -5.748   4.833  -5.956  0.00  0.00    -0.003 A 
ATOM      6  C6  DEN d   1      -5.032   5.998  -5.884  0.00  0.00     0.001 A 
ATOM      7  C7  DEN d   1      -3.663   5.955  -5.889  0.00  0.00     0.017 A 
ATOM      8  C8  DEN d   1      -3.042   4.713  -5.915  0.00  0.00    -0.094 A 
ATOM      9  C9  DEN d   1      -3.783   3.547  -6.000  0.00  0.00    -0.072 A 
ENDROOT
TORSDOF 0
ENDMDL
