MODEL 1
REMARK minimizedAffinity 7.36225939
REMARK minimizedRMSD -1
REMARK  0 active torsions:
REMARK  status: ('A' for Active; 'I' for Inactive)
ROOT
ATOM      1  C1  DEN d   1       1.071   1.248   0.021  0.00  0.00     0.130 A 
ATOM      2  C2  DEN d   1       1.737  -0.015   0.325  0.00  0.00    -0.031 A 
ATOM      3  C3  DEN d   1       0.767  -0.889   1.015  0.00  0.00     0.027 A 
ATOM      4  C4  DEN d   1      -1.691  -0.412   1.634  0.00  0.00     0.027 A 
ATOM      5  C5  DEN d   1      -2.697   0.528   1.592  0.00  0.00    -0.003 A 
ATOM      6  C6  DEN d   1      -2.510   1.775   1.058  0.00  0.00     0.001 A 
ATOM      7  C7  DEN d   1      -1.300   2.101   0.503  0.00  0.00     0.017 A 
ATOM      8  C8  DEN d   1      -0.278   1.162   0.549  0.00  0.00    -0.094 A 
ATOM      9  C9  DEN d   1      -0.492  -0.098   1.082  0.00  0.00    -0.072 A 
ENDROOT
TORSDOF 0
ENDMDL
