MODEL 1
REMARK minimizedAffinity 3.97579932
REMARK minimizedRMSD -1
REMARK  0 active torsions:
REMARK  status: ('A' for Active; 'I' for Inactive)
ROOT
ATOM      1  C1  DEN d   1       0.229   3.487  -3.922  0.00  0.00     0.130 A 
ATOM      2  C2  DEN d   1       0.782   2.663  -4.994  0.00  0.00    -0.031 A 
ATOM      3  C3  DEN d   1      -0.279   2.448  -5.998  0.00  0.00     0.027 A 
ATOM      4  C4  DEN d   1      -2.710   3.310  -6.000  0.00  0.00     0.027 A 
ATOM      5  C5  DEN d   1      -3.643   4.038  -5.296  0.00  0.00    -0.003 A 
ATOM      6  C6  DEN d   1      -3.364   4.601  -4.078  0.00  0.00     0.001 A 
ATOM      7  C7  DEN d   1      -2.106   4.482  -3.549  0.00  0.00     0.017 A 
ATOM      8  C8  DEN d   1      -1.162   3.743  -4.249  0.00  0.00    -0.094 A 
ATOM      9  C9  DEN d   1      -1.461   3.192  -5.484  0.00  0.00    -0.072 A 
ENDROOT
TORSDOF 0
ENDMDL
