MODEL 1
REMARK minimizedAffinity -0.161216781
REMARK minimizedRMSD -1
REMARK  0 active torsions:
REMARK  status: ('A' for Active; 'I' for Inactive)
ROOT
ATOM      1  C1  DEN d   1      -2.659   2.637  -5.902  0.00  0.00     0.130 A 
ATOM      2  C2  DEN d   1      -1.385   3.350  -5.931  0.00  0.00    -0.031 A 
ATOM      3  C3  DEN d   1      -1.673   4.798  -5.976  0.00  0.00     0.027 A 
ATOM      4  C4  DEN d   1      -3.955   5.999  -6.000  0.00  0.00     0.027 A 
ATOM      5  C5  DEN d   1      -5.321   5.815  -5.999  0.00  0.00    -0.003 A 
ATOM      6  C6  DEN d   1      -5.890   4.569  -5.999  0.00  0.00     0.001 A 
ATOM      7  C7  DEN d   1      -5.090   3.458  -5.956  0.00  0.00     0.017 A 
ATOM      8  C8  DEN d   1      -3.713   3.635  -5.964  0.00  0.00    -0.094 A 
ATOM      9  C9  DEN d   1      -3.157   4.903  -5.951  0.00  0.00    -0.072 A 
ENDROOT
TORSDOF 0
ENDMDL
