MODEL 1
REMARK minimizedAffinity 15.1251421
REMARK minimizedRMSD -1
REMARK  0 active torsions:
REMARK  status: ('A' for Active; 'I' for Inactive)
ROOT
ATOM      1  C1  DEN d   1      -3.699  -3.713  -0.537  0.00  0.00     0.130 A 
ATOM      2  C2  DEN d   1      -4.157  -5.080  -0.309  0.00  0.00    -0.031 A 
ATOM      3  C3  DEN d   1      -3.063  -5.998  -0.688  0.00  0.00     0.027 A 
ATOM      4  C4  DEN d   1      -0.716  -5.436  -1.597  0.00  0.00     0.027 A 
ATOM      5  C5  DEN d   1       0.128  -4.413  -1.969  0.00  0.00    -0.003 A 
ATOM      6  C6  DEN d   1      -0.252  -3.098  -1.923  0.00  0.00     0.001 A 
ATOM      7  C7  DEN d   1      -1.496  -2.768  -1.452  0.00  0.00     0.017 A 
ATOM      8  C8  DEN d   1      -2.355  -3.794  -1.082  0.00  0.00    -0.094 A 
ATOM      9  C9  DEN d   1      -1.947  -5.116  -1.124  0.00  0.00    -0.072 A 
ENDROOT
TORSDOF 0
ENDMDL
