MODEL 1
REMARK minimizedAffinity 11.8155336
REMARK minimizedRMSD -1
REMARK  0 active torsions:
REMARK  status: ('A' for Active; 'I' for Inactive)
ROOT
ATOM      1  C1  DEN d   1      -2.783   2.266   1.537  0.00  0.00     0.130 A 
ATOM      2  C2  DEN d   1      -2.933   0.884   1.983  0.00  0.00    -0.031 A 
ATOM      3  C3  DEN d   1      -1.840   0.091   1.386  0.00  0.00     0.027 A 
ATOM      4  C4  DEN d   1       0.063   0.865  -0.173  0.00  0.00     0.027 A 
ATOM      5  C5  DEN d   1       0.599   1.945  -0.839  0.00  0.00    -0.003 A 
ATOM      6  C6  DEN d   1       0.031   3.190  -0.787  0.00  0.00     0.001 A 
ATOM      7  C7  DEN d   1      -1.083   3.397  -0.018  0.00  0.00     0.017 A 
ATOM      8  C8  DEN d   1      -1.634   2.311   0.651  0.00  0.00    -0.094 A 
ATOM      9  C9  DEN d   1      -1.038   1.063   0.596  0.00  0.00    -0.072 A 
ENDROOT
TORSDOF 0
ENDMDL
