MODEL 1
REMARK minimizedAffinity 7.45510292
REMARK minimizedRMSD -1
REMARK  0 active torsions:
REMARK  status: ('A' for Active; 'I' for Inactive)
ROOT
ATOM      1  C1  DEN d   1      -3.404   3.897  -6.000  0.00  0.00     0.130 A 
ATOM      2  C2  DEN d   1      -3.224   5.346  -5.964  0.00  0.00    -0.031 A 
ATOM      3  C3  DEN d   1      -1.774   5.625  -5.949  0.00  0.00     0.027 A 
ATOM      4  C4  DEN d   1       0.199   3.964  -5.980  0.00  0.00     0.027 A 
ATOM      5  C5  DEN d   1       0.543   2.631  -5.998  0.00  0.00    -0.003 A 
ATOM      6  C6  DEN d   1      -0.396   1.634  -5.984  0.00  0.00     0.001 A 
ATOM      7  C7  DEN d   1      -1.727   1.955  -5.996  0.00  0.00     0.017 A 
ATOM      8  C8  DEN d   1      -2.083   3.298  -5.970  0.00  0.00    -0.094 A 
ATOM      9  C9  DEN d   1      -1.118   4.291  -5.997  0.00  0.00    -0.072 A 
ENDROOT
TORSDOF 0
ENDMDL
