MODEL 1
REMARK minimizedAffinity 18.9158344
REMARK minimizedRMSD -1
REMARK  0 active torsions:
REMARK  status: ('A' for Active; 'I' for Inactive)
ROOT
ATOM      1  C1  DEN d   1      -2.253   2.479   0.786  0.00  0.00     0.130 A 
ATOM      2  C2  DEN d   1      -3.053   1.459   1.457  0.00  0.00    -0.031 A 
ATOM      3  C3  DEN d   1      -2.312   0.183   1.395  0.00  0.00     0.027 A 
ATOM      4  C4  DEN d   1      -0.013  -0.308   0.334  0.00  0.00     0.027 A 
ATOM      5  C5  DEN d   1       1.042   0.239  -0.363  0.00  0.00    -0.003 A 
ATOM      6  C6  DEN d   1       1.057   1.552  -0.752  0.00  0.00     0.001 A 
ATOM      7  C7  DEN d   1       0.016   2.374  -0.407  0.00  0.00     0.017 A 
ATOM      8  C8  DEN d   1      -1.054   1.828   0.289  0.00  0.00    -0.094 A 
ATOM      9  C9  DEN d   1      -1.045   0.501   0.684  0.00  0.00    -0.072 A 
ENDROOT
TORSDOF 0
ENDMDL
