MODEL 1
REMARK minimizedAffinity 3.47158003
REMARK minimizedRMSD -1
REMARK  0 active torsions:
REMARK  status: ('A' for Active; 'I' for Inactive)
ROOT
ATOM      1  C1  DEN d   1      -3.777   4.711  -4.193  0.00  0.00     0.130 A 
ATOM      2  C2  DEN d   1      -3.199   5.971  -3.733  0.00  0.00    -0.031 A 
ATOM      3  C3  DEN d   1      -1.777   5.993  -4.130  0.00  0.00     0.027 A 
ATOM      4  C4  DEN d   1      -0.422   4.210  -5.410  0.00  0.00     0.027 A 
ATOM      5  C5  DEN d   1      -0.478   2.967  -5.999  0.00  0.00    -0.003 A 
ATOM      6  C6  DEN d   1      -1.619   2.209  -5.998  0.00  0.00     0.001 A 
ATOM      7  C7  DEN d   1      -2.764   2.707  -5.434  0.00  0.00     0.017 A 
ATOM      8  C8  DEN d   1      -2.713   3.957  -4.832  0.00  0.00    -0.094 A 
ATOM      9  C9  DEN d   1      -1.553   4.713  -4.855  0.00  0.00    -0.072 A 
ENDROOT
TORSDOF 0
ENDMDL
