MODEL 1
REMARK minimizedAffinity 7.75188398
REMARK minimizedRMSD -1
REMARK  0 active torsions:
REMARK  status: ('A' for Active; 'I' for Inactive)
ROOT
ATOM      1  C1  DEN d   1      -4.588   4.180  -5.915  0.00  0.00     0.130 A 
ATOM      2  C2  DEN d   1      -4.489   5.636  -5.854  0.00  0.00    -0.031 A 
ATOM      3  C3  DEN d   1      -3.057   5.997  -5.855  0.00  0.00     0.027 A 
ATOM      4  C4  DEN d   1      -0.995   4.451  -5.949  0.00  0.00     0.027 A 
ATOM      5  C5  DEN d   1      -0.576   3.139  -5.999  0.00  0.00    -0.003 A 
ATOM      6  C6  DEN d   1      -1.457   2.091  -5.990  0.00  0.00     0.001 A 
ATOM      7  C7  DEN d   1      -2.805   2.337  -5.975  0.00  0.00     0.017 A 
ATOM      8  C8  DEN d   1      -3.234   3.656  -5.918  0.00  0.00    -0.094 A 
ATOM      9  C9  DEN d   1      -2.328   4.703  -5.940  0.00  0.00    -0.072 A 
ENDROOT
TORSDOF 0
ENDMDL
