MODEL 1
REMARK minimizedAffinity 3.06857705
REMARK minimizedRMSD -1
REMARK  0 active torsions:
REMARK  status: ('A' for Active; 'I' for Inactive)
ROOT
ATOM      1  C1  DEN d   1      -3.371   1.914  -5.967  0.00  0.00     0.130 A 
ATOM      2  C2  DEN d   1      -1.950   2.252  -5.990  0.00  0.00    -0.031 A 
ATOM      3  C3  DEN d   1      -1.831   3.724  -5.999  0.00  0.00     0.027 A 
ATOM      4  C4  DEN d   1      -3.698   5.503  -5.977  0.00  0.00     0.027 A 
ATOM      5  C5  DEN d   1      -5.061   5.700  -5.969  0.00  0.00    -0.003 A 
ATOM      6  C6  DEN d   1      -5.950   4.658  -5.995  0.00  0.00     0.001 A 
ATOM      7  C7  DEN d   1      -5.485   3.369  -5.983  0.00  0.00     0.017 A 
ATOM      8  C8  DEN d   1      -4.111   3.163  -5.998  0.00  0.00    -0.094 A 
ATOM      9  C9  DEN d   1      -3.230   4.230  -5.960  0.00  0.00    -0.072 A 
ENDROOT
TORSDOF 0
ENDMDL
