MODEL 1
REMARK minimizedAffinity -0.180438593
REMARK minimizedRMSD -1
REMARK  0 active torsions:
REMARK  status: ('A' for Active; 'I' for Inactive)
ROOT
ATOM      1  C1  DEN d   1      -0.252   4.248  -5.991  0.00  0.00     0.130 A 
ATOM      2  C2  DEN d   1      -0.110   2.795  -5.970  0.00  0.00    -0.031 A 
ATOM      3  C3  DEN d   1      -1.463   2.204  -5.961  0.00  0.00     0.027 A 
ATOM      4  C4  DEN d   1      -3.753   3.391  -5.984  0.00  0.00     0.027 A 
ATOM      5  C5  DEN d   1      -4.382   4.616  -5.991  0.00  0.00    -0.003 A 
ATOM      6  C6  DEN d   1      -3.685   5.795  -5.965  0.00  0.00     0.001 A 
ATOM      7  C7  DEN d   1      -2.315   5.774  -5.976  0.00  0.00     0.017 A 
ATOM      8  C8  DEN d   1      -1.674   4.542  -5.961  0.00  0.00    -0.094 A 
ATOM      9  C9  DEN d   1      -2.396   3.362  -6.000  0.00  0.00    -0.072 A 
ENDROOT
TORSDOF 0
ENDMDL
