MODEL 1
REMARK minimizedAffinity 2.5254097
REMARK minimizedRMSD -1
REMARK  0 active torsions:
REMARK  status: ('A' for Active; 'I' for Inactive)
ROOT
ATOM      1  C1  DEN d   1      -1.897   4.646  -5.944  0.00  0.00     0.130 A 
ATOM      2  C2  DEN d   1      -2.673   3.410  -5.972  0.00  0.00    -0.031 A 
ATOM      3  C3  DEN d   1      -1.727   2.277  -6.000  0.00  0.00     0.027 A 
ATOM      4  C4  DEN d   1       0.852   2.317  -5.995  0.00  0.00     0.027 A 
ATOM      5  C5  DEN d   1       1.962   3.132  -5.988  0.00  0.00    -0.003 A 
ATOM      6  C6  DEN d   1       1.865   4.498  -5.999  0.00  0.00     0.001 A 
ATOM      7  C7  DEN d   1       0.630   5.091  -5.973  0.00  0.00     0.017 A 
ATOM      8  C8  DEN d   1      -0.494   4.275  -5.988  0.00  0.00    -0.094 A 
ATOM      9  C9  DEN d   1      -0.375   2.896  -5.964  0.00  0.00    -0.072 A 
ENDROOT
TORSDOF 0
ENDMDL
