MODEL 1
REMARK minimizedAffinity 9.15687847
REMARK minimizedRMSD -1
REMARK  3 active torsions:
REMARK  status: ('A' for Active; 'I' for Inactive)
REMARK    1  A    between atoms: C3'_2  and  C2'_3 
REMARK    2  A    between atoms: C2'_3  and  C1'_4 
REMARK    3  A    between atoms: C1'_4  and  C1_5 
ROOT
ATOM      1  C1  N4B d   1       2.636  -3.300   1.651  0.00  0.00    -0.075 A 
ATOM      2  C2  N4B d   1       1.659  -2.479   2.257  0.00  0.00     0.002 A 
ATOM      3  C3  N4B d   1       1.186  -1.373   1.595  0.00  0.00     0.002 A 
ATOM      4  C4  N4B d   1       1.687  -1.057   0.341  0.00  0.00    -0.004 A 
ATOM      5  C5  N4B d   1       2.612  -1.869  -0.248  0.00  0.00     0.002 A 
ATOM      6  C6  N4B d   1       3.094  -2.987   0.404  0.00  0.00     0.002 A 
ENDROOT
BRANCH   1   7
ATOM      7  C1' N4B d   1       3.246  -4.471   2.371  0.00  0.00     0.057 C 
BRANCH   7   8
ATOM      8  C2' N4B d   1       4.362  -3.973   3.284  0.00  0.00     0.009 C 
BRANCH   8   9
ATOM      9  C3' N4B d   1       3.988  -4.081   4.752  0.00  0.00     0.004 C 
ATOM     10  C4' N4B d   1       4.390  -2.873   5.545  0.00  0.00     0.003 C 
ENDBRANCH   8   9
ENDBRANCH   7   8
ENDBRANCH   1   7
TORSDOF 3
ENDMDL
