MODEL 1
REMARK minimizedAffinity 3.71115112
REMARK minimizedRMSD -1
REMARK  3 active torsions:
REMARK  status: ('A' for Active; 'I' for Inactive)
REMARK    1  A    between atoms: C3'_2  and  C2'_3 
REMARK    2  A    between atoms: C2'_3  and  C1'_4 
REMARK    3  A    between atoms: C1'_4  and  C1_5 
ROOT
ATOM      1  C1  N4B d   1       1.201  -2.452   1.899  0.00  0.00    -0.075 A 
ATOM      2  C2  N4B d   1       1.036  -1.359   2.779  0.00  0.00     0.002 A 
ATOM      3  C3  N4B d   1      -0.078  -1.283   3.578  0.00  0.00     0.002 A 
ATOM      4  C4  N4B d   1      -1.047  -2.273   3.501  0.00  0.00    -0.004 A 
ATOM      5  C5  N4B d   1      -0.868  -3.337   2.667  0.00  0.00     0.002 A 
ATOM      6  C6  N4B d   1       0.249  -3.429   1.861  0.00  0.00     0.002 A 
ENDROOT
BRANCH   1   7
ATOM      7  C1' N4B d   1       2.361  -2.535   0.945  0.00  0.00     0.057 C 
BRANCH   7   8
ATOM      8  C2' N4B d   1       2.224  -1.437  -0.106  0.00  0.00     0.009 C 
BRANCH   8   9
ATOM      9  C3' N4B d   1       3.337  -0.409  -0.002  0.00  0.00     0.004 C 
ATOM     10  C4' N4B d   1       2.823   0.997   0.085  0.00  0.00     0.003 C 
ENDBRANCH   8   9
ENDBRANCH   7   8
ENDBRANCH   1   7
TORSDOF 3
ENDMDL
