MODEL 1
REMARK minimizedAffinity -0.198451996
REMARK minimizedRMSD -1
REMARK  3 active torsions:
REMARK  status: ('A' for Active; 'I' for Inactive)
REMARK    1  A    between atoms: C3'_2  and  C2'_3 
REMARK    2  A    between atoms: C2'_3  and  C1'_4 
REMARK    3  A    between atoms: C1'_4  and  C1_5 
ROOT
ATOM      1  C1  N4B d   1      -3.371   0.624  -4.598  0.00  0.00    -0.075 A 
ATOM      2  C2  N4B d   1      -2.773  -0.593  -4.203  0.00  0.00     0.002 A 
ATOM      3  C3  N4B d   1      -3.554  -1.697  -3.968  0.00  0.00     0.002 A 
ATOM      4  C4  N4B d   1      -4.932  -1.604  -4.102  0.00  0.00    -0.004 A 
ATOM      5  C5  N4B d   1      -5.499  -0.432  -4.509  0.00  0.00     0.002 A 
ATOM      6  C6  N4B d   1      -4.726   0.685  -4.753  0.00  0.00     0.002 A 
ENDROOT
BRANCH   1   7
ATOM      7  C1' N4B d   1      -2.566   1.881  -4.784  0.00  0.00     0.057 C 
BRANCH   7   8
ATOM      8  C2' N4B d   1      -3.019   2.921  -3.764  0.00  0.00     0.009 C 
BRANCH   8   9
ATOM      9  C3' N4B d   1      -2.398   2.685  -2.397  0.00  0.00     0.004 C 
ATOM     10  C4' N4B d   1      -3.064   1.575  -1.641  0.00  0.00     0.003 C 
ENDBRANCH   8   9
ENDBRANCH   7   8
ENDBRANCH   1   7
TORSDOF 3
ENDMDL
