MODEL 1
REMARK minimizedAffinity -2.33244753
REMARK minimizedRMSD -1
REMARK  3 active torsions:
REMARK  status: ('A' for Active; 'I' for Inactive)
REMARK    1  A    between atoms: C3'_2  and  C2'_3 
REMARK    2  A    between atoms: C2'_3  and  C1'_4 
REMARK    3  A    between atoms: C1'_4  and  C1_5 
ROOT
ATOM      1  C1  N4B d   1       5.193  -3.994   3.483  0.00  0.00    -0.075 A 
ATOM      2  C2  N4B d   1       4.987  -4.778   4.639  0.00  0.00     0.002 A 
ATOM      3  C3  N4B d   1       5.296  -4.270   5.877  0.00  0.00     0.002 A 
ATOM      4  C4  N4B d   1       5.828  -2.993   5.981  0.00  0.00    -0.004 A 
ATOM      5  C5  N4B d   1       6.000  -2.233   4.862  0.00  0.00     0.002 A 
ATOM      6  C6  N4B d   1       5.690  -2.729   3.611  0.00  0.00     0.002 A 
ENDROOT
BRANCH   1   7
ATOM      7  C1' N4B d   1       4.950  -4.538   2.101  0.00  0.00     0.057 C 
BRANCH   7   8
ATOM      8  C2' N4B d   1       4.429  -3.417   1.207  0.00  0.00     0.009 C 
BRANCH   8   9
ATOM      9  C3' N4B d   1       2.978  -3.634   0.813  0.00  0.00     0.004 C 
ATOM     10  C4' N4B d   1       2.192  -2.358   0.767  0.00  0.00     0.003 C 
ENDBRANCH   8   9
ENDBRANCH   7   8
ENDBRANCH   1   7
TORSDOF 3
ENDMDL
