MODEL 1
REMARK minimizedAffinity 0.429417282
REMARK minimizedRMSD -1
REMARK  3 active torsions:
REMARK  status: ('A' for Active; 'I' for Inactive)
REMARK    1  A    between atoms: C3'_2  and  C2'_3 
REMARK    2  A    between atoms: C2'_3  and  C1'_4 
REMARK    3  A    between atoms: C1'_4  and  C1_5 
ROOT
ATOM      1  C1  N4B d   1       2.449  -2.555   1.110  0.00  0.00    -0.075 A 
ATOM      2  C2  N4B d   1       2.871  -1.451   0.336  0.00  0.00     0.002 A 
ATOM      3  C3  N4B d   1       4.199  -1.300   0.022  0.00  0.00     0.002 A 
ATOM      4  C4  N4B d   1       5.122  -2.226   0.483  0.00  0.00    -0.004 A 
ATOM      5  C5  N4B d   1       4.704  -3.304   1.207  0.00  0.00     0.002 A 
ATOM      6  C6  N4B d   1       3.371  -3.470   1.528  0.00  0.00     0.002 A 
ENDROOT
BRANCH   1   7
ATOM      7  C1' N4B d   1       1.020  -2.716   1.552  0.00  0.00     0.057 C 
BRANCH   7   8
ATOM      8  C2' N4B d   1       0.778  -1.853   2.787  0.00  0.00     0.009 C 
BRANCH   8   9
ATOM      9  C3' N4B d   1      -0.687  -1.835   3.188  0.00  0.00     0.004 C 
ATOM     10  C4' N4B d   1      -1.170  -0.464   3.559  0.00  0.00     0.003 C 
ENDBRANCH   8   9
ENDBRANCH   7   8
ENDBRANCH   1   7
TORSDOF 3
ENDMDL
