MODEL 1
REMARK minimizedAffinity 2.01385236
REMARK minimizedRMSD -1
REMARK  3 active torsions:
REMARK  status: ('A' for Active; 'I' for Inactive)
REMARK    1  A    between atoms: C3'_2  and  C2'_3 
REMARK    2  A    between atoms: C2'_3  and  C1'_4 
REMARK    3  A    between atoms: C1'_4  and  C1_5 
ROOT
ATOM      1  C1  N4B d   1       3.634  -0.261  -0.072  0.00  0.00    -0.075 A 
ATOM      2  C2  N4B d   1       4.811  -0.867   0.418  0.00  0.00     0.002 A 
ATOM      3  C3  N4B d   1       5.980  -0.149   0.477  0.00  0.00     0.002 A 
ATOM      4  C4  N4B d   1       6.000   1.166   0.036  0.00  0.00    -0.004 A 
ATOM      5  C5  N4B d   1       4.853   1.752  -0.413  0.00  0.00     0.002 A 
ATOM      6  C6  N4B d   1       3.670   1.043  -0.474  0.00  0.00     0.002 A 
ENDROOT
BRANCH   1   7
ATOM      7  C1' N4B d   1       2.353  -1.032  -0.236  0.00  0.00     0.057 C 
BRANCH   7   8
ATOM      8  C2' N4B d   1       2.245  -2.068   0.879  0.00  0.00     0.009 C 
BRANCH   8   9
ATOM      9  C3' N4B d   1       2.663  -3.452   0.411  0.00  0.00     0.004 C 
ATOM     10  C4' N4B d   1       3.693  -4.080   1.303  0.00  0.00     0.003 C 
ENDBRANCH   8   9
ENDBRANCH   7   8
ENDBRANCH   1   7
TORSDOF 3
ENDMDL
