MODEL 1
REMARK minimizedAffinity -1.27129638
REMARK minimizedRMSD -1
REMARK  3 active torsions:
REMARK  status: ('A' for Active; 'I' for Inactive)
REMARK    1  A    between atoms: C3'_2  and  C2'_3 
REMARK    2  A    between atoms: C2'_3  and  C1'_4 
REMARK    3  A    between atoms: C1'_4  and  C1_5 
ROOT
ATOM      1  C1  N4B d   1       4.125  -3.392   1.106  0.00  0.00    -0.075 A 
ATOM      2  C2  N4B d   1       4.631  -2.189   0.567  0.00  0.00     0.002 A 
ATOM      3  C3  N4B d   1       3.771  -1.261   0.032  0.00  0.00     0.002 A 
ATOM      4  C4  N4B d   1       2.409  -1.523   0.009  0.00  0.00    -0.004 A 
ATOM      5  C5  N4B d   1       1.926  -2.676   0.555  0.00  0.00     0.002 A 
ATOM      6  C6  N4B d   1       2.779  -3.615   1.099  0.00  0.00     0.002 A 
ENDROOT
BRANCH   1   7
ATOM      7  C1' N4B d   1       5.034  -4.474   1.624  0.00  0.00     0.057 C 
BRANCH   7   8
ATOM      8  C2' N4B d   1       4.532  -4.939   2.988  0.00  0.00     0.009 C 
BRANCH   8   9
ATOM      9  C3' N4B d   1       4.752  -3.888   4.063  0.00  0.00     0.004 C 
ATOM     10  C4' N4B d   1       5.002  -4.485   5.416  0.00  0.00     0.003 C 
ENDBRANCH   8   9
ENDBRANCH   7   8
ENDBRANCH   1   7
TORSDOF 3
ENDMDL
