MODEL 1
REMARK minimizedAffinity 5.95358849
REMARK minimizedRMSD -1
REMARK  0 active torsions:
REMARK  status: ('A' for Active; 'I' for Inactive)
ROOT
ATOM      1  C   UNL d   1      -5.000   3.257   4.307  0.00  0.00     0.172 C 
ATOM      2  N   UNL d   1      -4.070   2.382   3.632  0.00  0.00    -0.070 N 
ATOM      3  C1  UNL d   1      -2.857   2.752   3.114  0.00  0.00    -0.004 A 
ATOM      4  C2  UNL d   1      -2.278   1.634   2.556  0.00  0.00    -0.047 A 
ATOM      5  C3  UNL d   1      -3.173   0.554   2.744  0.00  0.00    -0.047 A 
ATOM      6  C4  UNL d   1      -4.275   1.046   3.412  0.00  0.00    -0.004 A 
ENDROOT
TORSDOF 0
ENDMDL
