MODEL 1
REMARK minimizedAffinity 11.238554
REMARK minimizedRMSD -1
REMARK  0 active torsions:
REMARK  status: ('A' for Active; 'I' for Inactive)
ROOT
ATOM      1  C   UNL d   1      -2.372   1.885   2.954  0.00  0.00     0.172 C 
ATOM      2  N   UNL d   1      -0.954   1.622   3.034  0.00  0.00    -0.070 N 
ATOM      3  C1  UNL d   1      -0.189   1.067   2.043  0.00  0.00    -0.004 A 
ATOM      4  C2  UNL d   1       1.106   0.984   2.508  0.00  0.00    -0.047 A 
ATOM      5  C3  UNL d   1       1.119   1.507   3.823  0.00  0.00    -0.047 A 
ATOM      6  C4  UNL d   1      -0.170   1.895   4.123  0.00  0.00    -0.004 A 
ENDROOT
TORSDOF 0
ENDMDL
