MODEL 1
REMARK minimizedAffinity -1.10570443
REMARK minimizedRMSD -1
REMARK  0 active torsions:
REMARK  status: ('A' for Active; 'I' for Inactive)
ROOT
ATOM      1  C   UNL d   1       2.661  -0.559  -1.635  0.00  0.00     0.172 C 
ATOM      2  N   UNL d   1       2.184   0.794  -1.468  0.00  0.00    -0.070 N 
ATOM      3  C1  UNL d   1       1.381   1.238  -0.452  0.00  0.00    -0.004 A 
ATOM      4  C2  UNL d   1       1.152   2.582  -0.651  0.00  0.00    -0.047 A 
ATOM      5  C3  UNL d   1       1.840   2.958  -1.829  0.00  0.00    -0.047 A 
ATOM      6  C4  UNL d   1       2.470   1.832  -2.315  0.00  0.00    -0.004 A 
ENDROOT
TORSDOF 0
ENDMDL
