MODEL 1
REMARK minimizedAffinity 1.28462911
REMARK minimizedRMSD -1
REMARK  0 active torsions:
REMARK  status: ('A' for Active; 'I' for Inactive)
ROOT
ATOM      1  C   UNL d   1       0.002   6.000   0.001  0.00  0.00     0.172 C 
ATOM      2  N   UNL d   1       0.497   4.706  -0.407  0.00  0.00    -0.070 N 
ATOM      3  C1  UNL d   1      -0.215   3.536  -0.387  0.00  0.00    -0.004 A 
ATOM      4  C2  UNL d   1       0.609   2.534  -0.851  0.00  0.00    -0.047 A 
ATOM      5  C3  UNL d   1       1.858   3.121  -1.161  0.00  0.00    -0.047 A 
ATOM      6  C4  UNL d   1       1.761   4.467  -0.877  0.00  0.00    -0.004 A 
ENDROOT
TORSDOF 0
ENDMDL
