MODEL 1
REMARK minimizedAffinity 3.00356746
REMARK minimizedRMSD -1
REMARK  0 active torsions:
REMARK  status: ('A' for Active; 'I' for Inactive)
ROOT
ATOM      1  C   UNL d   1       3.633  -0.806  -0.082  0.00  0.00     0.172 C 
ATOM      2  N   UNL d   1       2.632  -0.696  -1.117  0.00  0.00    -0.070 N 
ATOM      3  C1  UNL d   1       1.520  -1.485  -1.239  0.00  0.00    -0.004 A 
ATOM      4  C2  UNL d   1       0.822  -1.063  -2.349  0.00  0.00    -0.047 A 
ATOM      5  C3  UNL d   1       1.540   0.018  -2.915  0.00  0.00    -0.047 A 
ATOM      6  C4  UNL d   1       2.656   0.224  -2.132  0.00  0.00    -0.004 A 
ENDROOT
TORSDOF 0
ENDMDL
