MODEL 1
REMARK minimizedAffinity 4.37119198
REMARK minimizedRMSD -1
REMARK  0 active torsions:
REMARK  status: ('A' for Active; 'I' for Inactive)
ROOT
ATOM      1  C   UNL d   1       3.570   0.382  -0.405  0.00  0.00     0.172 C 
ATOM      2  N   UNL d   1       2.788   0.927  -1.489  0.00  0.00    -0.070 N 
ATOM      3  C1  UNL d   1       2.596   2.258  -1.745  0.00  0.00    -0.004 A 
ATOM      4  C2  UNL d   1       1.795   2.362  -2.862  0.00  0.00    -0.047 A 
ATOM      5  C3  UNL d   1       1.494   1.048  -3.291  0.00  0.00    -0.047 A 
ATOM      6  C4  UNL d   1       2.122   0.179  -2.424  0.00  0.00    -0.004 A 
ENDROOT
TORSDOF 0
ENDMDL
