MODEL 1
REMARK minimizedAffinity 1.42419899
REMARK minimizedRMSD -1
REMARK  0 active torsions:
REMARK  status: ('A' for Active; 'I' for Inactive)
ROOT
ATOM      1  C   UNL d   1       4.142  -1.531  -0.009  0.00  0.00     0.172 C 
ATOM      2  N   UNL d   1       2.972  -1.327  -0.830  0.00  0.00    -0.070 N 
ATOM      3  C1  UNL d   1       1.831  -2.084  -0.796  0.00  0.00    -0.004 A 
ATOM      4  C2  UNL d   1       0.955  -1.569  -1.727  0.00  0.00    -0.047 A 
ATOM      5  C3  UNL d   1       1.591  -0.464  -2.341  0.00  0.00    -0.047 A 
ATOM      6  C4  UNL d   1       2.838  -0.337  -1.767  0.00  0.00    -0.004 A 
ENDROOT
TORSDOF 0
ENDMDL
