MODEL 1
REMARK minimizedAffinity 9.97857952
REMARK minimizedRMSD -1
REMARK  0 active torsions:
REMARK  status: ('A' for Active; 'I' for Inactive)
ROOT
ATOM      1  C   UNL d   1       2.981   0.434   0.370  0.00  0.00     0.172 C 
ATOM      2  N   UNL d   1       1.976  -0.059  -0.541  0.00  0.00    -0.070 N 
ATOM      3  C1  UNL d   1       0.625  -0.059  -0.316  0.00  0.00    -0.004 A 
ATOM      4  C2  UNL d   1       0.012  -0.609  -1.421  0.00  0.00    -0.047 A 
ATOM      5  C3  UNL d   1       1.030  -0.952  -2.342  0.00  0.00    -0.047 A 
ATOM      6  C4  UNL d   1       2.236  -0.601  -1.772  0.00  0.00    -0.004 A 
ENDROOT
TORSDOF 0
ENDMDL
