MODEL 1
REMARK minimizedAffinity -3.21452212
REMARK minimizedRMSD -1
REMARK  0 active torsions:
REMARK  status: ('A' for Active; 'I' for Inactive)
ROOT
ATOM      1  C   UNL d   1      -3.493   2.370  -5.626  0.00  0.00     0.172 C 
ATOM      2  N   UNL d   1      -3.638   3.803  -5.733  0.00  0.00    -0.070 N 
ATOM      3  C1  UNL d   1      -2.625   4.718  -5.624  0.00  0.00    -0.004 A 
ATOM      4  C2  UNL d   1      -3.171   5.973  -5.787  0.00  0.00    -0.047 A 
ATOM      5  C3  UNL d   1      -4.560   5.806  -6.000  0.00  0.00    -0.047 A 
ATOM      6  C4  UNL d   1      -4.822   4.453  -5.962  0.00  0.00    -0.004 A 
ENDROOT
TORSDOF 0
ENDMDL
