MODEL 1
REMARK minimizedAffinity 12.2157249
REMARK minimizedRMSD -1
REMARK  0 active torsions:
REMARK  status: ('A' for Active; 'I' for Inactive)
ROOT
ATOM      1  C   UNL d   1       2.764   0.567   0.684  0.00  0.00     0.172 C 
ATOM      2  N   UNL d   1       2.248  -0.227  -0.406  0.00  0.00    -0.070 N 
ATOM      3  C1  UNL d   1       2.258  -1.595  -0.472  0.00  0.00    -0.004 A 
ATOM      4  C2  UNL d   1       1.676  -1.964  -1.665  0.00  0.00    -0.047 A 
ATOM      5  C3  UNL d   1       1.304  -0.777  -2.340  0.00  0.00    -0.047 A 
ATOM      6  C4  UNL d   1       1.669   0.283  -1.538  0.00  0.00    -0.004 A 
ENDROOT
TORSDOF 0
ENDMDL
