MODEL 1
REMARK minimizedAffinity 3.86203861
REMARK minimizedRMSD -1
REMARK  0 active torsions:
REMARK  status: ('A' for Active; 'I' for Inactive)
ROOT
ATOM      1  C   UNL d   1       1.942   5.123  -0.838  0.00  0.00     0.172 C 
ATOM      2  N   UNL d   1       1.775   3.808  -1.410  0.00  0.00    -0.070 N 
ATOM      3  C1  UNL d   1       0.878   3.470  -2.387  0.00  0.00    -0.004 A 
ATOM      4  C2  UNL d   1       1.032   2.127  -2.656  0.00  0.00    -0.047 A 
ATOM      5  C3  UNL d   1       2.058   1.641  -1.810  0.00  0.00    -0.047 A 
ATOM      6  C4  UNL d   1       2.500   2.702  -1.049  0.00  0.00    -0.004 A 
ENDROOT
TORSDOF 0
ENDMDL
