MODEL 1
REMARK minimizedAffinity 4.31815577
REMARK minimizedRMSD -1
REMARK  0 active torsions:
REMARK  status: ('A' for Active; 'I' for Inactive)
ROOT
ATOM      1  C   UNL d   1       2.394   5.998  -1.374  0.00  0.00     0.172 C 
ATOM      2  N   UNL d   1       1.899   4.645  -1.482  0.00  0.00    -0.070 N 
ATOM      3  C1  UNL d   1       1.555   4.011  -2.645  0.00  0.00    -0.004 A 
ATOM      4  C2  UNL d   1       1.133   2.739  -2.324  0.00  0.00    -0.047 A 
ATOM      5  C3  UNL d   1       1.226   2.605  -0.918  0.00  0.00    -0.047 A 
ATOM      6  C4  UNL d   1       1.703   3.800  -0.422  0.00  0.00    -0.004 A 
ENDROOT
TORSDOF 0
ENDMDL
