MODEL 1
REMARK minimizedAffinity 1.30821705
REMARK minimizedRMSD -1
REMARK  0 active torsions:
REMARK  status: ('A' for Active; 'I' for Inactive)
ROOT
ATOM      1  C   UNL d   1      -1.806  -4.877  -2.111  0.00  0.00     0.172 C 
ATOM      2  N   UNL d   1      -2.081  -4.275  -3.394  0.00  0.00    -0.070 N 
ATOM      3  C1  UNL d   1      -1.638  -3.048  -3.812  0.00  0.00    -0.004 A 
ATOM      4  C2  UNL d   1      -2.113  -2.840  -5.088  0.00  0.00    -0.047 A 
ATOM      5  C3  UNL d   1      -2.868  -3.981  -5.451  0.00  0.00    -0.047 A 
ATOM      6  C4  UNL d   1      -2.831  -4.853  -4.384  0.00  0.00    -0.004 A 
ENDROOT
TORSDOF 0
ENDMDL
