MODEL 1
REMARK minimizedAffinity 4.57211781
REMARK minimizedRMSD -1
REMARK  0 active torsions:
REMARK  status: ('A' for Active; 'I' for Inactive)
ROOT
ATOM      1  C   UNL d   1      -4.270  -3.499   2.824  0.00  0.00     0.172 C 
ATOM      2  N   UNL d   1      -2.843  -3.331   2.963  0.00  0.00    -0.070 N 
ATOM      3  C1  UNL d   1      -1.887  -3.976   2.224  0.00  0.00    -0.004 A 
ATOM      4  C2  UNL d   1      -0.653  -3.544   2.660  0.00  0.00    -0.047 A 
ATOM      5  C3  UNL d   1      -0.875  -2.607   3.697  0.00  0.00    -0.047 A 
ATOM      6  C4  UNL d   1      -2.239  -2.494   3.864  0.00  0.00    -0.004 A 
ENDROOT
TORSDOF 0
ENDMDL
