MODEL 1
REMARK minimizedAffinity 2.95476031
REMARK minimizedRMSD -1
REMARK  0 active torsions:
REMARK  status: ('A' for Active; 'I' for Inactive)
ROOT
ATOM      1  C   UNL d   1       1.739   5.535  -1.133  0.00  0.00     0.172 C 
ATOM      2  N   UNL d   1       1.501   4.251  -1.749  0.00  0.00    -0.070 N 
ATOM      3  C1  UNL d   1       0.499   3.965  -2.637  0.00  0.00    -0.004 A 
ATOM      4  C2  UNL d   1       0.613   2.638  -2.990  0.00  0.00    -0.047 A 
ATOM      5  C3  UNL d   1       1.723   2.108  -2.290  0.00  0.00    -0.047 A 
ATOM      6  C4  UNL d   1       2.254   3.128  -1.529  0.00  0.00    -0.004 A 
ENDROOT
TORSDOF 0
ENDMDL
