MODEL 1
REMARK minimizedAffinity -4.51182556
REMARK minimizedRMSD -1
REMARK  1 active torsions:
REMARK  status: ('A' for Active; 'I' for Inactive)
REMARK    1  A    between atoms: N_2  and  C1_3 
ROOT
ATOM      1  C1  UNL d   1       0.031   0.008   0.286  0.00  0.00     0.143 A 
ATOM      2  C2  UNL d   1      -0.319  -0.896   1.295  0.00  0.00    -0.057 A 
ATOM      3  C3  UNL d   1       0.497  -1.083   2.417  0.00  0.00     0.033 A 
ATOM      4  C4  UNL d   1       1.696  -0.387   2.537  0.00  0.00    -0.042 A 
ATOM      5  C5  UNL d   1       2.075   0.499   1.535  0.00  0.00     0.033 A 
ATOM      6  C6  UNL d   1       1.253   0.686   0.419  0.00  0.00    -0.057 A 
ENDROOT
BRANCH   1   7
ATOM      7  N   UNL d   1      -0.689   0.166  -0.901  0.00  0.00    -0.732 N 
ATOM      8  C   UNL d   1      -0.312   1.180  -1.862  0.00  0.00     0.284 C 
ATOM      9  H3  UNL d   1      -0.952  -0.725  -1.317  0.00  0.00     0.395 HD
ENDBRANCH   1   7
TORSDOF 1
ENDMDL
