MODEL 1
REMARK minimizedAffinity -2.35657692
REMARK minimizedRMSD -1
REMARK  1 active torsions:
REMARK  status: ('A' for Active; 'I' for Inactive)
REMARK    1  A    between atoms: N_2  and  C1_3 
ROOT
ATOM      1  C1  UNL d   1       0.599   0.088   1.171  0.00  0.00     0.143 A 
ATOM      2  C2  UNL d   1       1.294   0.070  -0.043  0.00  0.00    -0.057 A 
ATOM      3  C3  UNL d   1       0.616   0.088  -1.268  0.00  0.00     0.033 A 
ATOM      4  C4  UNL d   1      -0.774   0.095  -1.300  0.00  0.00    -0.042 A 
ATOM      5  C5  UNL d   1      -1.486   0.088  -0.106  0.00  0.00     0.033 A 
ATOM      6  C6  UNL d   1      -0.804   0.076   1.114  0.00  0.00    -0.057 A 
ENDROOT
BRANCH   1   7
ATOM      7  N   UNL d   1       1.213  -0.029   2.421  0.00  0.00    -0.732 N 
ATOM      8  C   UNL d   1       0.859  -1.108   3.318  0.00  0.00     0.284 C 
ATOM      9  H3  UNL d   1       2.209   0.172   2.384  0.00  0.00     0.395 HD
ENDBRANCH   1   7
TORSDOF 1
ENDMDL
