MODEL 1
REMARK minimizedAffinity -2.16809106
REMARK minimizedRMSD -1
REMARK  1 active torsions:
REMARK  status: ('A' for Active; 'I' for Inactive)
REMARK    1  A    between atoms: N_2  and  C1_3 
ROOT
ATOM      1  C1  UNL d   1      -0.120  -0.440  -0.065  0.00  0.00     0.143 A 
ATOM      2  C2  UNL d   1      -0.858  -0.293   1.115  0.00  0.00    -0.057 A 
ATOM      3  C3  UNL d   1      -0.509  -0.988   2.279  0.00  0.00     0.033 A 
ATOM      4  C4  UNL d   1       0.569  -1.866   2.276  0.00  0.00    -0.042 A 
ATOM      5  C5  UNL d   1       1.301  -2.046   1.108  0.00  0.00     0.033 A 
ATOM      6  C6  UNL d   1       0.952  -1.345  -0.050  0.00  0.00    -0.057 A 
ENDROOT
BRANCH   1   7
ATOM      7  N   UNL d   1      -0.475   0.147  -1.282  0.00  0.00    -0.732 N 
ATOM      8  C   UNL d   1      -0.178   1.539  -1.544  0.00  0.00     0.284 C 
ATOM      9  H3  UNL d   1      -0.309  -0.469  -2.074  0.00  0.00     0.395 HD
ENDBRANCH   1   7
TORSDOF 1
ENDMDL
