MODEL 1
REMARK minimizedAffinity -5.59793854
REMARK minimizedRMSD -1
REMARK  1 active torsions:
REMARK  status: ('A' for Active; 'I' for Inactive)
REMARK    1  A    between atoms: N_2  and  C1_3 
ROOT
ATOM      1  C1  UNL d   1       0.499  -0.594  -0.059  0.00  0.00     0.143 A 
ATOM      2  C2  UNL d   1      -0.323  -0.203   1.004  0.00  0.00    -0.057 A 
ATOM      3  C3  UNL d   1       0.060  -0.417   2.334  0.00  0.00     0.033 A 
ATOM      4  C4  UNL d   1       1.261  -1.055   2.624  0.00  0.00    -0.042 A 
ATOM      5  C5  UNL d   1       2.082  -1.474   1.583  0.00  0.00     0.033 A 
ATOM      6  C6  UNL d   1       1.698  -1.251   0.257  0.00  0.00    -0.057 A 
ENDROOT
BRANCH   1   7
ATOM      7  N   UNL d   1       0.130  -0.497  -1.403  0.00  0.00    -0.732 N 
ATOM      8  C   UNL d   1      -0.820   0.505  -1.837  0.00  0.00     0.284 C 
ATOM      9  H3  UNL d   1       0.920  -0.621  -2.033  0.00  0.00     0.395 HD
ENDBRANCH   1   7
TORSDOF 1
ENDMDL
