MODEL 1
REMARK minimizedAffinity -4.41622496
REMARK minimizedRMSD -1
REMARK  1 active torsions:
REMARK  status: ('A' for Active; 'I' for Inactive)
REMARK    1  A    between atoms: N_2  and  C1_3 
ROOT
ATOM      1  C1  UNL d   1       1.094  -0.789   0.788  0.00  0.00     0.143 A 
ATOM      2  C2  UNL d   1       1.821  -1.395  -0.242  0.00  0.00    -0.057 A 
ATOM      3  C3  UNL d   1       1.369  -1.363  -1.567  0.00  0.00     0.033 A 
ATOM      4  C4  UNL d   1       0.162  -0.747  -1.881  0.00  0.00    -0.042 A 
ATOM      5  C5  UNL d   1      -0.590  -0.160  -0.870  0.00  0.00     0.033 A 
ATOM      6  C6  UNL d   1      -0.130  -0.190   0.450  0.00  0.00    -0.057 A 
ENDROOT
BRANCH   1   7
ATOM      7  N   UNL d   1       1.441  -0.872   2.138  0.00  0.00    -0.732 N 
ATOM      8  C   UNL d   1       1.404  -2.141   2.832  0.00  0.00     0.284 C 
ATOM      9  H3  UNL d   1       2.248  -0.296   2.368  0.00  0.00     0.395 HD
ENDBRANCH   1   7
TORSDOF 1
ENDMDL
