MODEL 1
REMARK minimizedAffinity -2.88308597
REMARK minimizedRMSD -1
REMARK  1 active torsions:
REMARK  status: ('A' for Active; 'I' for Inactive)
REMARK    1  A    between atoms: N_2  and  C1_3 
ROOT
ATOM      1  C1  UNL d   1      -0.796   0.915  -1.739  0.00  0.00     0.143 A 
ATOM      2  C2  UNL d   1      -2.036   1.320  -2.245  0.00  0.00    -0.057 A 
ATOM      3  C3  UNL d   1      -2.176   2.523  -2.948  0.00  0.00     0.033 A 
ATOM      4  C4  UNL d   1      -1.079   3.359  -3.132  0.00  0.00    -0.042 A 
ATOM      5  C5  UNL d   1       0.157   2.989  -2.616  0.00  0.00     0.033 A 
ATOM      6  C6  UNL d   1       0.292   1.783  -1.921  0.00  0.00    -0.057 A 
ENDROOT
BRANCH   1   7
ATOM      7  N   UNL d   1      -0.612  -0.221  -0.947  0.00  0.00    -0.732 N 
ATOM      8  C   UNL d   1      -0.157  -0.100   0.421  0.00  0.00     0.284 C 
ATOM      9  H3  UNL d   1      -1.348  -0.911  -1.081  0.00  0.00     0.395 HD
ENDBRANCH   1   7
TORSDOF 1
ENDMDL
