MODEL 1
REMARK minimizedAffinity -4.94471931
REMARK minimizedRMSD -1
REMARK  1 active torsions:
REMARK  status: ('A' for Active; 'I' for Inactive)
REMARK    1  A    between atoms: N_2  and  C1_3 
ROOT
ATOM      1  C1  UNL d   1       0.307  -0.593  -0.072  0.00  0.00     0.143 A 
ATOM      2  C2  UNL d   1      -0.461  -0.812   1.077  0.00  0.00    -0.057 A 
ATOM      3  C3  UNL d   1       0.129  -1.222   2.278  0.00  0.00     0.033 A 
ATOM      4  C4  UNL d   1       1.500  -1.449   2.345  0.00  0.00    -0.042 A 
ATOM      5  C5  UNL d   1       2.280  -1.262   1.209  0.00  0.00     0.033 A 
ATOM      6  C6  UNL d   1       1.685  -0.846   0.014  0.00  0.00    -0.057 A 
ENDROOT
BRANCH   1   7
ATOM      7  N   UNL d   1      -0.234  -0.281  -1.321  0.00  0.00    -0.732 N 
ATOM      8  C   UNL d   1      -0.426   1.098  -1.718  0.00  0.00     0.284 C 
ATOM      9  H3  UNL d   1       0.126  -0.880  -2.061  0.00  0.00     0.395 HD
ENDBRANCH   1   7
TORSDOF 1
ENDMDL
