MODEL 1
REMARK minimizedAffinity -3.03040576
REMARK minimizedRMSD -1
REMARK  0 active torsions:
REMARK  status: ('A' for Active; 'I' for Inactive)
ROOT
ATOM      1  C   UNL d   1      -0.806  -2.400   0.530  0.00  0.00     0.023 A 
ATOM      2  C1  UNL d   1      -1.203  -1.461   1.482  0.00  0.00     0.003 A 
ATOM      3  C2  UNL d   1      -0.806  -0.128   1.357  0.00  0.00     0.048 A 
ATOM      4  C3  UNL d   1      -0.013   0.259   0.277  0.00  0.00     0.023 A 
ATOM      5  C4  UNL d   1       0.386  -0.677  -0.678  0.00  0.00     0.048 A 
ATOM      6  C5  UNL d   1      -0.012  -2.009  -0.549  0.00  0.00     0.003 A 
ATOM      7  I   UNL d   1       0.579   2.242   0.089  0.00  0.00    -0.146 I 
ENDROOT
TORSDOF 0
ENDMDL
