MODEL 1
REMARK minimizedAffinity -3.92235136
REMARK minimizedRMSD -1
REMARK  0 active torsions:
REMARK  status: ('A' for Active; 'I' for Inactive)
ROOT
ATOM      1  C   UNL d   1       0.218  -3.144   0.549  0.00  0.00     0.023 A 
ATOM      2  C1  UNL d   1      -0.689  -2.337   1.234  0.00  0.00     0.003 A 
ATOM      3  C2  UNL d   1      -0.762  -0.971   0.952  0.00  0.00     0.048 A 
ATOM      4  C3  UNL d   1       0.075  -0.420  -0.018  0.00  0.00     0.023 A 
ATOM      5  C4  UNL d   1       0.984  -1.224  -0.707  0.00  0.00     0.048 A 
ATOM      6  C5  UNL d   1       1.054  -2.589  -0.421  0.00  0.00     0.003 A 
ATOM      7  I   UNL d   1      -0.032   1.613  -0.440  0.00  0.00    -0.146 I 
ENDROOT
TORSDOF 0
ENDMDL
