MODEL 1
REMARK minimizedAffinity -3.28743219
REMARK minimizedRMSD -1
REMARK  0 active torsions:
REMARK  status: ('A' for Active; 'I' for Inactive)
ROOT
ATOM      1  C   UNL d   1       0.122  -3.310   0.773  0.00  0.00     0.023 A 
ATOM      2  C1  UNL d   1       1.330  -2.712   0.416  0.00  0.00     0.003 A 
ATOM      3  C2  UNL d   1       1.352  -1.384  -0.016  0.00  0.00     0.048 A 
ATOM      4  C3  UNL d   1       0.162  -0.660  -0.086  0.00  0.00     0.023 A 
ATOM      5  C4  UNL d   1      -1.049  -1.254   0.272  0.00  0.00     0.048 A 
ATOM      6  C5  UNL d   1      -1.066  -2.583   0.701  0.00  0.00     0.003 A 
ATOM      7  I   UNL d   1       0.192   1.317  -0.727  0.00  0.00    -0.146 I 
ENDROOT
TORSDOF 0
ENDMDL
