MODEL 1
REMARK minimizedAffinity -4.35381508
REMARK minimizedRMSD -1
REMARK  0 active torsions:
REMARK  status: ('A' for Active; 'I' for Inactive)
ROOT
ATOM      1  C   UNL d   1      -0.702  -2.773   0.933  0.00  0.00     0.023 A 
ATOM      2  C1  UNL d   1      -1.182  -1.666   1.633  0.00  0.00     0.003 A 
ATOM      3  C2  UNL d   1      -0.710  -0.388   1.329  0.00  0.00     0.048 A 
ATOM      4  C3  UNL d   1       0.241  -0.223   0.323  0.00  0.00     0.023 A 
ATOM      5  C4  UNL d   1       0.724  -1.328  -0.380  0.00  0.00     0.048 A 
ATOM      6  C5  UNL d   1       0.250  -2.604  -0.072  0.00  0.00     0.003 A 
ATOM      7  I   UNL d   1       0.945   1.679  -0.131  0.00  0.00    -0.146 I 
ENDROOT
TORSDOF 0
ENDMDL
