MODEL 1
REMARK minimizedAffinity -3.21506262
REMARK minimizedRMSD -1
REMARK  0 active torsions:
REMARK  status: ('A' for Active; 'I' for Inactive)
ROOT
ATOM      1  C   UNL d   1      -0.426  -1.751   0.214  0.00  0.00     0.023 A 
ATOM      2  C1  UNL d   1      -0.990  -0.883   1.148  0.00  0.00     0.003 A 
ATOM      3  C2  UNL d   1      -0.725   0.487   1.080  0.00  0.00     0.048 A 
ATOM      4  C3  UNL d   1       0.105   0.981   0.075  0.00  0.00     0.023 A 
ATOM      5  C4  UNL d   1       0.671   0.116  -0.863  0.00  0.00     0.048 A 
ATOM      6  C5  UNL d   1       0.404  -1.252  -0.790  0.00  0.00     0.003 A 
ATOM      7  I   UNL d   1       0.501   3.019  -0.029  0.00  0.00    -0.146 I 
ENDROOT
TORSDOF 0
ENDMDL
