MODEL 1
REMARK minimizedAffinity -4.63049078
REMARK minimizedRMSD -1
REMARK  0 active torsions:
REMARK  status: ('A' for Active; 'I' for Inactive)
ROOT
ATOM      1  C   UNL d   1      -0.349  -3.519   0.393  0.00  0.00     0.023 A 
ATOM      2  C1  UNL d   1       0.875  -3.025  -0.058  0.00  0.00     0.003 A 
ATOM      3  C2  UNL d   1       1.058  -1.650  -0.218  0.00  0.00     0.048 A 
ATOM      4  C3  UNL d   1       0.013  -0.774   0.077  0.00  0.00     0.023 A 
ATOM      5  C4  UNL d   1      -1.213  -1.264   0.530  0.00  0.00     0.048 A 
ATOM      6  C5  UNL d   1      -1.392  -2.640   0.687  0.00  0.00     0.003 A 
ATOM      7  I   UNL d   1       0.284   1.273  -0.160  0.00  0.00    -0.146 I 
ENDROOT
TORSDOF 0
ENDMDL
