MODEL 1
REMARK minimizedAffinity -3.30676007
REMARK minimizedRMSD -1
REMARK  0 active torsions:
REMARK  status: ('A' for Active; 'I' for Inactive)
ROOT
ATOM      1  C   UNL d   1       0.477  -2.460  -0.605  0.00  0.00     0.023 A 
ATOM      2  C1  UNL d   1       0.662  -1.785  -1.811  0.00  0.00     0.003 A 
ATOM      3  C2  UNL d   1       0.352  -0.427  -1.907  0.00  0.00     0.048 A 
ATOM      4  C3  UNL d   1      -0.141   0.250  -0.792  0.00  0.00     0.023 A 
ATOM      5  C4  UNL d   1      -0.327  -0.422   0.417  0.00  0.00     0.048 A 
ATOM      6  C5  UNL d   1      -0.016  -1.780   0.508  0.00  0.00     0.003 A 
ATOM      7  I   UNL d   1      -0.603   2.272  -0.932  0.00  0.00    -0.146 I 
ENDROOT
TORSDOF 0
ENDMDL
