MODEL 1
REMARK minimizedAffinity -4.04137278
REMARK minimizedRMSD -1
REMARK  0 active torsions:
REMARK  status: ('A' for Active; 'I' for Inactive)
ROOT
ATOM      1  C   UNL d   1      -0.186  -3.463  -0.932  0.00  0.00     0.023 A 
ATOM      2  C1  UNL d   1       0.120  -2.590  -1.976  0.00  0.00     0.003 A 
ATOM      3  C2  UNL d   1       0.305  -1.230  -1.720  0.00  0.00     0.048 A 
ATOM      4  C3  UNL d   1       0.182  -0.749  -0.417  0.00  0.00     0.023 A 
ATOM      5  C4  UNL d   1      -0.123  -1.619   0.631  0.00  0.00     0.048 A 
ATOM      6  C5  UNL d   1      -0.307  -2.978   0.370  0.00  0.00     0.003 A 
ATOM      7  I   UNL d   1       0.456   1.275  -0.033  0.00  0.00    -0.146 I 
ENDROOT
TORSDOF 0
ENDMDL
