MODEL 1
REMARK minimizedAffinity -2.34378576
REMARK minimizedRMSD -1
REMARK  0 active torsions:
REMARK  status: ('A' for Active; 'I' for Inactive)
ROOT
ATOM      1  C   UNL d   1       1.410   2.452  -0.964  0.00  0.00     0.023 A 
ATOM      2  C1  UNL d   1       0.628   1.484  -1.594  0.00  0.00     0.003 A 
ATOM      3  C2  UNL d   1       0.071   0.442  -0.851  0.00  0.00     0.048 A 
ATOM      4  C3  UNL d   1       0.299   0.374   0.523  0.00  0.00     0.023 A 
ATOM      5  C4  UNL d   1       1.080   1.341   1.159  0.00  0.00     0.048 A 
ATOM      6  C5  UNL d   1       1.635   2.381   0.410  0.00  0.00     0.003 A 
ATOM      7  I   UNL d   1      -0.529  -1.176   1.633  0.00  0.00    -0.146 I 
ENDROOT
TORSDOF 0
ENDMDL
