MODEL 1
REMARK minimizedAffinity -2.92948818
REMARK minimizedRMSD -1
REMARK  0 active torsions:
REMARK  status: ('A' for Active; 'I' for Inactive)
ROOT
ATOM      1  C   UNL d   1      -0.695  -2.723   0.441  0.00  0.00     0.023 A 
ATOM      2  C1  UNL d   1      -1.375  -1.780   1.213  0.00  0.00     0.003 A 
ATOM      3  C2  UNL d   1      -1.038  -0.428   1.123  0.00  0.00     0.048 A 
ATOM      4  C3  UNL d   1      -0.020  -0.025   0.258  0.00  0.00     0.023 A 
ATOM      5  C4  UNL d   1       0.662  -0.965  -0.516  0.00  0.00     0.048 A 
ATOM      6  C5  UNL d   1       0.322  -2.315  -0.423  0.00  0.00     0.003 A 
ATOM      7  I   UNL d   1       0.484   1.987   0.123  0.00  0.00    -0.146 I 
ENDROOT
TORSDOF 0
ENDMDL
