MODEL 1
REMARK minimizedAffinity 0.428339541
REMARK minimizedRMSD -1
REMARK  0 active torsions:
REMARK  status: ('A' for Active; 'I' for Inactive)
ROOT
ATOM      1  C   UNL d   1      -0.482   1.477  -0.065  0.00  0.00     0.023 A 
ATOM      2  C1  UNL d   1      -1.106   0.904   1.043  0.00  0.00     0.003 A 
ATOM      3  C2  UNL d   1      -1.156  -0.485   1.177  0.00  0.00     0.048 A 
ATOM      4  C3  UNL d   1      -0.580  -1.295   0.199  0.00  0.00     0.023 A 
ATOM      5  C4  UNL d   1       0.046  -0.726  -0.912  0.00  0.00     0.048 A 
ATOM      6  C5  UNL d   1       0.093   0.663  -1.041  0.00  0.00     0.003 A 
ATOM      7  I   UNL d   1      -0.653  -3.363   0.396  0.00  0.00    -0.146 I 
ENDROOT
TORSDOF 0
ENDMDL
