MODEL 1
REMARK minimizedAffinity -1.98253155
REMARK minimizedRMSD -1
REMARK  0 active torsions:
REMARK  status: ('A' for Active; 'I' for Inactive)
ROOT
ATOM      1  C   UNL d   1      -0.194   1.074  -0.546  0.00  0.00     0.023 A 
ATOM      2  C1  UNL d   1      -0.771   0.476   0.575  0.00  0.00     0.003 A 
ATOM      3  C2  UNL d   1      -0.707  -0.909   0.740  0.00  0.00     0.048 A 
ATOM      4  C3  UNL d   1      -0.063  -1.690  -0.218  0.00  0.00     0.023 A 
ATOM      5  C4  UNL d   1       0.516  -1.097  -1.341  0.00  0.00     0.048 A 
ATOM      6  C5  UNL d   1       0.449   0.288  -1.502  0.00  0.00     0.003 A 
ATOM      7  I   UNL d   1       0.034  -3.752   0.026  0.00  0.00    -0.146 I 
ENDROOT
TORSDOF 0
ENDMDL
