MODEL 1
REMARK minimizedAffinity -4.07262087
REMARK minimizedRMSD -1
REMARK  0 active torsions:
REMARK  status: ('A' for Active; 'I' for Inactive)
ROOT
ATOM      1  C   UNL d   1      -0.947  -2.803   0.743  0.00  0.00     0.023 A 
ATOM      2  C1  UNL d   1      -1.564  -1.658   1.247  0.00  0.00     0.003 A 
ATOM      3  C2  UNL d   1      -0.980  -0.405   1.052  0.00  0.00     0.048 A 
ATOM      4  C3  UNL d   1       0.222  -0.304   0.352  0.00  0.00     0.023 A 
ATOM      5  C4  UNL d   1       0.843  -1.447  -0.155  0.00  0.00     0.048 A 
ATOM      6  C5  UNL d   1       0.255  -2.697   0.043  0.00  0.00     0.003 A 
ATOM      7  I   UNL d   1       1.094   1.560   0.061  0.00  0.00    -0.146 I 
ENDROOT
TORSDOF 0
ENDMDL
