MODEL 1
REMARK minimizedAffinity 3.94031715
REMARK minimizedRMSD -1
REMARK  3 active torsions:
REMARK  status: ('A' for Active; 'I' for Inactive)
REMARK    1  A    between atoms: C3'_2  and  C2'_3 
REMARK    2  A    between atoms: C2'_3  and  C1'_4 
REMARK    3  A    between atoms: C1'_4  and  C1_5 
ROOT
ATOM      1  C1  N4B d   1       3.198  -2.857   2.099  0.00  0.00    -0.075 A 
ATOM      2  C2  N4B d   1       2.390  -1.699   2.145  0.00  0.00     0.002 A 
ATOM      3  C3  N4B d   1       1.272  -1.611   1.354  0.00  0.00     0.002 A 
ATOM      4  C4  N4B d   1       0.952  -2.655   0.499  0.00  0.00    -0.004 A 
ATOM      5  C5  N4B d   1       1.724  -3.780   0.479  0.00  0.00     0.002 A 
ATOM      6  C6  N4B d   1       2.849  -3.884   1.272  0.00  0.00     0.002 A 
ENDROOT
BRANCH   1   7
ATOM      7  C1' N4B d   1       4.478  -2.963   2.883  0.00  0.00     0.057 C 
BRANCH   7   8
ATOM      8  C2' N4B d   1       4.316  -2.227   4.209  0.00  0.00     0.009 C 
BRANCH   8   9
ATOM      9  C3' N4B d   1       5.582  -2.283   5.048  0.00  0.00     0.004 C 
ATOM     10  C4' N4B d   1       5.723  -3.573   5.801  0.00  0.00     0.003 C 
ENDBRANCH   8   9
ENDBRANCH   7   8
ENDBRANCH   1   7
TORSDOF 3
ENDMDL
