MODEL 1
REMARK minimizedAffinity 7.27920198
REMARK minimizedRMSD -1
REMARK  3 active torsions:
REMARK  status: ('A' for Active; 'I' for Inactive)
REMARK    1  A    between atoms: C3'_2  and  C2'_3 
REMARK    2  A    between atoms: C2'_3  and  C1'_4 
REMARK    3  A    between atoms: C1'_4  and  C1_5 
ROOT
ATOM      1  C1  N4B d   1       3.864  -3.014   0.734  0.00  0.00    -0.075 A 
ATOM      2  C2  N4B d   1       3.874  -4.417   0.572  0.00  0.00     0.002 A 
ATOM      3  C3  N4B d   1       2.702  -5.087   0.322  0.00  0.00     0.002 A 
ATOM      4  C4  N4B d   1       1.511  -4.381   0.247  0.00  0.00    -0.004 A 
ATOM      5  C5  N4B d   1       1.513  -3.024   0.380  0.00  0.00     0.002 A 
ATOM      6  C6  N4B d   1       2.684  -2.336   0.628  0.00  0.00     0.002 A 
ENDROOT
BRANCH   1   7
ATOM      7  C1' N4B d   1       5.107  -2.247   1.095  0.00  0.00     0.057 C 
BRANCH   7   8
ATOM      8  C2' N4B d   1       5.504  -1.355  -0.078  0.00  0.00     0.009 C 
BRANCH   8   9
ATOM      9  C3' N4B d   1       6.000   0.004   0.384  0.00  0.00     0.004 C 
ATOM     10  C4' N4B d   1       5.998   1.027  -0.713  0.00  0.00     0.003 C 
ENDBRANCH   8   9
ENDBRANCH   7   8
ENDBRANCH   1   7
TORSDOF 3
ENDMDL
