MODEL 1
REMARK minimizedAffinity 9.89428425
REMARK minimizedRMSD -1
REMARK  3 active torsions:
REMARK  status: ('A' for Active; 'I' for Inactive)
REMARK    1  A    between atoms: C3'_2  and  C2'_3 
REMARK    2  A    between atoms: C2'_3  and  C1'_4 
REMARK    3  A    between atoms: C1'_4  and  C1_5 
ROOT
ATOM      1  C1  N4B d   1       1.393  -1.955   1.486  0.00  0.00    -0.075 A 
ATOM      2  C2  N4B d   1       0.036  -2.278   1.270  0.00  0.00     0.002 A 
ATOM      3  C3  N4B d   1      -0.945  -1.645   1.993  0.00  0.00     0.002 A 
ATOM      4  C4  N4B d   1      -0.592  -0.703   2.948  0.00  0.00    -0.004 A 
ATOM      5  C5  N4B d   1       0.719  -0.378   3.133  0.00  0.00     0.002 A 
ATOM      6  C6  N4B d   1       1.715  -1.003   2.410  0.00  0.00     0.002 A 
ENDROOT
BRANCH   1   7
ATOM      7  C1' N4B d   1       2.505  -2.681   0.780  0.00  0.00     0.057 C 
BRANCH   7   8
ATOM      8  C2' N4B d   1       1.910  -3.573  -0.306  0.00  0.00     0.009 C 
BRANCH   8   9
ATOM      9  C3' N4B d   1       2.007  -5.046   0.053  0.00  0.00     0.004 C 
ATOM     10  C4' N4B d   1       0.785  -5.553   0.760  0.00  0.00     0.003 C 
ENDBRANCH   8   9
ENDBRANCH   7   8
ENDBRANCH   1   7
TORSDOF 3
ENDMDL
