MODEL 1
REMARK minimizedAffinity 14.1003027
REMARK minimizedRMSD -1
REMARK  3 active torsions:
REMARK  status: ('A' for Active; 'I' for Inactive)
REMARK    1  A    between atoms: C3'_2  and  C2'_3 
REMARK    2  A    between atoms: C2'_3  and  C1'_4 
REMARK    3  A    between atoms: C1'_4  and  C1_5 
ROOT
ATOM      1  C1  N4B d   1      -3.838   3.371   5.622  0.00  0.00    -0.075 A 
ATOM      2  C2  N4B d   1      -2.871   4.399   5.669  0.00  0.00     0.002 A 
ATOM      3  C3  N4B d   1      -3.262   5.701   5.866  0.00  0.00     0.002 A 
ATOM      4  C4  N4B d   1      -4.610   5.999   5.999  0.00  0.00    -0.004 A 
ATOM      5  C5  N4B d   1      -5.536   4.997   5.978  0.00  0.00     0.002 A 
ATOM      6  C6  N4B d   1      -5.157   3.684   5.785  0.00  0.00     0.002 A 
ENDROOT
BRANCH   1   7
ATOM      7  C1' N4B d   1      -3.466   1.944   5.324  0.00  0.00     0.057 C 
BRANCH   7   8
ATOM      8  C2' N4B d   1      -3.278   1.780   3.818  0.00  0.00     0.009 C 
BRANCH   8   9
ATOM      9  C3' N4B d   1      -4.483   1.127   3.163  0.00  0.00     0.004 C 
ATOM     10  C4' N4B d   1      -4.740   1.641   1.778  0.00  0.00     0.003 C 
ENDBRANCH   8   9
ENDBRANCH   7   8
ENDBRANCH   1   7
TORSDOF 3
ENDMDL
