MODEL 1
REMARK minimizedAffinity 17.1657867
REMARK minimizedRMSD -1
REMARK  1 active torsions:
REMARK  status: ('A' for Active; 'I' for Inactive)
REMARK    1  A    between atoms: N_2  and  C1_3 
ROOT
ATOM      1  C1  UNL d   1      -2.766  -0.681   3.454  0.00  0.00     0.143 A 
ATOM      2  C2  UNL d   1      -1.385  -0.811   3.277  0.00  0.00    -0.057 A 
ATOM      3  C3  UNL d   1      -0.720  -0.146   2.240  0.00  0.00     0.033 A 
ATOM      4  C4  UNL d   1      -1.432   0.641   1.341  0.00  0.00    -0.042 A 
ATOM      5  C5  UNL d   1      -2.810   0.766   1.483  0.00  0.00     0.033 A 
ATOM      6  C6  UNL d   1      -3.467   0.104   2.525  0.00  0.00    -0.057 A 
ENDROOT
BRANCH   1   7
ATOM      7  N   UNL d   1      -3.499  -1.394   4.406  0.00  0.00    -0.732 N 
ATOM      8  C   UNL d   1      -3.086  -1.413   5.792  0.00  0.00     0.284 C 
ATOM      9  H3  UNL d   1      -4.504  -1.301   4.272  0.00  0.00     0.395 HD
ENDBRANCH   1   7
TORSDOF 1
ENDMDL
