MODEL 1
REMARK minimizedAffinity 6.80676222
REMARK minimizedRMSD -1
REMARK  1 active torsions:
REMARK  status: ('A' for Active; 'I' for Inactive)
REMARK    1  A    between atoms: N_2  and  C1_3 
ROOT
ATOM      1  C1  UNL d   1      -3.975  -4.780   0.722  0.00  0.00     0.143 A 
ATOM      2  C2  UNL d   1      -4.933  -3.771   0.872  0.00  0.00    -0.057 A 
ATOM      3  C3  UNL d   1      -5.923  -3.852   1.859  0.00  0.00     0.033 A 
ATOM      4  C4  UNL d   1      -5.991  -4.961   2.696  0.00  0.00    -0.042 A 
ATOM      5  C5  UNL d   1      -5.066  -5.987   2.547  0.00  0.00     0.033 A 
ATOM      6  C6  UNL d   1      -4.075  -5.898   1.565  0.00  0.00    -0.057 A 
ENDROOT
BRANCH   1   7
ATOM      7  N   UNL d   1      -3.026  -4.805  -0.303  0.00  0.00    -0.732 N 
ATOM      8  C   UNL d   1      -1.768  -4.104  -0.160  0.00  0.00     0.284 C 
ATOM      9  H3  UNL d   1      -2.944  -5.723  -0.734  0.00  0.00     0.395 HD
ENDBRANCH   1   7
TORSDOF 1
ENDMDL
