MODEL 1
REMARK minimizedAffinity 15.9617262
REMARK minimizedRMSD -1
REMARK  1 active torsions:
REMARK  status: ('A' for Active; 'I' for Inactive)
REMARK    1  A    between atoms: N_2  and  C1_3 
ROOT
ATOM      1  C1  UNL d   1      -1.399  -2.704   0.792  0.00  0.00     0.143 A 
ATOM      2  C2  UNL d   1      -2.605  -3.221   0.308  0.00  0.00    -0.057 A 
ATOM      3  C3  UNL d   1      -3.792  -2.481   0.374  0.00  0.00     0.033 A 
ATOM      4  C4  UNL d   1      -3.798  -1.217   0.955  0.00  0.00    -0.042 A 
ATOM      5  C5  UNL d   1      -2.616  -0.692   1.465  0.00  0.00     0.033 A 
ATOM      6  C6  UNL d   1      -1.433  -1.434   1.389  0.00  0.00    -0.057 A 
ENDROOT
BRANCH   1   7
ATOM      7  N   UNL d   1      -0.206  -3.429   0.844  0.00  0.00    -0.732 N 
ATOM      8  C   UNL d   1       0.350  -3.844   2.114  0.00  0.00     0.284 C 
ATOM      9  H3  UNL d   1      -0.150  -4.136   0.114  0.00  0.00     0.395 HD
ENDBRANCH   1   7
TORSDOF 1
ENDMDL
