MODEL 1
REMARK minimizedAffinity 5.12545872
REMARK minimizedRMSD -1
REMARK  1 active torsions:
REMARK  status: ('A' for Active; 'I' for Inactive)
REMARK    1  A    between atoms: N_2  and  C1_3 
ROOT
ATOM      1  C1  UNL d   1      -2.791  -3.108  -5.722  0.00  0.00     0.143 A 
ATOM      2  C2  UNL d   1      -3.779  -2.203  -5.320  0.00  0.00    -0.057 A 
ATOM      3  C3  UNL d   1      -5.110  -2.605  -5.156  0.00  0.00     0.033 A 
ATOM      4  C4  UNL d   1      -5.483  -3.919  -5.420  0.00  0.00    -0.042 A 
ATOM      5  C5  UNL d   1      -4.522  -4.831  -5.844  0.00  0.00     0.033 A 
ATOM      6  C6  UNL d   1      -3.194  -4.424  -6.000  0.00  0.00    -0.057 A 
ENDROOT
BRANCH   1   7
ATOM      7  N   UNL d   1      -1.470  -2.747  -5.997  0.00  0.00    -0.732 N 
ATOM      8  C   UNL d   1      -0.750  -1.855  -5.114  0.00  0.00     0.284 C 
ATOM      9  H3  UNL d   1      -0.917  -3.529  -6.340  0.00  0.00     0.395 HD
ENDBRANCH   1   7
TORSDOF 1
ENDMDL
