MODEL 1
REMARK minimizedAffinity 7.29417562
REMARK minimizedRMSD -1
REMARK  1 active torsions:
REMARK  status: ('A' for Active; 'I' for Inactive)
REMARK    1  A    between atoms: N_2  and  C1_3 
ROOT
ATOM      1  C1  UNL d   1       0.492  -1.188  -4.651  0.00  0.00     0.143 A 
ATOM      2  C2  UNL d   1      -0.673  -0.431  -4.819  0.00  0.00    -0.057 A 
ATOM      3  C3  UNL d   1      -1.794  -0.959  -5.472  0.00  0.00     0.033 A 
ATOM      4  C4  UNL d   1      -1.759  -2.248  -5.995  0.00  0.00    -0.042 A 
ATOM      5  C5  UNL d   1      -0.603  -3.009  -5.862  0.00  0.00     0.033 A 
ATOM      6  C6  UNL d   1       0.511  -2.478  -5.203  0.00  0.00    -0.057 A 
ENDROOT
BRANCH   1   7
ATOM      7  N   UNL d   1       1.673  -0.685  -4.099  0.00  0.00    -0.732 N 
ATOM      8  C   UNL d   1       1.652   0.028  -2.840  0.00  0.00     0.284 C 
ATOM      9  H3  UNL d   1       2.453  -1.330  -4.199  0.00  0.00     0.395 HD
ENDBRANCH   1   7
TORSDOF 1
ENDMDL
