MODEL 1
REMARK minimizedAffinity 7.12932587
REMARK minimizedRMSD -1
REMARK  1 active torsions:
REMARK  status: ('A' for Active; 'I' for Inactive)
REMARK    1  A    between atoms: N_2  and  C1_3 
ROOT
ATOM      1  C1  UNL d   1      -2.852   2.144   1.948  0.00  0.00     0.143 A 
ATOM      2  C2  UNL d   1      -1.478   2.083   1.690  0.00  0.00    -0.057 A 
ATOM      3  C3  UNL d   1      -0.741   0.922   1.951  0.00  0.00     0.033 A 
ATOM      4  C4  UNL d   1      -1.362  -0.193   2.505  0.00  0.00    -0.042 A 
ATOM      5  C5  UNL d   1      -2.721  -0.146   2.793  0.00  0.00     0.033 A 
ATOM      6  C6  UNL d   1      -3.453   1.014   2.524  0.00  0.00    -0.057 A 
ENDROOT
BRANCH   1   7
ATOM      7  N   UNL d   1      -3.620   3.302   1.802  0.00  0.00    -0.732 N 
ATOM      8  C   UNL d   1      -5.065   3.240   1.856  0.00  0.00     0.284 C 
ATOM      9  H3  UNL d   1      -3.219   4.098   2.293  0.00  0.00     0.395 HD
ENDBRANCH   1   7
TORSDOF 1
ENDMDL
