MODEL 1
REMARK minimizedAffinity 10.3422127
REMARK minimizedRMSD -1
REMARK  1 active torsions:
REMARK  status: ('A' for Active; 'I' for Inactive)
REMARK    1  A    between atoms: N_2  and  C1_3 
ROOT
ATOM      1  C1  UNL d   1       2.550   0.581  -3.796  0.00  0.00     0.143 A 
ATOM      2  C2  UNL d   1       2.975   1.508  -4.754  0.00  0.00    -0.057 A 
ATOM      3  C3  UNL d   1       3.747   1.114  -5.853  0.00  0.00     0.033 A 
ATOM      4  C4  UNL d   1       4.134  -0.214  -6.000  0.00  0.00    -0.042 A 
ATOM      5  C5  UNL d   1       3.744  -1.148  -5.047  0.00  0.00     0.033 A 
ATOM      6  C6  UNL d   1       2.968  -0.750  -3.955  0.00  0.00    -0.057 A 
ENDROOT
BRANCH   1   7
ATOM      7  N   UNL d   1       1.864   0.926  -2.630  0.00  0.00    -0.732 N 
ATOM      8  C   UNL d   1       1.974   2.259  -2.078  0.00  0.00     0.284 C 
ATOM      9  H3  UNL d   1       0.922   0.542  -2.604  0.00  0.00     0.395 HD
ENDBRANCH   1   7
TORSDOF 1
ENDMDL
