MODEL 1
REMARK minimizedAffinity 7.35244274
REMARK minimizedRMSD -1
REMARK  1 active torsions:
REMARK  status: ('A' for Active; 'I' for Inactive)
REMARK    1  A    between atoms: N_2  and  C1_3 
ROOT
ATOM      1  C1  UNL d   1      -2.762   1.494   1.389  0.00  0.00     0.143 A 
ATOM      2  C2  UNL d   1      -1.427   1.490   0.969  0.00  0.00    -0.057 A 
ATOM      3  C3  UNL d   1      -0.582   0.409   1.245  0.00  0.00     0.033 A 
ATOM      4  C4  UNL d   1      -1.051  -0.679   1.975  0.00  0.00    -0.042 A 
ATOM      5  C5  UNL d   1      -2.366  -0.686   2.425  0.00  0.00     0.033 A 
ATOM      6  C6  UNL d   1      -3.207   0.395   2.140  0.00  0.00    -0.057 A 
ENDROOT
BRANCH   1   7
ATOM      7  N   UNL d   1      -3.624   2.582   1.231  0.00  0.00    -0.732 N 
ATOM      8  C   UNL d   1      -4.319   3.144   2.370  0.00  0.00     0.284 C 
ATOM      9  H3  UNL d   1      -3.258   3.276   0.583  0.00  0.00     0.395 HD
ENDBRANCH   1   7
TORSDOF 1
ENDMDL
