MODEL 1
REMARK minimizedAffinity 6.88042402
REMARK minimizedRMSD -1
REMARK  1 active torsions:
REMARK  status: ('A' for Active; 'I' for Inactive)
REMARK    1  A    between atoms: N_2  and  C1_3 
ROOT
ATOM      1  C1  UNL d   1       3.351   1.625  -5.277  0.00  0.00     0.143 A 
ATOM      2  C2  UNL d   1       3.195   1.593  -3.888  0.00  0.00    -0.057 A 
ATOM      3  C3  UNL d   1       2.778   0.429  -3.230  0.00  0.00     0.033 A 
ATOM      4  C4  UNL d   1       2.480  -0.719  -3.958  0.00  0.00    -0.042 A 
ATOM      5  C5  UNL d   1       2.604  -0.702  -5.342  0.00  0.00     0.033 A 
ATOM      6  C6  UNL d   1       3.028   0.461  -5.992  0.00  0.00    -0.057 A 
ENDROOT
BRANCH   1   7
ATOM      7  N   UNL d   1       3.668   2.779  -5.998  0.00  0.00    -0.732 N 
ATOM      8  C   UNL d   1       3.988   4.012  -5.312  0.00  0.00     0.284 C 
ATOM      9  H3  UNL d   1       4.260   2.585  -6.802  0.00  0.00     0.395 HD
ENDBRANCH   1   7
TORSDOF 1
ENDMDL
