MODEL 1
REMARK minimizedAffinity 6.0754528
REMARK minimizedRMSD -1
REMARK  1 active torsions:
REMARK  status: ('A' for Active; 'I' for Inactive)
REMARK    1  A    between atoms: N_2  and  C1_3 
ROOT
ATOM      1  C1  UNL d   1       2.623   2.650  -3.141  0.00  0.00     0.143 A 
ATOM      2  C2  UNL d   1       3.393   2.932  -4.275  0.00  0.00    -0.057 A 
ATOM      3  C3  UNL d   1       3.569   4.246  -4.725  0.00  0.00     0.033 A 
ATOM      4  C4  UNL d   1       2.952   5.303  -4.064  0.00  0.00    -0.042 A 
ATOM      5  C5  UNL d   1       2.162   5.044  -2.949  0.00  0.00     0.033 A 
ATOM      6  C6  UNL d   1       1.996   3.730  -2.501  0.00  0.00    -0.057 A 
ENDROOT
BRANCH   1   7
ATOM      7  N   UNL d   1       2.330   1.357  -2.702  0.00  0.00    -0.732 N 
ATOM      8  C   UNL d   1       2.000   0.314  -3.648  0.00  0.00     0.284 C 
ATOM      9  H3  UNL d   1       2.942   1.055  -1.947  0.00  0.00     0.395 HD
ENDBRANCH   1   7
TORSDOF 1
ENDMDL
