MODEL 1
REMARK minimizedAffinity 8.38311768
REMARK minimizedRMSD -1
REMARK  1 active torsions:
REMARK  status: ('A' for Active; 'I' for Inactive)
REMARK    1  A    between atoms: N_2  and  C1_3 
ROOT
ATOM      1  C1  UNL d   1      -1.177  -2.922   0.529  0.00  0.00     0.143 A 
ATOM      2  C2  UNL d   1      -2.340  -3.389  -0.091  0.00  0.00    -0.057 A 
ATOM      3  C3  UNL d   1      -3.495  -2.600  -0.158  0.00  0.00     0.033 A 
ATOM      4  C4  UNL d   1      -3.515  -1.336   0.422  0.00  0.00    -0.042 A 
ATOM      5  C5  UNL d   1      -2.378  -0.861   1.065  0.00  0.00     0.033 A 
ATOM      6  C6  UNL d   1      -1.226  -1.651   1.123  0.00  0.00    -0.057 A 
ENDROOT
BRANCH   1   7
ATOM      7  N   UNL d   1      -0.029  -3.696   0.714  0.00  0.00    -0.732 N 
ATOM      8  C   UNL d   1       0.405  -4.064   2.045  0.00  0.00     0.284 C 
ATOM      9  H3  UNL d   1       0.049  -4.445   0.029  0.00  0.00     0.395 HD
ENDBRANCH   1   7
TORSDOF 1
ENDMDL
