MODEL 1
REMARK minimizedAffinity -4.95649576
REMARK minimizedRMSD -1
REMARK  3 active torsions:
REMARK  status: ('A' for Active; 'I' for Inactive)
REMARK    1  A    between atoms: C3'_2  and  C2'_3 
REMARK    2  A    between atoms: C2'_3  and  C1'_4 
REMARK    3  A    between atoms: C1'_4  and  C1_5 
ROOT
ATOM      1  C1  N4B d   1      -0.506   0.221   0.578  0.00  0.00    -0.075 A 
ATOM      2  C2  N4B d   1      -0.904   0.515   1.901  0.00  0.00     0.002 A 
ATOM      3  C3  N4B d   1      -1.197   1.808   2.259  0.00  0.00     0.002 A 
ATOM      4  C4  N4B d   1      -1.081   2.822   1.320  0.00  0.00    -0.004 A 
ATOM      5  C5  N4B d   1      -0.721   2.526   0.038  0.00  0.00     0.002 A 
ATOM      6  C6  N4B d   1      -0.428   1.231  -0.337  0.00  0.00     0.002 A 
ENDROOT
BRANCH   1   7
ATOM      7  C1' N4B d   1      -0.093  -1.165   0.162  0.00  0.00     0.057 C 
BRANCH   7   8
ATOM      8  C2' N4B d   1       0.857  -1.068  -1.028  0.00  0.00     0.009 C 
BRANCH   8   9
ATOM      9  C3' N4B d   1       1.043  -2.409  -1.717  0.00  0.00     0.004 C 
ATOM     10  C4' N4B d   1       0.728  -2.358  -3.182  0.00  0.00     0.003 C 
ENDBRANCH   8   9
ENDBRANCH   7   8
ENDBRANCH   1   7
TORSDOF 3
ENDMDL
