MODEL 1
REMARK minimizedAffinity -5.21822071
REMARK minimizedRMSD -1
REMARK  3 active torsions:
REMARK  status: ('A' for Active; 'I' for Inactive)
REMARK    1  A    between atoms: C3'_2  and  C2'_3 
REMARK    2  A    between atoms: C2'_3  and  C1'_4 
REMARK    3  A    between atoms: C1'_4  and  C1_5 
ROOT
ATOM      1  C1  N4B d   1      -0.181  -0.290  -0.254  0.00  0.00    -0.075 A 
ATOM      2  C2  N4B d   1      -0.707   0.855  -0.893  0.00  0.00     0.002 A 
ATOM      3  C3  N4B d   1      -1.339   1.824  -0.153  0.00  0.00     0.002 A 
ATOM      4  C4  N4B d   1      -1.475   1.662   1.217  0.00  0.00    -0.004 A 
ATOM      5  C5  N4B d   1      -0.943   0.565   1.830  0.00  0.00     0.002 A 
ATOM      6  C6  N4B d   1      -0.301  -0.415   1.100  0.00  0.00     0.002 A 
ENDROOT
BRANCH   1   7
ATOM      7  C1' N4B d   1       0.443  -1.416  -1.031  0.00  0.00     0.057 C 
BRANCH   7   8
ATOM      8  C2' N4B d   1      -0.468  -1.785  -2.198  0.00  0.00     0.009 C 
BRANCH   8   9
ATOM      9  C3' N4B d   1      -0.775  -3.272  -2.232  0.00  0.00     0.004 C 
ATOM     10  C4' N4B d   1       0.456  -4.116  -2.372  0.00  0.00     0.003 C 
ENDBRANCH   8   9
ENDBRANCH   7   8
ENDBRANCH   1   7
TORSDOF 3
ENDMDL
