MODEL 1
REMARK minimizedAffinity -6.19434071
REMARK minimizedRMSD -1
REMARK  3 active torsions:
REMARK  status: ('A' for Active; 'I' for Inactive)
REMARK    1  A    between atoms: C3'_2  and  C2'_3 
REMARK    2  A    between atoms: C2'_3  and  C1'_4 
REMARK    3  A    between atoms: C1'_4  and  C1_5 
ROOT
ATOM      1  C1  N4B d   1      -0.760   0.852   0.114  0.00  0.00    -0.075 A 
ATOM      2  C2  N4B d   1      -1.523   1.470   1.129  0.00  0.00     0.002 A 
ATOM      3  C3  N4B d   1      -1.571   2.840   1.214  0.00  0.00     0.002 A 
ATOM      4  C4  N4B d   1      -0.852   3.608   0.312  0.00  0.00    -0.004 A 
ATOM      5  C5  N4B d   1      -0.137   3.004  -0.681  0.00  0.00     0.002 A 
ATOM      6  C6  N4B d   1      -0.084   1.628  -0.782  0.00  0.00     0.002 A 
ENDROOT
BRANCH   1   7
ATOM      7  C1' N4B d   1      -0.608  -0.643   0.033  0.00  0.00     0.057 C 
BRANCH   7   8
ATOM      8  C2' N4B d   1       0.679  -0.976  -0.716  0.00  0.00     0.009 C 
BRANCH   8   9
ATOM      9  C3' N4B d   1       0.426  -1.893  -1.900  0.00  0.00     0.004 C 
ATOM     10  C4' N4B d   1       1.190  -3.180  -1.811  0.00  0.00     0.003 C 
ENDBRANCH   8   9
ENDBRANCH   7   8
ENDBRANCH   1   7
TORSDOF 3
ENDMDL
