MODEL 1
REMARK minimizedAffinity 3.87080956
REMARK minimizedRMSD -1
REMARK  0 active torsions:
REMARK  status: ('A' for Active; 'I' for Inactive)
ROOT
ATOM      1  C2' OXE d   1       1.965   5.019  -0.939  0.00  0.00     0.078 C 
ATOM      2  C1' OXE d   1      -0.499   3.838  -0.296  0.00  0.00     0.078 C 
ATOM      3  C1  OXE d   1       0.757   3.123   0.135  0.00  0.00    -0.078 A 
ATOM      4  C2  OXE d   1       1.959   3.685  -0.225  0.00  0.00    -0.078 A 
ATOM      5  C3  OXE d   1       3.148   3.095   0.194  0.00  0.00     0.003 A 
ATOM      6  C4  OXE d   1       3.134   1.856   0.845  0.00  0.00    -0.002 A 
ATOM      7  C5  OXE d   1       1.921   1.246   1.186  0.00  0.00    -0.002 A 
ATOM      8  C6  OXE d   1       0.726   1.887   0.876  0.00  0.00     0.003 A 
ENDROOT
TORSDOF 0
ENDMDL
