MODEL 1
REMARK minimizedAffinity 6.55181265
REMARK minimizedRMSD -1
REMARK  0 active torsions:
REMARK  status: ('A' for Active; 'I' for Inactive)
ROOT
ATOM      1  C2' OXE d   1       4.763   0.405   1.184  0.00  0.00     0.078 C 
ATOM      2  C1' OXE d   1       5.810  -1.494   2.966  0.00  0.00     0.078 C 
ATOM      3  C1  OXE d   1       4.310  -1.349   2.894  0.00  0.00    -0.078 A 
ATOM      4  C2  OXE d   1       3.808  -0.385   2.053  0.00  0.00    -0.078 A 
ATOM      5  C3  OXE d   1       2.431  -0.247   1.907  0.00  0.00     0.003 A 
ATOM      6  C4  OXE d   1       1.555  -0.975   2.722  0.00  0.00    -0.002 A 
ATOM      7  C5  OXE d   1       2.047  -1.934   3.614  0.00  0.00    -0.002 A 
ATOM      8  C6  OXE d   1       3.417  -2.163   3.681  0.00  0.00     0.003 A 
ENDROOT
TORSDOF 0
ENDMDL
