MODEL 1
REMARK minimizedAffinity 6.05509329
REMARK minimizedRMSD -1
REMARK  0 active torsions:
REMARK  status: ('A' for Active; 'I' for Inactive)
ROOT
ATOM      1  C2' OXE d   1       0.876  -3.008   4.987  0.00  0.00     0.078 C 
ATOM      2  C1' OXE d   1       1.840  -1.432   2.873  0.00  0.00     0.078 C 
ATOM      3  C1  OXE d   1       2.817  -1.844   3.946  0.00  0.00    -0.078 A 
ATOM      4  C2  OXE d   1       2.327  -2.575   5.000  0.00  0.00    -0.078 A 
ATOM      5  C3  OXE d   1       3.196  -3.027   5.989  0.00  0.00     0.003 A 
ATOM      6  C4  OXE d   1       4.534  -2.614   6.000  0.00  0.00    -0.002 A 
ATOM      7  C5  OXE d   1       5.045  -1.836   4.956  0.00  0.00    -0.002 A 
ATOM      8  C6  OXE d   1       4.212  -1.479   3.901  0.00  0.00     0.003 A 
ENDROOT
TORSDOF 0
ENDMDL
