MODEL 1
REMARK minimizedAffinity 3.92130589
REMARK minimizedRMSD -1
REMARK  0 active torsions:
REMARK  status: ('A' for Active; 'I' for Inactive)
ROOT
ATOM      1  C2' OXE d   1       5.996  -2.719   5.942  0.00  0.00     0.078 C 
ATOM      2  C1' OXE d   1       5.998  -1.435   3.446  0.00  0.00     0.078 C 
ATOM      3  C1  OXE d   1       4.665  -1.817   4.040  0.00  0.00    -0.078 A 
ATOM      4  C2  OXE d   1       4.676  -2.486   5.240  0.00  0.00    -0.078 A 
ATOM      5  C3  OXE d   1       3.473  -2.813   5.858  0.00  0.00     0.003 A 
ATOM      6  C4  OXE d   1       2.256  -2.603   5.197  0.00  0.00    -0.002 A 
ATOM      7  C5  OXE d   1       2.225  -1.958   3.956  0.00  0.00    -0.002 A 
ATOM      8  C6  OXE d   1       3.415  -1.522   3.384  0.00  0.00     0.003 A 
ENDROOT
TORSDOF 0
ENDMDL
