MODEL 1
REMARK minimizedAffinity 1.13262331
REMARK minimizedRMSD -1
REMARK  0 active torsions:
REMARK  status: ('A' for Active; 'I' for Inactive)
ROOT
ATOM      1  C2' OXE d   1       1.176  -0.915   1.761  0.00  0.00     0.078 C 
ATOM      2  C1' OXE d   1       3.618   0.453   1.975  0.00  0.00     0.078 C 
ATOM      3  C1  OXE d   1       3.416  -0.766   2.840  0.00  0.00    -0.078 A 
ATOM      4  C2  OXE d   1       2.201  -1.402   2.762  0.00  0.00    -0.078 A 
ATOM      5  C3  OXE d   1       1.982  -2.563   3.498  0.00  0.00     0.003 A 
ATOM      6  C4  OXE d   1       2.931  -3.001   4.430  0.00  0.00    -0.002 A 
ATOM      7  C5  OXE d   1       4.161  -2.345   4.553  0.00  0.00    -0.002 A 
ATOM      8  C6  OXE d   1       4.435  -1.253   3.737  0.00  0.00     0.003 A 
ENDROOT
TORSDOF 0
ENDMDL
