MODEL 1
REMARK minimizedAffinity 3.31206298
REMARK minimizedRMSD -1
REMARK  0 active torsions:
REMARK  status: ('A' for Active; 'I' for Inactive)
ROOT
ATOM      1  C2' OXE d   1       5.229  -2.976   5.600  0.00  0.00     0.078 C 
ATOM      2  C1' OXE d   1       6.000  -2.186   3.019  0.00  0.00     0.078 C 
ATOM      3  C1  OXE d   1       4.547  -2.038   3.396  0.00  0.00    -0.078 A 
ATOM      4  C2  OXE d   1       4.170  -2.470   4.645  0.00  0.00    -0.078 A 
ATOM      5  C3  OXE d   1       2.853  -2.306   5.063  0.00  0.00     0.003 A 
ATOM      6  C4  OXE d   1       1.877  -1.847   4.170  0.00  0.00    -0.002 A 
ATOM      7  C5  OXE d   1       2.232  -1.438   2.880  0.00  0.00    -0.002 A 
ATOM      8  C6  OXE d   1       3.567  -1.487   2.493  0.00  0.00     0.003 A 
ENDROOT
TORSDOF 0
ENDMDL
