MODEL 1
REMARK minimizedAffinity -1.38545895
REMARK minimizedRMSD -1
REMARK  0 active torsions:
REMARK  status: ('A' for Active; 'I' for Inactive)
ROOT
ATOM      1  C2' OXE d   1       5.767  -2.587   5.900  0.00  0.00     0.078 C 
ATOM      2  C1' OXE d   1       6.000  -2.208   3.128  0.00  0.00     0.078 C 
ATOM      3  C1  OXE d   1       4.668  -1.910   3.770  0.00  0.00    -0.078 A 
ATOM      4  C2  OXE d   1       4.549  -2.142   5.119  0.00  0.00    -0.078 A 
ATOM      5  C3  OXE d   1       3.359  -1.831   5.770  0.00  0.00     0.003 A 
ATOM      6  C4  OXE d   1       2.235  -1.430   5.038  0.00  0.00    -0.002 A 
ATOM      7  C5  OXE d   1       2.322  -1.225   3.657  0.00  0.00    -0.002 A 
ATOM      8  C6  OXE d   1       3.541  -1.419   3.016  0.00  0.00     0.003 A 
ENDROOT
TORSDOF 0
ENDMDL
