MODEL 1
REMARK minimizedAffinity 7.12816811
REMARK minimizedRMSD -1
REMARK  0 active torsions:
REMARK  status: ('A' for Active; 'I' for Inactive)
ROOT
ATOM      1  C2' OXE d   1       1.255  -3.001   4.983  0.00  0.00     0.078 C 
ATOM      2  C1' OXE d   1       2.286  -1.524   2.830  0.00  0.00     0.078 C 
ATOM      3  C1  OXE d   1       3.243  -1.944   3.918  0.00  0.00    -0.078 A 
ATOM      4  C2  OXE d   1       2.721  -2.626   4.990  0.00  0.00    -0.078 A 
ATOM      5  C3  OXE d   1       3.569  -3.084   5.995  0.00  0.00     0.003 A 
ATOM      6  C4  OXE d   1       4.922  -2.724   5.999  0.00  0.00    -0.002 A 
ATOM      7  C5  OXE d   1       5.466  -1.996   4.936  0.00  0.00    -0.002 A 
ATOM      8  C6  OXE d   1       4.651  -1.635   3.869  0.00  0.00     0.003 A 
ENDROOT
TORSDOF 0
ENDMDL
