MODEL 1
REMARK minimizedAffinity 9.05142307
REMARK minimizedRMSD -1
REMARK  0 active torsions:
REMARK  status: ('A' for Active; 'I' for Inactive)
ROOT
ATOM      1  C4' PXY d   1      -0.374  -5.998   2.147  0.00  0.00     0.077 C 
ATOM      2  C1' PXY d   1      -1.481  -1.875  -1.750  0.00  0.00     0.077 C 
ATOM      3  C1  PXY d   1      -1.195  -2.965  -0.736  0.00  0.00    -0.082 A 
ATOM      4  C2  PXY d   1      -1.125  -2.661   0.549  0.00  0.00     0.003 A 
ATOM      5  C3  PXY d   1      -0.836  -3.629   1.476  0.00  0.00     0.003 A 
ATOM      6  C4  PXY d   1      -0.670  -4.932   1.089  0.00  0.00    -0.082 A 
ATOM      7  C5  PXY d   1      -0.750  -5.252  -0.220  0.00  0.00     0.003 A 
ATOM      8  C6  PXY d   1      -1.003  -4.248  -1.149  0.00  0.00     0.003 A 
ENDROOT
TORSDOF 0
ENDMDL
