MODEL 1
REMARK minimizedAffinity 11.8553305
REMARK minimizedRMSD -1
REMARK  0 active torsions:
REMARK  status: ('A' for Active; 'I' for Inactive)
ROOT
ATOM      1  C4' PXY d   1      -1.533  -1.886  -2.421  0.00  0.00     0.077 C 
ATOM      2  C1' PXY d   1      -0.410  -6.000   1.482  0.00  0.00     0.077 C 
ATOM      3  C1  PXY d   1      -0.711  -4.914   0.468  0.00  0.00    -0.082 A 
ATOM      4  C2  PXY d   1      -0.764  -5.217  -0.819  0.00  0.00     0.003 A 
ATOM      5  C3  PXY d   1      -1.002  -4.242  -1.753  0.00  0.00     0.003 A 
ATOM      6  C4  PXY d   1      -1.242  -2.952  -1.361  0.00  0.00    -0.082 A 
ATOM      7  C5  PXY d   1      -1.200  -2.636  -0.049  0.00  0.00     0.003 A 
ATOM      8  C6  PXY d   1      -0.915  -3.633   0.879  0.00  0.00     0.003 A 
ENDROOT
TORSDOF 0
ENDMDL
