MODEL 1
REMARK minimizedAffinity 4.57821608
REMARK minimizedRMSD -1
REMARK  0 active torsions:
REMARK  status: ('A' for Active; 'I' for Inactive)
ROOT
ATOM      1  C4' PXY d   1      -2.190  -1.498   3.907  0.00  0.00     0.077 C 
ATOM      2  C1' PXY d   1      -0.875  -4.910  -0.570  0.00  0.00     0.077 C 
ATOM      3  C1  PXY d   1      -1.215  -4.005   0.598  0.00  0.00    -0.082 A 
ATOM      4  C2  PXY d   1      -1.325  -4.518   1.812  0.00  0.00     0.003 A 
ATOM      5  C3  PXY d   1      -1.664  -3.719   2.874  0.00  0.00     0.003 A 
ATOM      6  C4  PXY d   1      -1.839  -2.372   2.700  0.00  0.00    -0.082 A 
ATOM      7  C5  PXY d   1      -1.718  -1.840   1.465  0.00  0.00     0.003 A 
ATOM      8  C6  PXY d   1      -1.414  -2.674   0.394  0.00  0.00     0.003 A 
ENDROOT
TORSDOF 0
ENDMDL
