MODEL 1
REMARK minimizedAffinity 9.51044559
REMARK minimizedRMSD -1
REMARK  0 active torsions:
REMARK  status: ('A' for Active; 'I' for Inactive)
ROOT
ATOM      1  C4' PXY d   1       2.619   2.250   1.246  0.00  0.00     0.077 C 
ATOM      2  C1' PXY d   1       2.982  -0.816  -3.641  0.00  0.00     0.077 C 
ATOM      3  C1  PXY d   1       2.881  -0.022  -2.354  0.00  0.00    -0.082 A 
ATOM      4  C2  PXY d   1       2.861   1.300  -2.400  0.00  0.00     0.003 A 
ATOM      5  C3  PXY d   1       2.802   2.034  -1.244  0.00  0.00     0.003 A 
ATOM      6  C4  PXY d   1       2.710   1.408  -0.030  0.00  0.00    -0.082 A 
ATOM      7  C5  PXY d   1       2.719   0.059   0.026  0.00  0.00     0.003 A 
ATOM      8  C6  PXY d   1       2.821  -0.667  -1.157  0.00  0.00     0.003 A 
ENDROOT
TORSDOF 0
ENDMDL
