MODEL 1
REMARK minimizedAffinity 3.55549717
REMARK minimizedRMSD -1
REMARK  0 active torsions:
REMARK  status: ('A' for Active; 'I' for Inactive)
ROOT
ATOM      1  C4' PXY d   1      -2.176  -1.895   3.304  0.00  0.00     0.077 C 
ATOM      2  C1' PXY d   1      -0.998  -3.600  -2.092  0.00  0.00     0.077 C 
ATOM      3  C1  PXY d   1      -1.302  -3.164  -0.672  0.00  0.00    -0.082 A 
ATOM      4  C2  PXY d   1      -2.249  -2.267  -0.452  0.00  0.00     0.003 A 
ATOM      5  C3  PXY d   1      -2.516  -1.838   0.823  0.00  0.00     0.003 A 
ATOM      6  C4  PXY d   1      -1.842  -2.371   1.888  0.00  0.00    -0.082 A 
ATOM      7  C5  PXY d   1      -0.881  -3.295   1.673  0.00  0.00     0.003 A 
ATOM      8  C6  PXY d   1      -0.597  -3.687   0.368  0.00  0.00     0.003 A 
ENDROOT
TORSDOF 0
ENDMDL
