MODEL 1
REMARK minimizedAffinity 8.34852409
REMARK minimizedRMSD -1
REMARK  0 active torsions:
REMARK  status: ('A' for Active; 'I' for Inactive)
ROOT
ATOM      1  C4' PXY d   1       3.260   2.634  -0.283  0.00  0.00     0.077 C 
ATOM      2  C1' PXY d   1       6.000  -1.119  -3.723  0.00  0.00     0.077 C 
ATOM      3  C1  PXY d   1       5.293  -0.132  -2.814  0.00  0.00    -0.082 A 
ATOM      4  C2  PXY d   1       3.984  -0.226  -2.640  0.00  0.00     0.003 A 
ATOM      5  C3  PXY d   1       3.324   0.678  -1.847  0.00  0.00     0.003 A 
ATOM      6  C4  PXY d   1       4.018   1.654  -1.184  0.00  0.00    -0.082 A 
ATOM      7  C5  PXY d   1       5.354   1.749  -1.348  0.00  0.00     0.003 A 
ATOM      8  C6  PXY d   1       6.000   0.848  -2.190  0.00  0.00     0.003 A 
ENDROOT
TORSDOF 0
ENDMDL
