MODEL 1
REMARK minimizedAffinity 4.84845257
REMARK minimizedRMSD -1
REMARK  0 active torsions:
REMARK  status: ('A' for Active; 'I' for Inactive)
ROOT
ATOM      1  C4' PXY d   1       3.515  -0.212  -2.965  0.00  0.00     0.077 C 
ATOM      2  C1' PXY d   1       2.370   2.356   2.086  0.00  0.00     0.077 C 
ATOM      3  C1  PXY d   1       2.666   1.671   0.766  0.00  0.00    -0.082 A 
ATOM      4  C2  PXY d   1       3.596   2.166  -0.034  0.00  0.00     0.003 A 
ATOM      5  C3  PXY d   1       3.854   1.578  -1.245  0.00  0.00     0.003 A 
ATOM      6  C4  PXY d   1       3.190   0.441  -1.618  0.00  0.00    -0.082 A 
ATOM      7  C5  PXY d   1       2.247  -0.077  -0.803  0.00  0.00     0.003 A 
ATOM      8  C6  PXY d   1       1.971   0.559   0.404  0.00  0.00     0.003 A 
ENDROOT
TORSDOF 0
ENDMDL
