MODEL 1
REMARK minimizedAffinity 8.2038269
REMARK minimizedRMSD -1
REMARK  0 active torsions:
REMARK  status: ('A' for Active; 'I' for Inactive)
ROOT
ATOM      1  C4' PXY d   1      -5.227   2.478   6.000  0.00  0.00     0.077 C 
ATOM      2  C1' PXY d   1      -1.946  -2.201   5.128  0.00  0.00     0.077 C 
ATOM      3  C1  PXY d   1      -2.817  -0.981   5.353  0.00  0.00    -0.082 A 
ATOM      4  C2  PXY d   1      -2.291   0.228   5.243  0.00  0.00     0.003 A 
ATOM      5  C3  PXY d   1      -3.056   1.342   5.476  0.00  0.00     0.003 A 
ATOM      6  C4  PXY d   1      -4.387   1.218   5.771  0.00  0.00    -0.082 A 
ATOM      7  C5  PXY d   1      -4.934  -0.012   5.875  0.00  0.00     0.003 A 
ATOM      8  C6  PXY d   1      -4.131  -1.131   5.676  0.00  0.00     0.003 A 
ENDROOT
TORSDOF 0
ENDMDL
