MODEL 1
REMARK minimizedAffinity 11.9244432
REMARK minimizedRMSD -1
REMARK  0 active torsions:
REMARK  status: ('A' for Active; 'I' for Inactive)
ROOT
ATOM      1  C4' PXY d   1      -2.063  -2.241   3.905  0.00  0.00     0.077 C 
ATOM      2  C1' PXY d   1      -0.908  -1.831  -1.744  0.00  0.00     0.077 C 
ATOM      3  C1  PXY d   1      -1.207  -1.951  -0.263  0.00  0.00    -0.082 A 
ATOM      4  C2  PXY d   1      -2.063  -1.114   0.301  0.00  0.00     0.003 A 
ATOM      5  C3  PXY d   1      -2.321  -1.188   1.646  0.00  0.00     0.003 A 
ATOM      6  C4  PXY d   1      -1.737  -2.163   2.411  0.00  0.00    -0.082 A 
ATOM      7  C5  PXY d   1      -0.872  -3.027   1.840  0.00  0.00     0.003 A 
ATOM      8  C6  PXY d   1      -0.592  -2.909   0.482  0.00  0.00     0.003 A 
ENDROOT
TORSDOF 0
ENDMDL
