MODEL 1
REMARK minimizedAffinity 20.6386204
REMARK minimizedRMSD -1
REMARK  0 active torsions:
REMARK  status: ('A' for Active; 'I' for Inactive)
ROOT
ATOM      1  C4' PXY d   1       2.520   5.955   5.999  0.00  0.00     0.077 C 
ATOM      2  C1' PXY d   1       5.475   1.563   3.676  0.00  0.00     0.077 C 
ATOM      3  C1  PXY d   1       4.689   2.709   4.283  0.00  0.00    -0.082 A 
ATOM      4  C2  PXY d   1       5.233   3.914   4.347  0.00  0.00     0.003 A 
ATOM      5  C3  PXY d   1       4.548   4.954   4.921  0.00  0.00     0.003 A 
ATOM      6  C4  PXY d   1       3.274   4.771   5.386  0.00  0.00    -0.082 A 
ATOM      7  C5  PXY d   1       2.708   3.548   5.315  0.00  0.00     0.003 A 
ATOM      8  C6  PXY d   1       3.435   2.496   4.765  0.00  0.00     0.003 A 
ENDROOT
TORSDOF 0
ENDMDL
