MODEL 1
REMARK minimizedAffinity 11.7239923
REMARK minimizedRMSD -1
REMARK  0 active torsions:
REMARK  status: ('A' for Active; 'I' for Inactive)
ROOT
ATOM      1  C4' PXY d   1      -0.157  -6.000   1.606  0.00  0.00     0.077 C 
ATOM      2  C1' PXY d   1      -2.382  -0.941  -0.088  0.00  0.00     0.077 C 
ATOM      3  C1  PXY d   1      -1.796  -2.271   0.344  0.00  0.00    -0.082 A 
ATOM      4  C2  PXY d   1      -2.153  -2.797   1.505  0.00  0.00     0.003 A 
ATOM      5  C3  PXY d   1      -1.608  -3.983   1.925  0.00  0.00     0.003 A 
ATOM      6  C4  PXY d   1      -0.730  -4.664   1.125  0.00  0.00    -0.082 A 
ATOM      7  C5  PXY d   1      -0.370  -4.139  -0.065  0.00  0.00     0.003 A 
ATOM      8  C6  PXY d   1      -0.902  -2.914  -0.455  0.00  0.00     0.003 A 
ENDROOT
TORSDOF 0
ENDMDL
