MODEL 1
REMARK minimizedAffinity 18.4273453
REMARK minimizedRMSD -1
REMARK  0 active torsions:
REMARK  status: ('A' for Active; 'I' for Inactive)
ROOT
ATOM      1  C4' PXY d   1       4.770   4.648   0.181  0.00  0.00     0.077 C 
ATOM      2  C1' PXY d   1       2.440  -0.160  -2.024  0.00  0.00     0.077 C 
ATOM      3  C1  PXY d   1       3.062   1.097  -1.451  0.00  0.00    -0.082 A 
ATOM      4  C2  PXY d   1       2.515   1.675  -0.394  0.00  0.00     0.003 A 
ATOM      5  C3  PXY d   1       3.046   2.831   0.118  0.00  0.00     0.003 A 
ATOM      6  C4  PXY d   1       4.181   3.372  -0.425  0.00  0.00    -0.082 A 
ATOM      7  C5  PXY d   1       4.752   2.782  -1.497  0.00  0.00     0.003 A 
ATOM      8  C6  PXY d   1       4.173   1.632  -2.027  0.00  0.00     0.003 A 
ENDROOT
TORSDOF 0
ENDMDL
