MODEL 1
REMARK minimizedAffinity 17.3460922
REMARK minimizedRMSD -1
REMARK  0 active torsions:
REMARK  status: ('A' for Active; 'I' for Inactive)
ROOT
ATOM      1  C4' PXY d   1       4.546   1.352   3.098  0.00  0.00     0.077 C 
ATOM      2  C1' PXY d   1       2.124   0.651  -2.104  0.00  0.00     0.077 C 
ATOM      3  C1  PXY d   1       2.764   0.847  -0.744  0.00  0.00    -0.082 A 
ATOM      4  C2  PXY d   1       3.070  -0.209  -0.007  0.00  0.00     0.003 A 
ATOM      5  C3  PXY d   1       3.620  -0.049   1.239  0.00  0.00     0.003 A 
ATOM      6  C4  PXY d   1       3.908   1.202   1.714  0.00  0.00    -0.082 A 
ATOM      7  C5  PXY d   1       3.608   2.284   0.964  0.00  0.00     0.003 A 
ATOM      8  C6  PXY d   1       3.013   2.102  -0.281  0.00  0.00     0.003 A 
ENDROOT
TORSDOF 0
ENDMDL
