MODEL 1
REMARK minimizedAffinity 14.043766
REMARK minimizedRMSD -1
REMARK  0 active torsions:
REMARK  status: ('A' for Active; 'I' for Inactive)
ROOT
ATOM      1  C4' PXY d   1       3.803   1.197   1.589  0.00  0.00     0.077 C 
ATOM      2  C1' PXY d   1       5.999   5.637  -1.392  0.00  0.00     0.077 C 
ATOM      3  C1  PXY d   1       5.418   4.481  -0.602  0.00  0.00    -0.082 A 
ATOM      4  C2  PXY d   1       6.000   3.294  -0.655  0.00  0.00     0.003 A 
ATOM      5  C3  PXY d   1       5.469   2.230   0.028  0.00  0.00     0.003 A 
ATOM      6  C4  PXY d   1       4.361   2.395   0.815  0.00  0.00    -0.082 A 
ATOM      7  C5  PXY d   1       3.768   3.606   0.883  0.00  0.00     0.003 A 
ATOM      8  C6  PXY d   1       4.298   4.663   0.150  0.00  0.00     0.003 A 
ENDROOT
TORSDOF 0
ENDMDL
