MODEL 1
REMARK minimizedAffinity 13.3234138
REMARK minimizedRMSD -1
REMARK  0 active torsions:
REMARK  status: ('A' for Active; 'I' for Inactive)
ROOT
ATOM      1  C4' PXY d   1      -5.496   3.650  -5.933  0.00  0.00     0.077 C 
ATOM      2  C1' PXY d   1       0.090   3.319  -4.482  0.00  0.00     0.077 C 
ATOM      3  C1  PXY d   1      -1.378   3.413  -4.852  0.00  0.00    -0.082 A 
ATOM      4  C2  PXY d   1      -1.917   2.488  -5.629  0.00  0.00     0.003 A 
ATOM      5  C3  PXY d   1      -3.234   2.575  -6.000  0.00  0.00     0.003 A 
ATOM      6  C4  PXY d   1      -4.021   3.590  -5.527  0.00  0.00    -0.082 A 
ATOM      7  C5  PXY d   1      -3.481   4.532  -4.724  0.00  0.00     0.003 A 
ATOM      8  C6  PXY d   1      -2.132   4.448  -4.394  0.00  0.00     0.003 A 
ENDROOT
TORSDOF 0
ENDMDL
