MODEL 1
REMARK minimizedAffinity 11.9934845
REMARK minimizedRMSD -1
REMARK  0 active torsions:
REMARK  status: ('A' for Active; 'I' for Inactive)
ROOT
ATOM      1  C4' PXY d   1      -1.869  -1.022  -1.518  0.00  0.00     0.077 C 
ATOM      2  C1' PXY d   1       3.457   0.502  -3.167  0.00  0.00     0.077 C 
ATOM      3  C1  PXY d   1       2.057   0.101  -2.747  0.00  0.00    -0.082 A 
ATOM      4  C2  PXY d   1       1.593   0.483  -1.568  0.00  0.00     0.003 A 
ATOM      5  C3  PXY d   1       0.341   0.102  -1.159  0.00  0.00     0.003 A 
ATOM      6  C4  PXY d   1      -0.465  -0.633  -1.987  0.00  0.00    -0.082 A 
ATOM      7  C5  PXY d   1      -0.003  -1.017  -3.196  0.00  0.00     0.003 A 
ATOM      8  C6  PXY d   1       1.286  -0.655  -3.576  0.00  0.00     0.003 A 
ENDROOT
TORSDOF 0
ENDMDL
