MODEL 1
REMARK minimizedAffinity 10.0783138
REMARK minimizedRMSD -1
REMARK  0 active torsions:
REMARK  status: ('A' for Active; 'I' for Inactive)
ROOT
ATOM      1  C4' PXY d   1       5.213   4.464   0.453  0.00  0.00     0.077 C 
ATOM      2  C1' PXY d   1       1.689  -0.098   0.020  0.00  0.00     0.077 C 
ATOM      3  C1  PXY d   1       2.609   1.101   0.145  0.00  0.00    -0.082 A 
ATOM      4  C2  PXY d   1       3.077   1.683  -0.947  0.00  0.00     0.003 A 
ATOM      5  C3  PXY d   1       3.935   2.749  -0.851  0.00  0.00     0.003 A 
ATOM      6  C4  PXY d   1       4.275   3.257   0.374  0.00  0.00    -0.082 A 
ATOM      7  C5  PXY d   1       3.792   2.675   1.493  0.00  0.00     0.003 A 
ATOM      8  C6  PXY d   1       2.956   1.569   1.375  0.00  0.00     0.003 A 
ENDROOT
TORSDOF 0
ENDMDL
