MODEL 1
REMARK minimizedAffinity 9.97707462
REMARK minimizedRMSD -1
REMARK  0 active torsions:
REMARK  status: ('A' for Active; 'I' for Inactive)
ROOT
ATOM      1  C4' PXY d   1      -0.655  -5.130  -0.039  0.00  0.00     0.077 C 
ATOM      2  C1' PXY d   1      -2.962   0.165   0.179  0.00  0.00     0.077 C 
ATOM      3  C1  PXY d   1      -2.350  -1.220   0.111  0.00  0.00    -0.082 A 
ATOM      4  C2  PXY d   1      -2.980  -2.241   0.670  0.00  0.00     0.003 A 
ATOM      5  C3  PXY d   1      -2.425  -3.495   0.645  0.00  0.00     0.003 A 
ATOM      6  C4  PXY d   1      -1.240  -3.716  -0.003  0.00  0.00    -0.082 A 
ATOM      7  C5  PXY d   1      -0.597  -2.681  -0.585  0.00  0.00     0.003 A 
ATOM      8  C6  PXY d   1      -1.156  -1.409  -0.514  0.00  0.00     0.003 A 
ENDROOT
TORSDOF 0
ENDMDL
