MODEL 1
REMARK minimizedAffinity 9.86374283
REMARK minimizedRMSD -1
REMARK  0 active torsions:
REMARK  status: ('A' for Active; 'I' for Inactive)
ROOT
ATOM      1  C4' PXY d   1      -2.178  -2.011  -0.296  0.00  0.00     0.077 C 
ATOM      2  C1' PXY d   1      -1.152  -6.000   3.760  0.00  0.00     0.077 C 
ATOM      3  C1  PXY d   1      -1.410  -4.956   2.691  0.00  0.00    -0.082 A 
ATOM      4  C2  PXY d   1      -2.268  -3.977   2.926  0.00  0.00     0.003 A 
ATOM      5  C3  PXY d   1      -2.537  -3.043   1.959  0.00  0.00     0.003 A 
ATOM      6  C4  PXY d   1      -1.880  -3.081   0.758  0.00  0.00    -0.082 A 
ATOM      7  C5  PXY d   1      -0.995  -4.071   0.514  0.00  0.00     0.003 A 
ATOM      8  C6  PXY d   1      -0.767  -5.033   1.494  0.00  0.00     0.003 A 
ENDROOT
TORSDOF 0
ENDMDL
