MODEL 1
REMARK minimizedAffinity 8.19395256
REMARK minimizedRMSD -1
REMARK  0 active torsions:
REMARK  status: ('A' for Active; 'I' for Inactive)
ROOT
ATOM      1  C4' PXY d   1       1.976   2.570   1.553  0.00  0.00     0.077 C 
ATOM      2  C1' PXY d   1       3.181  -0.638  -3.102  0.00  0.00     0.077 C 
ATOM      3  C1  PXY d   1       2.875   0.212  -1.885  0.00  0.00    -0.082 A 
ATOM      4  C2  PXY d   1       2.260  -0.331  -0.846  0.00  0.00     0.003 A 
ATOM      5  C3  PXY d   1       1.947   0.430   0.250  0.00  0.00     0.003 A 
ATOM      6  C4  PXY d   1       2.314   1.748   0.306  0.00  0.00    -0.082 A 
ATOM      7  C5  PXY d   1       2.951   2.306  -0.744  0.00  0.00     0.003 A 
ATOM      8  C6  PXY d   1       3.224   1.527  -1.865  0.00  0.00     0.003 A 
ENDROOT
TORSDOF 0
ENDMDL
