MODEL 1
REMARK minimizedAffinity 4.74476337
REMARK minimizedRMSD -1
REMARK  0 active torsions:
REMARK  status: ('A' for Active; 'I' for Inactive)
ROOT
ATOM      1  C   UNL d   1       1.004  -1.824   1.015  0.00  0.00     0.124 A 
ATOM      2  C1  UNL d   1      -0.330  -1.441   1.019  0.00  0.00     0.062 A 
ATOM      3  C2  UNL d   1      -0.673  -0.097   0.909  0.00  0.00     0.162 A 
ATOM      4  C3  UNL d   1       0.320   0.876   0.793  0.00  0.00    -0.034 A 
ATOM      5  C4  UNL d   1       1.660   0.484   0.791  0.00  0.00     0.162 A 
ATOM      6  C5  UNL d   1       1.998  -0.861   0.901  0.00  0.00     0.062 A 
ATOM      7  F   UNL d   1       3.287  -1.229   0.897  0.00  0.00    -0.097 F 
ATOM      8  F1  UNL d   1       2.640   1.392   0.681  0.00  0.00    -0.096 F 
ATOM      9  I   UNL d   1      -0.189   2.887   0.628  0.00  0.00    -0.060 I 
ATOM     10  F2  UNL d   1      -1.970   0.244   0.915  0.00  0.00    -0.096 F 
ATOM     11  F3  UNL d   1      -1.292  -2.369   1.130  0.00  0.00    -0.097 F 
ATOM     12  F4  UNL d   1       1.332  -3.118   1.122  0.00  0.00    -0.092 F 
ENDROOT
TORSDOF 0
ENDMDL
