MODEL 1
REMARK minimizedAffinity -4.80246305
REMARK minimizedRMSD -1
REMARK  0 active torsions:
REMARK  status: ('A' for Active; 'I' for Inactive)
ROOT
ATOM      1  C   UNL d   1       0.677  -0.120  -0.236  0.00  0.00     0.124 A 
ATOM      2  C1  UNL d   1       1.927  -0.309   0.338  0.00  0.00     0.062 A 
ATOM      3  C2  UNL d   1       2.377   0.552   1.334  0.00  0.00     0.162 A 
ATOM      4  C3  UNL d   1       1.577   1.611   1.764  0.00  0.00    -0.034 A 
ATOM      5  C4  UNL d   1       0.322   1.796   1.182  0.00  0.00     0.162 A 
ATOM      6  C5  UNL d   1      -0.124   0.932   0.186  0.00  0.00     0.062 A 
ATOM      7  F   UNL d   1      -1.331   1.116  -0.367  0.00  0.00    -0.097 F 
ATOM      8  F1  UNL d   1      -0.473   2.803   1.571  0.00  0.00    -0.096 F 
ATOM      9  I   UNL d   1       2.247   2.901   3.253  0.00  0.00    -0.060 I 
ATOM     10  F2  UNL d   1       3.589   0.345   1.871  0.00  0.00    -0.096 F 
ATOM     11  F3  UNL d   1       2.703  -1.324  -0.068  0.00  0.00    -0.097 F 
ATOM     12  F4  UNL d   1       0.246  -0.950  -1.195  0.00  0.00    -0.092 F 
ENDROOT
TORSDOF 0
ENDMDL
