MODEL 1
REMARK minimizedAffinity 1.79270065
REMARK minimizedRMSD -1
REMARK  0 active torsions:
REMARK  status: ('A' for Active; 'I' for Inactive)
ROOT
ATOM      1  C   UNL d   1       1.814  -0.937   0.644  0.00  0.00     0.124 A 
ATOM      2  C1  UNL d   1       1.909   0.445   0.569  0.00  0.00     0.062 A 
ATOM      3  C2  UNL d   1       0.759   1.229   0.607  0.00  0.00     0.162 A 
ATOM      4  C3  UNL d   1      -0.496   0.632   0.723  0.00  0.00    -0.034 A 
ATOM      5  C4  UNL d   1      -0.584  -0.760   0.797  0.00  0.00     0.162 A 
ATOM      6  C5  UNL d   1       0.568  -1.538   0.758  0.00  0.00     0.062 A 
ATOM      7  F   UNL d   1       0.475  -2.874   0.831  0.00  0.00    -0.097 F 
ATOM      8  F1  UNL d   1      -1.774  -1.367   0.909  0.00  0.00    -0.096 F 
ATOM      9  I   UNL d   1      -2.218   1.800   0.781  0.00  0.00    -0.060 I 
ATOM     10  F2  UNL d   1       0.881   2.563   0.533  0.00  0.00    -0.096 F 
ATOM     11  F3  UNL d   1       3.111   1.029   0.457  0.00  0.00    -0.097 F 
ATOM     12  F4  UNL d   1       2.922  -1.689   0.606  0.00  0.00    -0.092 F 
ENDROOT
TORSDOF 0
ENDMDL
