MODEL 1
REMARK minimizedAffinity 18.4770031
REMARK minimizedRMSD -1
REMARK  0 active torsions:
REMARK  status: ('A' for Active; 'I' for Inactive)
ROOT
ATOM      1  C   UNL d   1      -3.751   1.552  -3.141  0.00  0.00     0.124 A 
ATOM      2  C1  UNL d   1      -3.553   1.138  -1.831  0.00  0.00     0.062 A 
ATOM      3  C2  UNL d   1      -4.180   1.806  -0.783  0.00  0.00     0.162 A 
ATOM      4  C3  UNL d   1      -5.012   2.895  -1.041  0.00  0.00    -0.034 A 
ATOM      5  C4  UNL d   1      -5.206   3.307  -2.360  0.00  0.00     0.162 A 
ATOM      6  C5  UNL d   1      -4.576   2.636  -3.404  0.00  0.00     0.062 A 
ATOM      7  F   UNL d   1      -4.769   3.038  -4.669  0.00  0.00    -0.097 F 
ATOM      8  F1  UNL d   1      -5.999   4.350  -2.644  0.00  0.00    -0.096 F 
ATOM      9  I   UNL d   1      -5.952   3.896   0.523  0.00  0.00    -0.060 I 
ATOM     10  F2  UNL d   1      -3.971   1.383   0.473  0.00  0.00    -0.096 F 
ATOM     11  F3  UNL d   1      -2.754   0.092  -1.573  0.00  0.00    -0.097 F 
ATOM     12  F4  UNL d   1      -3.145   0.909  -4.147  0.00  0.00    -0.092 F 
ENDROOT
TORSDOF 0
ENDMDL
