MODEL 1
REMARK minimizedAffinity -1.91413212
REMARK minimizedRMSD -1
REMARK  1 active torsions:
REMARK  status: ('A' for Active; 'I' for Inactive)
REMARK    1  A    between atoms: C1_2  and  C2_3 
ROOT
ATOM      1  C2  UNL d   1       1.416  -3.027   0.006  0.00  0.00    -0.077 A 
ATOM      2  C3  UNL d   1       2.371  -2.057   0.342  0.00  0.00     0.002 A 
ATOM      3  C4  UNL d   1       1.972  -0.816   0.842  0.00  0.00     0.002 A 
ATOM      4  C5  UNL d   1       0.618  -0.536   1.014  0.00  0.00    -0.004 A 
ATOM      5  C6  UNL d   1      -0.339  -1.493   0.681  0.00  0.00     0.002 A 
ATOM      6  C7  UNL d   1       0.058  -2.733   0.180  0.00  0.00     0.002 A 
ENDROOT
BRANCH   1   7
ATOM      7  C1  UNL d   1       1.847  -4.384  -0.487  0.00  0.00     0.055 C 
ATOM      8  C   UNL d   1       3.330  -4.619  -0.238  0.00  0.00     0.019 C 
ENDBRANCH   1   7
TORSDOF 1
ENDMDL
