MODEL 1
REMARK minimizedAffinity 1.30341446
REMARK minimizedRMSD -1
REMARK  1 active torsions:
REMARK  status: ('A' for Active; 'I' for Inactive)
REMARK    1  A    between atoms: C1_2  and  C2_3 
ROOT
ATOM      1  C2  UNL d   1       0.871  -2.189  -0.172  0.00  0.00    -0.077 A 
ATOM      2  C3  UNL d   1       1.907  -1.279   0.080  0.00  0.00     0.002 A 
ATOM      3  C4  UNL d   1       1.679  -0.151   0.871  0.00  0.00     0.002 A 
ATOM      4  C5  UNL d   1       0.418   0.075   1.419  0.00  0.00    -0.004 A 
ATOM      5  C6  UNL d   1      -0.619  -0.824   1.172  0.00  0.00     0.002 A 
ATOM      6  C7  UNL d   1      -0.394  -1.951   0.381  0.00  0.00     0.002 A 
ENDROOT
BRANCH   1   7
ATOM      7  C1  UNL d   1       1.127  -3.431  -0.984  0.00  0.00     0.055 C 
ATOM      8  C   UNL d   1       2.446  -4.084  -0.596  0.00  0.00     0.019 C 
ENDBRANCH   1   7
TORSDOF 1
ENDMDL
