MODEL 1
REMARK minimizedAffinity -1.84311545
REMARK minimizedRMSD -1
REMARK  1 active torsions:
REMARK  status: ('A' for Active; 'I' for Inactive)
REMARK    1  A    between atoms: C1_2  and  C2_3 
ROOT
ATOM      1  C2  UNL d   1       1.988  -3.082  -0.222  0.00  0.00    -0.077 A 
ATOM      2  C3  UNL d   1       2.576  -1.821  -0.046  0.00  0.00     0.002 A 
ATOM      3  C4  UNL d   1       1.792  -0.717   0.294  0.00  0.00     0.002 A 
ATOM      4  C5  UNL d   1       0.417  -0.863   0.464  0.00  0.00    -0.004 A 
ATOM      5  C6  UNL d   1      -0.178  -2.111   0.289  0.00  0.00     0.002 A 
ATOM      6  C7  UNL d   1       0.604  -3.216  -0.051  0.00  0.00     0.002 A 
ENDROOT
BRANCH   1   7
ATOM      7  C1  UNL d   1       2.838  -4.284  -0.540  0.00  0.00     0.055 C 
ATOM      8  C   UNL d   1       4.320  -3.960  -0.424  0.00  0.00     0.019 C 
ENDBRANCH   1   7
TORSDOF 1
ENDMDL
