MODEL 1
REMARK minimizedAffinity -0.944740951
REMARK minimizedRMSD -1
REMARK  1 active torsions:
REMARK  status: ('A' for Active; 'I' for Inactive)
REMARK    1  A    between atoms: C1_2  and  C2_3 
ROOT
ATOM      1  C2  UNL d   1      -0.529  -0.719   0.991  0.00  0.00    -0.077 A 
ATOM      2  C3  UNL d   1       0.547  -0.014   1.548  0.00  0.00     0.002 A 
ATOM      3  C4  UNL d   1       1.835  -0.166   1.029  0.00  0.00     0.002 A 
ATOM      4  C5  UNL d   1       2.056  -1.018  -0.051  0.00  0.00    -0.004 A 
ATOM      5  C6  UNL d   1       0.993  -1.724  -0.610  0.00  0.00     0.002 A 
ATOM      6  C7  UNL d   1      -0.294  -1.575  -0.092  0.00  0.00     0.002 A 
ENDROOT
BRANCH   1   7
ATOM      7  C1  UNL d   1      -1.926  -0.519   1.518  0.00  0.00     0.055 C 
ATOM      8  C   UNL d   1      -1.985   0.636   2.507  0.00  0.00     0.019 C 
ENDBRANCH   1   7
TORSDOF 1
ENDMDL
