MODEL 1
REMARK minimizedAffinity -2.56431627
REMARK minimizedRMSD -1
REMARK  1 active torsions:
REMARK  status: ('A' for Active; 'I' for Inactive)
REMARK    1  A    between atoms: C1_2  and  C2_3 
ROOT
ATOM      1  C2  UNL d   1      -0.200  -1.000   1.283  0.00  0.00    -0.077 A 
ATOM      2  C3  UNL d   1       0.996  -0.268   1.279  0.00  0.00     0.002 A 
ATOM      3  C4  UNL d   1       2.104  -0.729   0.566  0.00  0.00     0.002 A 
ATOM      4  C5  UNL d   1       2.026  -1.921  -0.150  0.00  0.00    -0.004 A 
ATOM      5  C6  UNL d   1       0.842  -2.658  -0.151  0.00  0.00     0.002 A 
ATOM      6  C7  UNL d   1      -0.266  -2.198   0.562  0.00  0.00     0.002 A 
ENDROOT
BRANCH   1   7
ATOM      7  C1  UNL d   1      -1.412  -0.478   2.011  0.00  0.00     0.055 C 
ATOM      8  C   UNL d   1      -1.921   0.812   1.385  0.00  0.00     0.019 C 
ENDBRANCH   1   7
TORSDOF 1
ENDMDL
