MODEL 1
REMARK minimizedAffinity -0.632608652
REMARK minimizedRMSD -1
REMARK  1 active torsions:
REMARK  status: ('A' for Active; 'I' for Inactive)
REMARK    1  A    between atoms: C1_2  and  C2_3 
ROOT
ATOM      1  C2  UNL d   1       1.084  -2.322   0.067  0.00  0.00    -0.077 A 
ATOM      2  C3  UNL d   1       2.062  -1.335   0.256  0.00  0.00     0.002 A 
ATOM      3  C4  UNL d   1       1.707  -0.067   0.720  0.00  0.00     0.002 A 
ATOM      4  C5  UNL d   1       0.374   0.224   1.003  0.00  0.00    -0.004 A 
ATOM      5  C6  UNL d   1      -0.607  -0.749   0.817  0.00  0.00     0.002 A 
ATOM      6  C7  UNL d   1      -0.253  -2.017   0.352  0.00  0.00     0.002 A 
ENDROOT
BRANCH   1   7
ATOM      7  C1  UNL d   1       1.472  -3.705  -0.386  0.00  0.00     0.055 C 
ATOM      8  C   UNL d   1       2.977  -3.911  -0.309  0.00  0.00     0.019 C 
ENDBRANCH   1   7
TORSDOF 1
ENDMDL
