MODEL 1
REMARK minimizedAffinity 0.163204998
REMARK minimizedRMSD -1
REMARK  1 active torsions:
REMARK  status: ('A' for Active; 'I' for Inactive)
REMARK    1  A    between atoms: C1_2  and  C2_3 
ROOT
ATOM      1  C2  UNL d   1       2.958  -2.022   0.305  0.00  0.00    -0.077 A 
ATOM      2  C3  UNL d   1       1.585  -1.883   0.554  0.00  0.00     0.002 A 
ATOM      3  C4  UNL d   1       0.709  -2.936   0.285  0.00  0.00     0.002 A 
ATOM      4  C5  UNL d   1       1.196  -4.136  -0.230  0.00  0.00    -0.004 A 
ATOM      5  C6  UNL d   1       2.559  -4.283  -0.483  0.00  0.00     0.002 A 
ATOM      6  C7  UNL d   1       3.436  -3.231  -0.216  0.00  0.00     0.002 A 
ENDROOT
BRANCH   1   7
ATOM      7  C1  UNL d   1       3.912  -0.905   0.640  0.00  0.00     0.055 C 
ATOM      8  C   UNL d   1       3.666  -0.370   2.044  0.00  0.00     0.019 C 
ENDBRANCH   1   7
TORSDOF 1
ENDMDL
