MODEL 1
REMARK minimizedAffinity 10.8336716
REMARK minimizedRMSD -1
REMARK  0 active torsions:
REMARK  status: ('A' for Active; 'I' for Inactive)
ROOT
ATOM      1  C   UNL d   1      -2.209   2.281  -3.154  0.00  0.00     0.023 A 
ATOM      2  C1  UNL d   1      -2.839   2.247  -1.909  0.00  0.00     0.003 A 
ATOM      3  C2  UNL d   1      -2.079   2.300  -0.739  0.00  0.00     0.048 A 
ATOM      4  C3  UNL d   1      -0.690   2.388  -0.820  0.00  0.00     0.023 A 
ATOM      5  C4  UNL d   1      -0.055   2.423  -2.063  0.00  0.00     0.048 A 
ATOM      6  C5  UNL d   1      -0.819   2.368  -3.230  0.00  0.00     0.003 A 
ATOM      7  I   UNL d   1       0.444   2.468   0.920  0.00  0.00    -0.146 I 
ENDROOT
TORSDOF 0
ENDMDL
