MODEL 1
REMARK minimizedAffinity 7.11930084
REMARK minimizedRMSD -1
REMARK  0 active torsions:
REMARK  status: ('A' for Active; 'I' for Inactive)
ROOT
ATOM      1  C   UNL d   1       0.071   2.799  -0.224  0.00  0.00     0.023 A 
ATOM      2  C1  UNL d   1       0.006   3.343  -1.507  0.00  0.00     0.003 A 
ATOM      3  C2  UNL d   1      -1.027   2.972  -2.371  0.00  0.00     0.048 A 
ATOM      4  C3  UNL d   1      -1.990   2.059  -1.946  0.00  0.00     0.023 A 
ATOM      5  C4  UNL d   1      -1.929   1.513  -0.663  0.00  0.00     0.048 A 
ATOM      6  C5  UNL d   1      -0.895   1.885   0.198  0.00  0.00     0.003 A 
ATOM      7  I   UNL d   1      -3.528   1.507  -3.231  0.00  0.00    -0.146 I 
ENDROOT
TORSDOF 0
ENDMDL
