MODEL 1
REMARK minimizedAffinity 19.6080723
REMARK minimizedRMSD -1
REMARK  0 active torsions:
REMARK  status: ('A' for Active; 'I' for Inactive)
ROOT
ATOM      1  C   UNL d   1       0.791  -4.697  -0.923  0.00  0.00     0.023 A 
ATOM      2  C1  UNL d   1       1.602  -3.707  -0.370  0.00  0.00     0.003 A 
ATOM      3  C2  UNL d   1       2.990  -3.860  -0.368  0.00  0.00     0.048 A 
ATOM      4  C3  UNL d   1       3.560  -5.006  -0.922  0.00  0.00     0.023 A 
ATOM      5  C4  UNL d   1       2.752  -5.999  -1.478  0.00  0.00     0.048 A 
ATOM      6  C5  UNL d   1       1.365  -5.842  -1.477  0.00  0.00     0.003 A 
ATOM      7  I   UNL d   1       5.626  -5.236  -0.920  0.00  0.00    -0.146 I 
ENDROOT
TORSDOF 0
ENDMDL
