MODEL 1
REMARK minimizedAffinity 5.87415695
REMARK minimizedRMSD -1
REMARK  0 active torsions:
REMARK  status: ('A' for Active; 'I' for Inactive)
ROOT
ATOM      1  C   UNL d   1      -0.234   1.985   0.162  0.00  0.00     0.023 A 
ATOM      2  C1  UNL d   1      -0.266   1.298  -1.052  0.00  0.00     0.003 A 
ATOM      3  C2  UNL d   1       0.696   0.324  -1.331  0.00  0.00     0.048 A 
ATOM      4  C3  UNL d   1       1.685   0.041  -0.390  0.00  0.00     0.023 A 
ATOM      5  C4  UNL d   1       1.721   0.725   0.826  0.00  0.00     0.048 A 
ATOM      6  C5  UNL d   1       0.758   1.698   1.100  0.00  0.00     0.003 A 
ATOM      7  I   UNL d   1       3.117  -1.408  -0.802  0.00  0.00    -0.146 I 
ENDROOT
TORSDOF 0
ENDMDL
