MODEL 1
REMARK minimizedAffinity 7.95488501
REMARK minimizedRMSD -1
REMARK  0 active torsions:
REMARK  status: ('A' for Active; 'I' for Inactive)
ROOT
ATOM      1  C   UNL d   1      -0.277   3.783  -1.971  0.00  0.00     0.023 A 
ATOM      2  C1  UNL d   1      -0.922   2.571  -1.725  0.00  0.00     0.003 A 
ATOM      3  C2  UNL d   1      -0.981   2.061  -0.426  0.00  0.00     0.048 A 
ATOM      4  C3  UNL d   1      -0.394   2.770   0.622  0.00  0.00     0.023 A 
ATOM      5  C4  UNL d   1       0.252   3.984   0.380  0.00  0.00     0.048 A 
ATOM      6  C5  UNL d   1       0.309   4.489  -0.920  0.00  0.00     0.003 A 
ATOM      7  I   UNL d   1      -0.480   2.014   2.556  0.00  0.00    -0.146 I 
ENDROOT
TORSDOF 0
ENDMDL
