MODEL 1
REMARK minimizedAffinity -0.349565297
REMARK minimizedRMSD -1
REMARK  0 active torsions:
REMARK  status: ('A' for Active; 'I' for Inactive)
ROOT
ATOM      1  C   UNL d   1       0.167   1.414  -3.536  0.00  0.00     0.023 A 
ATOM      2  C1  UNL d   1       0.211   0.475  -2.506  0.00  0.00     0.003 A 
ATOM      3  C2  UNL d   1      -0.079   0.860  -1.196  0.00  0.00     0.048 A 
ATOM      4  C3  UNL d   1      -0.412   2.186  -0.922  0.00  0.00     0.023 A 
ATOM      5  C4  UNL d   1      -0.458   3.129  -1.950  0.00  0.00     0.048 A 
ATOM      6  C5  UNL d   1      -0.167   2.740  -3.259  0.00  0.00     0.003 A 
ATOM      7  I   UNL d   1      -0.844   2.762   1.027  0.00  0.00    -0.146 I 
ENDROOT
TORSDOF 0
ENDMDL
