MODEL 1
REMARK minimizedAffinity -1.25970697
REMARK minimizedRMSD -1
REMARK  0 active torsions:
REMARK  status: ('A' for Active; 'I' for Inactive)
ROOT
ATOM      1  C   UNL d   1       1.981   3.072   2.100  0.00  0.00     0.023 A 
ATOM      2  C1  UNL d   1       0.728   2.793   1.556  0.00  0.00     0.003 A 
ATOM      3  C2  UNL d   1       0.277   3.499   0.439  0.00  0.00     0.048 A 
ATOM      4  C3  UNL d   1       1.086   4.481  -0.131  0.00  0.00     0.023 A 
ATOM      5  C4  UNL d   1       2.342   4.763   0.409  0.00  0.00     0.048 A 
ATOM      6  C5  UNL d   1       2.788   4.056   1.527  0.00  0.00     0.003 A 
ATOM      7  I   UNL d   1       0.418   5.532  -1.795  0.00  0.00    -0.146 I 
ENDROOT
TORSDOF 0
ENDMDL
