MODEL 1
REMARK minimizedAffinity 6.1969738
REMARK minimizedRMSD -1
REMARK  0 active torsions:
REMARK  status: ('A' for Active; 'I' for Inactive)
ROOT
ATOM      1  C   UNL d   1      -0.543   3.005   0.836  0.00  0.00     0.023 A 
ATOM      2  C1  UNL d   1       0.014   2.595  -0.376  0.00  0.00     0.003 A 
ATOM      3  C2  UNL d   1       0.002   3.453  -1.477  0.00  0.00     0.048 A 
ATOM      4  C3  UNL d   1      -0.567   4.720  -1.360  0.00  0.00     0.023 A 
ATOM      5  C4  UNL d   1      -1.125   5.135  -0.149  0.00  0.00     0.048 A 
ATOM      6  C5  UNL d   1      -1.112   4.273   0.949  0.00  0.00     0.003 A 
ATOM      7  I   UNL d   1      -0.585   6.000  -2.998  0.00  0.00    -0.146 I 
ENDROOT
TORSDOF 0
ENDMDL
