MODEL 1
REMARK minimizedAffinity 2.1873939
REMARK minimizedRMSD -1
REMARK  0 active torsions:
REMARK  status: ('A' for Active; 'I' for Inactive)
ROOT
ATOM      1  C   UNL d   1      -5.342   0.636   3.173  0.00  0.00     0.023 A 
ATOM      2  C1  UNL d   1      -5.810   0.778   4.480  0.00  0.00     0.003 A 
ATOM      3  C2  UNL d   1      -6.000  -0.350   5.281  0.00  0.00     0.048 A 
ATOM      4  C3  UNL d   1      -5.718  -1.616   4.770  0.00  0.00     0.023 A 
ATOM      5  C4  UNL d   1      -5.249  -1.763   3.463  0.00  0.00     0.048 A 
ATOM      6  C5  UNL d   1      -5.062  -0.632   2.666  0.00  0.00     0.003 A 
ATOM      7  I   UNL d   1      -5.999  -3.297   5.961  0.00  0.00    -0.146 I 
ENDROOT
TORSDOF 0
ENDMDL
