MODEL 1
REMARK minimizedAffinity -1.2019527
REMARK minimizedRMSD -1
REMARK  0 active torsions:
REMARK  status: ('A' for Active; 'I' for Inactive)
ROOT
ATOM      1  C   UNL d   1       0.737  -2.456  -1.967  0.00  0.00     0.078 C 
ATOM      2  C1  UNL d   1      -0.711  -2.330  -1.598  0.00  0.00    -0.077 A 
ATOM      3  C2  UNL d   1      -1.102  -2.122  -0.270  0.00  0.00    -0.001 A 
ATOM      4  C3  UNL d   1      -2.454  -2.016   0.060  0.00  0.00     0.003 A 
ATOM      5  C4  UNL d   1      -3.426  -2.118  -0.933  0.00  0.00    -0.005 A 
ATOM      6  C5  UNL d   1      -3.047  -2.328  -2.257  0.00  0.00     0.003 A 
ATOM      7  C6  UNL d   1      -1.696  -2.434  -2.589  0.00  0.00    -0.001 A 
ENDROOT
TORSDOF 0
ENDMDL
