MODEL 1
REMARK minimizedAffinity -4.32799673
REMARK minimizedRMSD -1
REMARK  0 active torsions:
REMARK  status: ('A' for Active; 'I' for Inactive)
ROOT
ATOM      1  C   UNL d   1      -0.806  -2.883   0.354  0.00  0.00     0.078 C 
ATOM      2  C1  UNL d   1      -0.348  -1.543  -0.139  0.00  0.00    -0.077 A 
ATOM      3  C2  UNL d   1      -0.494  -0.395   0.650  0.00  0.00    -0.001 A 
ATOM      4  C3  UNL d   1      -0.072   0.847   0.174  0.00  0.00     0.003 A 
ATOM      5  C4  UNL d   1       0.498   0.954  -1.093  0.00  0.00    -0.005 A 
ATOM      6  C5  UNL d   1       0.645  -0.181  -1.886  0.00  0.00     0.003 A 
ATOM      7  C6  UNL d   1       0.224  -1.425  -1.412  0.00  0.00    -0.001 A 
ENDROOT
TORSDOF 0
ENDMDL
