MODEL 1
REMARK minimizedAffinity 4.08774328
REMARK minimizedRMSD -1
REMARK  0 active torsions:
REMARK  status: ('A' for Active; 'I' for Inactive)
ROOT
ATOM      1  C   UNL d   1       5.987  -1.067   5.998  0.00  0.00     0.078 C 
ATOM      2  C1  UNL d   1       5.394  -2.389   5.613  0.00  0.00    -0.077 A 
ATOM      3  C2  UNL d   1       6.000  -3.592   5.998  0.00  0.00    -0.001 A 
ATOM      4  C3  UNL d   1       5.441  -4.815   5.624  0.00  0.00     0.003 A 
ATOM      5  C4  UNL d   1       4.275  -4.848   4.862  0.00  0.00    -0.005 A 
ATOM      6  C5  UNL d   1       3.666  -3.657   4.473  0.00  0.00     0.003 A 
ATOM      7  C6  UNL d   1       4.223  -2.432   4.846  0.00  0.00    -0.001 A 
ENDROOT
TORSDOF 0
ENDMDL
