MODEL 1
REMARK minimizedAffinity -4.3105793
REMARK minimizedRMSD -1
REMARK  0 active torsions:
REMARK  status: ('A' for Active; 'I' for Inactive)
ROOT
ATOM      1  C   UNL d   1       1.352  -0.040  -2.081  0.00  0.00     0.078 C 
ATOM      2  C1  UNL d   1       1.399   1.152  -1.173  0.00  0.00    -0.077 A 
ATOM      3  C2  UNL d   1       0.265   1.565  -0.464  0.00  0.00    -0.001 A 
ATOM      4  C3  UNL d   1       0.321   2.682   0.370  0.00  0.00     0.003 A 
ATOM      5  C4  UNL d   1       1.509   3.398   0.502  0.00  0.00    -0.005 A 
ATOM      6  C5  UNL d   1       2.643   2.996  -0.201  0.00  0.00     0.003 A 
ATOM      7  C6  UNL d   1       2.589   1.879  -1.036  0.00  0.00    -0.001 A 
ENDROOT
TORSDOF 0
ENDMDL
