MODEL 1
REMARK minimizedAffinity 3.49455094
REMARK minimizedRMSD -1
REMARK  0 active torsions:
REMARK  status: ('A' for Active; 'I' for Inactive)
ROOT
ATOM      1  C   UNL d   1      -3.097  -3.092  -0.073  0.00  0.00     0.078 C 
ATOM      2  C1  UNL d   1      -2.070  -2.326   0.706  0.00  0.00    -0.077 A 
ATOM      3  C2  UNL d   1      -1.020  -2.985   1.358  0.00  0.00    -0.001 A 
ATOM      4  C3  UNL d   1      -0.077  -2.260   2.088  0.00  0.00     0.003 A 
ATOM      5  C4  UNL d   1      -0.175  -0.872   2.174  0.00  0.00    -0.005 A 
ATOM      6  C5  UNL d   1      -1.218  -0.208   1.532  0.00  0.00     0.003 A 
ATOM      7  C6  UNL d   1      -2.162  -0.932   0.801  0.00  0.00    -0.001 A 
ENDROOT
TORSDOF 0
ENDMDL
