MODEL 1
REMARK minimizedAffinity -0.761710823
REMARK minimizedRMSD -1
REMARK  0 active torsions:
REMARK  status: ('A' for Active; 'I' for Inactive)
ROOT
ATOM      1  C   UNL d   1      -0.511   0.767   0.263  0.00  0.00     0.078 C 
ATOM      2  C1  UNL d   1       0.618   0.750  -0.723  0.00  0.00    -0.077 A 
ATOM      3  C2  UNL d   1       1.888   1.226  -0.373  0.00  0.00    -0.001 A 
ATOM      4  C3  UNL d   1       2.928   1.213  -1.304  0.00  0.00     0.003 A 
ATOM      5  C4  UNL d   1       2.708   0.727  -2.592  0.00  0.00    -0.005 A 
ATOM      6  C5  UNL d   1       1.448   0.254  -2.950  0.00  0.00     0.003 A 
ATOM      7  C6  UNL d   1       0.407   0.266  -2.020  0.00  0.00    -0.001 A 
ENDROOT
TORSDOF 0
ENDMDL
