MODEL 1
REMARK minimizedAffinity -4.63485479
REMARK minimizedRMSD -1
REMARK  0 active torsions:
REMARK  status: ('A' for Active; 'I' for Inactive)
ROOT
ATOM      1  C   UNL d   1       0.868   0.118  -2.434  0.00  0.00     0.078 C 
ATOM      2  C1  UNL d   1       1.235   1.075  -1.339  0.00  0.00    -0.077 A 
ATOM      3  C2  UNL d   1       2.475   1.725  -1.335  0.00  0.00    -0.001 A 
ATOM      4  C3  UNL d   1       2.807   2.605  -0.304  0.00  0.00     0.003 A 
ATOM      5  C4  UNL d   1       1.905   2.843   0.731  0.00  0.00    -0.005 A 
ATOM      6  C5  UNL d   1       0.669   2.199   0.736  0.00  0.00     0.003 A 
ATOM      7  C6  UNL d   1       0.335   1.318  -0.294  0.00  0.00    -0.001 A 
ENDROOT
TORSDOF 0
ENDMDL
