MODEL 1
REMARK minimizedAffinity -4.57441902
REMARK minimizedRMSD -1
REMARK  0 active torsions:
REMARK  status: ('A' for Active; 'I' for Inactive)
ROOT
ATOM      1  C   UNL d   1       0.645  -0.113  -1.758  0.00  0.00     0.078 C 
ATOM      2  C1  UNL d   1       1.120   1.024  -0.904  0.00  0.00    -0.077 A 
ATOM      3  C2  UNL d   1       0.250   1.678  -0.023  0.00  0.00    -0.001 A 
ATOM      4  C3  UNL d   1       0.704   2.741   0.758  0.00  0.00     0.003 A 
ATOM      5  C4  UNL d   1       2.030   3.161   0.666  0.00  0.00    -0.005 A 
ATOM      6  C5  UNL d   1       2.903   2.519  -0.209  0.00  0.00     0.003 A 
ATOM      7  C6  UNL d   1       2.450   1.455  -0.991  0.00  0.00    -0.001 A 
ENDROOT
TORSDOF 0
ENDMDL
