MODEL 1
REMARK minimizedAffinity -5.06486368
REMARK minimizedRMSD -1
REMARK  0 active torsions:
REMARK  status: ('A' for Active; 'I' for Inactive)
ROOT
ATOM      1  C   UNL d   1      -1.483   0.355   2.033  0.00  0.00     0.078 C 
ATOM      2  C1  UNL d   1      -0.823  -0.437   0.944  0.00  0.00    -0.077 A 
ATOM      3  C2  UNL d   1      -0.752  -1.834   1.010  0.00  0.00    -0.001 A 
ATOM      4  C3  UNL d   1      -0.126  -2.558  -0.006  0.00  0.00     0.003 A 
ATOM      5  C4  UNL d   1       0.434  -1.894  -1.096  0.00  0.00    -0.005 A 
ATOM      6  C5  UNL d   1       0.369  -0.504  -1.169  0.00  0.00     0.003 A 
ATOM      7  C6  UNL d   1      -0.256   0.222  -0.154  0.00  0.00    -0.001 A 
ENDROOT
TORSDOF 0
ENDMDL
