MODEL 1
REMARK minimizedAffinity -1.58714569
REMARK minimizedRMSD -1
REMARK  0 active torsions:
REMARK  status: ('A' for Active; 'I' for Inactive)
ROOT
ATOM      1  C   UNL d   1      -0.606   2.235   1.016  0.00  0.00     0.078 C 
ATOM      2  C1  UNL d   1      -0.802   0.757   0.854  0.00  0.00    -0.077 A 
ATOM      3  C2  UNL d   1      -1.039  -0.065   1.963  0.00  0.00    -0.001 A 
ATOM      4  C3  UNL d   1      -1.210  -1.441   1.799  0.00  0.00     0.003 A 
ATOM      5  C4  UNL d   1      -1.143  -2.007   0.527  0.00  0.00    -0.005 A 
ATOM      6  C5  UNL d   1      -0.905  -1.198  -0.582  0.00  0.00     0.003 A 
ATOM      7  C6  UNL d   1      -0.734   0.178  -0.419  0.00  0.00    -0.001 A 
ENDROOT
TORSDOF 0
ENDMDL
