MODEL 1
REMARK minimizedAffinity -1.57038236
REMARK minimizedRMSD -1
REMARK  0 active torsions:
REMARK  status: ('A' for Active; 'I' for Inactive)
ROOT
ATOM      1  C   UNL d   1       4.512   1.767  -0.735  0.00  0.00     0.078 C 
ATOM      2  C1  UNL d   1       3.308   2.173   0.063  0.00  0.00    -0.077 A 
ATOM      3  C2  UNL d   1       3.377   3.221   0.989  0.00  0.00    -0.001 A 
ATOM      4  C3  UNL d   1       2.251   3.582   1.731  0.00  0.00     0.003 A 
ATOM      5  C4  UNL d   1       1.049   2.899   1.556  0.00  0.00    -0.005 A 
ATOM      6  C5  UNL d   1       0.972   1.853   0.639  0.00  0.00     0.003 A 
ATOM      7  C6  UNL d   1       2.097   1.491  -0.104  0.00  0.00    -0.001 A 
ENDROOT
TORSDOF 0
ENDMDL
