MODEL 1
REMARK minimizedAffinity -3.46767616
REMARK minimizedRMSD -1
REMARK  1 active torsions:
REMARK  status: ('A' for Active; 'I' for Inactive)
REMARK    1  A    between atoms: C1_2  and  C2_3 
ROOT
ATOM      1  C2  UNL d   1       1.401  -0.503   0.514  0.00  0.00    -0.081 A 
ATOM      2  C3  UNL d   1       0.378  -0.524  -0.442  0.00  0.00     0.006 A 
ATOM      3  C4  UNL d   1      -0.925  -0.161  -0.093  0.00  0.00     0.002 A 
ATOM      4  C5  UNL d   1      -1.225   0.235   1.215  0.00  0.00    -0.080 A 
ATOM      5  C6  UNL d   1      -2.613   0.656   1.595  0.00  0.00     0.076 C 
ATOM      6  C7  UNL d   1      -0.207   0.239   2.174  0.00  0.00     0.002 A 
ATOM      7  C8  UNL d   1       1.096  -0.124   1.826  0.00  0.00     0.006 A 
ENDROOT
BRANCH   1   8
ATOM      8  C1  UNL d   1       2.820  -0.831   0.125  0.00  0.00     0.054 C 
ATOM      9  C   UNL d   1       3.460   0.312  -0.649  0.00  0.00     0.018 C 
ENDBRANCH   1   8
TORSDOF 1
ENDMDL
