MODEL 1
REMARK minimizedAffinity -1.22601163
REMARK minimizedRMSD -1
REMARK  1 active torsions:
REMARK  status: ('A' for Active; 'I' for Inactive)
REMARK    1  A    between atoms: C1_2  and  C2_3 
ROOT
ATOM      1  C2  UNL d   1      -1.648   0.356   0.746  0.00  0.00    -0.081 A 
ATOM      2  C3  UNL d   1      -0.351  -0.166   0.670  0.00  0.00     0.006 A 
ATOM      3  C4  UNL d   1       0.302  -0.612   1.822  0.00  0.00     0.002 A 
ATOM      4  C5  UNL d   1      -0.334  -0.552   3.067  0.00  0.00    -0.080 A 
ATOM      5  C6  UNL d   1       0.344  -1.055   4.306  0.00  0.00     0.076 C 
ATOM      6  C7  UNL d   1      -1.623  -0.014   3.145  0.00  0.00     0.002 A 
ATOM      7  C8  UNL d   1      -2.276   0.433   1.994  0.00  0.00     0.006 A 
ENDROOT
BRANCH   1   8
ATOM      8  C1  UNL d   1      -2.379   0.778  -0.502  0.00  0.00     0.054 C 
ATOM      9  C   UNL d   1      -3.686   0.015  -0.663  0.00  0.00     0.018 C 
ENDBRANCH   1   8
TORSDOF 1
ENDMDL
