MODEL 1
REMARK minimizedAffinity -4.88195086
REMARK minimizedRMSD -1
REMARK  1 active torsions:
REMARK  status: ('A' for Active; 'I' for Inactive)
REMARK    1  A    between atoms: C3_4  and  O_7 
ROOT
ATOM      1  C   UNL d   1       0.871   0.198   1.106  0.00  0.00    -0.033 A 
ATOM      2  C1  UNL d   1       0.301   0.299  -0.164  0.00  0.00     0.039 A 
ATOM      3  C2  UNL d   1      -1.051   0.620  -0.300  0.00  0.00    -0.080 A 
ATOM      4  C3  UNL d   1      -1.820   0.838   0.839  0.00  0.00     0.150 A 
ATOM      5  C4  UNL d   1      -1.257   0.743   2.108  0.00  0.00    -0.007 A 
ATOM      6  C5  UNL d   1       0.093   0.422   2.242  0.00  0.00     0.039 A 
ENDROOT
BRANCH   4   7
ATOM      7  O   UNL d   1      -3.145   1.149   0.756  0.00  0.00    -0.526 OA
ATOM      8  H5  UNL d   1      -3.402   1.151  -0.181  0.00  0.00     0.418 HD
ENDBRANCH   4   7
TORSDOF 1
ENDMDL
