MODEL 1
REMARK minimizedAffinity -1.76293445
REMARK minimizedRMSD -1
REMARK  1 active torsions:
REMARK  status: ('A' for Active; 'I' for Inactive)
REMARK    1  A    between atoms: C3_4  and  O_7 
ROOT
ATOM      1  C   UNL d   1       0.323  -0.289  -3.093  0.00  0.00    -0.033 A 
ATOM      2  C1  UNL d   1       0.582  -1.608  -3.472  0.00  0.00     0.039 A 
ATOM      3  C2  UNL d   1       1.891  -2.017  -3.733  0.00  0.00    -0.080 A 
ATOM      4  C3  UNL d   1       2.931  -1.099  -3.611  0.00  0.00     0.150 A 
ATOM      5  C4  UNL d   1       2.680   0.215  -3.231  0.00  0.00    -0.007 A 
ATOM      6  C5  UNL d   1       1.372   0.622  -2.972  0.00  0.00     0.039 A 
ENDROOT
BRANCH   4   7
ATOM      7  O   UNL d   1       4.224  -1.451  -3.860  0.00  0.00    -0.526 OA
ATOM      8  H5  UNL d   1       4.242  -2.381  -4.141  0.00  0.00     0.418 HD
ENDBRANCH   4   7
TORSDOF 1
ENDMDL
