MODEL 1
REMARK minimizedAffinity -1.66627502
REMARK minimizedRMSD -1
REMARK  1 active torsions:
REMARK  status: ('A' for Active; 'I' for Inactive)
REMARK    1  A    between atoms: C3_4  and  O_7 
ROOT
ATOM      1  C   UNL d   1       0.853  -0.193   2.279  0.00  0.00    -0.033 A 
ATOM      2  C1  UNL d   1       1.815   0.012   1.288  0.00  0.00     0.039 A 
ATOM      3  C2  UNL d   1       1.423   0.352  -0.008  0.00  0.00    -0.080 A 
ATOM      4  C3  UNL d   1       0.068   0.484  -0.299  0.00  0.00     0.150 A 
ATOM      5  C4  UNL d   1      -0.895   0.285   0.684  0.00  0.00    -0.007 A 
ATOM      6  C5  UNL d   1      -0.502  -0.055   1.977  0.00  0.00     0.039 A 
ENDROOT
BRANCH   4   7
ATOM      7  O   UNL d   1      -0.363   0.810  -1.551  0.00  0.00    -0.526 OA
ATOM      8  H5  UNL d   1       0.411   0.889  -2.133  0.00  0.00     0.418 HD
ENDBRANCH   4   7
TORSDOF 1
ENDMDL
