MODEL 1
REMARK minimizedAffinity -2.28501797
REMARK minimizedRMSD -1
REMARK  1 active torsions:
REMARK  status: ('A' for Active; 'I' for Inactive)
REMARK    1  A    between atoms: C3_4  and  O_7 
ROOT
ATOM      1  C   UNL d   1       0.533   1.098  -1.171  0.00  0.00    -0.033 A 
ATOM      2  C1  UNL d   1      -0.532   0.353  -0.662  0.00  0.00     0.039 A 
ATOM      3  C2  UNL d   1      -0.499  -0.105   0.657  0.00  0.00    -0.080 A 
ATOM      4  C3  UNL d   1       0.603   0.190   1.455  0.00  0.00     0.150 A 
ATOM      5  C4  UNL d   1       1.666   0.935   0.955  0.00  0.00    -0.007 A 
ATOM      6  C5  UNL d   1       1.631   1.391  -0.362  0.00  0.00     0.039 A 
ENDROOT
BRANCH   4   7
ATOM      7  O   UNL d   1       0.683  -0.239   2.746  0.00  0.00    -0.526 OA
ATOM      8  H5  UNL d   1      -0.109  -0.766   2.945  0.00  0.00     0.418 HD
ENDBRANCH   4   7
TORSDOF 1
ENDMDL
