MODEL 1
REMARK minimizedAffinity -0.793571055
REMARK minimizedRMSD -1
REMARK  1 active torsions:
REMARK  status: ('A' for Active; 'I' for Inactive)
REMARK    1  A    between atoms: C3_4  and  O_7 
ROOT
ATOM      1  C   UNL d   1       1.580  -1.856  -4.070  0.00  0.00    -0.033 A 
ATOM      2  C1  UNL d   1       2.364  -0.805  -3.592  0.00  0.00     0.039 A 
ATOM      3  C2  UNL d   1       1.845   0.080  -2.644  0.00  0.00    -0.080 A 
ATOM      4  C3  UNL d   1       0.544  -0.099  -2.183  0.00  0.00     0.150 A 
ATOM      5  C4  UNL d   1      -0.242  -1.147  -2.653  0.00  0.00    -0.007 A 
ATOM      6  C5  UNL d   1       0.278  -2.028  -3.600  0.00  0.00     0.039 A 
ENDROOT
BRANCH   4   7
ATOM      7  O   UNL d   1      -0.008   0.741  -1.262  0.00  0.00    -0.526 OA
ATOM      8  H5  UNL d   1       0.640   1.434  -1.050  0.00  0.00     0.418 HD
ENDBRANCH   4   7
TORSDOF 1
ENDMDL
