MODEL 1
REMARK minimizedAffinity -3.78597093
REMARK minimizedRMSD -1
REMARK  1 active torsions:
REMARK  status: ('A' for Active; 'I' for Inactive)
REMARK    1  A    between atoms: C3_4  and  O_7 
ROOT
ATOM      1  C   UNL d   1       0.902   0.274   1.371  0.00  0.00    -0.033 A 
ATOM      2  C1  UNL d   1      -0.029   0.529   2.380  0.00  0.00     0.039 A 
ATOM      3  C2  UNL d   1      -1.376   0.708   2.060  0.00  0.00    -0.080 A 
ATOM      4  C3  UNL d   1      -1.779   0.630   0.730  0.00  0.00     0.150 A 
ATOM      5  C4  UNL d   1      -0.857   0.373  -0.280  0.00  0.00    -0.007 A 
ATOM      6  C5  UNL d   1       0.488   0.195   0.041  0.00  0.00     0.039 A 
ENDROOT
BRANCH   4   7
ATOM      7  O   UNL d   1      -3.082   0.803   0.368  0.00  0.00    -0.526 OA
ATOM      8  H5  UNL d   1      -3.599   1.002   1.167  0.00  0.00     0.418 HD
ENDBRANCH   4   7
TORSDOF 1
ENDMDL
