MODEL 1
REMARK minimizedAffinity -1.87594771
REMARK minimizedRMSD -1
REMARK  1 active torsions:
REMARK  status: ('A' for Active; 'I' for Inactive)
REMARK    1  A    between atoms: C3_4  and  O_7 
ROOT
ATOM      1  C   UNL d   1      -1.664   0.392   2.719  0.00  0.00    -0.033 A 
ATOM      2  C1  UNL d   1      -1.985   1.695   3.104  0.00  0.00     0.039 A 
ATOM      3  C2  UNL d   1      -0.970   2.621   3.351  0.00  0.00    -0.080 A 
ATOM      4  C3  UNL d   1       0.360   2.233   3.209  0.00  0.00     0.150 A 
ATOM      5  C4  UNL d   1       0.686   0.938   2.822  0.00  0.00    -0.007 A 
ATOM      6  C5  UNL d   1      -0.328   0.014   2.576  0.00  0.00     0.039 A 
ENDROOT
BRANCH   4   7
ATOM      7  O   UNL d   1       1.384   3.101   3.444  0.00  0.00    -0.526 OA
ATOM      8  H5  UNL d   1       1.009   3.950   3.732  0.00  0.00     0.418 HD
ENDBRANCH   4   7
TORSDOF 1
ENDMDL
