MODEL 1
REMARK minimizedAffinity -3.48569202
REMARK minimizedRMSD -1
REMARK  1 active torsions:
REMARK  status: ('A' for Active; 'I' for Inactive)
REMARK    1  A    between atoms: C3_4  and  O_7 
ROOT
ATOM      1  C   UNL d   1      -1.414   0.636   2.029  0.00  0.00    -0.033 A 
ATOM      2  C1  UNL d   1      -0.026   0.485   2.045  0.00  0.00     0.039 A 
ATOM      3  C2  UNL d   1       0.683   0.403   0.845  0.00  0.00    -0.080 A 
ATOM      4  C3  UNL d   1      -0.006   0.474  -0.362  0.00  0.00     0.150 A 
ATOM      5  C4  UNL d   1      -1.389   0.628  -0.386  0.00  0.00    -0.007 A 
ATOM      6  C5  UNL d   1      -2.095   0.709   0.814  0.00  0.00     0.039 A 
ENDROOT
BRANCH   4   7
ATOM      7  O   UNL d   1       0.642   0.393  -1.559  0.00  0.00    -0.526 OA
ATOM      8  H5  UNL d   1       1.589   0.259  -1.387  0.00  0.00     0.418 HD
ENDBRANCH   4   7
TORSDOF 1
ENDMDL
