MODEL 1
REMARK minimizedAffinity -3.02548337
REMARK minimizedRMSD -1
REMARK  1 active torsions:
REMARK  status: ('A' for Active; 'I' for Inactive)
REMARK    1  A    between atoms: C3_4  and  O_7 
ROOT
ATOM      1  C   UNL d   1       0.788   0.035   2.086  0.00  0.00    -0.033 A 
ATOM      2  C1  UNL d   1       0.424   0.064   0.738  0.00  0.00     0.039 A 
ATOM      3  C2  UNL d   1      -0.904   0.298   0.376  0.00  0.00    -0.080 A 
ATOM      4  C3  UNL d   1      -1.857   0.502   1.370  0.00  0.00     0.150 A 
ATOM      5  C4  UNL d   1      -1.501   0.478   2.715  0.00  0.00    -0.007 A 
ATOM      6  C5  UNL d   1      -0.175   0.244   3.074  0.00  0.00     0.039 A 
ENDROOT
BRANCH   4   7
ATOM      7  O   UNL d   1      -3.167   0.729   1.066  0.00  0.00    -0.526 OA
ATOM      8  H5  UNL d   1      -3.270   0.689   0.101  0.00  0.00     0.418 HD
ENDBRANCH   4   7
TORSDOF 1
ENDMDL
