MODEL 1
REMARK minimizedAffinity -1.76948071
REMARK minimizedRMSD -1
REMARK  1 active torsions:
REMARK  status: ('A' for Active; 'I' for Inactive)
REMARK    1  A    between atoms: C3_4  and  O_7 
ROOT
ATOM      1  C   UNL d   1       1.503  -1.640  -3.773  0.00  0.00    -0.033 A 
ATOM      2  C1  UNL d   1       0.827  -2.446  -2.854  0.00  0.00     0.039 A 
ATOM      3  C2  UNL d   1       0.406  -1.914  -1.633  0.00  0.00    -0.080 A 
ATOM      4  C3  UNL d   1       0.666  -0.577  -1.345  0.00  0.00     0.150 A 
ATOM      5  C4  UNL d   1       1.334   0.232  -2.258  0.00  0.00    -0.007 A 
ATOM      6  C5  UNL d   1       1.755  -0.301  -3.475  0.00  0.00     0.039 A 
ENDROOT
BRANCH   4   7
ATOM      7  O   UNL d   1       0.278  -0.014  -0.165  0.00  0.00    -0.526 OA
ATOM      8  H5  UNL d   1      -0.146  -0.699   0.378  0.00  0.00     0.418 HD
ENDBRANCH   4   7
TORSDOF 1
ENDMDL
