MODEL 1
REMARK minimizedAffinity -2.92240143
REMARK minimizedRMSD -1
REMARK  1 active torsions:
REMARK  status: ('A' for Active; 'I' for Inactive)
REMARK    1  A    between atoms: C3_4  and  O_7 
ROOT
ATOM      1  C   UNL d   1      -0.083   0.126   2.661  0.00  0.00    -0.033 A 
ATOM      2  C1  UNL d   1      -1.294   0.244   1.976  0.00  0.00     0.039 A 
ATOM      3  C2  UNL d   1      -1.307   0.298   0.581  0.00  0.00    -0.080 A 
ATOM      4  C3  UNL d   1      -0.104   0.233  -0.117  0.00  0.00     0.150 A 
ATOM      5  C4  UNL d   1       1.106   0.112   0.559  0.00  0.00    -0.007 A 
ATOM      6  C5  UNL d   1       1.117   0.059   1.952  0.00  0.00     0.039 A 
ENDROOT
BRANCH   4   7
ATOM      7  O   UNL d   1      -0.067   0.286  -1.478  0.00  0.00    -0.526 OA
ATOM      8  H5  UNL d   1      -0.974   0.399  -1.807  0.00  0.00     0.418 HD
ENDBRANCH   4   7
TORSDOF 1
ENDMDL
