MODEL 1
REMARK minimizedAffinity -3.36806488
REMARK minimizedRMSD -1
REMARK  1 active torsions:
REMARK  status: ('A' for Active; 'I' for Inactive)
REMARK    1  A    between atoms: C3_4  and  O_7 
ROOT
ATOM      1  C   UNL d   1       0.906   0.314   1.328  0.00  0.00    -0.033 A 
ATOM      2  C1  UNL d   1       0.035   0.490   2.405  0.00  0.00     0.039 A 
ATOM      3  C2  UNL d   1      -1.336   0.625   2.181  0.00  0.00    -0.080 A 
ATOM      4  C3  UNL d   1      -1.824   0.581   0.877  0.00  0.00     0.150 A 
ATOM      5  C4  UNL d   1      -0.962   0.402  -0.200  0.00  0.00    -0.007 A 
ATOM      6  C5  UNL d   1       0.407   0.268   0.026  0.00  0.00     0.039 A 
ENDROOT
BRANCH   4   7
ATOM      7  O   UNL d   1      -3.154   0.712   0.609  0.00  0.00    -0.526 OA
ATOM      8  H5  UNL d   1      -3.624   0.859   1.447  0.00  0.00     0.418 HD
ENDBRANCH   4   7
TORSDOF 1
ENDMDL
