MODEL 1
REMARK minimizedAffinity -2.06232142
REMARK minimizedRMSD -1
REMARK  1 active torsions:
REMARK  status: ('A' for Active; 'I' for Inactive)
REMARK    1  A    between atoms: C3_4  and  O_7 
ROOT
ATOM      1  C   UNL d   1      -0.596   0.116   0.937  0.00  0.00    -0.033 A 
ATOM      2  C1  UNL d   1      -1.347   0.130  -0.239  0.00  0.00     0.039 A 
ATOM      3  C2  UNL d   1      -0.719  -0.048  -1.473  0.00  0.00    -0.080 A 
ATOM      4  C3  UNL d   1       0.659  -0.241  -1.516  0.00  0.00     0.150 A 
ATOM      5  C4  UNL d   1       1.413  -0.261  -0.348  0.00  0.00    -0.007 A 
ATOM      6  C5  UNL d   1       0.784  -0.081   0.884  0.00  0.00     0.039 A 
ENDROOT
BRANCH   4   7
ATOM      7  O   UNL d   1       1.318  -0.415  -2.697  0.00  0.00    -0.526 OA
ATOM      8  H5  UNL d   1       0.674  -0.350  -3.422  0.00  0.00     0.418 HD
ENDBRANCH   4   7
TORSDOF 1
ENDMDL
