MODEL 1
REMARK minimizedAffinity -2.86764741
REMARK minimizedRMSD -1
REMARK  1 active torsions:
REMARK  status: ('A' for Active; 'I' for Inactive)
REMARK    1  A    between atoms: C3_4  and  O_7 
ROOT
ATOM      1  C   UNL d   1       0.049   0.212   2.779  0.00  0.00    -0.033 A 
ATOM      2  C1  UNL d   1      -1.048   0.413   1.938  0.00  0.00     0.039 A 
ATOM      3  C2  UNL d   1      -0.888   0.352   0.553  0.00  0.00    -0.080 A 
ATOM      4  C3  UNL d   1       0.372   0.089   0.021  0.00  0.00     0.150 A 
ATOM      5  C4  UNL d   1       1.468  -0.116   0.853  0.00  0.00    -0.007 A 
ATOM      6  C5  UNL d   1       1.306  -0.053   2.237  0.00  0.00     0.039 A 
ENDROOT
BRANCH   4   7
ATOM      7  O   UNL d   1       0.578   0.024  -1.325  0.00  0.00    -0.526 OA
ATOM      8  H5  UNL d   1      -0.262   0.214  -1.774  0.00  0.00     0.418 HD
ENDBRANCH   4   7
TORSDOF 1
ENDMDL
