MODEL 1
REMARK minimizedAffinity 1.1791147
REMARK minimizedRMSD -1
REMARK  0 active torsions:
REMARK  status: ('A' for Active; 'I' for Inactive)
ROOT
ATOM      1  C   UNL d   1       5.999   1.022   1.902  0.00  0.00     0.077 C 
ATOM      2  C1  UNL d   1       5.991   2.188   2.845  0.00  0.00    -0.074 A 
ATOM      3  C2  UNL d   1       5.996   1.993   4.230  0.00  0.00    -0.005 A 
ATOM      4  C3  UNL d   1       5.998   3.087   5.094  0.00  0.00     0.006 A 
ATOM      5  C4  UNL d   1       5.995   4.386   4.584  0.00  0.00    -0.005 A 
ATOM      6  C5  UNL d   1       5.991   4.601   3.202  0.00  0.00    -0.074 A 
ATOM      7  C6  UNL d   1       5.998   5.990   2.637  0.00  0.00     0.077 C 
ATOM      8  C7  UNL d   1       5.996   3.496   2.340  0.00  0.00    -0.001 A 
ENDROOT
TORSDOF 0
ENDMDL
