MODEL 1
REMARK minimizedAffinity 5.13031483
REMARK minimizedRMSD -1
REMARK  0 active torsions:
REMARK  status: ('A' for Active; 'I' for Inactive)
ROOT
ATOM      1  C   UNL d   1       1.505   2.227   1.491  0.00  0.00     0.077 C 
ATOM      2  C1  UNL d   1       0.947   1.122   0.644  0.00  0.00    -0.074 A 
ATOM      3  C2  UNL d   1      -0.021   0.248   1.149  0.00  0.00    -0.005 A 
ATOM      4  C3  UNL d   1      -0.537  -0.769   0.346  0.00  0.00     0.006 A 
ATOM      5  C4  UNL d   1      -0.092  -0.922  -0.967  0.00  0.00    -0.005 A 
ATOM      6  C5  UNL d   1       0.875  -0.057  -1.490  0.00  0.00    -0.074 A 
ATOM      7  C6  UNL d   1       1.358  -0.202  -2.902  0.00  0.00     0.077 C 
ATOM      8  C7  UNL d   1       1.384   0.967  -0.679  0.00  0.00    -0.001 A 
ENDROOT
TORSDOF 0
ENDMDL
