MODEL 1
REMARK minimizedAffinity 9.69811249
REMARK minimizedRMSD -1
REMARK  0 active torsions:
REMARK  status: ('A' for Active; 'I' for Inactive)
ROOT
ATOM      1  C   UNL d   1       5.046   1.314   1.266  0.00  0.00     0.077 C 
ATOM      2  C1  UNL d   1       5.345   2.203   2.436  0.00  0.00    -0.074 A 
ATOM      3  C2  UNL d   1       5.606   1.663   3.700  0.00  0.00    -0.005 A 
ATOM      4  C3  UNL d   1       5.892   2.502   4.777  0.00  0.00     0.006 A 
ATOM      5  C4  UNL d   1       5.918   3.886   4.602  0.00  0.00    -0.005 A 
ATOM      6  C5  UNL d   1       5.660   4.444   3.346  0.00  0.00    -0.074 A 
ATOM      7  C6  UNL d   1       5.694   5.929   3.138  0.00  0.00     0.077 C 
ATOM      8  C7  UNL d   1       5.381   3.594   2.267  0.00  0.00    -0.001 A 
ENDROOT
TORSDOF 0
ENDMDL
