MODEL 1
REMARK minimizedAffinity 2.96680284
REMARK minimizedRMSD -1
REMARK  0 active torsions:
REMARK  status: ('A' for Active; 'I' for Inactive)
ROOT
ATOM      1  C   UNL d   1       6.000   1.680   2.638  0.00  0.00     0.077 C 
ATOM      2  C1  UNL d   1       5.990   3.180   2.634  0.00  0.00    -0.074 A 
ATOM      3  C2  UNL d   1       5.999   3.902   3.832  0.00  0.00    -0.005 A 
ATOM      4  C3  UNL d   1       6.000   5.297   3.812  0.00  0.00     0.006 A 
ATOM      5  C4  UNL d   1       5.991   5.983   2.597  0.00  0.00    -0.005 A 
ATOM      6  C5  UNL d   1       5.983   5.278   1.389  0.00  0.00    -0.074 A 
ATOM      7  C6  UNL d   1       5.983   5.999   0.074  0.00  0.00     0.077 C 
ATOM      8  C7  UNL d   1       5.989   3.876   1.417  0.00  0.00    -0.001 A 
ENDROOT
TORSDOF 0
ENDMDL
