MODEL 1
REMARK minimizedAffinity 10.2914743
REMARK minimizedRMSD -1
REMARK  0 active torsions:
REMARK  status: ('A' for Active; 'I' for Inactive)
ROOT
ATOM      1  C   UNL d   1       4.567   0.350   1.030  0.00  0.00     0.077 C 
ATOM      2  C1  UNL d   1       5.074   0.630   2.413  0.00  0.00    -0.074 A 
ATOM      3  C2  UNL d   1       5.500   1.912   2.776  0.00  0.00    -0.005 A 
ATOM      4  C3  UNL d   1       5.961   2.159   4.070  0.00  0.00     0.006 A 
ATOM      5  C4  UNL d   1       6.000   1.130   5.011  0.00  0.00    -0.005 A 
ATOM      6  C5  UNL d   1       5.577  -0.158   4.666  0.00  0.00    -0.074 A 
ATOM      7  C6  UNL d   1       5.603  -1.273   5.668  0.00  0.00     0.077 C 
ATOM      8  C7  UNL d   1       5.109  -0.397   3.367  0.00  0.00    -0.001 A 
ENDROOT
TORSDOF 0
ENDMDL
