MODEL 1
REMARK minimizedAffinity 2.68478847
REMARK minimizedRMSD -1
REMARK  0 active torsions:
REMARK  status: ('A' for Active; 'I' for Inactive)
ROOT
ATOM      1  C   UNL d   1       0.889   2.268   1.460  0.00  0.00     0.077 C 
ATOM      2  C1  UNL d   1       0.927   1.107   0.511  0.00  0.00    -0.074 A 
ATOM      3  C2  UNL d   1      -0.247   0.445   0.137  0.00  0.00    -0.005 A 
ATOM      4  C3  UNL d   1      -0.196  -0.627  -0.754  0.00  0.00     0.006 A 
ATOM      5  C4  UNL d   1       1.026  -1.048  -1.278  0.00  0.00    -0.005 A 
ATOM      6  C5  UNL d   1       2.210  -0.398  -0.916  0.00  0.00    -0.074 A 
ATOM      7  C6  UNL d   1       3.532  -0.831  -1.478  0.00  0.00     0.077 C 
ATOM      8  C7  UNL d   1       2.151   0.683  -0.026  0.00  0.00    -0.001 A 
ENDROOT
TORSDOF 0
ENDMDL
