MODEL 1
REMARK minimizedAffinity 8.49247932
REMARK minimizedRMSD -1
REMARK  0 active torsions:
REMARK  status: ('A' for Active; 'I' for Inactive)
ROOT
ATOM      1  C   UNL d   1       5.358   5.999   2.666  0.00  0.00     0.077 C 
ATOM      2  C1  UNL d   1       5.011   4.665   3.256  0.00  0.00    -0.074 A 
ATOM      3  C2  UNL d   1       5.999   3.848   3.815  0.00  0.00    -0.005 A 
ATOM      4  C3  UNL d   1       5.660   2.613   4.368  0.00  0.00     0.006 A 
ATOM      5  C4  UNL d   1       4.332   2.184   4.369  0.00  0.00    -0.005 A 
ATOM      6  C5  UNL d   1       3.331   2.988   3.816  0.00  0.00    -0.074 A 
ATOM      7  C6  UNL d   1       1.898   2.546   3.818  0.00  0.00     0.077 C 
ATOM      8  C7  UNL d   1       3.678   4.230   3.268  0.00  0.00    -0.001 A 
ENDROOT
TORSDOF 0
ENDMDL
