MODEL 1
REMARK minimizedAffinity 2.06914973
REMARK minimizedRMSD -1
REMARK  0 active torsions:
REMARK  status: ('A' for Active; 'I' for Inactive)
ROOT
ATOM      1  C   UNL d   1       5.960   5.218   1.561  0.00  0.00     0.077 C 
ATOM      2  C1  UNL d   1       5.967   4.881   3.023  0.00  0.00    -0.074 A 
ATOM      3  C2  UNL d   1       5.943   5.889   3.992  0.00  0.00    -0.005 A 
ATOM      4  C3  UNL d   1       5.941   5.560   5.348  0.00  0.00     0.006 A 
ATOM      5  C4  UNL d   1       5.962   4.223   5.747  0.00  0.00    -0.005 A 
ATOM      6  C5  UNL d   1       5.986   3.202   4.791  0.00  0.00    -0.074 A 
ATOM      7  C6  UNL d   1       5.999   1.760   5.203  0.00  0.00     0.077 C 
ATOM      8  C7  UNL d   1       5.981   3.540   3.431  0.00  0.00    -0.001 A 
ENDROOT
TORSDOF 0
ENDMDL
