MODEL 1
REMARK minimizedAffinity 9.72824287
REMARK minimizedRMSD -1
REMARK  0 active torsions:
REMARK  status: ('A' for Active; 'I' for Inactive)
ROOT
ATOM      1  C   UNL d   1       1.620  -0.371   4.011  0.00  0.00     0.077 C 
ATOM      2  C1  UNL d   1       2.991   0.211   3.832  0.00  0.00    -0.074 A 
ATOM      3  C2  UNL d   1       3.440   0.617   2.571  0.00  0.00    -0.005 A 
ATOM      4  C3  UNL d   1       4.714   1.165   2.421  0.00  0.00     0.006 A 
ATOM      5  C4  UNL d   1       5.550   1.313   3.529  0.00  0.00    -0.005 A 
ATOM      6  C5  UNL d   1       5.118   0.914   4.797  0.00  0.00    -0.074 A 
ATOM      7  C6  UNL d   1       6.000   1.075   6.000  0.00  0.00     0.077 C 
ATOM      8  C7  UNL d   1       3.834   0.370   4.941  0.00  0.00    -0.001 A 
ENDROOT
TORSDOF 0
ENDMDL
