MODEL 1
REMARK minimizedAffinity 8.28371716
REMARK minimizedRMSD -1
REMARK  0 active torsions:
REMARK  status: ('A' for Active; 'I' for Inactive)
ROOT
ATOM      1  C   UNL d   1       5.717   5.396   5.333  0.00  0.00     0.077 C 
ATOM      2  C1  UNL d   1       5.809   5.017   3.885  0.00  0.00    -0.074 A 
ATOM      3  C2  UNL d   1       5.866   5.996   2.888  0.00  0.00    -0.005 A 
ATOM      4  C3  UNL d   1       5.961   5.628   1.546  0.00  0.00     0.006 A 
ATOM      5  C4  UNL d   1       6.000   4.280   1.188  0.00  0.00    -0.005 A 
ATOM      6  C5  UNL d   1       5.944   3.287   2.171  0.00  0.00    -0.074 A 
ATOM      7  C6  UNL d   1       5.994   1.834   1.804  0.00  0.00     0.077 C 
ATOM      8  C7  UNL d   1       5.856   3.665   3.518  0.00  0.00    -0.001 A 
ENDROOT
TORSDOF 0
ENDMDL
