MODEL 1
REMARK minimizedAffinity 11.5833378
REMARK minimizedRMSD -1
REMARK  0 active torsions:
REMARK  status: ('A' for Active; 'I' for Inactive)
ROOT
ATOM      1  C   UNL d   1       2.086   3.038  -6.000  0.00  0.00     0.077 C 
ATOM      2  C1  UNL d   1       3.300   2.617  -5.226  0.00  0.00    -0.074 A 
ATOM      3  C2  UNL d   1       4.582   2.984  -5.646  0.00  0.00    -0.005 A 
ATOM      4  C3  UNL d   1       5.701   2.594  -4.911  0.00  0.00     0.006 A 
ATOM      5  C4  UNL d   1       5.550   1.833  -3.750  0.00  0.00    -0.005 A 
ATOM      6  C5  UNL d   1       4.275   1.458  -3.315  0.00  0.00    -0.074 A 
ATOM      7  C6  UNL d   1       4.093   0.649  -2.065  0.00  0.00     0.077 C 
ATOM      8  C7  UNL d   1       3.155   1.860  -4.055  0.00  0.00    -0.001 A 
ENDROOT
TORSDOF 0
ENDMDL
