MODEL 1
REMARK minimizedAffinity 5.20295811
REMARK minimizedRMSD -1
REMARK  0 active torsions:
REMARK  status: ('A' for Active; 'I' for Inactive)
ROOT
ATOM      1  C   UNL d   1       6.000   3.374  -3.853  0.00  0.00     0.077 C 
ATOM      2  C1  UNL d   1       5.138   3.686  -2.666  0.00  0.00    -0.074 A 
ATOM      3  C2  UNL d   1       4.941   5.006  -2.247  0.00  0.00    -0.005 A 
ATOM      4  C3  UNL d   1       4.129   5.281  -1.147  0.00  0.00     0.006 A 
ATOM      5  C4  UNL d   1       3.506   4.241  -0.456  0.00  0.00    -0.005 A 
ATOM      6  C5  UNL d   1       3.690   2.915  -0.861  0.00  0.00    -0.074 A 
ATOM      7  C6  UNL d   1       3.020   1.787  -0.135  0.00  0.00     0.077 C 
ATOM      8  C7  UNL d   1       4.502   2.647  -1.971  0.00  0.00    -0.001 A 
ENDROOT
TORSDOF 0
ENDMDL
