MODEL 1
REMARK minimizedAffinity 2.8923564
REMARK minimizedRMSD -1
REMARK  0 active torsions:
REMARK  status: ('A' for Active; 'I' for Inactive)
ROOT
ATOM      1  C   UNL d   1       1.136  -2.375   0.996  0.00  0.00     0.077 C 
ATOM      2  C1  UNL d   1       1.676  -3.612   1.650  0.00  0.00    -0.074 A 
ATOM      3  C2  UNL d   1       1.580  -4.858   1.022  0.00  0.00    -0.005 A 
ATOM      4  C3  UNL d   1       2.096  -5.998   1.638  0.00  0.00     0.006 A 
ATOM      5  C4  UNL d   1       2.712  -5.904   2.886  0.00  0.00    -0.005 A 
ATOM      6  C5  UNL d   1       2.818  -4.667   3.530  0.00  0.00    -0.074 A 
ATOM      7  C6  UNL d   1       3.486  -4.547   4.867  0.00  0.00     0.077 C 
ATOM      8  C7  UNL d   1       2.304  -3.525   2.901  0.00  0.00    -0.001 A 
ENDROOT
TORSDOF 0
ENDMDL
