MODEL 1
REMARK minimizedAffinity 1.67308927
REMARK minimizedRMSD -1
REMARK  0 active torsions:
REMARK  status: ('A' for Active; 'I' for Inactive)
ROOT
ATOM      1  C   UNL d   1       0.865   2.156   1.533  0.00  0.00     0.077 C 
ATOM      2  C1  UNL d   1       1.419   1.121   0.600  0.00  0.00    -0.074 A 
ATOM      3  C2  UNL d   1       2.683   1.278   0.021  0.00  0.00    -0.005 A 
ATOM      4  C3  UNL d   1       3.189   0.302  -0.838  0.00  0.00     0.006 A 
ATOM      5  C4  UNL d   1       2.438  -0.838  -1.126  0.00  0.00    -0.005 A 
ATOM      6  C5  UNL d   1       1.173  -1.012  -0.556  0.00  0.00    -0.074 A 
ATOM      7  C6  UNL d   1       0.357  -2.236  -0.848  0.00  0.00     0.077 C 
ATOM      8  C7  UNL d   1       0.674  -0.031   0.311  0.00  0.00    -0.001 A 
ENDROOT
TORSDOF 0
ENDMDL
