MODEL 1
REMARK minimizedAffinity 14.5882664
REMARK minimizedRMSD -1
REMARK  0 active torsions:
REMARK  status: ('A' for Active; 'I' for Inactive)
ROOT
ATOM      1  C   UNL d   1       3.686   1.343  -1.677  0.00  0.00     0.077 C 
ATOM      2  C1  UNL d   1       4.218   1.814  -2.998  0.00  0.00    -0.074 A 
ATOM      3  C2  UNL d   1       5.523   1.509  -3.398  0.00  0.00    -0.005 A 
ATOM      4  C3  UNL d   1       6.000   1.946  -4.634  0.00  0.00     0.006 A 
ATOM      5  C4  UNL d   1       5.179   2.692  -5.480  0.00  0.00    -0.005 A 
ATOM      6  C5  UNL d   1       3.871   3.007  -5.097  0.00  0.00    -0.074 A 
ATOM      7  C6  UNL d   1       2.972   3.799  -5.999  0.00  0.00     0.077 C 
ATOM      8  C7  UNL d   1       3.396   2.558  -3.857  0.00  0.00    -0.001 A 
ENDROOT
TORSDOF 0
ENDMDL
