MODEL 1
REMARK minimizedAffinity -4.60101986
REMARK minimizedRMSD -1
REMARK  0 active torsions:
REMARK  status: ('A' for Active; 'I' for Inactive)
ROOT
ATOM      1  C   UNL d   1       2.920  -1.482   0.691  0.00  0.00     0.078 C 
ATOM      2  C1  UNL d   1       1.539  -0.997   0.366  0.00  0.00    -0.077 A 
ATOM      3  C2  UNL d   1       1.102   0.267   0.781  0.00  0.00    -0.001 A 
ATOM      4  C3  UNL d   1      -0.189   0.702   0.479  0.00  0.00     0.003 A 
ATOM      5  C4  UNL d   1      -1.055  -0.121  -0.238  0.00  0.00    -0.005 A 
ATOM      6  C5  UNL d   1      -0.630  -1.381  -0.653  0.00  0.00     0.003 A 
ATOM      7  C6  UNL d   1       0.661  -1.818  -0.353  0.00  0.00    -0.001 A 
ENDROOT
TORSDOF 0
ENDMDL
