MODEL 1
REMARK minimizedAffinity -3.30774927
REMARK minimizedRMSD -1
REMARK  0 active torsions:
REMARK  status: ('A' for Active; 'I' for Inactive)
ROOT
ATOM      1  C   UNL d   1       2.402  -1.308   0.910  0.00  0.00     0.078 C 
ATOM      2  C1  UNL d   1       1.217  -0.473   0.528  0.00  0.00    -0.077 A 
ATOM      3  C2  UNL d   1       1.240   0.920   0.672  0.00  0.00    -0.001 A 
ATOM      4  C3  UNL d   1       0.126   1.684   0.321  0.00  0.00     0.003 A 
ATOM      5  C4  UNL d   1      -1.020   1.065  -0.174  0.00  0.00    -0.005 A 
ATOM      6  C5  UNL d   1      -1.053  -0.320  -0.318  0.00  0.00     0.003 A 
ATOM      7  C6  UNL d   1       0.060  -1.086   0.032  0.00  0.00    -0.001 A 
ENDROOT
TORSDOF 0
ENDMDL
