MODEL 1
REMARK minimizedAffinity -4.08039713
REMARK minimizedRMSD -1
REMARK  0 active torsions:
REMARK  status: ('A' for Active; 'I' for Inactive)
ROOT
ATOM      1  C   UNL d   1      -1.193   0.370  -0.004  0.00  0.00     0.078 C 
ATOM      2  C1  UNL d   1       0.219  -0.127   0.078  0.00  0.00    -0.077 A 
ATOM      3  C2  UNL d   1       1.184   0.563   0.822  0.00  0.00    -0.001 A 
ATOM      4  C3  UNL d   1       2.498   0.094   0.881  0.00  0.00     0.003 A 
ATOM      5  C4  UNL d   1       2.859  -1.065   0.198  0.00  0.00    -0.005 A 
ATOM      6  C5  UNL d   1       1.906  -1.757  -0.548  0.00  0.00     0.003 A 
ATOM      7  C6  UNL d   1       0.592  -1.290  -0.608  0.00  0.00    -0.001 A 
ENDROOT
TORSDOF 0
ENDMDL
