MODEL 1
REMARK minimizedAffinity -5.60517883
REMARK minimizedRMSD -1
REMARK  0 active torsions:
REMARK  status: ('A' for Active; 'I' for Inactive)
ROOT
ATOM      1  C   UNL d   1      -0.997   1.123  -0.839  0.00  0.00     0.078 C 
ATOM      2  C1  UNL d   1       0.068   0.158  -0.411  0.00  0.00    -0.077 A 
ATOM      3  C2  UNL d   1       0.081  -1.159  -0.887  0.00  0.00    -0.001 A 
ATOM      4  C3  UNL d   1       1.073  -2.049  -0.473  0.00  0.00     0.003 A 
ATOM      5  C4  UNL d   1       2.058  -1.633   0.421  0.00  0.00    -0.005 A 
ATOM      6  C5  UNL d   1       2.051  -0.326   0.902  0.00  0.00     0.003 A 
ATOM      7  C6  UNL d   1       1.060   0.566   0.488  0.00  0.00    -0.001 A 
ENDROOT
TORSDOF 0
ENDMDL
