MODEL 1
REMARK minimizedAffinity -2.72868395
REMARK minimizedRMSD -1
REMARK  0 active torsions:
REMARK  status: ('A' for Active; 'I' for Inactive)
ROOT
ATOM      1  C   UNL d   1       2.452  -1.564   0.753  0.00  0.00     0.078 C 
ATOM      2  C1  UNL d   1       1.243  -0.809   0.288  0.00  0.00    -0.077 A 
ATOM      3  C2  UNL d   1       1.183   0.587   0.384  0.00  0.00    -0.001 A 
ATOM      4  C3  UNL d   1       0.047   1.276  -0.044  0.00  0.00     0.003 A 
ATOM      5  C4  UNL d   1      -1.038   0.578  -0.570  0.00  0.00    -0.005 A 
ATOM      6  C5  UNL d   1      -0.989  -0.811  -0.668  0.00  0.00     0.003 A 
ATOM      7  C6  UNL d   1       0.146  -1.502  -0.240  0.00  0.00    -0.001 A 
ENDROOT
TORSDOF 0
ENDMDL
