MODEL 1
REMARK minimizedAffinity -5.31792355
REMARK minimizedRMSD -1
REMARK  0 active torsions:
REMARK  status: ('A' for Active; 'I' for Inactive)
ROOT
ATOM      1  C   UNL d   1      -1.216   0.498   0.083  0.00  0.00     0.078 C 
ATOM      2  C1  UNL d   1       0.101  -0.171   0.340  0.00  0.00    -0.077 A 
ATOM      3  C2  UNL d   1       1.203   0.558   0.804  0.00  0.00    -0.001 A 
ATOM      4  C3  UNL d   1       2.425  -0.076   1.030  0.00  0.00     0.003 A 
ATOM      5  C4  UNL d   1       2.559  -1.442   0.792  0.00  0.00    -0.005 A 
ATOM      6  C5  UNL d   1       1.469  -2.176   0.328  0.00  0.00     0.003 A 
ATOM      7  C6  UNL d   1       0.246  -1.544   0.102  0.00  0.00    -0.001 A 
ENDROOT
TORSDOF 0
ENDMDL
