MODEL 1
REMARK minimizedAffinity -2.92235518
REMARK minimizedRMSD -1
REMARK  0 active torsions:
REMARK  status: ('A' for Active; 'I' for Inactive)
ROOT
ATOM      1  C   UNL d   1       2.299   1.700   1.470  0.00  0.00     0.078 C 
ATOM      2  C1  UNL d   1       1.626   0.536   0.806  0.00  0.00    -0.077 A 
ATOM      3  C2  UNL d   1       2.260  -0.709   0.715  0.00  0.00    -0.001 A 
ATOM      4  C3  UNL d   1       1.626  -1.780   0.085  0.00  0.00     0.003 A 
ATOM      5  C4  UNL d   1       0.353  -1.618  -0.459  0.00  0.00    -0.005 A 
ATOM      6  C5  UNL d   1      -0.285  -0.382  -0.376  0.00  0.00     0.003 A 
ATOM      7  C6  UNL d   1       0.348   0.691   0.253  0.00  0.00    -0.001 A 
ENDROOT
TORSDOF 0
ENDMDL
