MODEL 1
REMARK minimizedAffinity -4.82698059
REMARK minimizedRMSD -1
REMARK  1 active torsions:
REMARK  status: ('A' for Active; 'I' for Inactive)
REMARK    1  A    between atoms: C1_2  and  C2_3 
ROOT
ATOM      1  C2  UNL d   1      -1.449   0.621  -0.178  0.00  0.00    -0.073 A 
ATOM      2  C3  UNL d   1      -1.322  -0.773  -0.195  0.00  0.00    -0.002 A 
ATOM      3  C4  UNL d   1      -0.059  -1.366  -0.177  0.00  0.00     0.004 A 
ATOM      4  C5  UNL d   1       1.088  -0.574  -0.134  0.00  0.00    -0.004 A 
ATOM      5  C6  UNL d   1       0.982   0.820  -0.103  0.00  0.00    -0.075 A 
ATOM      6  C7  UNL d   1       2.206   1.687  -0.059  0.00  0.00     0.076 C 
ATOM      7  C8  UNL d   1      -0.290   1.409  -0.125  0.00  0.00     0.001 A 
ENDROOT
BRANCH   1   8
ATOM      8  C1  UNL d   1      -2.810   1.266  -0.191  0.00  0.00     0.053 C 
ATOM      9  C   UNL d   1      -3.199   1.804   1.177  0.00  0.00     0.018 C 
ENDBRANCH   1   8
TORSDOF 1
ENDMDL
