MODEL 1
REMARK minimizedAffinity -4.53767443
REMARK minimizedRMSD -1
REMARK  1 active torsions:
REMARK  status: ('A' for Active; 'I' for Inactive)
REMARK    1  A    between atoms: C1_2  and  C2_3 
ROOT
ATOM      1  C2  UNL d   1      -0.826   0.214  -0.435  0.00  0.00    -0.073 A 
ATOM      2  C3  UNL d   1      -0.301   1.507  -0.540  0.00  0.00    -0.002 A 
ATOM      3  C4  UNL d   1       1.001   1.776  -0.116  0.00  0.00     0.004 A 
ATOM      4  C5  UNL d   1       1.793   0.755   0.410  0.00  0.00    -0.004 A 
ATOM      5  C6  UNL d   1       1.290  -0.546   0.512  0.00  0.00    -0.075 A 
ATOM      6  C7  UNL d   1       2.128  -1.654   1.078  0.00  0.00     0.076 C 
ATOM      7  C8  UNL d   1      -0.019  -0.807   0.087  0.00  0.00     0.001 A 
ENDROOT
BRANCH   1   8
ATOM      8  C1  UNL d   1      -2.229  -0.082  -0.898  0.00  0.00     0.053 C 
ATOM      9  C   UNL d   1      -3.273   0.476   0.055  0.00  0.00     0.018 C 
ENDBRANCH   1   8
TORSDOF 1
ENDMDL
