MODEL 1
REMARK minimizedAffinity -3.70365024
REMARK minimizedRMSD -1
REMARK  1 active torsions:
REMARK  status: ('A' for Active; 'I' for Inactive)
REMARK    1  A    between atoms: C1_2  and  C2_3 
ROOT
ATOM      1  C2  UNL d   1       2.400  -0.222  -0.169  0.00  0.00    -0.073 A 
ATOM      2  C3  UNL d   1       2.312  -1.618  -0.189  0.00  0.00    -0.002 A 
ATOM      3  C4  UNL d   1       1.068  -2.245  -0.266  0.00  0.00     0.004 A 
ATOM      4  C5  UNL d   1      -0.099  -1.484  -0.331  0.00  0.00    -0.004 A 
ATOM      5  C6  UNL d   1      -0.031  -0.087  -0.325  0.00  0.00    -0.075 A 
ATOM      6  C7  UNL d   1      -1.277   0.746  -0.393  0.00  0.00     0.076 C 
ATOM      7  C8  UNL d   1       1.222   0.535  -0.245  0.00  0.00     0.001 A 
ENDROOT
BRANCH   1   8
ATOM      8  C1  UNL d   1       3.742   0.460  -0.093  0.00  0.00     0.053 C 
ATOM      9  C   UNL d   1       3.608   1.967   0.050  0.00  0.00     0.018 C 
ENDBRANCH   1   8
TORSDOF 1
ENDMDL
