MODEL 1
REMARK minimizedAffinity -2.42825675
REMARK minimizedRMSD -1
REMARK  1 active torsions:
REMARK  status: ('A' for Active; 'I' for Inactive)
REMARK    1  A    between atoms: C1_2  and  C2_3 
ROOT
ATOM      1  C2  UNL d   1       2.192   0.159   0.632  0.00  0.00    -0.073 A 
ATOM      2  C3  UNL d   1       2.533  -1.056   0.025  0.00  0.00    -0.002 A 
ATOM      3  C4  UNL d   1       1.551  -1.839  -0.583  0.00  0.00     0.004 A 
ATOM      4  C5  UNL d   1       0.223  -1.413  -0.599  0.00  0.00    -0.004 A 
ATOM      5  C6  UNL d   1      -0.135  -0.197  -0.009  0.00  0.00    -0.075 A 
ATOM      6  C7  UNL d   1      -1.559   0.274  -0.015  0.00  0.00     0.076 C 
ATOM      7  C8  UNL d   1       0.856   0.583   0.603  0.00  0.00     0.001 A 
ENDROOT
BRANCH   1   8
ATOM      8  C1  UNL d   1       3.250   1.011   1.285  0.00  0.00     0.053 C 
ATOM      9  C   UNL d   1       3.181   2.458   0.824  0.00  0.00     0.018 C 
ENDBRANCH   1   8
TORSDOF 1
ENDMDL
