MODEL 1
REMARK minimizedAffinity 1.33370054
REMARK minimizedRMSD -1
REMARK  0 active torsions:
REMARK  status: ('A' for Active; 'I' for Inactive)
ROOT
ATOM      1  C   UNL d   1       1.501  -5.735  -4.638  0.00  0.00    -0.002 A 
ATOM      2  C1  UNL d   1       2.092  -5.920  -5.879  0.00  0.00     0.010 A 
ATOM      3  C2  UNL d   1       3.481  -6.000  -6.000  0.00  0.00     0.041 A 
ATOM      4  C3  UNL d   1       4.273  -5.892  -4.840  0.00  0.00    -0.075 A 
ATOM      5  S   UNL d   1       5.993  -5.961  -4.746  0.00  0.00     0.015 SA
ATOM      6  C4  UNL d   1       5.983  -5.748  -3.055  0.00  0.00     0.022 A 
ATOM      7  C5  UNL d   1       4.707  -5.625  -2.558  0.00  0.00     0.026 A 
ATOM      8  C6  UNL d   1       3.700  -5.706  -3.578  0.00  0.00    -0.082 A 
ATOM      9  C7  UNL d   1       2.290  -5.628  -3.489  0.00  0.00     0.045 A 
ENDROOT
TORSDOF 0
ENDMDL
