MODEL 1
REMARK minimizedAffinity 7.59167385
REMARK minimizedRMSD -1
REMARK  0 active torsions:
REMARK  status: ('A' for Active; 'I' for Inactive)
ROOT
ATOM      1  C   UNL d   1       2.597  -2.232  -2.894  0.00  0.00    -0.002 A 
ATOM      2  C1  UNL d   1       3.780  -1.566  -3.183  0.00  0.00     0.010 A 
ATOM      3  C2  UNL d   1       4.776  -2.183  -3.943  0.00  0.00     0.041 A 
ATOM      4  C3  UNL d   1       4.560  -3.493  -4.414  0.00  0.00    -0.075 A 
ATOM      5  S   UNL d   1       5.637  -4.447  -5.363  0.00  0.00     0.015 SA
ATOM      6  C4  UNL d   1       4.553  -5.761  -5.409  0.00  0.00     0.022 A 
ATOM      7  C5  UNL d   1       3.392  -5.496  -4.722  0.00  0.00     0.026 A 
ATOM      8  C6  UNL d   1       3.377  -4.184  -4.137  0.00  0.00    -0.082 A 
ATOM      9  C7  UNL d   1       2.387  -3.532  -3.363  0.00  0.00     0.045 A 
ENDROOT
TORSDOF 0
ENDMDL
