MODEL 1
REMARK minimizedAffinity 21.8295116
REMARK minimizedRMSD -1
REMARK  0 active torsions:
REMARK  status: ('A' for Active; 'I' for Inactive)
ROOT
ATOM      1  C   UNL d   1       5.725  -5.423  -5.716  0.00  0.00    -0.002 A 
ATOM      2  C1  UNL d   1       5.835  -4.419  -4.765  0.00  0.00     0.010 A 
ATOM      3  C2  UNL d   1       4.707  -3.963  -4.080  0.00  0.00     0.041 A 
ATOM      4  C3  UNL d   1       3.455  -4.541  -4.368  0.00  0.00    -0.075 A 
ATOM      5  S   UNL d   1       1.937  -4.142  -3.654  0.00  0.00     0.015 SA
ATOM      6  C4  UNL d   1       1.107  -5.297  -4.593  0.00  0.00     0.022 A 
ATOM      7  C5  UNL d   1       1.952  -5.978  -5.437  0.00  0.00     0.026 A 
ATOM      8  C6  UNL d   1       3.319  -5.554  -5.321  0.00  0.00    -0.082 A 
ATOM      9  C7  UNL d   1       4.481  -5.994  -6.000  0.00  0.00     0.045 A 
ENDROOT
TORSDOF 0
ENDMDL
