MODEL 1
REMARK minimizedAffinity 5.72032595
REMARK minimizedRMSD -1
REMARK  0 active torsions:
REMARK  status: ('A' for Active; 'I' for Inactive)
ROOT
ATOM      1  C   UNL d   1       0.703   3.434   3.033  0.00  0.00    -0.002 A 
ATOM      2  C1  UNL d   1      -0.251   3.550   4.034  0.00  0.00     0.010 A 
ATOM      3  C2  UNL d   1      -1.475   2.886   3.931  0.00  0.00     0.041 A 
ATOM      4  C3  UNL d   1      -1.726   2.093   2.794  0.00  0.00    -0.075 A 
ATOM      5  S   UNL d   1      -3.152   1.188   2.452  0.00  0.00     0.015 SA
ATOM      6  C4  UNL d   1      -2.530   0.624   0.969  0.00  0.00     0.022 A 
ATOM      7  C5  UNL d   1      -1.265   1.105   0.725  0.00  0.00     0.026 A 
ATOM      8  C6  UNL d   1      -0.781   1.960   1.772  0.00  0.00    -0.082 A 
ATOM      9  C7  UNL d   1       0.450   2.646   1.906  0.00  0.00     0.045 A 
ENDROOT
TORSDOF 0
ENDMDL
