MODEL 1
REMARK minimizedAffinity -0.339662105
REMARK minimizedRMSD -1
REMARK  0 active torsions:
REMARK  status: ('A' for Active; 'I' for Inactive)
ROOT
ATOM      1  C   UNL d   1       2.613   2.664   1.065  0.00  0.00    -0.002 A 
ATOM      2  C1  UNL d   1       1.672   1.980   0.308  0.00  0.00     0.010 A 
ATOM      3  C2  UNL d   1       0.323   1.994   0.670  0.00  0.00     0.041 A 
ATOM      4  C3  UNL d   1      -0.068   2.715   1.816  0.00  0.00    -0.075 A 
ATOM      5  S   UNL d   1      -1.663   2.874   2.449  0.00  0.00     0.015 SA
ATOM      6  C4  UNL d   1      -1.133   3.854   3.739  0.00  0.00     0.022 A 
ATOM      7  C5  UNL d   1       0.225   4.064   3.703  0.00  0.00     0.026 A 
ATOM      8  C6  UNL d   1       0.861   3.412   2.593  0.00  0.00    -0.082 A 
ATOM      9  C7  UNL d   1       2.221   3.378   2.201  0.00  0.00     0.045 A 
ENDROOT
TORSDOF 0
ENDMDL
