MODEL 1
REMARK minimizedAffinity -2.60719752
REMARK minimizedRMSD -1
REMARK  0 active torsions:
REMARK  status: ('A' for Active; 'I' for Inactive)
ROOT
ATOM      1  C   UNL d   1      -4.808  -0.317   3.582  0.00  0.00    -0.002 A 
ATOM      2  C1  UNL d   1      -4.673   0.615   2.562  0.00  0.00     0.010 A 
ATOM      3  C2  UNL d   1      -3.602   0.540   1.670  0.00  0.00     0.041 A 
ATOM      4  C3  UNL d   1      -2.661  -0.498   1.820  0.00  0.00    -0.075 A 
ATOM      5  S   UNL d   1      -1.270  -0.789   0.844  0.00  0.00     0.015 SA
ATOM      6  C4  UNL d   1      -0.823  -2.156   1.758  0.00  0.00     0.022 A 
ATOM      7  C5  UNL d   1      -1.702  -2.400   2.786  0.00  0.00     0.026 A 
ATOM      8  C6  UNL d   1      -2.776  -1.448   2.838  0.00  0.00    -0.082 A 
ATOM      9  C7  UNL d   1      -3.873  -1.345   3.728  0.00  0.00     0.045 A 
ENDROOT
TORSDOF 0
ENDMDL
