MODEL 1
REMARK minimizedAffinity 9.50500965
REMARK minimizedRMSD -1
REMARK  0 active torsions:
REMARK  status: ('A' for Active; 'I' for Inactive)
ROOT
ATOM      1  C   UNL d   1      -0.044   4.319   3.052  0.00  0.00    -0.002 A 
ATOM      2  C1  UNL d   1      -1.135   3.654   3.593  0.00  0.00     0.010 A 
ATOM      3  C2  UNL d   1      -1.511   2.399   3.111  0.00  0.00     0.041 A 
ATOM      4  C3  UNL d   1      -0.765   1.817   2.067  0.00  0.00    -0.075 A 
ATOM      5  S   UNL d   1      -1.040   0.289   1.318  0.00  0.00     0.015 SA
ATOM      6  C4  UNL d   1       0.284   0.483   0.263  0.00  0.00     0.022 A 
ATOM      7  C5  UNL d   1       0.932   1.680   0.463  0.00  0.00     0.026 A 
ATOM      8  C6  UNL d   1       0.338   2.468   1.507  0.00  0.00    -0.082 A 
ATOM      9  C7  UNL d   1       0.694   3.740   2.017  0.00  0.00     0.045 A 
ENDROOT
TORSDOF 0
ENDMDL
