MODEL 1
REMARK minimizedAffinity 2.98336935
REMARK minimizedRMSD -1
REMARK  0 active torsions:
REMARK  status: ('A' for Active; 'I' for Inactive)
ROOT
ATOM      1  C   UNL d   1       0.003   0.707   0.002  0.00  0.00    -0.002 A 
ATOM      2  C1  UNL d   1      -1.302   1.140   0.187  0.00  0.00     0.010 A 
ATOM      3  C2  UNL d   1      -1.599   2.108   1.149  0.00  0.00     0.041 A 
ATOM      4  C3  UNL d   1      -0.552   2.640   1.926  0.00  0.00    -0.075 A 
ATOM      5  S   UNL d   1      -0.679   3.836   3.162  0.00  0.00     0.015 SA
ATOM      6  C4  UNL d   1       0.997   3.801   3.471  0.00  0.00     0.022 A 
ATOM      7  C5  UNL d   1       1.652   2.904   2.661  0.00  0.00     0.026 A 
ATOM      8  C6  UNL d   1       0.771   2.221   1.757  0.00  0.00    -0.082 A 
ATOM      9  C7  UNL d   1       1.039   1.237   0.775  0.00  0.00     0.045 A 
ENDROOT
TORSDOF 0
ENDMDL
