MODEL 1
REMARK minimizedAffinity 6.37517881
REMARK minimizedRMSD -1
REMARK  0 active torsions:
REMARK  status: ('A' for Active; 'I' for Inactive)
ROOT
ATOM      1  C   UNL d   1       5.993   2.618  -2.912  0.00  0.00    -0.002 A 
ATOM      2  C1  UNL d   1       5.001   2.315  -1.990  0.00  0.00     0.010 A 
ATOM      3  C2  UNL d   1       3.661   2.263  -2.379  0.00  0.00     0.041 A 
ATOM      4  C3  UNL d   1       3.332   2.520  -3.724  0.00  0.00    -0.075 A 
ATOM      5  S   UNL d   1       1.758   2.512  -4.429  0.00  0.00     0.015 SA
ATOM      6  C4  UNL d   1       2.366   2.908  -5.972  0.00  0.00     0.022 A 
ATOM      7  C5  UNL d   1       3.733   3.048  -5.967  0.00  0.00     0.026 A 
ATOM      8  C6  UNL d   1       4.313   2.826  -4.672  0.00  0.00    -0.082 A 
ATOM      9  C7  UNL d   1       5.662   2.872  -4.246  0.00  0.00     0.045 A 
ENDROOT
TORSDOF 0
ENDMDL
