MODEL 1
REMARK minimizedAffinity 2.22828507
REMARK minimizedRMSD -1
REMARK  0 active torsions:
REMARK  status: ('A' for Active; 'I' for Inactive)
ROOT
ATOM      1  C   UNL d   1      -3.180  -1.241   3.338  0.00  0.00    -0.002 A 
ATOM      2  C1  UNL d   1      -2.028  -2.005   3.220  0.00  0.00     0.010 A 
ATOM      3  C2  UNL d   1      -1.012  -1.627   2.340  0.00  0.00     0.041 A 
ATOM      4  C3  UNL d   1      -1.175  -0.455   1.574  0.00  0.00    -0.075 A 
ATOM      5  S   UNL d   1      -0.064   0.203   0.432  0.00  0.00     0.015 SA
ATOM      6  C4  UNL d   1      -1.092   1.515   0.076  0.00  0.00     0.022 A 
ATOM      7  C5  UNL d   1      -2.259   1.467   0.801  0.00  0.00     0.026 A 
ATOM      8  C6  UNL d   1      -2.326   0.332   1.677  0.00  0.00    -0.082 A 
ATOM      9  C7  UNL d   1      -3.338  -0.079   2.578  0.00  0.00     0.045 A 
ENDROOT
TORSDOF 0
ENDMDL
