MODEL 1
REMARK minimizedAffinity 11.9541559
REMARK minimizedRMSD -1
REMARK  0 active torsions:
REMARK  status: ('A' for Active; 'I' for Inactive)
ROOT
ATOM      1  C   UNL d   1       5.114   2.242  -6.000  0.00  0.00    -0.002 A 
ATOM      2  C1  UNL d   1       5.998   1.947  -4.972  0.00  0.00     0.010 A 
ATOM      3  C2  UNL d   1       5.535   1.759  -3.668  0.00  0.00     0.041 A 
ATOM      4  C3  UNL d   1       4.154   1.873  -3.413  0.00  0.00    -0.075 A 
ATOM      5  S   UNL d   1       3.359   1.684  -1.895  0.00  0.00     0.015 SA
ATOM      6  C4  UNL d   1       1.826   1.990  -2.576  0.00  0.00     0.022 A 
ATOM      7  C5  UNL d   1       1.901   2.232  -3.927  0.00  0.00     0.026 A 
ATOM      8  C6  UNL d   1       3.244   2.169  -4.432  0.00  0.00    -0.082 A 
ATOM      9  C7  UNL d   1       3.745   2.354  -5.743  0.00  0.00     0.045 A 
ENDROOT
TORSDOF 0
ENDMDL
