MODEL 1
REMARK minimizedAffinity -2.25678492
REMARK minimizedRMSD -1
REMARK  0 active torsions:
REMARK  status: ('A' for Active; 'I' for Inactive)
ROOT
ATOM      1  C   UNL d   1       1.405   3.739  -4.875  0.00  0.00    -0.002 A 
ATOM      2  C1  UNL d   1       1.894   4.591  -5.855  0.00  0.00     0.010 A 
ATOM      3  C2  UNL d   1       3.268   4.796  -5.998  0.00  0.00     0.041 A 
ATOM      4  C3  UNL d   1       4.151   4.121  -5.132  0.00  0.00    -0.075 A 
ATOM      5  S   UNL d   1       5.872   4.217  -5.121  0.00  0.00     0.015 SA
ATOM      6  C4  UNL d   1       5.999   3.128  -3.816  0.00  0.00     0.022 A 
ATOM      7  C5  UNL d   1       4.768   2.693  -3.386  0.00  0.00     0.026 A 
ATOM      8  C6  UNL d   1       3.683   3.257  -4.138  0.00  0.00    -0.082 A 
ATOM      9  C7  UNL d   1       2.284   3.072  -4.017  0.00  0.00     0.045 A 
ENDROOT
TORSDOF 0
ENDMDL
