MODEL 1
REMARK minimizedAffinity 9.33751774
REMARK minimizedRMSD -1
REMARK  0 active torsions:
REMARK  status: ('A' for Active; 'I' for Inactive)
ROOT
ATOM      1  C   UNL d   1      -0.620  -4.510  -3.174  0.00  0.00    -0.002 A 
ATOM      2  C1  UNL d   1      -1.834  -4.237  -2.558  0.00  0.00     0.010 A 
ATOM      3  C2  UNL d   1      -1.886  -3.438  -1.414  0.00  0.00     0.041 A 
ATOM      4  C3  UNL d   1      -0.686  -2.912  -0.895  0.00  0.00    -0.075 A 
ATOM      5  S   UNL d   1      -0.507  -1.908   0.495  0.00  0.00     0.015 SA
ATOM      6  C4  UNL d   1       1.184  -1.817   0.303  0.00  0.00     0.022 A 
ATOM      7  C5  UNL d   1       1.618  -2.529  -0.789  0.00  0.00     0.026 A 
ATOM      8  C6  UNL d   1       0.548  -3.172  -1.498  0.00  0.00    -0.082 A 
ATOM      9  C7  UNL d   1       0.567  -3.986  -2.656  0.00  0.00     0.045 A 
ENDROOT
TORSDOF 0
ENDMDL
