MODEL 1
REMARK minimizedAffinity -2.62730074
REMARK minimizedRMSD -1
REMARK  0 active torsions:
REMARK  status: ('A' for Active; 'I' for Inactive)
ROOT
ATOM      1  C1  BNZ d   1       5.636  -3.003   3.539  0.00  0.00     0.000 A 
ATOM      2  C2  BNZ d   1       6.000  -4.276   3.189  0.00  0.00     0.000 A 
ATOM      3  C3  BNZ d   1       5.969  -5.290   4.105  0.00  0.00     0.000 A 
ATOM      4  C4  BNZ d   1       5.613  -5.023   5.378  0.00  0.00     0.000 A 
ATOM      5  C5  BNZ d   1       5.252  -3.743   5.749  0.00  0.00     0.000 A 
ATOM      6  C6  BNZ d   1       5.247  -2.733   4.815  0.00  0.00     0.000 A 
ENDROOT
TORSDOF 0
ENDMDL
