MODEL 1
REMARK minimizedAffinity -2.14089823
REMARK minimizedRMSD -1
REMARK  0 active torsions:
REMARK  status: ('A' for Active; 'I' for Inactive)
ROOT
ATOM      1  C1  BNZ d   1       5.993  -5.004   4.143  0.00  0.00     0.000 A 
ATOM      2  C2  BNZ d   1       5.993  -4.287   2.976  0.00  0.00     0.000 A 
ATOM      3  C3  BNZ d   1       5.965  -2.921   2.993  0.00  0.00     0.000 A 
ATOM      4  C4  BNZ d   1       5.897  -2.274   4.174  0.00  0.00     0.000 A 
ATOM      5  C5  BNZ d   1       5.887  -2.982   5.360  0.00  0.00     0.000 A 
ATOM      6  C6  BNZ d   1       5.954  -4.357   5.339  0.00  0.00     0.000 A 
ENDROOT
TORSDOF 0
ENDMDL
