MODEL 1
REMARK minimizedAffinity -2.95428753
REMARK minimizedRMSD -1
REMARK  0 active torsions:
REMARK  status: ('A' for Active; 'I' for Inactive)
ROOT
ATOM      1  C1  BNZ d   1       5.380  -3.003   3.098  0.00  0.00     0.000 A 
ATOM      2  C2  BNZ d   1       5.408  -4.352   2.864  0.00  0.00     0.000 A 
ATOM      3  C3  BNZ d   1       5.190  -5.243   3.878  0.00  0.00     0.000 A 
ATOM      4  C4  BNZ d   1       4.986  -4.785   5.130  0.00  0.00     0.000 A 
ATOM      5  C5  BNZ d   1       4.964  -3.427   5.383  0.00  0.00     0.000 A 
ATOM      6  C6  BNZ d   1       5.145  -2.533   4.353  0.00  0.00     0.000 A 
ENDROOT
TORSDOF 0
ENDMDL
