MODEL 1
REMARK minimizedAffinity -2.04232383
REMARK minimizedRMSD -1
REMARK  0 active torsions:
REMARK  status: ('A' for Active; 'I' for Inactive)
ROOT
ATOM      1  C1  BNZ d   1       6.000  -4.333   2.276  0.00  0.00     0.000 A 
ATOM      2  C2  BNZ d   1       6.000  -2.990   2.010  0.00  0.00     0.000 A 
ATOM      3  C3  BNZ d   1       5.256  -2.127   2.766  0.00  0.00     0.000 A 
ATOM      4  C4  BNZ d   1       4.483  -2.612   3.759  0.00  0.00     0.000 A 
ATOM      5  C5  BNZ d   1       4.465  -3.965   4.033  0.00  0.00     0.000 A 
ATOM      6  C6  BNZ d   1       5.245  -4.826   3.296  0.00  0.00     0.000 A 
ENDROOT
TORSDOF 0
ENDMDL
