MODEL 1
REMARK minimizedAffinity -2.6460824
REMARK minimizedRMSD -1
REMARK  0 active torsions:
REMARK  status: ('A' for Active; 'I' for Inactive)
ROOT
ATOM      1  C1  BNZ d   1       3.777  -4.512   5.981  0.00  0.00     0.000 A 
ATOM      2  C2  BNZ d   1       3.775  -3.362   5.236  0.00  0.00     0.000 A 
ATOM      3  C3  BNZ d   1       4.868  -3.006   4.496  0.00  0.00     0.000 A 
ATOM      4  C4  BNZ d   1       5.974  -3.778   4.533  0.00  0.00     0.000 A 
ATOM      5  C5  BNZ d   1       5.994  -4.934   5.287  0.00  0.00     0.000 A 
ATOM      6  C6  BNZ d   1       4.879  -5.310   5.999  0.00  0.00     0.000 A 
ENDROOT
TORSDOF 0
ENDMDL
