MODEL 1
REMARK minimizedAffinity -2.77267623
REMARK minimizedRMSD -1
REMARK  0 active torsions:
REMARK  status: ('A' for Active; 'I' for Inactive)
ROOT
ATOM      1  C1  BNZ d   1       5.101  -5.126   4.353  0.00  0.00     0.000 A 
ATOM      2  C2  BNZ d   1       4.920  -4.576   5.594  0.00  0.00     0.000 A 
ATOM      3  C3  BNZ d   1       5.097  -3.237   5.800  0.00  0.00     0.000 A 
ATOM      4  C4  BNZ d   1       5.493  -2.456   4.774  0.00  0.00     0.000 A 
ATOM      5  C5  BNZ d   1       5.689  -2.996   3.519  0.00  0.00     0.000 A 
ATOM      6  C6  BNZ d   1       5.472  -4.338   3.307  0.00  0.00     0.000 A 
ENDROOT
TORSDOF 0
ENDMDL
