MODEL 1
REMARK minimizedAffinity -2.78865814
REMARK minimizedRMSD -1
REMARK  0 active torsions:
REMARK  status: ('A' for Active; 'I' for Inactive)
ROOT
ATOM      1  C1  BNZ d   1       5.306  -2.648   3.744  0.00  0.00     0.000 A 
ATOM      2  C2  BNZ d   1       4.874  -3.001   4.994  0.00  0.00     0.000 A 
ATOM      3  C3  BNZ d   1       5.024  -4.280   5.451  0.00  0.00     0.000 A 
ATOM      4  C4  BNZ d   1       5.568  -5.213   4.644  0.00  0.00     0.000 A 
ATOM      5  C5  BNZ d   1       6.000  -4.875   3.377  0.00  0.00     0.000 A 
ATOM      6  C6  BNZ d   1       5.883  -3.578   2.935  0.00  0.00     0.000 A 
ENDROOT
TORSDOF 0
ENDMDL
