MODEL 1
REMARK minimizedAffinity -3.02551508
REMARK minimizedRMSD -1
REMARK  0 active torsions:
REMARK  status: ('A' for Active; 'I' for Inactive)
ROOT
ATOM      1  C1  BNZ d   1       5.595  -2.327   4.513  0.00  0.00     0.000 A 
ATOM      2  C2  BNZ d   1       6.000  -2.945   3.360  0.00  0.00     0.000 A 
ATOM      3  C3  BNZ d   1       5.640  -4.237   3.095  0.00  0.00     0.000 A 
ATOM      4  C4  BNZ d   1       4.910  -4.921   4.000  0.00  0.00     0.000 A 
ATOM      5  C5  BNZ d   1       4.502  -4.315   5.171  0.00  0.00     0.000 A 
ATOM      6  C6  BNZ d   1       4.834  -3.002   5.417  0.00  0.00     0.000 A 
ENDROOT
TORSDOF 0
ENDMDL
