MODEL 1
REMARK minimizedAffinity -3.123528
REMARK minimizedRMSD -1
REMARK  0 active torsions:
REMARK  status: ('A' for Active; 'I' for Inactive)
ROOT
ATOM      1  C1  BNZ d   1       5.192  -2.653   5.135  0.00  0.00     0.000 A 
ATOM      2  C2  BNZ d   1       5.263  -2.183   3.851  0.00  0.00     0.000 A 
ATOM      3  C3  BNZ d   1       5.296  -3.046   2.791  0.00  0.00     0.000 A 
ATOM      4  C4  BNZ d   1       5.300  -4.375   3.018  0.00  0.00     0.000 A 
ATOM      5  C5  BNZ d   1       5.238  -4.864   4.307  0.00  0.00     0.000 A 
ATOM      6  C6  BNZ d   1       5.165  -3.993   5.370  0.00  0.00     0.000 A 
ENDROOT
TORSDOF 0
ENDMDL
