MODEL 1
REMARK minimizedAffinity -1.92792237
REMARK minimizedRMSD -1
REMARK  0 active torsions:
REMARK  status: ('A' for Active; 'I' for Inactive)
ROOT
ATOM      1  C1  BNZ d   1       5.965  -3.383   4.934  0.00  0.00     0.000 A 
ATOM      2  C2  BNZ d   1       6.000  -4.242   6.000  0.00  0.00     0.000 A 
ATOM      3  C3  BNZ d   1       5.310  -5.422   5.971  0.00  0.00     0.000 A 
ATOM      4  C4  BNZ d   1       4.556  -5.723   4.895  0.00  0.00     0.000 A 
ATOM      5  C5  BNZ d   1       4.503  -4.863   3.815  0.00  0.00     0.000 A 
ATOM      6  C6  BNZ d   1       5.229  -3.695   3.832  0.00  0.00     0.000 A 
ENDROOT
TORSDOF 0
ENDMDL
