MODEL 1
REMARK minimizedAffinity -3.05860281
REMARK minimizedRMSD -1
REMARK  0 active torsions:
REMARK  status: ('A' for Active; 'I' for Inactive)
ROOT
ATOM      1  C1  BNZ d   1       4.864  -2.249   3.777  0.00  0.00     0.000 A 
ATOM      2  C2  BNZ d   1       5.992  -2.858   3.293  0.00  0.00     0.000 A 
ATOM      3  C3  BNZ d   1       6.000  -4.195   3.012  0.00  0.00     0.000 A 
ATOM      4  C4  BNZ d   1       4.895  -4.930   3.253  0.00  0.00     0.000 A 
ATOM      5  C5  BNZ d   1       3.753  -4.333   3.750  0.00  0.00     0.000 A 
ATOM      6  C6  BNZ d   1       3.736  -2.979   3.994  0.00  0.00     0.000 A 
ENDROOT
TORSDOF 0
ENDMDL
