MODEL 1
REMARK minimizedAffinity -3.47156119
REMARK minimizedRMSD -1
REMARK  0 active torsions:
REMARK  status: ('A' for Active; 'I' for Inactive)
ROOT
ATOM      1  C1  BNZ d   1       5.484  -3.853   5.241  0.00  0.00     0.000 A 
ATOM      2  C2  BNZ d   1       5.871  -5.073   4.752  0.00  0.00     0.000 A 
ATOM      3  C3  BNZ d   1       5.996  -5.280   3.407  0.00  0.00     0.000 A 
ATOM      4  C4  BNZ d   1       5.696  -4.282   2.551  0.00  0.00     0.000 A 
ATOM      5  C5  BNZ d   1       5.295  -3.050   3.028  0.00  0.00     0.000 A 
ATOM      6  C6  BNZ d   1       5.208  -2.833   4.384  0.00  0.00     0.000 A 
ENDROOT
TORSDOF 0
ENDMDL
