MODEL 1
REMARK minimizedAffinity -3.00267339
REMARK minimizedRMSD -1
REMARK  0 active torsions:
REMARK  status: ('A' for Active; 'I' for Inactive)
ROOT
ATOM      1  C1  BNZ d   1       5.639  -2.588   3.023  0.00  0.00     0.000 A 
ATOM      2  C2  BNZ d   1       5.997  -3.766   2.423  0.00  0.00     0.000 A 
ATOM      3  C3  BNZ d   1       5.783  -4.963   3.048  0.00  0.00     0.000 A 
ATOM      4  C4  BNZ d   1       5.247  -4.979   4.285  0.00  0.00     0.000 A 
ATOM      5  C5  BNZ d   1       4.889  -3.799   4.907  0.00  0.00     0.000 A 
ATOM      6  C6  BNZ d   1       5.071  -2.599   4.260  0.00  0.00     0.000 A 
ENDROOT
TORSDOF 0
ENDMDL
