MODEL 1
REMARK minimizedAffinity -2.66112661
REMARK minimizedRMSD -1
REMARK  0 active torsions:
REMARK  status: ('A' for Active; 'I' for Inactive)
ROOT
ATOM      1  C1  BNZ d   1       5.988  -3.422   2.841  0.00  0.00     0.000 A 
ATOM      2  C2  BNZ d   1       6.000  -3.707   1.502  0.00  0.00     0.000 A 
ATOM      3  C3  BNZ d   1       5.765  -4.977   1.055  0.00  0.00     0.000 A 
ATOM      4  C4  BNZ d   1       5.558  -5.967   1.948  0.00  0.00     0.000 A 
ATOM      5  C5  BNZ d   1       5.553  -5.697   3.302  0.00  0.00     0.000 A 
ATOM      6  C6  BNZ d   1       5.751  -4.410   3.746  0.00  0.00     0.000 A 
ENDROOT
TORSDOF 0
ENDMDL
