MODEL 1
REMARK minimizedAffinity -2.33650732
REMARK minimizedRMSD -1
REMARK  0 active torsions:
REMARK  status: ('A' for Active; 'I' for Inactive)
ROOT
ATOM      1  C1  BNZ d   1       5.981  -4.477   4.938  0.00  0.00     0.000 A 
ATOM      2  C2  BNZ d   1       5.992  -3.589   5.981  0.00  0.00     0.000 A 
ATOM      3  C3  BNZ d   1       5.981  -2.241   5.753  0.00  0.00     0.000 A 
ATOM      4  C4  BNZ d   1       6.000  -1.783   4.485  0.00  0.00     0.000 A 
ATOM      5  C5  BNZ d   1       5.999  -2.665   3.423  0.00  0.00     0.000 A 
ATOM      6  C6  BNZ d   1       5.970  -4.021   3.655  0.00  0.00     0.000 A 
ENDROOT
TORSDOF 0
ENDMDL
