MODEL 1
REMARK minimizedAffinity -2.85967803
REMARK minimizedRMSD -1
REMARK  0 active torsions:
REMARK  status: ('A' for Active; 'I' for Inactive)
ROOT
ATOM      1  C1  BNZ d   1       5.461  -4.047   2.773  0.00  0.00     0.000 A 
ATOM      2  C2  BNZ d   1       5.418  -3.022   3.680  0.00  0.00     0.000 A 
ATOM      3  C3  BNZ d   1       5.230  -3.272   5.011  0.00  0.00     0.000 A 
ATOM      4  C4  BNZ d   1       5.045  -4.542   5.427  0.00  0.00     0.000 A 
ATOM      5  C5  BNZ d   1       5.077  -5.585   4.524  0.00  0.00     0.000 A 
ATOM      6  C6  BNZ d   1       5.305  -5.333   3.190  0.00  0.00     0.000 A 
ENDROOT
TORSDOF 0
ENDMDL
