MODEL 1
REMARK minimizedAffinity -2.99636078
REMARK minimizedRMSD -1
REMARK  0 active torsions:
REMARK  status: ('A' for Active; 'I' for Inactive)
ROOT
ATOM      1  C1  BNZ d   1       5.627  -2.247   3.661  0.00  0.00     0.000 A 
ATOM      2  C2  BNZ d   1       6.000  -2.988   2.572  0.00  0.00     0.000 A 
ATOM      3  C3  BNZ d   1       5.978  -4.354   2.613  0.00  0.00     0.000 A 
ATOM      4  C4  BNZ d   1       5.622  -4.977   3.756  0.00  0.00     0.000 A 
ATOM      5  C5  BNZ d   1       5.252  -4.244   4.865  0.00  0.00     0.000 A 
ATOM      6  C6  BNZ d   1       5.238  -2.869   4.807  0.00  0.00     0.000 A 
ENDROOT
TORSDOF 0
ENDMDL
