MODEL 1
REMARK minimizedAffinity -4.69816065
REMARK minimizedRMSD -1
REMARK  0 active torsions:
REMARK  status: ('A' for Active; 'I' for Inactive)
ROOT
ATOM      1  C   UNL d   1       0.738   2.104  -0.428  0.00  0.00     0.077 C 
ATOM      2  C1  UNL d   1       0.120   0.819   0.036  0.00  0.00    -0.074 A 
ATOM      3  C2  UNL d   1      -0.979   0.821   0.901  0.00  0.00    -0.005 A 
ATOM      4  C3  UNL d   1      -1.549  -0.382   1.317  0.00  0.00     0.006 A 
ATOM      5  C4  UNL d   1      -1.027  -1.597   0.873  0.00  0.00    -0.005 A 
ATOM      6  C5  UNL d   1       0.071  -1.619   0.007  0.00  0.00    -0.074 A 
ATOM      7  C6  UNL d   1       0.638  -2.917  -0.488  0.00  0.00     0.077 C 
ATOM      8  C7  UNL d   1       0.634  -0.406  -0.412  0.00  0.00    -0.001 A 
ENDROOT
TORSDOF 0
ENDMDL
