MODEL 1
REMARK minimizedAffinity -2.95680881
REMARK minimizedRMSD -1
REMARK  0 active torsions:
REMARK  status: ('A' for Active; 'I' for Inactive)
ROOT
ATOM      1  C   UNL d   1      -1.862  -2.318   0.838  0.00  0.00     0.077 C 
ATOM      2  C1  UNL d   1      -0.709  -1.425   0.487  0.00  0.00    -0.074 A 
ATOM      3  C2  UNL d   1       0.540  -1.960   0.155  0.00  0.00    -0.005 A 
ATOM      4  C3  UNL d   1       1.600  -1.117  -0.178  0.00  0.00     0.006 A 
ATOM      5  C4  UNL d   1       1.423   0.267  -0.182  0.00  0.00    -0.005 A 
ATOM      6  C5  UNL d   1       0.181   0.820   0.146  0.00  0.00    -0.074 A 
ATOM      7  C6  UNL d   1      -0.029   2.305   0.137  0.00  0.00     0.077 C 
ATOM      8  C7  UNL d   1      -0.881  -0.033   0.473  0.00  0.00    -0.001 A 
ENDROOT
TORSDOF 0
ENDMDL
