MODEL 1
REMARK minimizedAffinity -3.6166954
REMARK minimizedRMSD -1
REMARK  0 active torsions:
REMARK  status: ('A' for Active; 'I' for Inactive)
ROOT
ATOM      1  C   UNL d   1       0.096   2.100   0.374  0.00  0.00     0.077 C 
ATOM      2  C1  UNL d   1       0.093   0.768  -0.316  0.00  0.00    -0.074 A 
ATOM      3  C2  UNL d   1       0.073   0.682  -1.711  0.00  0.00    -0.005 A 
ATOM      4  C3  UNL d   1       0.081  -0.563  -2.339  0.00  0.00     0.006 A 
ATOM      5  C4  UNL d   1       0.108  -1.733  -1.579  0.00  0.00    -0.005 A 
ATOM      6  C5  UNL d   1       0.129  -1.667  -0.182  0.00  0.00    -0.074 A 
ATOM      7  C6  UNL d   1       0.169  -2.914   0.650  0.00  0.00     0.077 C 
ATOM      8  C7  UNL d   1       0.128  -0.411   0.441  0.00  0.00    -0.001 A 
ENDROOT
TORSDOF 0
ENDMDL
