MODEL 1
REMARK minimizedAffinity -2.09013009
REMARK minimizedRMSD -1
REMARK  0 active torsions:
REMARK  status: ('A' for Active; 'I' for Inactive)
ROOT
ATOM      1  C   UNL d   1       0.269   1.584  -1.073  0.00  0.00     0.077 C 
ATOM      2  C1  UNL d   1      -0.191   0.405  -0.267  0.00  0.00    -0.074 A 
ATOM      3  C2  UNL d   1      -1.169   0.549   0.722  0.00  0.00    -0.005 A 
ATOM      4  C3  UNL d   1      -1.593  -0.558   1.457  0.00  0.00     0.006 A 
ATOM      5  C4  UNL d   1      -1.044  -1.817   1.211  0.00  0.00    -0.005 A 
ATOM      6  C5  UNL d   1      -0.066  -1.980   0.225  0.00  0.00    -0.074 A 
ATOM      7  C6  UNL d   1       0.527  -3.328  -0.059  0.00  0.00     0.077 C 
ATOM      8  C7  UNL d   1       0.350  -0.864  -0.514  0.00  0.00    -0.001 A 
ENDROOT
TORSDOF 0
ENDMDL
