MODEL 1
REMARK minimizedAffinity -4.93975353
REMARK minimizedRMSD -1
REMARK  0 active torsions:
REMARK  status: ('A' for Active; 'I' for Inactive)
ROOT
ATOM      1  C   UNL d   1       0.780   1.315  -1.796  0.00  0.00     0.077 C 
ATOM      2  C1  UNL d   1       0.271   0.422  -0.704  0.00  0.00    -0.074 A 
ATOM      3  C2  UNL d   1      -0.535   0.929   0.321  0.00  0.00    -0.005 A 
ATOM      4  C3  UNL d   1      -1.009   0.085   1.325  0.00  0.00     0.006 A 
ATOM      5  C4  UNL d   1      -0.683  -1.272   1.315  0.00  0.00    -0.005 A 
ATOM      6  C5  UNL d   1       0.122  -1.796   0.298  0.00  0.00    -0.074 A 
ATOM      7  C6  UNL d   1       0.474  -3.254   0.267  0.00  0.00     0.077 C 
ATOM      8  C7  UNL d   1       0.588  -0.943  -0.711  0.00  0.00    -0.001 A 
ENDROOT
TORSDOF 0
ENDMDL
