MODEL 1
REMARK minimizedAffinity -4.35289907
REMARK minimizedRMSD -1
REMARK  0 active torsions:
REMARK  status: ('A' for Active; 'I' for Inactive)
ROOT
ATOM      1  C   UNL d   1      -0.100  -1.811  -2.807  0.00  0.00     0.077 C 
ATOM      2  C1  UNL d   1      -0.256  -1.151  -1.469  0.00  0.00    -0.074 A 
ATOM      3  C2  UNL d   1      -0.631  -1.890  -0.343  0.00  0.00    -0.005 A 
ATOM      4  C3  UNL d   1      -0.763  -1.265   0.897  0.00  0.00     0.006 A 
ATOM      5  C4  UNL d   1      -0.522   0.104   1.023  0.00  0.00    -0.005 A 
ATOM      6  C5  UNL d   1      -0.145   0.859  -0.092  0.00  0.00    -0.074 A 
ATOM      7  C6  UNL d   1       0.128   2.329   0.027  0.00  0.00     0.077 C 
ATOM      8  C7  UNL d   1      -0.008   0.222  -1.333  0.00  0.00    -0.001 A 
ENDROOT
TORSDOF 0
ENDMDL
