MODEL 1
REMARK minimizedAffinity -4.11013412
REMARK minimizedRMSD -1
REMARK  0 active torsions:
REMARK  status: ('A' for Active; 'I' for Inactive)
ROOT
ATOM      1  C   UNL d   1       2.942  -1.824   1.406  0.00  0.00     0.077 C 
ATOM      2  C1  UNL d   1       1.549  -1.908   0.856  0.00  0.00    -0.074 A 
ATOM      3  C2  UNL d   1       1.005  -3.135   0.462  0.00  0.00    -0.005 A 
ATOM      4  C3  UNL d   1      -0.296  -3.199  -0.039  0.00  0.00     0.006 A 
ATOM      5  C4  UNL d   1      -1.063  -2.039  -0.150  0.00  0.00    -0.005 A 
ATOM      6  C5  UNL d   1      -0.536  -0.804   0.240  0.00  0.00    -0.074 A 
ATOM      7  C6  UNL d   1      -1.352   0.451   0.135  0.00  0.00     0.077 C 
ATOM      8  C7  UNL d   1       0.769  -0.749   0.748  0.00  0.00    -0.001 A 
ENDROOT
TORSDOF 0
ENDMDL
