MODEL 1
REMARK minimizedAffinity -4.65754652
REMARK minimizedRMSD -1
REMARK  0 active torsions:
REMARK  status: ('A' for Active; 'I' for Inactive)
ROOT
ATOM      1  C   UNL d   1       0.042   1.923   0.736  0.00  0.00     0.077 C 
ATOM      2  C1  UNL d   1       0.077   0.633  -0.029  0.00  0.00    -0.074 A 
ATOM      3  C2  UNL d   1       0.248   0.626  -1.417  0.00  0.00    -0.005 A 
ATOM      4  C3  UNL d   1       0.288  -0.582  -2.114  0.00  0.00     0.006 A 
ATOM      5  C4  UNL d   1       0.157  -1.792  -1.432  0.00  0.00    -0.005 A 
ATOM      6  C5  UNL d   1      -0.014  -1.804  -0.044  0.00  0.00    -0.074 A 
ATOM      7  C6  UNL d   1      -0.146  -3.096   0.706  0.00  0.00     0.077 C 
ATOM      8  C7  UNL d   1      -0.046  -0.587   0.650  0.00  0.00    -0.001 A 
ENDROOT
TORSDOF 0
ENDMDL
