MODEL 1
REMARK minimizedAffinity -5.90379238
REMARK minimizedRMSD -1
REMARK  0 active torsions:
REMARK  status: ('A' for Active; 'I' for Inactive)
ROOT
ATOM      1  C   UNL d   1       0.459   1.451  -0.054  0.00  0.00     0.077 C 
ATOM      2  C1  UNL d   1       0.203  -0.026  -0.088  0.00  0.00    -0.074 A 
ATOM      3  C2  UNL d   1      -0.370  -0.682   1.007  0.00  0.00    -0.005 A 
ATOM      4  C3  UNL d   1      -0.611  -2.055   0.957  0.00  0.00     0.006 A 
ATOM      5  C4  UNL d   1      -0.282  -2.785  -0.186  0.00  0.00    -0.005 A 
ATOM      6  C5  UNL d   1       0.291  -2.146  -1.290  0.00  0.00    -0.074 A 
ATOM      7  C6  UNL d   1       0.641  -2.914  -2.530  0.00  0.00     0.077 C 
ATOM      8  C7  UNL d   1       0.524  -0.765  -1.235  0.00  0.00    -0.001 A 
ENDROOT
TORSDOF 0
ENDMDL
