MODEL 1
REMARK minimizedAffinity -4.1084342
REMARK minimizedRMSD -1
REMARK  0 active torsions:
REMARK  status: ('A' for Active; 'I' for Inactive)
ROOT
ATOM      1  C   UNL d   1      -2.661  -2.809   0.486  0.00  0.00     0.077 C 
ATOM      2  C1  UNL d   1      -1.243  -2.324   0.417  0.00  0.00    -0.074 A 
ATOM      3  C2  UNL d   1      -0.179  -3.225   0.321  0.00  0.00    -0.005 A 
ATOM      4  C3  UNL d   1       1.134  -2.759   0.248  0.00  0.00     0.006 A 
ATOM      5  C4  UNL d   1       1.395  -1.388   0.270  0.00  0.00    -0.005 A 
ATOM      6  C5  UNL d   1       0.343  -0.472   0.365  0.00  0.00    -0.074 A 
ATOM      7  C6  UNL d   1       0.605   1.005   0.380  0.00  0.00     0.077 C 
ATOM      8  C7  UNL d   1      -0.974  -0.948   0.431  0.00  0.00    -0.001 A 
ENDROOT
TORSDOF 0
ENDMDL
