MODEL 1
REMARK minimizedAffinity -2.99513483
REMARK minimizedRMSD -1
REMARK  0 active torsions:
REMARK  status: ('A' for Active; 'I' for Inactive)
ROOT
ATOM      1  C   UNL d   1      -0.198   2.355   0.076  0.00  0.00     0.077 C 
ATOM      2  C1  UNL d   1       0.111   1.016  -0.526  0.00  0.00    -0.074 A 
ATOM      3  C2  UNL d   1       0.402   0.890  -1.888  0.00  0.00    -0.005 A 
ATOM      4  C3  UNL d   1       0.696  -0.360  -2.432  0.00  0.00     0.006 A 
ATOM      5  C4  UNL d   1       0.703  -1.495  -1.621  0.00  0.00    -0.005 A 
ATOM      6  C5  UNL d   1       0.416  -1.389  -0.256  0.00  0.00    -0.074 A 
ATOM      7  C6  UNL d   1       0.429  -2.597   0.632  0.00  0.00     0.077 C 
ATOM      8  C7  UNL d   1       0.128  -0.128   0.284  0.00  0.00    -0.001 A 
ENDROOT
TORSDOF 0
ENDMDL
