MODEL 1
REMARK minimizedAffinity -1.35164428
REMARK minimizedRMSD -1
REMARK  0 active torsions:
REMARK  status: ('A' for Active; 'I' for Inactive)
ROOT
ATOM      1  C   UNL d   1       0.424  -2.825   0.745  0.00  0.00     0.077 C 
ATOM      2  C1  UNL d   1       0.468  -1.549  -0.043  0.00  0.00    -0.074 A 
ATOM      3  C2  UNL d   1       0.510  -1.568  -1.440  0.00  0.00    -0.005 A 
ATOM      4  C3  UNL d   1       0.541  -0.373  -2.159  0.00  0.00     0.006 A 
ATOM      5  C4  UNL d   1       0.531   0.851  -1.489  0.00  0.00    -0.005 A 
ATOM      6  C5  UNL d   1       0.489   0.889  -0.092  0.00  0.00    -0.074 A 
ATOM      7  C6  UNL d   1       0.468   2.196   0.644  0.00  0.00     0.077 C 
ATOM      8  C7  UNL d   1       0.451  -0.315   0.623  0.00  0.00    -0.001 A 
ENDROOT
TORSDOF 0
ENDMDL
