MODEL 1
REMARK minimizedAffinity -4.84154034
REMARK minimizedRMSD -1
REMARK  0 active torsions:
REMARK  status: ('A' for Active; 'I' for Inactive)
ROOT
ATOM      1  C   UNL d   1       0.593  -3.029   0.582  0.00  0.00     0.077 C 
ATOM      2  C1  UNL d   1      -0.111  -1.748   0.916  0.00  0.00    -0.074 A 
ATOM      3  C2  UNL d   1      -0.988  -1.671   2.003  0.00  0.00    -0.005 A 
ATOM      4  C3  UNL d   1      -1.627  -0.470   2.308  0.00  0.00     0.006 A 
ATOM      5  C4  UNL d   1      -1.397   0.665   1.530  0.00  0.00    -0.005 A 
ATOM      6  C5  UNL d   1      -0.523   0.608   0.440  0.00  0.00    -0.074 A 
ATOM      7  C6  UNL d   1      -0.257   1.822  -0.401  0.00  0.00     0.077 C 
ATOM      8  C7  UNL d   1       0.121  -0.601   0.144  0.00  0.00    -0.001 A 
ENDROOT
TORSDOF 0
ENDMDL
