MODEL 1
REMARK minimizedAffinity -6.26143837
REMARK minimizedRMSD -1
REMARK  0 active torsions:
REMARK  status: ('A' for Active; 'I' for Inactive)
ROOT
ATOM      1  O1  BZF d   1      -2.289   0.451   0.156  0.00  0.00    -0.204 OA
ATOM      2  C2  BZF d   1      -3.355   0.521   1.031  0.00  0.00     0.174 A 
ATOM      3  C3  BZF d   1      -2.964   0.227   2.287  0.00  0.00    -0.012 A 
ATOM      4  C3A BZF d   1      -1.547   0.046   2.207  0.00  0.00    -0.107 A 
ATOM      5  C4  BZF d   1      -0.584  -0.248   3.130  0.00  0.00     0.055 A 
ATOM      6  C5  BZF d   1       0.697  -0.428   2.714  0.00  0.00    -0.016 A 
ATOM      7  C6  BZF d   1       1.049  -0.325   1.385  0.00  0.00     0.022 A 
ATOM      8  C7  BZF d   1       0.131  -0.030   0.433  0.00  0.00     0.029 A 
ATOM      9  C7A BZF d   1      -1.159   0.184   0.855  0.00  0.00     0.058 A 
ENDROOT
TORSDOF 0
ENDMDL
