MODEL 1
REMARK minimizedAffinity -6.06531429
REMARK minimizedRMSD -1
REMARK  0 active torsions:
REMARK  status: ('A' for Active; 'I' for Inactive)
ROOT
ATOM      1  O1  BZF d   1       1.060  -0.137   1.941  0.00  0.00    -0.204 OA
ATOM      2  C2  BZF d   1       0.337  -0.719   2.964  0.00  0.00     0.174 A 
ATOM      3  C3  BZF d   1      -0.976  -0.755   2.661  0.00  0.00    -0.012 A 
ATOM      4  C3A BZF d   1      -1.069  -0.243   1.329  0.00  0.00    -0.107 A 
ATOM      5  C4  BZF d   1      -2.113  -0.045   0.470  0.00  0.00     0.055 A 
ATOM      6  C5  BZF d   1      -1.875   0.541  -0.733  0.00  0.00    -0.016 A 
ATOM      7  C6  BZF d   1      -0.611   0.946  -1.107  0.00  0.00     0.022 A 
ATOM      8  C7  BZF d   1       0.456   0.766  -0.291  0.00  0.00     0.029 A 
ATOM      9  C7A BZF d   1       0.225   0.144   0.912  0.00  0.00     0.058 A 
ENDROOT
TORSDOF 0
ENDMDL
