MODEL 1
REMARK minimizedAffinity -3.87896419
REMARK minimizedRMSD -1
REMARK  0 active torsions:
REMARK  status: ('A' for Active; 'I' for Inactive)
ROOT
ATOM      1  O1  BZF d   1       0.582  -0.214   2.712  0.00  0.00    -0.204 OA
ATOM      2  C2  BZF d   1      -0.689  -0.753   2.764  0.00  0.00     0.174 A 
ATOM      3  C3  BZF d   1      -1.337  -0.564   1.597  0.00  0.00    -0.012 A 
ATOM      4  C3A BZF d   1      -0.381   0.056   0.732  0.00  0.00    -0.107 A 
ATOM      5  C4  BZF d   1      -0.424   0.477  -0.567  0.00  0.00     0.055 A 
ATOM      6  C5  BZF d   1       0.658   1.110  -1.092  0.00  0.00    -0.016 A 
ATOM      7  C6  BZF d   1       1.795   1.343  -0.347  0.00  0.00     0.022 A 
ATOM      8  C7  BZF d   1       1.887   0.939   0.944  0.00  0.00     0.029 A 
ATOM      9  C7A BZF d   1       0.808   0.270   1.467  0.00  0.00     0.058 A 
ENDROOT
TORSDOF 0
ENDMDL
