MODEL 1
REMARK minimizedAffinity -4.43279362
REMARK minimizedRMSD -1
REMARK  0 active torsions:
REMARK  status: ('A' for Active; 'I' for Inactive)
ROOT
ATOM      1  O1  BZF d   1       0.372  -0.510   3.328  0.00  0.00    -0.204 OA
ATOM      2  C2  BZF d   1      -0.888  -1.033   3.546  0.00  0.00     0.174 A 
ATOM      3  C3  BZF d   1      -1.653  -0.912   2.442  0.00  0.00    -0.012 A 
ATOM      4  C3A BZF d   1      -0.790  -0.356   1.445  0.00  0.00    -0.107 A 
ATOM      5  C4  BZF d   1      -0.967  -0.018   0.134  0.00  0.00     0.055 A 
ATOM      6  C5  BZF d   1       0.057   0.570  -0.540  0.00  0.00    -0.016 A 
ATOM      7  C6  BZF d   1       1.266   0.839   0.067  0.00  0.00     0.022 A 
ATOM      8  C7  BZF d   1       1.490   0.517   1.364  0.00  0.00     0.029 A 
ATOM      9  C7A BZF d   1       0.469  -0.108   2.038  0.00  0.00     0.058 A 
ENDROOT
TORSDOF 0
ENDMDL
