MODEL 1
REMARK minimizedAffinity -5.064888
REMARK minimizedRMSD -1
REMARK  0 active torsions:
REMARK  status: ('A' for Active; 'I' for Inactive)
ROOT
ATOM      1  O1  BZF d   1       1.269   1.099  -0.135  0.00  0.00    -0.204 OA
ATOM      2  C2  BZF d   1       0.873   0.811  -1.427  0.00  0.00     0.174 A 
ATOM      3  C3  BZF d   1      -0.184  -0.027  -1.428  0.00  0.00    -0.012 A 
ATOM      4  C3A BZF d   1      -0.524  -0.206  -0.049  0.00  0.00    -0.107 A 
ATOM      5  C4  BZF d   1      -1.497  -0.917   0.593  0.00  0.00     0.055 A 
ATOM      6  C5  BZF d   1      -1.510  -0.940   1.952  0.00  0.00    -0.016 A 
ATOM      7  C6  BZF d   1      -0.564  -0.269   2.698  0.00  0.00     0.022 A 
ATOM      8  C7  BZF d   1       0.418   0.454   2.106  0.00  0.00     0.029 A 
ATOM      9  C7A BZF d   1       0.414   0.506   0.734  0.00  0.00     0.058 A 
ENDROOT
TORSDOF 0
ENDMDL
