MODEL 1
REMARK minimizedAffinity -1.54305005
REMARK minimizedRMSD -1
REMARK  0 active torsions:
REMARK  status: ('A' for Active; 'I' for Inactive)
ROOT
ATOM      1  O1  BZF d   1       0.921   1.010   0.266  0.00  0.00    -0.204 OA
ATOM      2  C2  BZF d   1       0.292   0.773  -0.941  0.00  0.00     0.174 A 
ATOM      3  C3  BZF d   1      -0.723  -0.101  -0.788  0.00  0.00    -0.012 A 
ATOM      4  C3A BZF d   1      -0.788  -0.360   0.618  0.00  0.00    -0.107 A 
ATOM      5  C4  BZF d   1      -1.602  -1.135   1.393  0.00  0.00     0.055 A 
ATOM      6  C5  BZF d   1      -1.354  -1.226   2.726  0.00  0.00    -0.016 A 
ATOM      7  C6  BZF d   1      -0.300  -0.559   3.315  0.00  0.00     0.022 A 
ATOM      8  C7  BZF d   1       0.531   0.226   2.588  0.00  0.00     0.029 A 
ATOM      9  C7A BZF d   1       0.264   0.346   1.246  0.00  0.00     0.058 A 
ENDROOT
TORSDOF 0
ENDMDL
