MODEL 1
REMARK minimizedAffinity -5.84977484
REMARK minimizedRMSD -1
REMARK  0 active torsions:
REMARK  status: ('A' for Active; 'I' for Inactive)
ROOT
ATOM      1  O1  BZF d   1      -2.382   0.898   0.333  0.00  0.00    -0.204 OA
ATOM      2  C2  BZF d   1      -3.346   0.869   1.322  0.00  0.00     0.174 A 
ATOM      3  C3  BZF d   1      -2.855   0.324   2.453  0.00  0.00    -0.012 A 
ATOM      4  C3A BZF d   1      -1.472   0.075   2.182  0.00  0.00    -0.107 A 
ATOM      5  C4  BZF d   1      -0.449  -0.443   2.922  0.00  0.00     0.055 A 
ATOM      6  C5  BZF d   1       0.766  -0.619   2.338  0.00  0.00    -0.016 A 
ATOM      7  C6  BZF d   1       0.989  -0.294   1.016  0.00  0.00     0.022 A 
ATOM      8  C7  BZF d   1       0.006   0.227   0.243  0.00  0.00     0.029 A 
ATOM      9  C7A BZF d   1      -1.213   0.438   0.840  0.00  0.00     0.058 A 
ENDROOT
TORSDOF 0
ENDMDL
