MODEL 1
REMARK minimizedAffinity -6.4393549
REMARK minimizedRMSD -1
REMARK  0 active torsions:
REMARK  status: ('A' for Active; 'I' for Inactive)
ROOT
ATOM      1  O1  BZF d   1      -2.364   0.680   0.212  0.00  0.00    -0.204 OA
ATOM      2  C2  BZF d   1      -3.234   0.662   1.285  0.00  0.00     0.174 A 
ATOM      3  C3  BZF d   1      -2.597   0.280   2.411  0.00  0.00    -0.012 A 
ATOM      4  C3A BZF d   1      -1.224   0.135   2.036  0.00  0.00    -0.107 A 
ATOM      5  C4  BZF d   1      -0.095  -0.210   2.722  0.00  0.00     0.055 A 
ATOM      6  C5  BZF d   1       1.078  -0.331   2.045  0.00  0.00    -0.016 A 
ATOM      7  C6  BZF d   1       1.156  -0.120   0.684  0.00  0.00     0.022 A 
ATOM      8  C7  BZF d   1       0.064   0.228  -0.038  0.00  0.00     0.029 A 
ATOM      9  C7A BZF d   1      -1.116   0.384   0.648  0.00  0.00     0.058 A 
ENDROOT
TORSDOF 0
ENDMDL
