MODEL 1
REMARK minimizedAffinity -3.02089596
REMARK minimizedRMSD -1
REMARK  0 active torsions:
REMARK  status: ('A' for Active; 'I' for Inactive)
ROOT
ATOM      1  O1  BZF d   1       1.452  -0.131  -1.293  0.00  0.00    -0.204 OA
ATOM      2  C2  BZF d   1       0.580   0.109  -2.337  0.00  0.00     0.174 A 
ATOM      3  C3  BZF d   1      -0.665   0.347  -1.876  0.00  0.00    -0.012 A 
ATOM      4  C3A BZF d   1      -0.545   0.342  -0.450  0.00  0.00    -0.107 A 
ATOM      5  C4  BZF d   1      -1.435   0.535   0.568  0.00  0.00     0.055 A 
ATOM      6  C5  BZF d   1      -1.012   0.391   1.851  0.00  0.00    -0.016 A 
ATOM      7  C6  BZF d   1       0.290   0.048   2.153  0.00  0.00     0.022 A 
ATOM      8  C7  BZF d   1       1.210  -0.149   1.177  0.00  0.00     0.029 A 
ATOM      9  C7A BZF d   1       0.794   0.029  -0.120  0.00  0.00     0.058 A 
ENDROOT
TORSDOF 0
ENDMDL
