MODEL 1
REMARK minimizedAffinity -5.70756245
REMARK minimizedRMSD -1
REMARK  0 active torsions:
REMARK  status: ('A' for Active; 'I' for Inactive)
ROOT
ATOM      1  O1  BZF d   1      -0.811   0.517  -0.559  0.00  0.00    -0.204 OA
ATOM      2  C2  BZF d   1       0.533   0.624  -0.864  0.00  0.00     0.174 A 
ATOM      3  C3  BZF d   1       1.292   0.329   0.211  0.00  0.00    -0.012 A 
ATOM      4  C3A BZF d   1       0.367  -0.072   1.227  0.00  0.00    -0.107 A 
ATOM      5  C4  BZF d   1       0.514  -0.498   2.516  0.00  0.00     0.055 A 
ATOM      6  C5  BZF d   1      -0.596  -0.741   3.262  0.00  0.00    -0.016 A 
ATOM      7  C6  BZF d   1      -1.866  -0.563   2.753  0.00  0.00     0.022 A 
ATOM      8  C7  BZF d   1      -2.062  -0.147   1.479  0.00  0.00     0.029 A 
ATOM      9  C7A BZF d   1      -0.943   0.068   0.712  0.00  0.00     0.058 A 
ENDROOT
TORSDOF 0
ENDMDL
