MODEL 1
REMARK minimizedAffinity -5.90036726
REMARK minimizedRMSD -1
REMARK  0 active torsions:
REMARK  status: ('A' for Active; 'I' for Inactive)
ROOT
ATOM      1  O1  BZF d   1      -1.023   0.035  -0.669  0.00  0.00    -0.204 OA
ATOM      2  C2  BZF d   1       0.348  -0.123  -0.738  0.00  0.00     0.174 A 
ATOM      3  C3  BZF d   1       0.878  -0.239   0.497  0.00  0.00    -0.012 A 
ATOM      4  C3A BZF d   1      -0.241  -0.240   1.389  0.00  0.00    -0.107 A 
ATOM      5  C4  BZF d   1      -0.360  -0.343   2.745  0.00  0.00     0.055 A 
ATOM      6  C5  BZF d   1      -1.591  -0.235   3.310  0.00  0.00    -0.016 A 
ATOM      7  C6  BZF d   1      -2.722  -0.018   2.550  0.00  0.00     0.022 A 
ATOM      8  C7  BZF d   1      -2.654   0.087   1.201  0.00  0.00     0.029 A 
ATOM      9  C7A BZF d   1      -1.416  -0.056   0.624  0.00  0.00     0.058 A 
ENDROOT
TORSDOF 0
ENDMDL
