MODEL 1
REMARK minimizedAffinity 0.126397178
REMARK minimizedRMSD -1
REMARK  0 active torsions:
REMARK  status: ('A' for Active; 'I' for Inactive)
ROOT
ATOM      1  O1  BZF d   1       0.663   0.992  -0.079  0.00  0.00    -0.204 OA
ATOM      2  C2  BZF d   1       0.538   0.112  -1.137  0.00  0.00     0.174 A 
ATOM      3  C3  BZF d   1      -0.116  -1.004  -0.755  0.00  0.00    -0.012 A 
ATOM      4  C3A BZF d   1      -0.500  -0.770   0.603  0.00  0.00    -0.107 A 
ATOM      5  C4  BZF d   1      -1.190  -1.505   1.524  0.00  0.00     0.055 A 
ATOM      6  C5  BZF d   1      -1.330  -1.020   2.785  0.00  0.00    -0.016 A 
ATOM      7  C6  BZF d   1      -0.790   0.192   3.161  0.00  0.00     0.022 A 
ATOM      8  C7  BZF d   1      -0.101   0.959   2.282  0.00  0.00     0.029 A 
ATOM      9  C7A BZF d   1       0.014   0.487   0.997  0.00  0.00     0.058 A 
ENDROOT
TORSDOF 0
ENDMDL
