MODEL 1
REMARK minimizedAffinity -6.23297977
REMARK minimizedRMSD -1
REMARK  0 active torsions:
REMARK  status: ('A' for Active; 'I' for Inactive)
ROOT
ATOM      1  O1  BZF d   1      -2.571   1.012  -0.050  0.00  0.00    -0.204 OA
ATOM      2  C2  BZF d   1      -1.928   1.117  -1.269  0.00  0.00     0.174 A 
ATOM      3  C3  BZF d   1      -0.600   0.929  -1.127  0.00  0.00    -0.012 A 
ATOM      4  C3A BZF d   1      -0.412   0.600   0.253  0.00  0.00    -0.107 A 
ATOM      5  C4  BZF d   1       0.686   0.288   1.002  0.00  0.00     0.055 A 
ATOM      6  C5  BZF d   1       0.540   0.091   2.339  0.00  0.00    -0.016 A 
ATOM      7  C6  BZF d   1      -0.688   0.202   2.958  0.00  0.00     0.022 A 
ATOM      8  C7  BZF d   1      -1.807   0.504   2.256  0.00  0.00     0.029 A 
ATOM      9  C7A BZF d   1      -1.667   0.671   0.900  0.00  0.00     0.058 A 
ENDROOT
TORSDOF 0
ENDMDL
