MODEL 1
REMARK minimizedAffinity -1.84334791
REMARK minimizedRMSD -1
REMARK  0 active torsions:
REMARK  status: ('A' for Active; 'I' for Inactive)
ROOT
ATOM      1  O1  BZF d   1      -0.885  -0.765   3.043  0.00  0.00    -0.204 OA
ATOM      2  C2  BZF d   1      -1.719  -1.787   2.632  0.00  0.00     0.174 A 
ATOM      3  C3  BZF d   1      -1.759  -1.860   1.286  0.00  0.00    -0.012 A 
ATOM      4  C3A BZF d   1      -0.825  -0.877   0.828  0.00  0.00    -0.107 A 
ATOM      5  C4  BZF d   1      -0.409  -0.484  -0.412  0.00  0.00     0.055 A 
ATOM      6  C5  BZF d   1       0.461   0.555  -0.517  0.00  0.00    -0.016 A 
ATOM      7  C6  BZF d   1       0.930   1.225   0.593  0.00  0.00     0.022 A 
ATOM      8  C7  BZF d   1       0.550   0.868   1.844  0.00  0.00     0.029 A 
ATOM      9  C7A BZF d   1      -0.304  -0.203   1.956  0.00  0.00     0.058 A 
ENDROOT
TORSDOF 0
ENDMDL
