MODEL 1
REMARK minimizedAffinity -5.36110926
REMARK minimizedRMSD -1
REMARK  0 active torsions:
REMARK  status: ('A' for Active; 'I' for Inactive)
ROOT
ATOM      1  O1  BZF d   1      -0.855   0.206  -0.736  0.00  0.00    -0.204 OA
ATOM      2  C2  BZF d   1       0.459   0.509  -1.033  0.00  0.00     0.174 A 
ATOM      3  C3  BZF d   1       1.222   0.474   0.078  0.00  0.00    -0.012 A 
ATOM      4  C3A BZF d   1       0.346   0.036   1.122  0.00  0.00    -0.107 A 
ATOM      5  C4  BZF d   1       0.521  -0.210   2.453  0.00  0.00     0.055 A 
ATOM      6  C5  BZF d   1      -0.555  -0.555   3.209  0.00  0.00    -0.016 A 
ATOM      7  C6  BZF d   1      -1.819  -0.658   2.667  0.00  0.00     0.022 A 
ATOM      8  C7  BZF d   1      -2.042  -0.429   1.350  0.00  0.00     0.029 A 
ATOM      9  C7A BZF d   1      -0.951  -0.112   0.577  0.00  0.00     0.058 A 
ENDROOT
TORSDOF 0
ENDMDL
