MODEL 1
REMARK minimizedAffinity 0.288534254
REMARK minimizedRMSD -1
REMARK  0 active torsions:
REMARK  status: ('A' for Active; 'I' for Inactive)
ROOT
ATOM      1  O1  BZF d   1      -0.627   0.523   1.837  0.00  0.00    -0.204 OA
ATOM      2  C2  BZF d   1       0.739   0.345   1.947  0.00  0.00     0.174 A 
ATOM      3  C3  BZF d   1       1.315   0.300   0.729  0.00  0.00    -0.012 A 
ATOM      4  C3A BZF d   1       0.256   0.552  -0.199  0.00  0.00    -0.107 A 
ATOM      5  C4  BZF d   1       0.203   0.650  -1.560  0.00  0.00     0.055 A 
ATOM      6  C5  BZF d   1      -1.002   0.830  -2.163  0.00  0.00    -0.016 A 
ATOM      7  C6  BZF d   1      -2.172   0.912  -1.437  0.00  0.00     0.022 A 
ATOM      8  C7  BZF d   1      -2.169   0.826  -0.084  0.00  0.00     0.029 A 
ATOM      9  C7A BZF d   1      -0.950   0.677   0.530  0.00  0.00     0.058 A 
ENDROOT
TORSDOF 0
ENDMDL
