MODEL 1
REMARK minimizedAffinity -3.39231563
REMARK minimizedRMSD -1
REMARK  0 active torsions:
REMARK  status: ('A' for Active; 'I' for Inactive)
ROOT
ATOM      1  O1  BZF d   1      -0.758   0.168  -0.857  0.00  0.00    -0.204 OA
ATOM      2  C2  BZF d   1       0.547   0.591  -1.023  0.00  0.00     0.174 A 
ATOM      3  C3  BZF d   1       1.149   0.765   0.171  0.00  0.00    -0.012 A 
ATOM      4  C3A BZF d   1       0.189   0.341   1.142  0.00  0.00    -0.107 A 
ATOM      5  C4  BZF d   1       0.205   0.262   2.506  0.00  0.00     0.055 A 
ATOM      6  C5  BZF d   1      -0.923  -0.126   3.158  0.00  0.00    -0.016 A 
ATOM      7  C6  BZF d   1      -2.083  -0.436   2.480  0.00  0.00     0.022 A 
ATOM      8  C7  BZF d   1      -2.146  -0.377   1.127  0.00  0.00     0.029 A 
ATOM      9  C7A BZF d   1      -0.999  -0.018   0.463  0.00  0.00     0.058 A 
ENDROOT
TORSDOF 0
ENDMDL
