MODEL 1
REMARK minimizedAffinity -4.40111208
REMARK minimizedRMSD -1
REMARK  0 active torsions:
REMARK  status: ('A' for Active; 'I' for Inactive)
ROOT
ATOM      1  C1  DEN d   1       0.054  -0.591  -0.701  0.00  0.00     0.130 A 
ATOM      2  C2  DEN d   1      -1.198  -0.042  -0.187  0.00  0.00    -0.031 A 
ATOM      3  C3  DEN d   1      -1.120  -0.032   1.288  0.00  0.00     0.027 A 
ATOM      4  C4  DEN d   1       0.808  -0.805   2.816  0.00  0.00     0.027 A 
ATOM      5  C5  DEN d   1       2.071  -1.355   2.839  0.00  0.00    -0.003 A 
ATOM      6  C6  DEN d   1       2.731  -1.717   1.695  0.00  0.00     0.001 A 
ATOM      7  C7  DEN d   1       2.148  -1.492   0.476  0.00  0.00     0.017 A 
ATOM      8  C8  DEN d   1       0.872  -0.945   0.445  0.00  0.00    -0.094 A 
ATOM      9  C9  DEN d   1       0.227  -0.574   1.612  0.00  0.00    -0.072 A 
ENDROOT
TORSDOF 0
ENDMDL
