MODEL 1
REMARK minimizedAffinity -5.9602294
REMARK minimizedRMSD -1
REMARK  0 active torsions:
REMARK  status: ('A' for Active; 'I' for Inactive)
ROOT
ATOM      1  C1  DEN d   1      -1.140   0.124   0.496  0.00  0.00     0.130 A 
ATOM      2  C2  DEN d   1      -0.755  -0.285  -0.852  0.00  0.00    -0.031 A 
ATOM      3  C3  DEN d   1       0.575  -0.922  -0.774  0.00  0.00     0.027 A 
ATOM      4  C4  DEN d   1       2.065  -1.319   1.294  0.00  0.00     0.027 A 
ATOM      5  C5  DEN d   1       2.168  -1.135   2.655  0.00  0.00    -0.003 A 
ATOM      6  C6  DEN d   1       1.199  -0.494   3.381  0.00  0.00     0.001 A 
ATOM      7  C7  DEN d   1       0.063  -0.053   2.756  0.00  0.00     0.017 A 
ATOM      8  C8  DEN d   1      -0.045  -0.228   1.382  0.00  0.00    -0.094 A 
ATOM      9  C9  DEN d   1       0.940  -0.890   0.668  0.00  0.00    -0.072 A 
ENDROOT
TORSDOF 0
ENDMDL
