MODEL 1
REMARK minimizedAffinity -3.967839
REMARK minimizedRMSD -1
REMARK  0 active torsions:
REMARK  status: ('A' for Active; 'I' for Inactive)
ROOT
ATOM      1  C1  DEN d   1       1.544  -0.648   2.062  0.00  0.00     0.130 A 
ATOM      2  C2  DEN d   1       0.479  -0.656   3.061  0.00  0.00    -0.031 A 
ATOM      3  C3  DEN d   1      -0.808  -0.479   2.358  0.00  0.00     0.027 A 
ATOM      4  C4  DEN d   1      -1.252  -0.198  -0.167  0.00  0.00     0.027 A 
ATOM      5  C5  DEN d   1      -0.661  -0.115  -1.408  0.00  0.00    -0.003 A 
ATOM      6  C6  DEN d   1       0.698  -0.169  -1.575  0.00  0.00     0.001 A 
ATOM      7  C7  DEN d   1       1.508  -0.356  -0.487  0.00  0.00     0.017 A 
ATOM      8  C8  DEN d   1       0.920  -0.433   0.769  0.00  0.00    -0.094 A 
ATOM      9  C9  DEN d   1      -0.456  -0.388   0.916  0.00  0.00    -0.072 A 
ENDROOT
TORSDOF 0
ENDMDL
