MODEL 1
REMARK minimizedAffinity -3.64947033
REMARK minimizedRMSD -1
REMARK  0 active torsions:
REMARK  status: ('A' for Active; 'I' for Inactive)
ROOT
ATOM      1  C1  DEN d   1       0.555   0.529  -0.881  0.00  0.00     0.130 A 
ATOM      2  C2  DEN d   1      -0.845   0.205  -1.142  0.00  0.00    -0.031 A 
ATOM      3  C3  DEN d   1      -1.431  -0.325   0.105  0.00  0.00     0.027 A 
ATOM      4  C4  DEN d   1      -0.314  -0.669   2.404  0.00  0.00     0.027 A 
ATOM      5  C5  DEN d   1       0.863  -0.549   3.110  0.00  0.00    -0.003 A 
ATOM      6  C6  DEN d   1       2.019  -0.098   2.530  0.00  0.00     0.001 A 
ATOM      7  C7  DEN d   1       2.012   0.294   1.217  0.00  0.00     0.017 A 
ATOM      8  C8  DEN d   1       0.831   0.170   0.498  0.00  0.00    -0.094 A 
ATOM      9  C9  DEN d   1      -0.330  -0.278   1.105  0.00  0.00    -0.072 A 
ENDROOT
TORSDOF 0
ENDMDL
