MODEL 1
REMARK minimizedAffinity -3.42909336
REMARK minimizedRMSD -1
REMARK  0 active torsions:
REMARK  status: ('A' for Active; 'I' for Inactive)
ROOT
ATOM      1  C1  DEN d   1       2.023  -0.378   1.868  0.00  0.00     0.130 A 
ATOM      2  C2  DEN d   1       1.359  -0.721   3.122  0.00  0.00    -0.031 A 
ATOM      3  C3  DEN d   1      -0.099  -0.623   2.909  0.00  0.00     0.027 A 
ATOM      4  C4  DEN d   1      -1.386   0.018   0.767  0.00  0.00     0.027 A 
ATOM      5  C5  DEN d   1      -1.254   0.403  -0.549  0.00  0.00    -0.003 A 
ATOM      6  C6  DEN d   1      -0.031   0.586  -1.137  0.00  0.00     0.001 A 
ATOM      7  C7  DEN d   1       1.111   0.341  -0.420  0.00  0.00     0.017 A 
ATOM      8  C8  DEN d   1       0.986  -0.041   0.909  0.00  0.00    -0.094 A 
ATOM      9  C9  DEN d   1      -0.260  -0.233   1.482  0.00  0.00    -0.072 A 
ENDROOT
TORSDOF 0
ENDMDL
