MODEL 1
REMARK minimizedAffinity -6.1188097
REMARK minimizedRMSD -1
REMARK  0 active torsions:
REMARK  status: ('A' for Active; 'I' for Inactive)
ROOT
ATOM      1  C1  DEN d   1      -0.604   0.135   1.854  0.00  0.00     0.130 A 
ATOM      2  C2  DEN d   1       0.452  -0.202   2.805  0.00  0.00    -0.031 A 
ATOM      3  C3  DEN d   1       1.561  -0.825   2.053  0.00  0.00     0.027 A 
ATOM      4  C4  DEN d   1       1.745  -1.293  -0.476  0.00  0.00     0.027 A 
ATOM      5  C5  DEN d   1       1.095  -1.193  -1.687  0.00  0.00    -0.003 A 
ATOM      6  C6  DEN d   1      -0.169  -0.679  -1.796  0.00  0.00     0.001 A 
ATOM      7  C7  DEN d   1      -0.807  -0.203  -0.681  0.00  0.00     0.017 A 
ATOM      8  C8  DEN d   1      -0.162  -0.307   0.544  0.00  0.00    -0.094 A 
ATOM      9  C9  DEN d   1       1.122  -0.819   0.632  0.00  0.00    -0.072 A 
ENDROOT
TORSDOF 0
ENDMDL
