MODEL 1
REMARK minimizedAffinity -3.56306624
REMARK minimizedRMSD -1
REMARK  0 active torsions:
REMARK  status: ('A' for Active; 'I' for Inactive)
ROOT
ATOM      1  C1  DEN d   1      -1.340  -0.950   1.842  0.00  0.00     0.130 A 
ATOM      2  C2  DEN d   1      -1.957  -0.719   0.539  0.00  0.00    -0.031 A 
ATOM      3  C3  DEN d   1      -0.878  -0.524  -0.449  0.00  0.00     0.027 A 
ATOM      4  C4  DEN d   1       1.676  -0.561  -0.092  0.00  0.00     0.027 A 
ATOM      5  C5  DEN d   1       2.677  -0.709   0.843  0.00  0.00    -0.003 A 
ATOM      6  C6  DEN d   1       2.411  -0.912   2.171  0.00  0.00     0.001 A 
ATOM      7  C7  DEN d   1       1.112  -1.018   2.595  0.00  0.00     0.017 A 
ATOM      8  C8  DEN d   1       0.098  -0.862   1.659  0.00  0.00    -0.094 A 
ATOM      9  C9  DEN d   1       0.387  -0.670   0.319  0.00  0.00    -0.072 A 
ENDROOT
TORSDOF 0
ENDMDL
