MODEL 1
REMARK minimizedAffinity -5.17155933
REMARK minimizedRMSD -1
REMARK  0 active torsions:
REMARK  status: ('A' for Active; 'I' for Inactive)
ROOT
ATOM      1  C1  DEN d   1      -0.672   0.302  -1.095  0.00  0.00     0.130 A 
ATOM      2  C2  DEN d   1       0.166  -0.177  -2.191  0.00  0.00    -0.031 A 
ATOM      3  C3  DEN d   1       1.172  -1.099  -1.628  0.00  0.00     0.027 A 
ATOM      4  C4  DEN d   1       1.509  -1.833   0.822  0.00  0.00     0.027 A 
ATOM      5  C5  DEN d   1       1.050  -1.684   2.111  0.00  0.00    -0.003 A 
ATOM      6  C6  DEN d   1       0.014  -0.844   2.425  0.00  0.00     0.001 A 
ATOM      7  C7  DEN d   1      -0.625  -0.154   1.430  0.00  0.00     0.017 A 
ATOM      8  C8  DEN d   1      -0.163  -0.293   0.128  0.00  0.00    -0.094 A 
ATOM      9  C9  DEN d   1       0.877  -1.157  -0.171  0.00  0.00    -0.072 A 
ENDROOT
TORSDOF 0
ENDMDL
