MODEL 1
REMARK minimizedAffinity 12.2581091
REMARK minimizedRMSD -1
REMARK  2 active torsions:
REMARK  status: ('A' for Active; 'I' for Inactive)
REMARK    1  A    between atoms: C1_2  and  C2_3 
REMARK    2  A    between atoms: C2_3  and  C3_4 
ROOT
ATOM      1  C3  UNL d   1       1.179  -3.225  -2.056  0.00  0.00    -0.075 A 
ATOM      2  C4  UNL d   1       1.403  -2.819  -0.733  0.00  0.00     0.002 A 
ATOM      3  C5  UNL d   1       1.134  -1.508  -0.339  0.00  0.00     0.002 A 
ATOM      4  C6  UNL d   1       0.650  -0.585  -1.264  0.00  0.00    -0.004 A 
ATOM      5  C7  UNL d   1       0.440  -0.973  -2.585  0.00  0.00     0.002 A 
ATOM      6  C8  UNL d   1       0.704  -2.286  -2.981  0.00  0.00     0.002 A 
ENDROOT
BRANCH   1   7
ATOM      7  C2  UNL d   1       1.440  -4.651  -2.481  0.00  0.00     0.056 C 
BRANCH   7   8
ATOM      8  C1  UNL d   1       2.138  -4.779  -3.839  0.00  0.00     0.007 C 
ATOM      9  C   UNL d   1       1.679  -5.991  -4.639  0.00  0.00     0.009 C 
ENDBRANCH   7   8
ENDBRANCH   1   7
TORSDOF 2
ENDMDL
