MODEL 1
REMARK minimizedAffinity 8.4366684
REMARK minimizedRMSD -1
REMARK  2 active torsions:
REMARK  status: ('A' for Active; 'I' for Inactive)
REMARK    1  A    between atoms: C1_2  and  C2_3 
REMARK    2  A    between atoms: C2_3  and  C3_4 
ROOT
ATOM      1  C3  UNL d   1       0.110  -0.574   2.197  0.00  0.00    -0.075 A 
ATOM      2  C4  UNL d   1       0.269  -0.564   0.804  0.00  0.00     0.002 A 
ATOM      3  C5  UNL d   1       1.501  -0.242   0.233  0.00  0.00     0.002 A 
ATOM      4  C6  UNL d   1       2.585   0.083   1.046  0.00  0.00    -0.004 A 
ATOM      5  C7  UNL d   1       2.434   0.092   2.431  0.00  0.00     0.002 A 
ATOM      6  C8  UNL d   1       1.204  -0.234   3.005  0.00  0.00     0.002 A 
ENDROOT
BRANCH   1   7
ATOM      7  C2  UNL d   1      -1.212  -0.950   2.821  0.00  0.00     0.056 C 
BRANCH   7   8
ATOM      8  C1  UNL d   1      -1.141  -1.199   4.332  0.00  0.00     0.007 C 
ATOM      9  C   UNL d   1      -1.722  -2.544   4.746  0.00  0.00     0.009 C 
ENDBRANCH   7   8
ENDBRANCH   1   7
TORSDOF 2
ENDMDL
