MODEL 1
REMARK minimizedAffinity 5.75053501
REMARK minimizedRMSD -1
REMARK  2 active torsions:
REMARK  status: ('A' for Active; 'I' for Inactive)
REMARK    1  A    between atoms: C1_2  and  C2_3 
REMARK    2  A    between atoms: C2_3  and  C3_4 
ROOT
ATOM      1  C3  UNL d   1      -1.952   3.005  -3.200  0.00  0.00    -0.075 A 
ATOM      2  C4  UNL d   1      -1.234   3.097  -1.999  0.00  0.00     0.002 A 
ATOM      3  C5  UNL d   1      -0.124   3.936  -1.899  0.00  0.00     0.002 A 
ATOM      4  C6  UNL d   1       0.288   4.685  -2.999  0.00  0.00    -0.004 A 
ATOM      5  C7  UNL d   1      -0.408   4.590  -4.202  0.00  0.00     0.002 A 
ATOM      6  C8  UNL d   1      -1.522   3.754  -4.304  0.00  0.00     0.002 A 
ENDROOT
BRANCH   1   7
ATOM      7  C2  UNL d   1      -3.172   2.121  -3.306  0.00  0.00     0.056 C 
BRANCH   7   8
ATOM      8  C1  UNL d   1      -4.447   2.746  -2.729  0.00  0.00     0.007 C 
ATOM      9  C   UNL d   1      -5.605   2.765  -3.718  0.00  0.00     0.009 C 
ENDBRANCH   7   8
ENDBRANCH   1   7
TORSDOF 2
ENDMDL
