MODEL 1
REMARK minimizedAffinity 3.87571144
REMARK minimizedRMSD -1
REMARK  2 active torsions:
REMARK  status: ('A' for Active; 'I' for Inactive)
REMARK    1  A    between atoms: C1_2  and  C2_3 
REMARK    2  A    between atoms: C2_3  and  C3_4 
ROOT
ATOM      1  C3  UNL d   1       1.294   1.153  -0.498  0.00  0.00    -0.075 A 
ATOM      2  C4  UNL d   1       0.253   2.092  -0.461  0.00  0.00     0.002 A 
ATOM      3  C5  UNL d   1       0.467   3.404  -0.886  0.00  0.00     0.002 A 
ATOM      4  C6  UNL d   1       1.724   3.795  -1.343  0.00  0.00    -0.004 A 
ATOM      5  C7  UNL d   1       2.769   2.875  -1.368  0.00  0.00     0.002 A 
ATOM      6  C8  UNL d   1       2.557   1.561  -0.948  0.00  0.00     0.002 A 
ENDROOT
BRANCH   1   7
ATOM      7  C2  UNL d   1       1.061  -0.275  -0.067  0.00  0.00     0.056 C 
BRANCH   7   8
ATOM      8  C1  UNL d   1       0.761  -0.435   1.427  0.00  0.00     0.007 C 
ATOM      9  C   UNL d   1      -0.729  -0.447   1.742  0.00  0.00     0.009 C 
ENDBRANCH   7   8
ENDBRANCH   1   7
TORSDOF 2
ENDMDL
