MODEL 1
REMARK minimizedAffinity 8.55886841
REMARK minimizedRMSD -1
REMARK  2 active torsions:
REMARK  status: ('A' for Active; 'I' for Inactive)
REMARK    1  A    between atoms: C1_2  and  C2_3 
REMARK    2  A    between atoms: C2_3  and  C3_4 
ROOT
ATOM      1  C3  UNL d   1       1.068  -0.572   0.844  0.00  0.00    -0.075 A 
ATOM      2  C4  UNL d   1       0.156  -1.406   0.181  0.00  0.00     0.002 A 
ATOM      3  C5  UNL d   1      -0.990  -1.862   0.834  0.00  0.00     0.002 A 
ATOM      4  C6  UNL d   1      -1.232  -1.501   2.157  0.00  0.00    -0.004 A 
ATOM      5  C7  UNL d   1      -0.324  -0.687   2.831  0.00  0.00     0.002 A 
ATOM      6  C8  UNL d   1       0.821  -0.224   2.179  0.00  0.00     0.002 A 
ENDROOT
BRANCH   1   7
ATOM      7  C2  UNL d   1       2.294  -0.050   0.134  0.00  0.00     0.056 C 
BRANCH   7   8
ATOM      8  C1  UNL d   1       2.013   0.516  -1.262  0.00  0.00     0.007 C 
ATOM      9  C   UNL d   1       1.913   2.036  -1.285  0.00  0.00     0.009 C 
ENDBRANCH   7   8
ENDBRANCH   1   7
TORSDOF 2
ENDMDL
