MODEL 1
REMARK minimizedAffinity 5.27899837
REMARK minimizedRMSD -1
REMARK  2 active torsions:
REMARK  status: ('A' for Active; 'I' for Inactive)
REMARK    1  A    between atoms: C1_2  and  C2_3 
REMARK    2  A    between atoms: C2_3  and  C3_4 
ROOT
ATOM      1  C3  UNL d   1       1.316  -0.424   0.796  0.00  0.00    -0.075 A 
ATOM      2  C4  UNL d   1       2.621  -0.752   1.192  0.00  0.00     0.002 A 
ATOM      3  C5  UNL d   1       3.710  -0.416   0.388  0.00  0.00     0.002 A 
ATOM      4  C6  UNL d   1       3.509   0.241  -0.824  0.00  0.00    -0.004 A 
ATOM      5  C7  UNL d   1       2.216   0.557  -1.235  0.00  0.00     0.002 A 
ATOM      6  C8  UNL d   1       1.125   0.226  -0.430  0.00  0.00     0.002 A 
ENDROOT
BRANCH   1   7
ATOM      7  C2  UNL d   1       0.135  -0.759   1.676  0.00  0.00     0.056 C 
BRANCH   7   8
ATOM      8  C1  UNL d   1      -0.517  -2.109   1.358  0.00  0.00     0.007 C 
ATOM      9  C   UNL d   1      -0.004  -2.734   0.067  0.00  0.00     0.009 C 
ENDBRANCH   7   8
ENDBRANCH   1   7
TORSDOF 2
ENDMDL
