MODEL 1
REMARK minimizedAffinity 9.39249516
REMARK minimizedRMSD -1
REMARK  2 active torsions:
REMARK  status: ('A' for Active; 'I' for Inactive)
REMARK    1  A    between atoms: C1_2  and  C2_3 
REMARK    2  A    between atoms: C2_3  and  C3_4 
ROOT
ATOM      1  C3  UNL d   1       2.557   1.793  -0.521  0.00  0.00    -0.075 A 
ATOM      2  C4  UNL d   1       3.442   2.881  -0.541  0.00  0.00     0.002 A 
ATOM      3  C5  UNL d   1       2.956   4.188  -0.583  0.00  0.00     0.002 A 
ATOM      4  C6  UNL d   1       1.584   4.424  -0.617  0.00  0.00    -0.004 A 
ATOM      5  C7  UNL d   1       0.696   3.350  -0.614  0.00  0.00     0.002 A 
ATOM      6  C8  UNL d   1       1.179   2.041  -0.567  0.00  0.00     0.002 A 
ENDROOT
BRANCH   1   7
ATOM      7  C2  UNL d   1       3.076   0.377  -0.445  0.00  0.00     0.056 C 
BRANCH   7   8
ATOM      8  C1  UNL d   1       3.133  -0.191   0.977  0.00  0.00     0.007 C 
ATOM      9  C   UNL d   1       4.395   0.205   1.732  0.00  0.00     0.009 C 
ENDBRANCH   7   8
ENDBRANCH   1   7
TORSDOF 2
ENDMDL
