MODEL 1
REMARK minimizedAffinity -1.51593995
REMARK minimizedRMSD -1
REMARK  2 active torsions:
REMARK  status: ('A' for Active; 'I' for Inactive)
REMARK    1  A    between atoms: C1_2  and  C2_3 
REMARK    2  A    between atoms: C2_3  and  C3_4 
ROOT
ATOM      1  C3  UNL d   1      -4.392  -5.282   0.560  0.00  0.00    -0.075 A 
ATOM      2  C4  UNL d   1      -5.386  -5.997  -0.124  0.00  0.00     0.002 A 
ATOM      3  C5  UNL d   1      -5.424  -6.000  -1.519  0.00  0.00     0.002 A 
ATOM      4  C6  UNL d   1      -4.478  -5.281  -2.246  0.00  0.00    -0.004 A 
ATOM      5  C7  UNL d   1      -3.496  -4.553  -1.577  0.00  0.00     0.002 A 
ATOM      6  C8  UNL d   1      -3.453  -4.553  -0.181  0.00  0.00     0.002 A 
ENDROOT
BRANCH   1   7
ATOM      7  C2  UNL d   1      -4.327  -5.299   2.068  0.00  0.00     0.056 C 
BRANCH   7   8
ATOM      8  C1  UNL d   1      -5.516  -6.000   2.736  0.00  0.00     0.007 C 
ATOM      9  C   UNL d   1      -5.998  -5.294   3.996  0.00  0.00     0.009 C 
ENDBRANCH   7   8
ENDBRANCH   1   7
TORSDOF 2
ENDMDL
