MODEL 1
REMARK minimizedAffinity -3.72229433
REMARK minimizedRMSD -1
REMARK  2 active torsions:
REMARK  status: ('A' for Active; 'I' for Inactive)
REMARK    1  A    between atoms: C1_2  and  C2_3 
REMARK    2  A    between atoms: C2_3  and  C3_4 
ROOT
ATOM      1  C3  UNL d   1      -1.187  -1.154  -0.258  0.00  0.00    -0.075 A 
ATOM      2  C4  UNL d   1      -0.547  -2.397  -0.370  0.00  0.00     0.002 A 
ATOM      3  C5  UNL d   1       0.654  -2.638   0.297  0.00  0.00     0.002 A 
ATOM      4  C6  UNL d   1       1.235  -1.639   1.075  0.00  0.00    -0.004 A 
ATOM      5  C7  UNL d   1       0.616  -0.395   1.180  0.00  0.00     0.002 A 
ATOM      6  C8  UNL d   1      -0.588  -0.153   0.518  0.00  0.00     0.002 A 
ENDROOT
BRANCH   1   7
ATOM      7  C2  UNL d   1      -2.503  -0.896  -0.953  0.00  0.00     0.056 C 
BRANCH   7   8
ATOM      8  C1  UNL d   1      -3.622  -1.862  -0.549  0.00  0.00     0.007 C 
ATOM      9  C   UNL d   1      -4.306  -2.521  -1.740  0.00  0.00     0.009 C 
ENDBRANCH   7   8
ENDBRANCH   1   7
TORSDOF 2
ENDMDL
