MODEL 1
REMARK minimizedAffinity 7.25244856
REMARK minimizedRMSD -1
REMARK  2 active torsions:
REMARK  status: ('A' for Active; 'I' for Inactive)
REMARK    1  A    between atoms: C1_2  and  C2_3 
REMARK    2  A    between atoms: C2_3  and  C3_4 
ROOT
ATOM      1  C3  UNL d   1      -1.517  -2.264   0.503  0.00  0.00    -0.075 A 
ATOM      2  C4  UNL d   1      -1.727  -1.024   1.124  0.00  0.00     0.002 A 
ATOM      3  C5  UNL d   1      -0.768  -0.492   1.986  0.00  0.00     0.002 A 
ATOM      4  C6  UNL d   1       0.406  -1.195   2.246  0.00  0.00    -0.004 A 
ATOM      5  C7  UNL d   1       0.618  -2.435   1.648  0.00  0.00     0.002 A 
ATOM      6  C8  UNL d   1      -0.338  -2.968   0.781  0.00  0.00     0.002 A 
ENDROOT
BRANCH   1   7
ATOM      7  C2  UNL d   1      -2.538  -2.832  -0.454  0.00  0.00     0.056 C 
BRANCH   7   8
ATOM      8  C1  UNL d   1      -1.947  -3.310  -1.784  0.00  0.00     0.007 C 
ATOM      9  C   UNL d   1      -2.210  -4.784  -2.063  0.00  0.00     0.009 C 
ENDBRANCH   7   8
ENDBRANCH   1   7
TORSDOF 2
ENDMDL
