MODEL 1
REMARK minimizedAffinity 13.2887211
REMARK minimizedRMSD -1
REMARK  2 active torsions:
REMARK  status: ('A' for Active; 'I' for Inactive)
REMARK    1  A    between atoms: C1_2  and  C2_3 
REMARK    2  A    between atoms: C2_3  and  C3_4 
ROOT
ATOM      1  C3  UNL d   1       0.703  -0.456   1.620  0.00  0.00    -0.075 A 
ATOM      2  C4  UNL d   1       0.445  -0.446   2.999  0.00  0.00     0.002 A 
ATOM      3  C5  UNL d   1      -0.567  -1.241   3.537  0.00  0.00     0.002 A 
ATOM      4  C6  UNL d   1      -1.340  -2.047   2.704  0.00  0.00    -0.004 A 
ATOM      5  C7  UNL d   1      -1.105  -2.053   1.331  0.00  0.00     0.002 A 
ATOM      6  C8  UNL d   1      -0.089  -1.262   0.791  0.00  0.00     0.002 A 
ENDROOT
BRANCH   1   7
ATOM      7  C2  UNL d   1       1.816   0.379   1.036  0.00  0.00     0.056 C 
BRANCH   7   8
ATOM      8  C1  UNL d   1       3.177  -0.325   1.010  0.00  0.00     0.007 C 
ATOM      9  C   UNL d   1       3.901  -0.282   2.349  0.00  0.00     0.009 C 
ENDBRANCH   7   8
ENDBRANCH   1   7
TORSDOF 2
ENDMDL
