MODEL 1
REMARK minimizedAffinity 0.63154453
REMARK minimizedRMSD -1
REMARK  2 active torsions:
REMARK  status: ('A' for Active; 'I' for Inactive)
REMARK    1  A    between atoms: C1_2  and  C2_3 
REMARK    2  A    between atoms: C2_3  and  C3_4 
ROOT
ATOM      1  C3  UNL d   1      -1.744  -0.639   0.010  0.00  0.00    -0.075 A 
ATOM      2  C4  UNL d   1      -2.207   0.196   1.037  0.00  0.00     0.002 A 
ATOM      3  C5  UNL d   1      -3.532   0.633   1.052  0.00  0.00     0.002 A 
ATOM      4  C6  UNL d   1      -4.406   0.252   0.036  0.00  0.00    -0.004 A 
ATOM      5  C7  UNL d   1      -3.953  -0.564  -0.998  0.00  0.00     0.002 A 
ATOM      6  C8  UNL d   1      -2.629  -1.007  -1.013  0.00  0.00     0.002 A 
ENDROOT
BRANCH   1   7
ATOM      7  C2  UNL d   1      -0.320  -1.141   0.004  0.00  0.00     0.056 C 
BRANCH   7   8
ATOM      8  C1  UNL d   1       0.468  -0.793   1.271  0.00  0.00     0.007 C 
ATOM      9  C   UNL d   1       1.795  -0.103   0.983  0.00  0.00     0.009 C 
ENDBRANCH   7   8
ENDBRANCH   1   7
TORSDOF 2
ENDMDL
