MODEL 1
REMARK minimizedAffinity -3.08087254
REMARK minimizedRMSD -1
REMARK  3 active torsions:
REMARK  status: ('A' for Active; 'I' for Inactive)
REMARK    1  A    between atoms: C3'_2  and  C2'_3 
REMARK    2  A    between atoms: C2'_3  and  C1'_4 
REMARK    3  A    between atoms: C1'_4  and  C1_5 
ROOT
ATOM      1  C1  N4B d   1       5.917  -4.039   4.405  0.00  0.00    -0.075 A 
ATOM      2  C2  N4B d   1       6.000  -4.881   3.274  0.00  0.00     0.002 A 
ATOM      3  C3  N4B d   1       5.908  -4.346   2.013  0.00  0.00     0.002 A 
ATOM      4  C4  N4B d   1       5.714  -2.982   1.858  0.00  0.00    -0.004 A 
ATOM      5  C5  N4B d   1       5.661  -2.172   2.955  0.00  0.00     0.002 A 
ATOM      6  C6  N4B d   1       5.756  -2.695   4.229  0.00  0.00     0.002 A 
ENDROOT
BRANCH   1   7
ATOM      7  C1' N4B d   1       5.926  -4.588   5.806  0.00  0.00     0.057 C 
BRANCH   7   8
ATOM      8  C2' N4B d   1       5.348  -6.000   5.795  0.00  0.00     0.009 C 
BRANCH   8   9
ATOM      9  C3' N4B d   1       3.841  -5.998   5.988  0.00  0.00     0.004 C 
ATOM     10  C4' N4B d   1       3.090  -5.854   4.698  0.00  0.00     0.003 C 
ENDBRANCH   8   9
ENDBRANCH   7   8
ENDBRANCH   1   7
TORSDOF 3
ENDMDL
