MODEL 1
REMARK minimizedAffinity -0.15819332
REMARK minimizedRMSD -1
REMARK  3 active torsions:
REMARK  status: ('A' for Active; 'I' for Inactive)
REMARK    1  A    between atoms: C3'_2  and  C2'_3 
REMARK    2  A    between atoms: C2'_3  and  C1'_4 
REMARK    3  A    between atoms: C1'_4  and  C1_5 
ROOT
ATOM      1  C1  N4B d   1       5.935  -4.726   4.328  0.00  0.00    -0.075 A 
ATOM      2  C2  N4B d   1       5.911  -3.317   4.411  0.00  0.00     0.002 A 
ATOM      3  C3  N4B d   1       5.934  -2.561   3.264  0.00  0.00     0.002 A 
ATOM      4  C4  N4B d   1       6.000  -3.190   2.030  0.00  0.00    -0.004 A 
ATOM      5  C5  N4B d   1       5.997  -4.553   1.958  0.00  0.00     0.002 A 
ATOM      6  C6  N4B d   1       5.970  -5.324   3.102  0.00  0.00     0.002 A 
ENDROOT
BRANCH   1   7
ATOM      7  C1' N4B d   1       5.999  -5.592   5.556  0.00  0.00     0.057 C 
BRANCH   7   8
ATOM      8  C2' N4B d   1       4.583  -5.988   5.964  0.00  0.00     0.009 C 
BRANCH   8   9
ATOM      9  C3' N4B d   1       3.581  -5.743   4.848  0.00  0.00     0.004 C 
ATOM     10  C4' N4B d   1       2.167  -5.670   5.343  0.00  0.00     0.003 C 
ENDBRANCH   8   9
ENDBRANCH   7   8
ENDBRANCH   1   7
TORSDOF 3
ENDMDL
