MODEL 1
REMARK minimizedAffinity -2.8600862
REMARK minimizedRMSD -1
REMARK  3 active torsions:
REMARK  status: ('A' for Active; 'I' for Inactive)
REMARK    1  A    between atoms: C3'_2  and  C2'_3 
REMARK    2  A    between atoms: C2'_3  and  C1'_4 
REMARK    3  A    between atoms: C1'_4  and  C1_5 
ROOT
ATOM      1  C1  N4B d   1       5.897  -4.345   3.557  0.00  0.00    -0.075 A 
ATOM      2  C2  N4B d   1       5.768  -3.103   4.216  0.00  0.00     0.002 A 
ATOM      3  C3  N4B d   1       5.757  -1.938   3.488  0.00  0.00     0.002 A 
ATOM      4  C4  N4B d   1       5.893  -1.989   2.109  0.00  0.00    -0.004 A 
ATOM      5  C5  N4B d   1       5.992  -3.195   1.478  0.00  0.00     0.002 A 
ATOM      6  C6  N4B d   1       6.000  -4.374   2.196  0.00  0.00     0.002 A 
ENDROOT
BRANCH   1   7
ATOM      7  C1' N4B d   1       6.000  -5.639   4.317  0.00  0.00     0.057 C 
BRANCH   7   8
ATOM      8  C2' N4B d   1       5.537  -5.415   5.753  0.00  0.00     0.009 C 
BRANCH   8   9
ATOM      9  C3' N4B d   1       4.144  -5.972   5.995  0.00  0.00     0.004 C 
ATOM     10  C4' N4B d   1       3.289  -5.952   4.763  0.00  0.00     0.003 C 
ENDBRANCH   8   9
ENDBRANCH   7   8
ENDBRANCH   1   7
TORSDOF 3
ENDMDL
