MODEL 1
REMARK minimizedAffinity -1.82730746
REMARK minimizedRMSD -1
REMARK  3 active torsions:
REMARK  status: ('A' for Active; 'I' for Inactive)
REMARK    1  A    between atoms: C3'_2  and  C2'_3 
REMARK    2  A    between atoms: C2'_3  and  C1'_4 
REMARK    3  A    between atoms: C1'_4  and  C1_5 
ROOT
ATOM      1  C1  N4B d   1       5.877  -4.562   4.555  0.00  0.00    -0.075 A 
ATOM      2  C2  N4B d   1       5.883  -3.179   4.844  0.00  0.00     0.002 A 
ATOM      3  C3  N4B d   1       5.932  -2.264   3.821  0.00  0.00     0.002 A 
ATOM      4  C4  N4B d   1       5.993  -2.707   2.508  0.00  0.00    -0.004 A 
ATOM      5  C5  N4B d   1       5.960  -4.043   2.236  0.00  0.00     0.002 A 
ATOM      6  C6  N4B d   1       5.908  -4.974   3.254  0.00  0.00     0.002 A 
ENDROOT
BRANCH   1   7
ATOM      7  C1' N4B d   1       5.911  -5.600   5.643  0.00  0.00     0.057 C 
BRANCH   7   8
ATOM      8  C2' N4B d   1       4.482  -5.999   5.999  0.00  0.00     0.009 C 
BRANCH   8   9
ATOM      9  C3' N4B d   1       3.476  -4.938   5.588  0.00  0.00     0.004 C 
ATOM     10  C4' N4B d   1       2.115  -5.504   5.314  0.00  0.00     0.003 C 
ENDBRANCH   8   9
ENDBRANCH   7   8
ENDBRANCH   1   7
TORSDOF 3
ENDMDL
