MODEL 1
REMARK minimizedAffinity 2.69736576
REMARK minimizedRMSD -1
REMARK  3 active torsions:
REMARK  status: ('A' for Active; 'I' for Inactive)
REMARK    1  A    between atoms: C3'_2  and  C2'_3 
REMARK    2  A    between atoms: C2'_3  and  C1'_4 
REMARK    3  A    between atoms: C1'_4  and  C1_5 
ROOT
ATOM      1  C1  N4B d   1       5.653  -3.920   3.625  0.00  0.00    -0.075 A 
ATOM      2  C2  N4B d   1       5.244  -2.572   3.523  0.00  0.00     0.002 A 
ATOM      3  C3  N4B d   1       5.188  -1.785   4.647  0.00  0.00     0.002 A 
ATOM      4  C4  N4B d   1       5.517  -2.327   5.881  0.00  0.00    -0.004 A 
ATOM      5  C5  N4B d   1       5.935  -3.622   5.967  0.00  0.00     0.002 A 
ATOM      6  C6  N4B d   1       6.000  -4.424   4.845  0.00  0.00     0.002 A 
ENDROOT
BRANCH   1   7
ATOM      7  C1' N4B d   1       5.647  -4.843   2.438  0.00  0.00     0.057 C 
BRANCH   7   8
ATOM      8  C2' N4B d   1       4.675  -5.990   2.699  0.00  0.00     0.009 C 
BRANCH   8   9
ATOM      9  C3' N4B d   1       3.527  -5.567   3.600  0.00  0.00     0.004 C 
ATOM     10  C4' N4B d   1       3.717  -6.000   5.024  0.00  0.00     0.003 C 
ENDBRANCH   8   9
ENDBRANCH   7   8
ENDBRANCH   1   7
TORSDOF 3
ENDMDL
