MODEL 1
REMARK minimizedAffinity 0.72046864
REMARK minimizedRMSD -1
REMARK  3 active torsions:
REMARK  status: ('A' for Active; 'I' for Inactive)
REMARK    1  A    between atoms: C3'_2  and  C2'_3 
REMARK    2  A    between atoms: C2'_3  and  C1'_4 
REMARK    3  A    between atoms: C1'_4  and  C1_5 
ROOT
ATOM      1  C1  N4B d   1       5.910  -4.255   4.810  0.00  0.00    -0.075 A 
ATOM      2  C2  N4B d   1       5.812  -2.926   5.278  0.00  0.00     0.002 A 
ATOM      3  C3  N4B d   1       5.813  -1.882   4.385  0.00  0.00     0.002 A 
ATOM      4  C4  N4B d   1       5.929  -2.141   3.027  0.00  0.00    -0.004 A 
ATOM      5  C5  N4B d   1       5.997  -3.429   2.582  0.00  0.00     0.002 A 
ATOM      6  C6  N4B d   1       5.993  -4.488   3.468  0.00  0.00     0.002 A 
ENDROOT
BRANCH   1   7
ATOM      7  C1' N4B d   1       6.000  -5.424   5.753  0.00  0.00     0.057 C 
BRANCH   7   8
ATOM      8  C2' N4B d   1       4.603  -5.994   5.978  0.00  0.00     0.009 C 
BRANCH   8   9
ATOM      9  C3' N4B d   1       3.540  -5.203   5.236  0.00  0.00     0.004 C 
ATOM     10  C4' N4B d   1       2.878  -5.996   4.149  0.00  0.00     0.003 C 
ENDBRANCH   8   9
ENDBRANCH   7   8
ENDBRANCH   1   7
TORSDOF 3
ENDMDL
