MODEL 1
REMARK minimizedAffinity -3.29559135
REMARK minimizedRMSD -1
REMARK  3 active torsions:
REMARK  status: ('A' for Active; 'I' for Inactive)
REMARK    1  A    between atoms: C3'_2  and  C2'_3 
REMARK    2  A    between atoms: C2'_3  and  C1'_4 
REMARK    3  A    between atoms: C1'_4  and  C1_5 
ROOT
ATOM      1  C1  N4B d   1       5.873  -3.702   4.500  0.00  0.00    -0.075 A 
ATOM      2  C2  N4B d   1       5.928  -4.565   3.384  0.00  0.00     0.002 A 
ATOM      3  C3  N4B d   1       6.000  -4.043   2.115  0.00  0.00     0.002 A 
ATOM      4  C4  N4B d   1       6.000  -2.668   1.939  0.00  0.00    -0.004 A 
ATOM      5  C5  N4B d   1       5.972  -1.841   3.023  0.00  0.00     0.002 A 
ATOM      6  C6  N4B d   1       5.904  -2.351   4.304  0.00  0.00     0.002 A 
ENDROOT
BRANCH   1   7
ATOM      7  C1' N4B d   1       5.706  -4.225   5.901  0.00  0.00     0.057 C 
BRANCH   7   8
ATOM      8  C2' N4B d   1       5.249  -5.679   5.841  0.00  0.00     0.009 C 
BRANCH   8   9
ATOM      9  C3' N4B d   1       3.744  -5.808   5.999  0.00  0.00     0.004 C 
ATOM     10  C4' N4B d   1       3.009  -5.663   4.700  0.00  0.00     0.003 C 
ENDBRANCH   8   9
ENDBRANCH   7   8
ENDBRANCH   1   7
TORSDOF 3
ENDMDL
