MODEL 1
REMARK minimizedAffinity 2.69162178
REMARK minimizedRMSD -1
REMARK  3 active torsions:
REMARK  status: ('A' for Active; 'I' for Inactive)
REMARK    1  A    between atoms: C3'_2  and  C2'_3 
REMARK    2  A    between atoms: C2'_3  and  C1'_4 
REMARK    3  A    between atoms: C1'_4  and  C1_5 
ROOT
ATOM      1  C1  N4B d   1       5.154  -4.319   4.105  0.00  0.00    -0.075 A 
ATOM      2  C2  N4B d   1       5.630  -4.965   5.267  0.00  0.00     0.002 A 
ATOM      3  C3  N4B d   1       4.800  -5.796   5.980  0.00  0.00     0.002 A 
ATOM      4  C4  N4B d   1       3.491  -5.980   5.562  0.00  0.00    -0.004 A 
ATOM      5  C5  N4B d   1       3.047  -5.372   4.424  0.00  0.00     0.002 A 
ATOM      6  C6  N4B d   1       3.871  -4.538   3.696  0.00  0.00     0.002 A 
ENDROOT
BRANCH   1   7
ATOM      7  C1' N4B d   1       5.998  -3.335   3.342  0.00  0.00     0.057 C 
BRANCH   7   8
ATOM      8  C2' N4B d   1       5.980  -1.992   4.067  0.00  0.00     0.009 C 
BRANCH   8   9
ATOM      9  C3' N4B d   1       5.806  -2.158   5.567  0.00  0.00     0.004 C 
ATOM     10  C4' N4B d   1       4.371  -2.088   5.997  0.00  0.00     0.003 C 
ENDBRANCH   8   9
ENDBRANCH   7   8
ENDBRANCH   1   7
TORSDOF 3
ENDMDL
