MODEL 1
REMARK minimizedAffinity -3.52912402
REMARK minimizedRMSD -1
REMARK  0 active torsions:
REMARK  status: ('A' for Active; 'I' for Inactive)
ROOT
ATOM      1  C   UNL d   1      -0.471  -0.397   3.305  0.00  0.00     0.023 A 
ATOM      2  C1  UNL d   1       0.377   0.566   2.759  0.00  0.00     0.003 A 
ATOM      3  C2  UNL d   1       0.584   0.614   1.379  0.00  0.00     0.048 A 
ATOM      4  C3  UNL d   1      -0.062  -0.304   0.551  0.00  0.00     0.023 A 
ATOM      5  C4  UNL d   1      -0.913  -1.269   1.093  0.00  0.00     0.048 A 
ATOM      6  C5  UNL d   1      -1.115  -1.313   2.474  0.00  0.00     0.003 A 
ATOM      7  I   UNL d   1       0.243  -0.234  -1.504  0.00  0.00    -0.146 I 
ENDROOT
TORSDOF 0
ENDMDL
