MODEL 1
REMARK minimizedAffinity -2.78351736
REMARK minimizedRMSD -1
REMARK  0 active torsions:
REMARK  status: ('A' for Active; 'I' for Inactive)
ROOT
ATOM      1  C   UNL d   1      -0.378   0.181   3.167  0.00  0.00     0.023 A 
ATOM      2  C1  UNL d   1      -1.244  -0.396   2.238  0.00  0.00     0.003 A 
ATOM      3  C2  UNL d   1      -0.834  -0.574   0.915  0.00  0.00     0.048 A 
ATOM      4  C3  UNL d   1       0.444  -0.174   0.528  0.00  0.00     0.023 A 
ATOM      5  C4  UNL d   1       1.315   0.403   1.453  0.00  0.00     0.048 A 
ATOM      6  C5  UNL d   1       0.900   0.580   2.775  0.00  0.00     0.003 A 
ATOM      7  I   UNL d   1       1.057  -0.439  -1.441  0.00  0.00    -0.146 I 
ENDROOT
TORSDOF 0
ENDMDL
