MODEL 1
REMARK minimizedAffinity -3.29336905
REMARK minimizedRMSD -1
REMARK  0 active torsions:
REMARK  status: ('A' for Active; 'I' for Inactive)
ROOT
ATOM      1  C   UNL d   1      -0.103   0.227   2.934  0.00  0.00     0.023 A 
ATOM      2  C1  UNL d   1       1.045   0.748   2.337  0.00  0.00     0.003 A 
ATOM      3  C2  UNL d   1       1.186   0.721   0.948  0.00  0.00     0.048 A 
ATOM      4  C3  UNL d   1       0.174   0.173   0.161  0.00  0.00     0.023 A 
ATOM      5  C4  UNL d   1      -0.978  -0.349   0.754  0.00  0.00     0.048 A 
ATOM      6  C5  UNL d   1      -1.114  -0.320   2.143  0.00  0.00     0.003 A 
ATOM      7  I   UNL d   1       0.380   0.132  -1.906  0.00  0.00    -0.146 I 
ENDROOT
TORSDOF 0
ENDMDL
