MODEL 1
REMARK minimizedAffinity -4.68777323
REMARK minimizedRMSD -1
REMARK  0 active torsions:
REMARK  status: ('A' for Active; 'I' for Inactive)
ROOT
ATOM      1  C   UNL d   1      -0.137   0.166   2.244  0.00  0.00     0.023 A 
ATOM      2  C1  UNL d   1       1.113   0.451   1.694  0.00  0.00     0.003 A 
ATOM      3  C2  UNL d   1       1.312   0.342   0.316  0.00  0.00     0.048 A 
ATOM      4  C3  UNL d   1       0.257  -0.051  -0.506  0.00  0.00     0.023 A 
ATOM      5  C4  UNL d   1      -0.996  -0.337   0.040  0.00  0.00     0.048 A 
ATOM      6  C5  UNL d   1      -1.190  -0.227   1.419  0.00  0.00     0.003 A 
ATOM      7  I   UNL d   1       0.550  -0.214  -2.557  0.00  0.00    -0.146 I 
ENDROOT
TORSDOF 0
ENDMDL
