MODEL 1
REMARK minimizedAffinity -4.09395218
REMARK minimizedRMSD -1
REMARK  0 active torsions:
REMARK  status: ('A' for Active; 'I' for Inactive)
ROOT
ATOM      1  C   UNL d   1      -0.463  -0.623   3.240  0.00  0.00     0.023 A 
ATOM      2  C1  UNL d   1       0.852  -0.320   2.886  0.00  0.00     0.003 A 
ATOM      3  C2  UNL d   1       1.191  -0.136   1.544  0.00  0.00     0.048 A 
ATOM      4  C3  UNL d   1       0.209  -0.256   0.561  0.00  0.00     0.023 A 
ATOM      5  C4  UNL d   1      -1.108  -0.558   0.910  0.00  0.00     0.048 A 
ATOM      6  C5  UNL d   1      -1.442  -0.742   2.253  0.00  0.00     0.003 A 
ATOM      7  I   UNL d   1       0.711   0.018  -1.438  0.00  0.00    -0.146 I 
ENDROOT
TORSDOF 0
ENDMDL
