MODEL 1
REMARK minimizedAffinity -4.69029903
REMARK minimizedRMSD -1
REMARK  0 active torsions:
REMARK  status: ('A' for Active; 'I' for Inactive)
ROOT
ATOM      1  C   UNL d   1       0.005  -0.103   3.539  0.00  0.00     0.023 A 
ATOM      2  C1  UNL d   1       1.117   0.509   2.961  0.00  0.00     0.003 A 
ATOM      3  C2  UNL d   1       1.185   0.670   1.575  0.00  0.00     0.048 A 
ATOM      4  C3  UNL d   1       0.138   0.217   0.774  0.00  0.00     0.023 A 
ATOM      5  C4  UNL d   1      -0.977  -0.396   1.349  0.00  0.00     0.048 A 
ATOM      6  C5  UNL d   1      -1.041  -0.555   2.734  0.00  0.00     0.003 A 
ATOM      7  I   UNL d   1       0.237   0.454  -1.288  0.00  0.00    -0.146 I 
ENDROOT
TORSDOF 0
ENDMDL
