MODEL 1
REMARK minimizedAffinity -3.44017863
REMARK minimizedRMSD -1
REMARK  0 active torsions:
REMARK  status: ('A' for Active; 'I' for Inactive)
ROOT
ATOM      1  C   UNL d   1       0.037  -0.011   3.030  0.00  0.00     0.023 A 
ATOM      2  C1  UNL d   1       1.286   0.163   2.435  0.00  0.00     0.003 A 
ATOM      3  C2  UNL d   1       1.407   0.145   1.044  0.00  0.00     0.048 A 
ATOM      4  C3  UNL d   1       0.274  -0.045   0.254  0.00  0.00     0.023 A 
ATOM      5  C4  UNL d   1      -0.979  -0.218   0.845  0.00  0.00     0.048 A 
ATOM      6  C5  UNL d   1      -1.094  -0.201   2.236  0.00  0.00     0.003 A 
ATOM      7  I   UNL d   1       0.451  -0.072  -1.817  0.00  0.00    -0.146 I 
ENDROOT
TORSDOF 0
ENDMDL
