MODEL 1
REMARK minimizedAffinity -4.43187094
REMARK minimizedRMSD -1
REMARK  0 active torsions:
REMARK  status: ('A' for Active; 'I' for Inactive)
ROOT
ATOM      1  C   UNL d   1      -0.061  -0.011   2.779  0.00  0.00     0.023 A 
ATOM      2  C1  UNL d   1       1.056   0.539   2.150  0.00  0.00     0.003 A 
ATOM      3  C2  UNL d   1       1.309   0.261   0.806  0.00  0.00     0.048 A 
ATOM      4  C3  UNL d   1       0.440  -0.567   0.095  0.00  0.00     0.023 A 
ATOM      5  C4  UNL d   1      -0.679  -1.119   0.720  0.00  0.00     0.048 A 
ATOM      6  C5  UNL d   1      -0.928  -0.839   2.065  0.00  0.00     0.003 A 
ATOM      7  I   UNL d   1       0.815  -0.983  -1.906  0.00  0.00    -0.146 I 
ENDROOT
TORSDOF 0
ENDMDL
