MODEL 1
REMARK minimizedAffinity -2.92727065
REMARK minimizedRMSD -1
REMARK  0 active torsions:
REMARK  status: ('A' for Active; 'I' for Inactive)
ROOT
ATOM      1  C   UNL d   1      -0.812   0.098   3.651  0.00  0.00     0.023 A 
ATOM      2  C1  UNL d   1      -1.881   0.069   2.756  0.00  0.00     0.003 A 
ATOM      3  C2  UNL d   1      -1.642   0.083   1.380  0.00  0.00     0.048 A 
ATOM      4  C3  UNL d   1      -0.331   0.125   0.907  0.00  0.00     0.023 A 
ATOM      5  C4  UNL d   1       0.742   0.153   1.799  0.00  0.00     0.048 A 
ATOM      6  C5  UNL d   1       0.498   0.140   3.173  0.00  0.00     0.003 A 
ATOM      7  I   UNL d   1       0.027   0.145  -1.141  0.00  0.00    -0.146 I 
ENDROOT
TORSDOF 0
ENDMDL
