MODEL 1
REMARK minimizedAffinity -3.57733536
REMARK minimizedRMSD -1
REMARK  0 active torsions:
REMARK  status: ('A' for Active; 'I' for Inactive)
ROOT
ATOM      1  C   UNL d   1      -0.451  -0.125   3.149  0.00  0.00     0.023 A 
ATOM      2  C1  UNL d   1      -1.471  -0.280   2.210  0.00  0.00     0.003 A 
ATOM      3  C2  UNL d   1      -1.167  -0.324   0.848  0.00  0.00     0.048 A 
ATOM      4  C3  UNL d   1       0.159  -0.213   0.432  0.00  0.00     0.023 A 
ATOM      5  C4  UNL d   1       1.183  -0.058   1.368  0.00  0.00     0.048 A 
ATOM      6  C5  UNL d   1       0.875  -0.014   2.728  0.00  0.00     0.003 A 
ATOM      7  I   UNL d   1       0.614  -0.277  -1.595  0.00  0.00    -0.146 I 
ENDROOT
TORSDOF 0
ENDMDL
