MODEL 1
REMARK minimizedAffinity -3.09721541
REMARK minimizedRMSD -1
REMARK  0 active torsions:
REMARK  status: ('A' for Active; 'I' for Inactive)
ROOT
ATOM      1  C   UNL d   1      -0.468  -0.040   3.215  0.00  0.00     0.023 A 
ATOM      2  C1  UNL d   1       0.720   0.505   2.726  0.00  0.00     0.003 A 
ATOM      3  C2  UNL d   1       0.964   0.529   1.351  0.00  0.00     0.048 A 
ATOM      4  C3  UNL d   1       0.016   0.007   0.471  0.00  0.00     0.023 A 
ATOM      5  C4  UNL d   1      -1.174  -0.538   0.956  0.00  0.00     0.048 A 
ATOM      6  C5  UNL d   1      -1.413  -0.560   2.332  0.00  0.00     0.003 A 
ATOM      7  I   UNL d   1       0.376   0.042  -1.575  0.00  0.00    -0.146 I 
ENDROOT
TORSDOF 0
ENDMDL
