MODEL 1
REMARK minimizedAffinity -2.92665172
REMARK minimizedRMSD -1
REMARK  1 active torsions:
REMARK  status: ('A' for Active; 'I' for Inactive)
REMARK    1  A    between atoms: C1_2  and  C2_3 
ROOT
ATOM      1  C2  UNL d   1       0.057   0.075  -0.062  0.00  0.00    -0.073 A 
ATOM      2  C3  UNL d   1       1.389   0.448   0.152  0.00  0.00    -0.002 A 
ATOM      3  C4  UNL d   1       1.900   0.526   1.448  0.00  0.00     0.004 A 
ATOM      4  C5  UNL d   1       1.088   0.226   2.542  0.00  0.00    -0.004 A 
ATOM      5  C6  UNL d   1      -0.242  -0.161   2.348  0.00  0.00    -0.075 A 
ATOM      6  C7  UNL d   1      -1.129  -0.485   3.514  0.00  0.00     0.076 C 
ATOM      7  C8  UNL d   1      -0.749  -0.234   1.043  0.00  0.00     0.001 A 
ENDROOT
BRANCH   1   8
ATOM      8  C1  UNL d   1      -0.497  -0.017  -1.460  0.00  0.00     0.053 C 
ATOM      9  C   UNL d   1       0.585  -0.323  -2.483  0.00  0.00     0.018 C 
ENDBRANCH   1   8
TORSDOF 1
ENDMDL
