MODEL 1
REMARK minimizedAffinity -3.59855604
REMARK minimizedRMSD -1
REMARK  1 active torsions:
REMARK  status: ('A' for Active; 'I' for Inactive)
REMARK    1  A    between atoms: C1_2  and  C2_3 
ROOT
ATOM      1  C2  UNL d   1       0.765  -1.415  -0.348  0.00  0.00    -0.073 A 
ATOM      2  C3  UNL d   1      -0.055  -0.574  -1.109  0.00  0.00    -0.002 A 
ATOM      3  C4  UNL d   1      -0.945   0.299  -0.481  0.00  0.00     0.004 A 
ATOM      4  C5  UNL d   1      -1.020   0.344   0.911  0.00  0.00    -0.004 A 
ATOM      5  C6  UNL d   1      -0.200  -0.480   1.688  0.00  0.00    -0.075 A 
ATOM      6  C7  UNL d   1      -0.269  -0.444   3.187  0.00  0.00     0.076 C 
ATOM      7  C8  UNL d   1       0.689  -1.355   1.051  0.00  0.00     0.001 A 
ENDROOT
BRANCH   1   8
ATOM      8  C1  UNL d   1       1.732  -2.355  -1.021  0.00  0.00     0.053 C 
ATOM      9  C   UNL d   1       1.431  -2.518  -2.502  0.00  0.00     0.018 C 
ENDBRANCH   1   8
TORSDOF 1
ENDMDL
