MODEL 1
REMARK minimizedAffinity -4.3342061
REMARK minimizedRMSD -1
REMARK  1 active torsions:
REMARK  status: ('A' for Active; 'I' for Inactive)
REMARK    1  A    between atoms: C1_2  and  C2_3 
ROOT
ATOM      1  C2  UNL d   1      -0.065  -0.220  -1.351  0.00  0.00    -0.073 A 
ATOM      2  C3  UNL d   1      -1.322   0.369  -1.524  0.00  0.00    -0.002 A 
ATOM      3  C4  UNL d   1      -2.209   0.464  -0.450  0.00  0.00     0.004 A 
ATOM      4  C5  UNL d   1      -1.845  -0.021   0.806  0.00  0.00    -0.004 A 
ATOM      5  C6  UNL d   1      -0.588  -0.602   1.001  0.00  0.00    -0.075 A 
ATOM      6  C7  UNL d   1      -0.183  -1.131   2.345  0.00  0.00     0.076 C 
ATOM      7  C8  UNL d   1       0.295  -0.697  -0.083  0.00  0.00     0.001 A 
ENDROOT
BRANCH   1   8
ATOM      8  C1  UNL d   1       0.899  -0.320  -2.506  0.00  0.00     0.053 C 
ATOM      9  C   UNL d   1       0.467  -1.367  -3.520  0.00  0.00     0.018 C 
ENDBRANCH   1   8
TORSDOF 1
ENDMDL
