MODEL 1
REMARK minimizedAffinity -4.14134359
REMARK minimizedRMSD -1
REMARK  1 active torsions:
REMARK  status: ('A' for Active; 'I' for Inactive)
REMARK    1  A    between atoms: C1_2  and  C2_3 
ROOT
ATOM      1  C2  UNL d   1       0.192  -0.680  -0.702  0.00  0.00    -0.073 A 
ATOM      2  C3  UNL d   1       1.007   0.453  -0.603  0.00  0.00    -0.002 A 
ATOM      3  C4  UNL d   1       1.262   1.032   0.641  0.00  0.00     0.004 A 
ATOM      4  C5  UNL d   1       0.710   0.481   1.798  0.00  0.00    -0.004 A 
ATOM      5  C6  UNL d   1      -0.098  -0.658   1.721  0.00  0.00    -0.075 A 
ATOM      6  C7  UNL d   1      -0.701  -1.262   2.955  0.00  0.00     0.076 C 
ATOM      7  C8  UNL d   1      -0.351  -1.232   0.467  0.00  0.00     0.001 A 
ENDROOT
BRANCH   1   8
ATOM      8  C1  UNL d   1      -0.080  -1.312  -2.042  0.00  0.00     0.053 C 
ATOM      9  C   UNL d   1       1.069  -1.103  -3.015  0.00  0.00     0.018 C 
ENDBRANCH   1   8
TORSDOF 1
ENDMDL
