MODEL 1
REMARK minimizedAffinity -3.5528152
REMARK minimizedRMSD -1
REMARK  1 active torsions:
REMARK  status: ('A' for Active; 'I' for Inactive)
REMARK    1  A    between atoms: C1_2  and  C2_3 
ROOT
ATOM      1  C2  UNL d   1      -0.098   0.011  -0.752  0.00  0.00    -0.073 A 
ATOM      2  C3  UNL d   1      -1.444   0.330  -0.963  0.00  0.00    -0.002 A 
ATOM      3  C4  UNL d   1      -2.360   0.252   0.087  0.00  0.00     0.004 A 
ATOM      4  C5  UNL d   1      -1.940  -0.138   1.358  0.00  0.00    -0.004 A 
ATOM      5  C6  UNL d   1      -0.597  -0.450   1.592  0.00  0.00    -0.075 A 
ATOM      6  C7  UNL d   1      -0.129  -0.873   2.953  0.00  0.00     0.076 C 
ATOM      7  C8  UNL d   1       0.317  -0.372   0.532  0.00  0.00     0.001 A 
ENDROOT
BRANCH   1   8
ATOM      8  C1  UNL d   1       0.896   0.100  -1.880  0.00  0.00     0.053 C 
ATOM      9  C   UNL d   1       0.892  -1.152  -2.743  0.00  0.00     0.018 C 
ENDBRANCH   1   8
TORSDOF 1
ENDMDL
