MODEL 1
REMARK minimizedAffinity -4.39226437
REMARK minimizedRMSD -1
REMARK  1 active torsions:
REMARK  status: ('A' for Active; 'I' for Inactive)
REMARK    1  A    between atoms: C1_2  and  C2_3 
ROOT
ATOM      1  C2  UNL d   1       0.486   0.071  -0.808  0.00  0.00    -0.073 A 
ATOM      2  C3  UNL d   1       1.290  -0.081   0.328  0.00  0.00    -0.002 A 
ATOM      3  C4  UNL d   1       0.714  -0.109   1.599  0.00  0.00     0.004 A 
ATOM      4  C5  UNL d   1      -0.668   0.008   1.748  0.00  0.00    -0.004 A 
ATOM      5  C6  UNL d   1      -1.488   0.148   0.624  0.00  0.00    -0.075 A 
ATOM      6  C7  UNL d   1      -2.976   0.277   0.766  0.00  0.00     0.076 C 
ATOM      7  C8  UNL d   1      -0.903   0.179  -0.649  0.00  0.00     0.001 A 
ENDROOT
BRANCH   1   8
ATOM      8  C1  UNL d   1       1.102   0.096  -2.183  0.00  0.00     0.053 C 
ATOM      9  C   UNL d   1       1.037  -1.263  -2.861  0.00  0.00     0.018 C 
ENDBRANCH   1   8
TORSDOF 1
ENDMDL
