MODEL 1
REMARK minimizedAffinity -3.77677441
REMARK minimizedRMSD -1
REMARK  1 active torsions:
REMARK  status: ('A' for Active; 'I' for Inactive)
REMARK    1  A    between atoms: C1_2  and  C2_3 
ROOT
ATOM      1  C2  UNL d   1       0.397  -0.544  -0.441  0.00  0.00    -0.073 A 
ATOM      2  C3  UNL d   1       1.276   0.523  -0.221  0.00  0.00    -0.002 A 
ATOM      3  C4  UNL d   1       1.406   1.077   1.053  0.00  0.00     0.004 A 
ATOM      4  C5  UNL d   1       0.666   0.567   2.120  0.00  0.00    -0.004 A 
ATOM      5  C6  UNL d   1      -0.208  -0.507   1.922  0.00  0.00    -0.075 A 
ATOM      6  C7  UNL d   1      -1.013  -1.066   3.058  0.00  0.00     0.076 C 
ATOM      7  C8  UNL d   1      -0.336  -1.056   0.639  0.00  0.00     0.001 A 
ENDROOT
BRANCH   1   8
ATOM      8  C1  UNL d   1       0.258  -1.149  -1.814  0.00  0.00     0.053 C 
ATOM      9  C   UNL d   1       1.475  -0.876  -2.684  0.00  0.00     0.018 C 
ENDBRANCH   1   8
TORSDOF 1
ENDMDL
