MODEL 1
REMARK minimizedAffinity 3.55251646
REMARK minimizedRMSD -1
REMARK  1 active torsions:
REMARK  status: ('A' for Active; 'I' for Inactive)
REMARK    1  A    between atoms: C1_2  and  C2_3 
ROOT
ATOM      1  C2  UNL d   1       2.432  -0.564  -0.628  0.00  0.00    -0.073 A 
ATOM      2  C3  UNL d   1       2.425   0.761  -0.175  0.00  0.00    -0.002 A 
ATOM      3  C4  UNL d   1       1.265   1.313   0.369  0.00  0.00     0.004 A 
ATOM      4  C5  UNL d   1       0.104   0.547   0.473  0.00  0.00    -0.004 A 
ATOM      5  C6  UNL d   1       0.095  -0.782   0.037  0.00  0.00    -0.075 A 
ATOM      6  C7  UNL d   1      -1.146  -1.619   0.140  0.00  0.00     0.076 C 
ATOM      7  C8  UNL d   1       1.263  -1.329  -0.511  0.00  0.00     0.001 A 
ENDROOT
BRANCH   1   8
ATOM      8  C1  UNL d   1       3.684  -1.167  -1.210  0.00  0.00     0.053 C 
ATOM      9  C   UNL d   1       3.374  -2.224  -2.257  0.00  0.00     0.018 C 
ENDBRANCH   1   8
TORSDOF 1
ENDMDL
