MODEL 1
REMARK minimizedAffinity 1.72466767
REMARK minimizedRMSD -1
REMARK  1 active torsions:
REMARK  status: ('A' for Active; 'I' for Inactive)
REMARK    1  A    between atoms: C1_2  and  C2_3 
ROOT
ATOM      1  C2  UNL d   1       2.014  -2.117  -1.000  0.00  0.00    -0.073 A 
ATOM      2  C3  UNL d   1       2.707  -2.715  -2.059  0.00  0.00    -0.002 A 
ATOM      3  C4  UNL d   1       3.781  -2.056  -2.659  0.00  0.00     0.004 A 
ATOM      4  C5  UNL d   1       4.177  -0.799  -2.203  0.00  0.00    -0.004 A 
ATOM      5  C6  UNL d   1       3.505  -0.191  -1.138  0.00  0.00    -0.075 A 
ATOM      6  C7  UNL d   1       3.918   1.161  -0.636  0.00  0.00     0.076 C 
ATOM      7  C8  UNL d   1       2.426  -0.858  -0.542  0.00  0.00     0.001 A 
ENDROOT
BRANCH   1   8
ATOM      8  C1  UNL d   1       0.858  -2.827  -0.345  0.00  0.00     0.053 C 
ATOM      9  C   UNL d   1      -0.399  -1.971  -0.323  0.00  0.00     0.018 C 
ENDBRANCH   1   8
TORSDOF 1
ENDMDL
