MODEL 1
REMARK minimizedAffinity 4.43033695
REMARK minimizedRMSD -1
REMARK  1 active torsions:
REMARK  status: ('A' for Active; 'I' for Inactive)
REMARK    1  A    between atoms: C1_2  and  C2_3 
ROOT
ATOM      1  C2  UNL d   1       2.298  -1.395  -0.913  0.00  0.00    -0.073 A 
ATOM      2  C3  UNL d   1       1.776  -2.672  -0.678  0.00  0.00    -0.002 A 
ATOM      3  C4  UNL d   1       0.407  -2.846  -0.467  0.00  0.00     0.004 A 
ATOM      4  C5  UNL d   1      -0.453  -1.748  -0.496  0.00  0.00    -0.004 A 
ATOM      5  C6  UNL d   1       0.049  -0.465  -0.742  0.00  0.00    -0.075 A 
ATOM      6  C7  UNL d   1      -0.863   0.726  -0.774  0.00  0.00     0.076 C 
ATOM      7  C8  UNL d   1       1.424  -0.299  -0.950  0.00  0.00     0.001 A 
ENDROOT
BRANCH   1   8
ATOM      8  C1  UNL d   1       3.774  -1.203  -1.148  0.00  0.00     0.053 C 
ATOM      9  C   UNL d   1       4.163   0.267  -1.162  0.00  0.00     0.018 C 
ENDBRANCH   1   8
TORSDOF 1
ENDMDL
