MODEL 1
REMARK minimizedAffinity 2.16523552
REMARK minimizedRMSD -1
REMARK  1 active torsions:
REMARK  status: ('A' for Active; 'I' for Inactive)
REMARK    1  A    between atoms: C1_2  and  C2_3 
ROOT
ATOM      1  C2  UNL d   1       1.471  -1.395  -0.406  0.00  0.00    -0.073 A 
ATOM      2  C3  UNL d   1       0.637  -0.388   0.093  0.00  0.00    -0.002 A 
ATOM      3  C4  UNL d   1       1.119   0.913   0.250  0.00  0.00     0.004 A 
ATOM      4  C5  UNL d   1       2.434   1.221  -0.096  0.00  0.00    -0.004 A 
ATOM      5  C6  UNL d   1       3.279   0.231  -0.607  0.00  0.00    -0.075 A 
ATOM      6  C7  UNL d   1       4.698   0.545  -0.982  0.00  0.00     0.076 C 
ATOM      7  C8  UNL d   1       2.789  -1.073  -0.760  0.00  0.00     0.001 A 
ENDROOT
BRANCH   1   8
ATOM      8  C1  UNL d   1       0.954  -2.799  -0.584  0.00  0.00     0.053 C 
ATOM      9  C   UNL d   1      -0.495  -2.818  -1.047  0.00  0.00     0.018 C 
ENDBRANCH   1   8
TORSDOF 1
ENDMDL
