MODEL 1
REMARK minimizedAffinity 1.89597464
REMARK minimizedRMSD -1
REMARK  1 active torsions:
REMARK  status: ('A' for Active; 'I' for Inactive)
REMARK    1  A    between atoms: C1_2  and  C2_3 
ROOT
ATOM      1  C2  UNL d   1       1.765  -0.996  -0.738  0.00  0.00    -0.073 A 
ATOM      2  C3  UNL d   1       1.241   0.264  -0.427  0.00  0.00    -0.002 A 
ATOM      3  C4  UNL d   1      -0.139   0.471  -0.416  0.00  0.00     0.004 A 
ATOM      4  C5  UNL d   1      -1.009  -0.579  -0.707  0.00  0.00    -0.004 A 
ATOM      5  C6  UNL d   1      -0.505  -1.849  -1.009  0.00  0.00    -0.075 A 
ATOM      6  C7  UNL d   1      -1.428  -2.989  -1.327  0.00  0.00     0.076 C 
ATOM      7  C8  UNL d   1       0.882  -2.048  -1.021  0.00  0.00     0.001 A 
ENDROOT
BRANCH   1   8
ATOM      8  C1  UNL d   1       3.254  -1.226  -0.746  0.00  0.00     0.053 C 
ATOM      9  C   UNL d   1       4.012  -0.031  -1.301  0.00  0.00     0.018 C 
ENDBRANCH   1   8
TORSDOF 1
ENDMDL
