MODEL 1
REMARK minimizedAffinity 7.94310617
REMARK minimizedRMSD -1
REMARK  1 active torsions:
REMARK  status: ('A' for Active; 'I' for Inactive)
REMARK    1  A    between atoms: C3_4  and  O_7 
ROOT
ATOM      1  C   UNL d   1       0.460  -4.216  -3.645  0.00  0.00    -0.033 A 
ATOM      2  C1  UNL d   1       1.523  -5.019  -3.224  0.00  0.00     0.039 A 
ATOM      3  C2  UNL d   1       1.861  -5.079  -1.871  0.00  0.00    -0.080 A 
ATOM      4  C3  UNL d   1       1.131  -4.334  -0.950  0.00  0.00     0.150 A 
ATOM      5  C4  UNL d   1       0.069  -3.535  -1.361  0.00  0.00    -0.007 A 
ATOM      6  C5  UNL d   1      -0.267  -3.475  -2.713  0.00  0.00     0.039 A 
ENDROOT
BRANCH   4   7
ATOM      7  O   UNL d   1       1.427  -4.357   0.381  0.00  0.00    -0.526 OA
ATOM      8  H5  UNL d   1       2.201  -4.929   0.514  0.00  0.00     0.418 HD
ENDBRANCH   4   7
TORSDOF 1
ENDMDL
