MODEL 1
REMARK minimizedAffinity 3.29767728
REMARK minimizedRMSD -1
REMARK  1 active torsions:
REMARK  status: ('A' for Active; 'I' for Inactive)
REMARK    1  A    between atoms: C3_4  and  O_7 
ROOT
ATOM      1  C   UNL d   1       3.611  -4.677  -1.212  0.00  0.00    -0.033 A 
ATOM      2  C1  UNL d   1       2.731  -4.799  -2.289  0.00  0.00     0.039 A 
ATOM      3  C2  UNL d   1       1.398  -4.406  -2.152  0.00  0.00    -0.080 A 
ATOM      4  C3  UNL d   1       0.959  -3.892  -0.935  0.00  0.00     0.150 A 
ATOM      5  C4  UNL d   1       1.831  -3.764   0.141  0.00  0.00    -0.007 A 
ATOM      6  C5  UNL d   1       3.162  -4.158   0.003  0.00  0.00     0.039 A 
ENDROOT
BRANCH   4   7
ATOM      7  O   UNL d   1      -0.333  -3.499  -0.752  0.00  0.00    -0.526 OA
ATOM      8  H5  UNL d   1      -0.827  -3.672  -1.571  0.00  0.00     0.418 HD
ENDBRANCH   4   7
TORSDOF 1
ENDMDL
