MODEL 1
REMARK minimizedAffinity 10.5234318
REMARK minimizedRMSD -1
REMARK  1 active torsions:
REMARK  status: ('A' for Active; 'I' for Inactive)
REMARK    1  A    between atoms: C3_4  and  O_7 
ROOT
ATOM      1  C   UNL d   1       1.950  -2.259   4.467  0.00  0.00    -0.033 A 
ATOM      2  C1  UNL d   1       2.361  -1.345   3.496  0.00  0.00     0.039 A 
ATOM      3  C2  UNL d   1       1.606  -0.196   3.250  0.00  0.00    -0.080 A 
ATOM      4  C3  UNL d   1       0.443   0.027   3.983  0.00  0.00     0.150 A 
ATOM      5  C4  UNL d   1       0.030  -0.878   4.956  0.00  0.00    -0.007 A 
ATOM      6  C5  UNL d   1       0.785  -2.025   5.199  0.00  0.00     0.039 A 
ENDROOT
BRANCH   4   7
ATOM      7  O   UNL d   1      -0.329   1.131   3.776  0.00  0.00    -0.526 OA
ATOM      8  H5  UNL d   1       0.064   1.651   3.056  0.00  0.00     0.418 HD
ENDBRANCH   4   7
TORSDOF 1
ENDMDL
