MODEL 1
REMARK minimizedAffinity 8.38636398
REMARK minimizedRMSD -1
REMARK  1 active torsions:
REMARK  status: ('A' for Active; 'I' for Inactive)
REMARK    1  A    between atoms: C3_4  and  O_7 
ROOT
ATOM      1  C   UNL d   1       1.475   3.747  -2.647  0.00  0.00    -0.033 A 
ATOM      2  C1  UNL d   1       2.183   4.775  -3.272  0.00  0.00     0.039 A 
ATOM      3  C2  UNL d   1       3.091   5.543  -2.542  0.00  0.00    -0.080 A 
ATOM      4  C3  UNL d   1       3.282   5.274  -1.189  0.00  0.00     0.150 A 
ATOM      5  C4  UNL d   1       2.583   4.248  -0.561  0.00  0.00    -0.007 A 
ATOM      6  C5  UNL d   1       1.676   3.483  -1.292  0.00  0.00     0.039 A 
ENDROOT
BRANCH   4   7
ATOM      7  O   UNL d   1       4.155   6.000  -0.434  0.00  0.00    -0.526 OA
ATOM      8  H5  UNL d   1       4.544   6.692  -0.994  0.00  0.00     0.418 HD
ENDBRANCH   4   7
TORSDOF 1
ENDMDL
