MODEL 1
REMARK minimizedAffinity 8.02693081
REMARK minimizedRMSD -1
REMARK  1 active torsions:
REMARK  status: ('A' for Active; 'I' for Inactive)
REMARK    1  A    between atoms: C3_4  and  O_7 
ROOT
ATOM      1  C   UNL d   1      -0.883   2.403   0.846  0.00  0.00    -0.033 A 
ATOM      2  C1  UNL d   1      -1.423   3.316  -0.062  0.00  0.00     0.039 A 
ATOM      3  C2  UNL d   1      -0.646   3.795  -1.119  0.00  0.00    -0.080 A 
ATOM      4  C3  UNL d   1       0.667   3.353  -1.256  0.00  0.00     0.150 A 
ATOM      5  C4  UNL d   1       1.210   2.441  -0.358  0.00  0.00    -0.007 A 
ATOM      6  C5  UNL d   1       0.433   1.964   0.697  0.00  0.00     0.039 A 
ENDROOT
BRANCH   4   7
ATOM      7  O   UNL d   1       1.465   3.796  -2.269  0.00  0.00    -0.526 OA
ATOM      8  H5  UNL d   1       0.965   4.444  -2.794  0.00  0.00     0.418 HD
ENDBRANCH   4   7
TORSDOF 1
ENDMDL
