MODEL 1
REMARK minimizedAffinity 6.70688248
REMARK minimizedRMSD -1
REMARK  1 active torsions:
REMARK  status: ('A' for Active; 'I' for Inactive)
REMARK    1  A    between atoms: C3_4  and  O_7 
ROOT
ATOM      1  C   UNL d   1       0.741  -1.017   4.139  0.00  0.00    -0.033 A 
ATOM      2  C1  UNL d   1       1.865  -1.549   3.503  0.00  0.00     0.039 A 
ATOM      3  C2  UNL d   1       2.599  -2.567   4.114  0.00  0.00    -0.080 A 
ATOM      4  C3  UNL d   1       2.198  -3.045   5.359  0.00  0.00     0.150 A 
ATOM      5  C4  UNL d   1       1.078  -2.523   5.996  0.00  0.00    -0.007 A 
ATOM      6  C5  UNL d   1       0.347  -1.505   5.385  0.00  0.00     0.039 A 
ENDROOT
BRANCH   4   7
ATOM      7  O   UNL d   1       2.886  -4.034   5.997  0.00  0.00    -0.526 OA
ATOM      8  H5  UNL d   1       3.652  -4.278   5.452  0.00  0.00     0.418 HD
ENDBRANCH   4   7
TORSDOF 1
ENDMDL
