MODEL 1
REMARK minimizedAffinity 8.93729782
REMARK minimizedRMSD -1
REMARK  1 active torsions:
REMARK  status: ('A' for Active; 'I' for Inactive)
REMARK    1  A    between atoms: C3_4  and  O_7 
ROOT
ATOM      1  C   UNL d   1      -0.744   2.305   0.513  0.00  0.00    -0.033 A 
ATOM      2  C1  UNL d   1      -1.190   3.071  -0.566  0.00  0.00     0.039 A 
ATOM      3  C2  UNL d   1      -0.271   3.748  -1.370  0.00  0.00    -0.080 A 
ATOM      4  C3  UNL d   1       1.089   3.650  -1.086  0.00  0.00     0.150 A 
ATOM      5  C4  UNL d   1       1.540   2.885  -0.015  0.00  0.00    -0.007 A 
ATOM      6  C5  UNL d   1       0.621   2.211   0.787  0.00  0.00     0.039 A 
ENDROOT
BRANCH   4   7
ATOM      7  O   UNL d   1       2.022   4.297  -1.839  0.00  0.00    -0.526 OA
ATOM      8  H5  UNL d   1       1.563   4.809  -2.525  0.00  0.00     0.418 HD
ENDBRANCH   4   7
TORSDOF 1
ENDMDL
