MODEL 1
REMARK minimizedAffinity 4.46713161
REMARK minimizedRMSD -1
REMARK  1 active torsions:
REMARK  status: ('A' for Active; 'I' for Inactive)
REMARK    1  A    between atoms: C3_4  and  O_7 
ROOT
ATOM      1  C   UNL d   1      -0.480   3.234   0.007  0.00  0.00    -0.033 A 
ATOM      2  C1  UNL d   1       0.798   2.829   0.398  0.00  0.00     0.039 A 
ATOM      3  C2  UNL d   1       0.968   2.076   1.561  0.00  0.00    -0.080 A 
ATOM      4  C3  UNL d   1      -0.146   1.733   2.322  0.00  0.00     0.150 A 
ATOM      5  C4  UNL d   1      -1.422   2.130   1.937  0.00  0.00    -0.007 A 
ATOM      6  C5  UNL d   1      -1.590   2.883   0.776  0.00  0.00     0.039 A 
ENDROOT
BRANCH   4   7
ATOM      7  O   UNL d   1      -0.029   1.003   3.468  0.00  0.00    -0.526 OA
ATOM      8  H5  UNL d   1       0.914   0.825   3.624  0.00  0.00     0.418 HD
ENDBRANCH   4   7
TORSDOF 1
ENDMDL
