MODEL 1
REMARK minimizedAffinity 8.77152348
REMARK minimizedRMSD -1
REMARK  1 active torsions:
REMARK  status: ('A' for Active; 'I' for Inactive)
REMARK    1  A    between atoms: C3_4  and  O_7 
ROOT
ATOM      1  C   UNL d   1      -3.820   4.025  -2.972  0.00  0.00    -0.033 A 
ATOM      2  C1  UNL d   1      -3.471   4.221  -4.309  0.00  0.00     0.039 A 
ATOM      3  C2  UNL d   1      -3.854   3.290  -5.276  0.00  0.00    -0.080 A 
ATOM      4  C3  UNL d   1      -4.585   2.168  -4.893  0.00  0.00     0.150 A 
ATOM      5  C4  UNL d   1      -4.938   1.968  -3.563  0.00  0.00    -0.007 A 
ATOM      6  C5  UNL d   1      -4.554   2.899  -2.599  0.00  0.00     0.039 A 
ENDROOT
BRANCH   4   7
ATOM      7  O   UNL d   1      -4.977   1.230  -5.801  0.00  0.00    -0.526 OA
ATOM      8  H5  UNL d   1      -4.637   1.485  -6.675  0.00  0.00     0.418 HD
ENDBRANCH   4   7
TORSDOF 1
ENDMDL
