MODEL 1
REMARK minimizedAffinity 9.24830532
REMARK minimizedRMSD -1
REMARK  1 active torsions:
REMARK  status: ('A' for Active; 'I' for Inactive)
REMARK    1  A    between atoms: C3_4  and  O_7 
ROOT
ATOM      1  C   UNL d   1      -1.305   1.771   1.390  0.00  0.00    -0.033 A 
ATOM      2  C1  UNL d   1      -1.905   2.517   0.373  0.00  0.00     0.039 A 
ATOM      3  C2  UNL d   1      -1.125   3.057  -0.652  0.00  0.00    -0.080 A 
ATOM      4  C3  UNL d   1       0.250   2.843  -0.649  0.00  0.00     0.150 A 
ATOM      5  C4  UNL d   1       0.854   2.098   0.358  0.00  0.00    -0.007 A 
ATOM      6  C5  UNL d   1       0.074   1.560   1.382  0.00  0.00     0.039 A 
ENDROOT
BRANCH   4   7
ATOM      7  O   UNL d   1       1.053   3.353  -1.626  0.00  0.00    -0.526 OA
ATOM      8  H5  UNL d   1       0.502   3.869  -2.238  0.00  0.00     0.418 HD
ENDBRANCH   4   7
TORSDOF 1
ENDMDL
