MODEL 1
REMARK minimizedAffinity 9.18565464
REMARK minimizedRMSD -1
REMARK  0 active torsions:
REMARK  status: ('A' for Active; 'I' for Inactive)
ROOT
ATOM      1  C1  BNZ d   1      -0.700   1.421   2.017  0.00  0.00     0.000 A 
ATOM      2  C2  BNZ d   1      -1.909   1.058   1.487  0.00  0.00     0.000 A 
ATOM      3  C3  BNZ d   1      -2.173  -0.246   1.173  0.00  0.00     0.000 A 
ATOM      4  C4  BNZ d   1      -1.214  -1.177   1.351  0.00  0.00     0.000 A 
ATOM      5  C5  BNZ d   1       0.014  -0.826   1.875  0.00  0.00     0.000 A 
ATOM      6  C6  BNZ d   1       0.262   0.481   2.227  0.00  0.00     0.000 A 
ENDROOT
TORSDOF 0
ENDMDL
