MODEL 1
REMARK minimizedAffinity 6.99932528
REMARK minimizedRMSD -1
REMARK  0 active torsions:
REMARK  status: ('A' for Active; 'I' for Inactive)
ROOT
ATOM      1  C1  BNZ d   1       1.112  -0.547   4.142  0.00  0.00     0.000 A 
ATOM      2  C2  BNZ d   1       0.701   0.757   4.214  0.00  0.00     0.000 A 
ATOM      3  C3  BNZ d   1       0.103   1.363   3.145  0.00  0.00     0.000 A 
ATOM      4  C4  BNZ d   1      -0.045   0.677   1.992  0.00  0.00     0.000 A 
ATOM      5  C5  BNZ d   1       0.373  -0.635   1.901  0.00  0.00     0.000 A 
ATOM      6  C6  BNZ d   1       0.939  -1.254   2.992  0.00  0.00     0.000 A 
ENDROOT
TORSDOF 0
ENDMDL
