MODEL 1
REMARK minimizedAffinity 9.13586235
REMARK minimizedRMSD -1
REMARK  0 active torsions:
REMARK  status: ('A' for Active; 'I' for Inactive)
ROOT
ATOM      1  C1  BNZ d   1       0.842   0.249   3.532  0.00  0.00     0.000 A 
ATOM      2  C2  BNZ d   1       1.195   0.414   4.844  0.00  0.00     0.000 A 
ATOM      3  C3  BNZ d   1       0.713   1.467   5.571  0.00  0.00     0.000 A 
ATOM      4  C4  BNZ d   1      -0.086   2.374   4.974  0.00  0.00     0.000 A 
ATOM      5  C5  BNZ d   1      -0.443   2.226   3.648  0.00  0.00     0.000 A 
ATOM      6  C6  BNZ d   1       0.012   1.144   2.931  0.00  0.00     0.000 A 
ENDROOT
TORSDOF 0
ENDMDL
