MODEL 1
REMARK minimizedAffinity 13.4138708
REMARK minimizedRMSD -1
REMARK  0 active torsions:
REMARK  status: ('A' for Active; 'I' for Inactive)
ROOT
ATOM      1  C1  BNZ d   1       5.997   2.745  -6.000  0.00  0.00     0.000 A 
ATOM      2  C2  BNZ d   1       6.000   1.395  -5.772  0.00  0.00     0.000 A 
ATOM      3  C3  BNZ d   1       4.837   0.728  -5.502  0.00  0.00     0.000 A 
ATOM      4  C4  BNZ d   1       3.681   1.418  -5.421  0.00  0.00     0.000 A 
ATOM      5  C5  BNZ d   1       3.663   2.781  -5.639  0.00  0.00     0.000 A 
ATOM      6  C6  BNZ d   1       4.830   3.443  -5.948  0.00  0.00     0.000 A 
ENDROOT
TORSDOF 0
ENDMDL
