MODEL 1
REMARK minimizedAffinity 3.7677536
REMARK minimizedRMSD -1
REMARK  0 active torsions:
REMARK  status: ('A' for Active; 'I' for Inactive)
ROOT
ATOM      1  C1  BNZ d   1       3.674   1.131  -5.648  0.00  0.00     0.000 A 
ATOM      2  C2  BNZ d   1       3.687   2.455  -5.998  0.00  0.00     0.000 A 
ATOM      3  C3  BNZ d   1       4.853   3.167  -6.000  0.00  0.00     0.000 A 
ATOM      4  C4  BNZ d   1       5.997   2.567  -5.614  0.00  0.00     0.000 A 
ATOM      5  C5  BNZ d   1       5.999   1.235  -5.250  0.00  0.00     0.000 A 
ATOM      6  C6  BNZ d   1       4.830   0.511  -5.287  0.00  0.00     0.000 A 
ENDROOT
TORSDOF 0
ENDMDL
