MODEL 1
REMARK minimizedAffinity 14.7046194
REMARK minimizedRMSD -1
REMARK  0 active torsions:
REMARK  status: ('A' for Active; 'I' for Inactive)
ROOT
ATOM      1  C1  BNZ d   1       1.664  -1.906  -4.482  0.00  0.00     0.000 A 
ATOM      2  C2  BNZ d   1       1.126  -0.647  -4.503  0.00  0.00     0.000 A 
ATOM      3  C3  BNZ d   1       0.012  -0.375  -5.247  0.00  0.00     0.000 A 
ATOM      4  C4  BNZ d   1      -0.538  -1.350  -5.999  0.00  0.00     0.000 A 
ATOM      5  C5  BNZ d   1      -0.001  -2.622  -5.996  0.00  0.00     0.000 A 
ATOM      6  C6  BNZ d   1       1.097  -2.902  -5.216  0.00  0.00     0.000 A 
ENDROOT
TORSDOF 0
ENDMDL
