MODEL 1
REMARK minimizedAffinity 3.44332385
REMARK minimizedRMSD -1
REMARK  0 active torsions:
REMARK  status: ('A' for Active; 'I' for Inactive)
ROOT
ATOM      1  C1  BNZ d   1      -0.059  -1.692   3.440  0.00  0.00     0.000 A 
ATOM      2  C2  BNZ d   1      -0.648  -1.287   2.272  0.00  0.00     0.000 A 
ATOM      3  C3  BNZ d   1      -0.482  -0.011   1.810  0.00  0.00     0.000 A 
ATOM      4  C4  BNZ d   1       0.238   0.868   2.536  0.00  0.00     0.000 A 
ATOM      5  C5  BNZ d   1       0.830   0.478   3.721  0.00  0.00     0.000 A 
ATOM      6  C6  BNZ d   1       0.693  -0.818   4.162  0.00  0.00     0.000 A 
ENDROOT
TORSDOF 0
ENDMDL
