MODEL 1
REMARK minimizedAffinity 2.90450144
REMARK minimizedRMSD -1
REMARK  0 active torsions:
REMARK  status: ('A' for Active; 'I' for Inactive)
ROOT
ATOM      1  C1  BNZ d   1      -0.757   1.335   2.659  0.00  0.00     0.000 A 
ATOM      2  C2  BNZ d   1       0.457   1.126   3.257  0.00  0.00     0.000 A 
ATOM      3  C3  BNZ d   1       1.028  -0.116   3.267  0.00  0.00     0.000 A 
ATOM      4  C4  BNZ d   1       0.367  -1.154   2.716  0.00  0.00     0.000 A 
ATOM      5  C5  BNZ d   1      -0.862  -0.962   2.118  0.00  0.00     0.000 A 
ATOM      6  C6  BNZ d   1      -1.416   0.297   2.075  0.00  0.00     0.000 A 
ENDROOT
TORSDOF 0
ENDMDL
