MODEL 1
REMARK minimizedAffinity 5.38014555
REMARK minimizedRMSD -1
REMARK  0 active torsions:
REMARK  status: ('A' for Active; 'I' for Inactive)
ROOT
ATOM      1  C1  BNZ d   1      -0.408   2.356   4.068  0.00  0.00     0.000 A 
ATOM      2  C2  BNZ d   1      -0.878   1.728   2.946  0.00  0.00     0.000 A 
ATOM      3  C3  BNZ d   1      -0.389   0.509   2.568  0.00  0.00     0.000 A 
ATOM      4  C4  BNZ d   1       0.596  -0.062   3.291  0.00  0.00     0.000 A 
ATOM      5  C5  BNZ d   1       1.087   0.562   4.420  0.00  0.00     0.000 A 
ATOM      6  C6  BNZ d   1       0.565   1.771   4.819  0.00  0.00     0.000 A 
ENDROOT
TORSDOF 0
ENDMDL
