MODEL 1
REMARK minimizedAffinity 10.8079252
REMARK minimizedRMSD -1
REMARK  0 active torsions:
REMARK  status: ('A' for Active; 'I' for Inactive)
ROOT
ATOM      1  C1  BNZ d   1       5.991   1.533  -5.997  0.00  0.00     0.000 A 
ATOM      2  C2  BNZ d   1       5.996   2.581  -5.115  0.00  0.00     0.000 A 
ATOM      3  C3  BNZ d   1       5.050   2.674  -4.133  0.00  0.00     0.000 A 
ATOM      4  C4  BNZ d   1       4.077   1.742  -4.059  0.00  0.00     0.000 A 
ATOM      5  C5  BNZ d   1       4.053   0.685  -4.947  0.00  0.00     0.000 A 
ATOM      6  C6  BNZ d   1       5.030   0.574  -5.910  0.00  0.00     0.000 A 
ENDROOT
TORSDOF 0
ENDMDL
