MODEL 1
REMARK minimizedAffinity 9.51316643
REMARK minimizedRMSD -1
REMARK  0 active torsions:
REMARK  status: ('A' for Active; 'I' for Inactive)
ROOT
ATOM      1  C1  BNZ d   1       5.468  -2.623  -3.706  0.00  0.00     0.000 A 
ATOM      2  C2  BNZ d   1       4.136  -2.651  -3.388  0.00  0.00     0.000 A 
ATOM      3  C3  BNZ d   1       3.183  -2.483  -4.354  0.00  0.00     0.000 A 
ATOM      4  C4  BNZ d   1       3.562  -2.248  -5.627  0.00  0.00     0.000 A 
ATOM      5  C5  BNZ d   1       4.901  -2.208  -5.960  0.00  0.00     0.000 A 
ATOM      6  C6  BNZ d   1       5.857  -2.416  -4.993  0.00  0.00     0.000 A 
ENDROOT
TORSDOF 0
ENDMDL
