MODEL 1
REMARK minimizedAffinity 2.01944518
REMARK minimizedRMSD -1
REMARK  1 active torsions:
REMARK  status: ('A' for Active; 'I' for Inactive)
REMARK    1  A    between atoms: C3_4  and  O_7 
ROOT
ATOM      1  C   UNL d   1       1.945   0.270  -3.263  0.00  0.00    -0.033 A 
ATOM      2  C1  UNL d   1       0.611   0.678  -3.324  0.00  0.00     0.039 A 
ATOM      3  C2  UNL d   1       0.189   1.799  -2.607  0.00  0.00    -0.080 A 
ATOM      4  C3  UNL d   1       1.109   2.503  -1.835  0.00  0.00     0.150 A 
ATOM      5  C4  UNL d   1       2.440   2.104  -1.773  0.00  0.00    -0.007 A 
ATOM      6  C5  UNL d   1       2.859   0.984  -2.488  0.00  0.00     0.039 A 
ENDROOT
BRANCH   4   7
ATOM      7  O   UNL d   1       0.743   3.601  -1.114  0.00  0.00    -0.526 OA
ATOM      8  H5  UNL d   1      -0.212   3.741  -1.230  0.00  0.00     0.418 HD
ENDBRANCH   4   7
TORSDOF 1
ENDMDL
