MODEL 1
REMARK minimizedAffinity 1.75086391
REMARK minimizedRMSD -1
REMARK  1 active torsions:
REMARK  status: ('A' for Active; 'I' for Inactive)
REMARK    1  A    between atoms: C3_4  and  O_7 
ROOT
ATOM      1  C   UNL d   1      -0.423   3.518  -5.644  0.00  0.00    -0.033 A 
ATOM      2  C1  UNL d   1      -1.702   2.975  -5.513  0.00  0.00     0.039 A 
ATOM      3  C2  UNL d   1      -2.826   3.796  -5.622  0.00  0.00    -0.080 A 
ATOM      4  C3  UNL d   1      -2.657   5.156  -5.864  0.00  0.00     0.150 A 
ATOM      5  C4  UNL d   1      -1.386   5.704  -6.000  0.00  0.00    -0.007 A 
ATOM      6  C5  UNL d   1      -0.265   4.883  -5.889  0.00  0.00     0.039 A 
ENDROOT
BRANCH   4   7
ATOM      7  O   UNL d   1      -3.724   5.998  -5.974  0.00  0.00    -0.526 OA
ATOM      8  H5  UNL d   1      -4.537   5.486  -5.829  0.00  0.00     0.418 HD
ENDBRANCH   4   7
TORSDOF 1
ENDMDL
