MODEL 1
REMARK minimizedAffinity 8.84384727
REMARK minimizedRMSD -1
REMARK  1 active torsions:
REMARK  status: ('A' for Active; 'I' for Inactive)
REMARK    1  A    between atoms: C3_4  and  O_7 
ROOT
ATOM      1  C   UNL d   1       0.945   4.484  -5.919  0.00  0.00    -0.033 A 
ATOM      2  C1  UNL d   1       0.419   5.777  -5.884  0.00  0.00     0.039 A 
ATOM      3  C2  UNL d   1      -0.963   5.972  -5.908  0.00  0.00    -0.080 A 
ATOM      4  C3  UNL d   1      -1.808   4.866  -5.966  0.00  0.00     0.150 A 
ATOM      5  C4  UNL d   1      -1.291   3.575  -5.998  0.00  0.00    -0.007 A 
ATOM      6  C5  UNL d   1       0.090   3.383  -5.975  0.00  0.00     0.039 A 
ENDROOT
BRANCH   4   7
ATOM      7  O   UNL d   1      -3.164   5.006  -5.997  0.00  0.00    -0.526 OA
ATOM      8  H5  UNL d   1      -3.375   5.954  -5.998  0.00  0.00     0.418 HD
ENDBRANCH   4   7
TORSDOF 1
ENDMDL
