MODEL 1
REMARK minimizedAffinity 6.91504765
REMARK minimizedRMSD -1
REMARK  1 active torsions:
REMARK  status: ('A' for Active; 'I' for Inactive)
REMARK    1  A    between atoms: C3_4  and  O_7 
ROOT
ATOM      1  C   UNL d   1      -0.133   4.741  -5.931  0.00  0.00    -0.033 A 
ATOM      2  C1  UNL d   1      -0.852   3.544  -5.930  0.00  0.00     0.039 A 
ATOM      3  C2  UNL d   1      -2.248   3.565  -5.945  0.00  0.00    -0.080 A 
ATOM      4  C3  UNL d   1      -2.912   4.788  -5.963  0.00  0.00     0.150 A 
ATOM      5  C4  UNL d   1      -2.203   5.985  -5.969  0.00  0.00    -0.007 A 
ATOM      6  C5  UNL d   1      -0.809   5.961  -5.952  0.00  0.00     0.039 A 
ENDROOT
BRANCH   4   7
ATOM      7  O   UNL d   1      -4.274   4.859  -5.973  0.00  0.00    -0.526 OA
ATOM      8  H5  UNL d   1      -4.629   3.956  -5.938  0.00  0.00     0.418 HD
ENDBRANCH   4   7
TORSDOF 1
ENDMDL
