MODEL 1
REMARK minimizedAffinity 5.34761715
REMARK minimizedRMSD -1
REMARK  1 active torsions:
REMARK  status: ('A' for Active; 'I' for Inactive)
REMARK    1  A    between atoms: C3_4  and  O_7 
ROOT
ATOM      1  C   UNL d   1      -2.806  -5.162   5.999  0.00  0.00    -0.033 A 
ATOM      2  C1  UNL d   1      -1.640  -4.990   5.251  0.00  0.00     0.039 A 
ATOM      3  C2  UNL d   1      -1.458  -3.830   4.495  0.00  0.00    -0.080 A 
ATOM      4  C3  UNL d   1      -2.447  -2.850   4.498  0.00  0.00     0.150 A 
ATOM      5  C4  UNL d   1      -3.609  -3.013   5.245  0.00  0.00    -0.007 A 
ATOM      6  C5  UNL d   1      -3.790  -4.173   5.998  0.00  0.00     0.039 A 
ENDROOT
BRANCH   4   7
ATOM      7  O   UNL d   1      -2.317  -1.703   3.773  0.00  0.00    -0.526 OA
ATOM      8  H5  UNL d   1      -1.477  -1.742   3.285  0.00  0.00     0.418 HD
ENDBRANCH   4   7
TORSDOF 1
ENDMDL
