MODEL 1
REMARK minimizedAffinity 4.10276651
REMARK minimizedRMSD -1
REMARK  1 active torsions:
REMARK  status: ('A' for Active; 'I' for Inactive)
REMARK    1  A    between atoms: C3_4  and  O_7 
ROOT
ATOM      1  C   UNL d   1      -0.159   3.360  -5.886  0.00  0.00    -0.033 A 
ATOM      2  C1  UNL d   1      -1.461   2.857  -5.855  0.00  0.00     0.039 A 
ATOM      3  C2  UNL d   1      -2.550   3.731  -5.893  0.00  0.00    -0.080 A 
ATOM      4  C3  UNL d   1      -2.323   5.102  -5.964  0.00  0.00     0.150 A 
ATOM      5  C4  UNL d   1      -1.029   5.610  -6.000  0.00  0.00    -0.007 A 
ATOM      6  C5  UNL d   1       0.057   4.737  -5.960  0.00  0.00     0.039 A 
ENDROOT
BRANCH   4   7
ATOM      7  O   UNL d   1      -3.354   5.994  -6.000  0.00  0.00    -0.526 OA
ATOM      8  H5  UNL d   1      -4.190   5.501  -5.939  0.00  0.00     0.418 HD
ENDBRANCH   4   7
TORSDOF 1
ENDMDL
