MODEL 1
REMARK minimizedAffinity -1.33342361
REMARK minimizedRMSD -1
REMARK  1 active torsions:
REMARK  status: ('A' for Active; 'I' for Inactive)
REMARK    1  A    between atoms: C3_4  and  O_7 
ROOT
ATOM      1  C   UNL d   1       0.130   2.836  -5.959  0.00  0.00    -0.033 A 
ATOM      2  C1  UNL d   1       0.582   4.157  -5.985  0.00  0.00     0.039 A 
ATOM      3  C2  UNL d   1      -0.335   5.210  -5.997  0.00  0.00    -0.080 A 
ATOM      4  C3  UNL d   1      -1.698   4.930  -5.983  0.00  0.00     0.150 A 
ATOM      5  C4  UNL d   1      -2.156   3.616  -5.954  0.00  0.00    -0.007 A 
ATOM      6  C5  UNL d   1      -1.239   2.566  -5.942  0.00  0.00     0.039 A 
ENDROOT
BRANCH   4   7
ATOM      7  O   UNL d   1      -2.631   5.924  -6.000  0.00  0.00    -0.526 OA
ATOM      8  H5  UNL d   1      -2.169   6.778  -6.049  0.00  0.00     0.418 HD
ENDBRANCH   4   7
TORSDOF 1
ENDMDL
