MODEL 1
REMARK minimizedAffinity 3.30004239
REMARK minimizedRMSD -1
REMARK  1 active torsions:
REMARK  status: ('A' for Active; 'I' for Inactive)
REMARK    1  A    between atoms: C3_4  and  O_7 
ROOT
ATOM      1  C   UNL d   1      -2.626  -4.038  -1.371  0.00  0.00    -0.033 A 
ATOM      2  C1  UNL d   1      -3.001  -5.324  -1.764  0.00  0.00     0.039 A 
ATOM      3  C2  UNL d   1      -4.012  -6.000  -1.077  0.00  0.00    -0.080 A 
ATOM      4  C3  UNL d   1      -4.639  -5.379  -0.000  0.00  0.00     0.150 A 
ATOM      5  C4  UNL d   1      -4.273  -4.096   0.394  0.00  0.00    -0.007 A 
ATOM      6  C5  UNL d   1      -3.264  -3.423  -0.292  0.00  0.00     0.039 A 
ENDROOT
BRANCH   4   7
ATOM      7  O   UNL d   1      -5.627  -6.000   0.704  0.00  0.00    -0.526 OA
ATOM      8  H5  UNL d   1      -5.754  -6.891   0.336  0.00  0.00     0.418 HD
ENDBRANCH   4   7
TORSDOF 1
ENDMDL
