MODEL 1
REMARK minimizedAffinity 2.67588139
REMARK minimizedRMSD -1
REMARK  1 active torsions:
REMARK  status: ('A' for Active; 'I' for Inactive)
REMARK    1  A    between atoms: C3_4  and  O_7 
ROOT
ATOM      1  C   UNL d   1       0.624   5.860  -5.895  0.00  0.00    -0.033 A 
ATOM      2  C1  UNL d   1       1.191   4.588  -6.000  0.00  0.00     0.039 A 
ATOM      3  C2  UNL d   1       0.382   3.452  -5.919  0.00  0.00    -0.080 A 
ATOM      4  C3  UNL d   1      -0.989   3.602  -5.734  0.00  0.00     0.150 A 
ATOM      5  C4  UNL d   1      -1.561   4.866  -5.633  0.00  0.00    -0.007 A 
ATOM      6  C5  UNL d   1      -0.752   5.999  -5.713  0.00  0.00     0.039 A 
ENDROOT
BRANCH   4   7
ATOM      7  O   UNL d   1      -1.818   2.524  -5.644  0.00  0.00    -0.526 OA
ATOM      8  H5  UNL d   1      -1.280   1.716  -5.703  0.00  0.00     0.418 HD
ENDBRANCH   4   7
TORSDOF 1
ENDMDL
