MODEL 1
REMARK minimizedAffinity 6.93786812
REMARK minimizedRMSD -1
REMARK  1 active torsions:
REMARK  status: ('A' for Active; 'I' for Inactive)
REMARK    1  A    between atoms: C3_4  and  O_7 
ROOT
ATOM      1  C   UNL d   1       5.428   5.289  -5.972  0.00  0.00    -0.033 A 
ATOM      2  C1  UNL d   1       4.040   5.436  -5.995  0.00  0.00     0.039 A 
ATOM      3  C2  UNL d   1       3.216   4.309  -5.993  0.00  0.00    -0.080 A 
ATOM      4  C3  UNL d   1       3.793   3.042  -5.967  0.00  0.00     0.150 A 
ATOM      5  C4  UNL d   1       5.175   2.888  -5.940  0.00  0.00    -0.007 A 
ATOM      6  C5  UNL d   1       5.996   4.015  -5.943  0.00  0.00     0.039 A 
ENDROOT
BRANCH   4   7
ATOM      7  O   UNL d   1       3.030   1.912  -5.968  0.00  0.00    -0.526 OA
ATOM      8  H5  UNL d   1       2.095   2.172  -6.017  0.00  0.00     0.418 HD
ENDBRANCH   4   7
TORSDOF 1
ENDMDL
