MODEL 1
REMARK minimizedAffinity -0.455168664
REMARK minimizedRMSD -1
REMARK  1 active torsions:
REMARK  status: ('A' for Active; 'I' for Inactive)
REMARK    1  A    between atoms: C3_4  and  O_7 
ROOT
ATOM      1  C   UNL d   1      -6.000   5.807  -4.163  0.00  0.00    -0.033 A 
ATOM      2  C1  UNL d   1      -5.922   4.566  -3.527  0.00  0.00     0.039 A 
ATOM      3  C2  UNL d   1      -5.227   3.515  -4.128  0.00  0.00    -0.080 A 
ATOM      4  C3  UNL d   1      -4.616   3.717  -5.362  0.00  0.00     0.150 A 
ATOM      5  C4  UNL d   1      -4.686   4.951  -5.999  0.00  0.00    -0.007 A 
ATOM      6  C5  UNL d   1      -5.381   6.000  -5.398  0.00  0.00     0.039 A 
ENDROOT
BRANCH   4   7
ATOM      7  O   UNL d   1      -3.931   2.719  -5.990  0.00  0.00    -0.526 OA
ATOM      8  H5  UNL d   1      -3.991   1.916  -5.447  0.00  0.00     0.418 HD
ENDBRANCH   4   7
TORSDOF 1
ENDMDL
