MODEL 1
REMARK minimizedAffinity 3.79330873
REMARK minimizedRMSD -1
REMARK  1 active torsions:
REMARK  status: ('A' for Active; 'I' for Inactive)
REMARK    1  A    between atoms: C3_4  and  O_7 
ROOT
ATOM      1  C   UNL d   1      -0.007   5.653  -5.991  0.00  0.00    -0.033 A 
ATOM      2  C1  UNL d   1       0.372   4.309  -5.986  0.00  0.00     0.039 A 
ATOM      3  C2  UNL d   1      -0.601   3.307  -5.985  0.00  0.00    -0.080 A 
ATOM      4  C3  UNL d   1      -1.947   3.662  -5.990  0.00  0.00     0.150 A 
ATOM      5  C4  UNL d   1      -2.332   4.999  -6.000  0.00  0.00    -0.007 A 
ATOM      6  C5  UNL d   1      -1.359   5.998  -6.000  0.00  0.00     0.039 A 
ENDROOT
BRANCH   4   7
ATOM      7  O   UNL d   1      -2.933   2.720  -5.985  0.00  0.00    -0.526 OA
ATOM      8  H5  UNL d   1      -2.518   1.842  -5.949  0.00  0.00     0.418 HD
ENDBRANCH   4   7
TORSDOF 1
ENDMDL
