MODEL 1
REMARK minimizedAffinity -3.79540253
REMARK minimizedRMSD -1
REMARK  1 active torsions:
REMARK  status: ('A' for Active; 'I' for Inactive)
REMARK    1  A    between atoms: C3_4  and  O_7 
ROOT
ATOM      1  C   UNL d   1      -1.120   0.663   0.655  0.00  0.00    -0.033 A 
ATOM      2  C1  UNL d   1      -1.550   0.714   1.982  0.00  0.00     0.039 A 
ATOM      3  C2  UNL d   1      -0.655   0.441   3.019  0.00  0.00    -0.080 A 
ATOM      4  C3  UNL d   1       0.665   0.120   2.715  0.00  0.00     0.150 A 
ATOM      5  C4  UNL d   1       1.101   0.070   1.395  0.00  0.00    -0.007 A 
ATOM      6  C5  UNL d   1       0.206   0.342   0.361  0.00  0.00     0.039 A 
ENDROOT
BRANCH   4   7
ATOM      7  O   UNL d   1       1.574  -0.159   3.692  0.00  0.00    -0.526 OA
ATOM      8  H5  UNL d   1       1.124  -0.115   4.553  0.00  0.00     0.418 HD
ENDBRANCH   4   7
TORSDOF 1
ENDMDL
