MODEL 1
REMARK minimizedAffinity -4.4173255
REMARK minimizedRMSD -1
REMARK  1 active torsions:
REMARK  status: ('A' for Active; 'I' for Inactive)
REMARK    1  A    between atoms: C3_4  and  O_7 
ROOT
ATOM      1  C   UNL d   1      -0.575  -0.341  -0.309  0.00  0.00    -0.033 A 
ATOM      2  C1  UNL d   1      -1.793  -0.329   0.372  0.00  0.00     0.039 A 
ATOM      3  C2  UNL d   1      -1.905   0.333   1.596  0.00  0.00    -0.080 A 
ATOM      4  C3  UNL d   1      -0.792   0.979   2.127  0.00  0.00     0.150 A 
ATOM      5  C4  UNL d   1       0.425   0.974   1.452  0.00  0.00    -0.007 A 
ATOM      6  C5  UNL d   1       0.534   0.312   0.230  0.00  0.00     0.039 A 
ENDROOT
BRANCH   4   7
ATOM      7  O   UNL d   1      -0.850   1.634   3.321  0.00  0.00    -0.526 OA
ATOM      8  H5  UNL d   1      -1.745   1.529   3.686  0.00  0.00     0.418 HD
ENDBRANCH   4   7
TORSDOF 1
ENDMDL
