MODEL 1
REMARK minimizedAffinity -1.20713747
REMARK minimizedRMSD -1
REMARK  1 active torsions:
REMARK  status: ('A' for Active; 'I' for Inactive)
REMARK    1  A    between atoms: C3_4  and  O_7 
ROOT
ATOM      1  C   UNL d   1      -0.366   0.313   3.490  0.00  0.00    -0.033 A 
ATOM      2  C1  UNL d   1      -1.222   0.614   2.429  0.00  0.00     0.039 A 
ATOM      3  C2  UNL d   1      -0.803   0.412   1.113  0.00  0.00    -0.080 A 
ATOM      4  C3  UNL d   1       0.473  -0.091   0.872  0.00  0.00     0.150 A 
ATOM      5  C4  UNL d   1       1.329  -0.396   1.924  0.00  0.00    -0.007 A 
ATOM      6  C5  UNL d   1       0.909  -0.193   3.238  0.00  0.00     0.039 A 
ENDROOT
BRANCH   4   7
ATOM      7  O   UNL d   1       0.928  -0.300  -0.396  0.00  0.00    -0.526 OA
ATOM      8  H5  UNL d   1       0.240  -0.018  -1.021  0.00  0.00     0.418 HD
ENDBRANCH   4   7
TORSDOF 1
ENDMDL
