MODEL 1
REMARK minimizedAffinity -3.71806383
REMARK minimizedRMSD -1
REMARK  1 active torsions:
REMARK  status: ('A' for Active; 'I' for Inactive)
REMARK    1  A    between atoms: C3_4  and  O_7 
ROOT
ATOM      1  C   UNL d   1      -1.178   0.828   2.719  0.00  0.00    -0.033 A 
ATOM      2  C1  UNL d   1      -1.923   0.595   1.561  0.00  0.00     0.039 A 
ATOM      3  C2  UNL d   1      -1.283   0.201   0.385  0.00  0.00    -0.080 A 
ATOM      4  C3  UNL d   1       0.100   0.042   0.379  0.00  0.00     0.150 A 
ATOM      5  C4  UNL d   1       0.848   0.269   1.529  0.00  0.00    -0.007 A 
ATOM      6  C5  UNL d   1       0.208   0.663   2.703  0.00  0.00     0.039 A 
ENDROOT
BRANCH   4   7
ATOM      7  O   UNL d   1       0.769  -0.336  -0.747  0.00  0.00    -0.526 OA
ATOM      8  H5  UNL d   1       0.127  -0.428  -1.470  0.00  0.00     0.418 HD
ENDBRANCH   4   7
TORSDOF 1
ENDMDL
