MODEL 1
REMARK minimizedAffinity -1.82392251
REMARK minimizedRMSD -1
REMARK  1 active torsions:
REMARK  status: ('A' for Active; 'I' for Inactive)
REMARK    1  A    between atoms: C3_4  and  O_7 
ROOT
ATOM      1  C   UNL d   1      -1.700   0.110   0.602  0.00  0.00    -0.033 A 
ATOM      2  C1  UNL d   1      -0.966  -0.445  -0.448  0.00  0.00     0.039 A 
ATOM      3  C2  UNL d   1       0.322  -0.933  -0.220  0.00  0.00    -0.080 A 
ATOM      4  C3  UNL d   1       0.863  -0.862   1.061  0.00  0.00     0.150 A 
ATOM      5  C4  UNL d   1       0.135  -0.314   2.112  0.00  0.00    -0.007 A 
ATOM      6  C5  UNL d   1      -1.150   0.174   1.882  0.00  0.00     0.039 A 
ENDROOT
BRANCH   4   7
ATOM      7  O   UNL d   1       2.117  -1.322   1.331  0.00  0.00    -0.526 OA
ATOM      8  H5  UNL d   1       2.511  -1.646   0.504  0.00  0.00     0.418 HD
ENDBRANCH   4   7
TORSDOF 1
ENDMDL
