MODEL 1
REMARK minimizedAffinity -4.99729872
REMARK minimizedRMSD -1
REMARK  1 active torsions:
REMARK  status: ('A' for Active; 'I' for Inactive)
REMARK    1  A    between atoms: C3_4  and  O_7 
ROOT
ATOM      1  C   UNL d   1       0.149  -0.102   0.318  0.00  0.00    -0.033 A 
ATOM      2  C1  UNL d   1       1.180   0.536   1.010  0.00  0.00     0.039 A 
ATOM      3  C2  UNL d   1       0.912   1.198   2.211  0.00  0.00    -0.080 A 
ATOM      4  C3  UNL d   1      -0.388   1.212   2.707  0.00  0.00     0.150 A 
ATOM      5  C4  UNL d   1      -1.419   0.575   2.025  0.00  0.00    -0.007 A 
ATOM      6  C5  UNL d   1      -1.150  -0.084   0.826  0.00  0.00     0.039 A 
ENDROOT
BRANCH   4   7
ATOM      7  O   UNL d   1      -0.699   1.849   3.872  0.00  0.00    -0.526 OA
ATOM      8  H5  UNL d   1       0.107   2.268   4.218  0.00  0.00     0.418 HD
ENDBRANCH   4   7
TORSDOF 1
ENDMDL
