MODEL 1
REMARK minimizedAffinity 9.00951958
REMARK minimizedRMSD -1
REMARK  0 active torsions:
REMARK  status: ('A' for Active; 'I' for Inactive)
ROOT
ATOM      1  O1  BZF d   1       0.751  -4.884   0.216  0.00  0.00    -0.204 OA
ATOM      2  C2  BZF d   1       1.888  -5.663   0.304  0.00  0.00     0.174 A 
ATOM      3  C3  BZF d   1       2.951  -4.918   0.669  0.00  0.00    -0.012 A 
ATOM      4  C3A BZF d   1       2.428  -3.608   0.909  0.00  0.00    -0.107 A 
ATOM      5  C4  BZF d   1       2.991  -2.431   1.313  0.00  0.00     0.055 A 
ATOM      6  C5  BZF d   1       2.217  -1.317   1.379  0.00  0.00    -0.016 A 
ATOM      7  C6  BZF d   1       0.879  -1.341   1.043  0.00  0.00     0.022 A 
ATOM      8  C7  BZF d   1       0.275  -2.485   0.641  0.00  0.00     0.029 A 
ATOM      9  C7A BZF d   1       1.047  -3.621   0.605  0.00  0.00     0.058 A 
ENDROOT
TORSDOF 0
ENDMDL
