MODEL 1
REMARK minimizedAffinity 2.35176325
REMARK minimizedRMSD -1
REMARK  0 active torsions:
REMARK  status: ('A' for Active; 'I' for Inactive)
ROOT
ATOM      1  O1  BZF d   1      -5.999   1.653   2.458  0.00  0.00    -0.204 OA
ATOM      2  C2  BZF d   1      -5.014   1.493   1.503  0.00  0.00     0.174 A 
ATOM      3  C3  BZF d   1      -3.803   1.359   2.082  0.00  0.00    -0.012 A 
ATOM      4  C3A BZF d   1      -4.059   1.349   3.490  0.00  0.00    -0.107 A 
ATOM      5  C4  BZF d   1      -3.257   1.227   4.589  0.00  0.00     0.055 A 
ATOM      6  C5  BZF d   1      -3.812   1.330   5.826  0.00  0.00    -0.016 A 
ATOM      7  C6  BZF d   1      -5.161   1.559   6.000  0.00  0.00     0.022 A 
ATOM      8  C7  BZF d   1      -5.997   1.682   4.940  0.00  0.00     0.029 A 
ATOM      9  C7A BZF d   1      -5.445   1.545   3.690  0.00  0.00     0.058 A 
ENDROOT
TORSDOF 0
ENDMDL
