MODEL 1
REMARK minimizedAffinity 8.84153843
REMARK minimizedRMSD -1
REMARK  0 active torsions:
REMARK  status: ('A' for Active; 'I' for Inactive)
ROOT
ATOM      1  O1  BZF d   1       2.122  -3.001   2.053  0.00  0.00    -0.204 OA
ATOM      2  C2  BZF d   1       1.914  -2.870   0.693  0.00  0.00     0.174 A 
ATOM      3  C3  BZF d   1       3.025  -2.415   0.080  0.00  0.00    -0.012 A 
ATOM      4  C3A BZF d   1       4.017  -2.338   1.109  0.00  0.00    -0.107 A 
ATOM      5  C4  BZF d   1       5.332  -1.969   1.119  0.00  0.00     0.055 A 
ATOM      6  C5  BZF d   1       5.999  -1.936   2.302  0.00  0.00    -0.016 A 
ATOM      7  C6  BZF d   1       5.383  -2.259   3.493  0.00  0.00     0.022 A 
ATOM      8  C7  BZF d   1       4.081  -2.636   3.532  0.00  0.00     0.029 A 
ATOM      9  C7A BZF d   1       3.413  -2.703   2.334  0.00  0.00     0.058 A 
ENDROOT
TORSDOF 0
ENDMDL
