MODEL 1
REMARK minimizedAffinity 2.91263795
REMARK minimizedRMSD -1
REMARK  0 active torsions:
REMARK  status: ('A' for Active; 'I' for Inactive)
ROOT
ATOM      1  O1  BZF d   1      -3.216   0.516  -1.467  0.00  0.00    -0.204 OA
ATOM      2  C2  BZF d   1      -3.897   1.711  -1.600  0.00  0.00     0.174 A 
ATOM      3  C3  BZF d   1      -4.731   1.671  -2.660  0.00  0.00    -0.012 A 
ATOM      4  C3A BZF d   1      -4.629   0.338  -3.169  0.00  0.00    -0.107 A 
ATOM      5  C4  BZF d   1      -5.227  -0.320  -4.205  0.00  0.00     0.055 A 
ATOM      6  C5  BZF d   1      -4.853  -1.597  -4.482  0.00  0.00    -0.016 A 
ATOM      7  C6  BZF d   1      -3.881  -2.244  -3.747  0.00  0.00     0.022 A 
ATOM      8  C7  BZF d   1      -3.263  -1.634  -2.706  0.00  0.00     0.029 A 
ATOM      9  C7A BZF d   1      -3.662  -0.355  -2.404  0.00  0.00     0.058 A 
ENDROOT
TORSDOF 0
ENDMDL
