MODEL 1
REMARK minimizedAffinity 15.1319065
REMARK minimizedRMSD -1
REMARK  0 active torsions:
REMARK  status: ('A' for Active; 'I' for Inactive)
ROOT
ATOM      1  O1  BZF d   1       1.064  -4.503  -0.013  0.00  0.00    -0.204 OA
ATOM      2  C2  BZF d   1       2.363  -4.973   0.005  0.00  0.00     0.174 A 
ATOM      3  C3  BZF d   1       3.211  -4.017   0.438  0.00  0.00    -0.012 A 
ATOM      4  C3A BZF d   1       2.379  -2.910   0.795  0.00  0.00    -0.107 A 
ATOM      5  C4  BZF d   1       2.635  -1.669   1.306  0.00  0.00     0.055 A 
ATOM      6  C5  BZF d   1       1.605  -0.798   1.472  0.00  0.00    -0.016 A 
ATOM      7  C6  BZF d   1       0.310  -1.131   1.133  0.00  0.00     0.022 A 
ATOM      8  C7  BZF d   1       0.006  -2.351   0.627  0.00  0.00     0.029 A 
ATOM      9  C7A BZF d   1       1.040  -3.246   0.490  0.00  0.00     0.058 A 
ENDROOT
TORSDOF 0
ENDMDL
