MODEL 1
REMARK minimizedAffinity 8.43618298
REMARK minimizedRMSD -1
REMARK  0 active torsions:
REMARK  status: ('A' for Active; 'I' for Inactive)
ROOT
ATOM      1  O1  BZF d   1       0.900  -3.111   0.467  0.00  0.00    -0.204 OA
ATOM      2  C2  BZF d   1       2.235  -2.796   0.306  0.00  0.00     0.174 A 
ATOM      3  C3  BZF d   1       2.593  -1.793   1.135  0.00  0.00    -0.012 A 
ATOM      4  C3A BZF d   1       1.430  -1.524   1.924  0.00  0.00    -0.107 A 
ATOM      5  C4  BZF d   1       1.164  -0.644   2.933  0.00  0.00     0.055 A 
ATOM      6  C5  BZF d   1      -0.095  -0.584   3.442  0.00  0.00    -0.016 A 
ATOM      7  C6  BZF d   1      -1.111  -1.384   2.962  0.00  0.00     0.022 A 
ATOM      8  C7  BZF d   1      -0.894  -2.275   1.964  0.00  0.00     0.029 A 
ATOM      9  C7A BZF d   1       0.385  -2.362   1.471  0.00  0.00     0.058 A 
ENDROOT
TORSDOF 0
ENDMDL
