MODEL 1
REMARK minimizedAffinity 14.5300407
REMARK minimizedRMSD -1
REMARK  0 active torsions:
REMARK  status: ('A' for Active; 'I' for Inactive)
ROOT
ATOM      1  O1  BZF d   1       4.763  -2.406   5.890  0.00  0.00    -0.204 OA
ATOM      2  C2  BZF d   1       4.103  -1.586   4.995  0.00  0.00     0.174 A 
ATOM      3  C3  BZF d   1       3.622  -2.300   3.958  0.00  0.00    -0.012 A 
ATOM      4  C3A BZF d   1       3.925  -3.664   4.266  0.00  0.00    -0.107 A 
ATOM      5  C4  BZF d   1       3.686  -4.847   3.627  0.00  0.00     0.055 A 
ATOM      6  C5  BZF d   1       4.177  -5.997   4.159  0.00  0.00    -0.016 A 
ATOM      7  C6  BZF d   1       4.914  -6.000   5.325  0.00  0.00     0.022 A 
ATOM      8  C7  BZF d   1       5.173  -4.852   5.998  0.00  0.00     0.029 A 
ATOM      9  C7A BZF d   1       4.649  -3.692   5.480  0.00  0.00     0.058 A 
ENDROOT
TORSDOF 0
ENDMDL
