MODEL 1
REMARK minimizedAffinity 5.81641722
REMARK minimizedRMSD -1
REMARK  0 active torsions:
REMARK  status: ('A' for Active; 'I' for Inactive)
ROOT
ATOM      1  O1  BZF d   1       1.723  -4.551  -0.419  0.00  0.00    -0.204 OA
ATOM      2  C2  BZF d   1       0.846  -5.197   0.431  0.00  0.00     0.174 A 
ATOM      3  C3  BZF d   1       0.404  -4.359   1.390  0.00  0.00    -0.012 A 
ATOM      4  C3A BZF d   1       0.972  -3.086   1.069  0.00  0.00    -0.107 A 
ATOM      5  C4  BZF d   1       0.888  -1.849   1.641  0.00  0.00     0.055 A 
ATOM      6  C5  BZF d   1       1.624  -0.830   1.123  0.00  0.00    -0.016 A 
ATOM      7  C6  BZF d   1       2.456  -1.014   0.038  0.00  0.00     0.022 A 
ATOM      8  C7  BZF d   1       2.568  -2.222  -0.567  0.00  0.00     0.029 A 
ATOM      9  C7A BZF d   1       1.801  -3.245  -0.066  0.00  0.00     0.058 A 
ENDROOT
TORSDOF 0
ENDMDL
