MODEL 1
REMARK minimizedAffinity 12.720583
REMARK minimizedRMSD -1
REMARK  0 active torsions:
REMARK  status: ('A' for Active; 'I' for Inactive)
ROOT
ATOM      1  O1  BZF d   1       0.862  -4.581   0.587  0.00  0.00    -0.204 OA
ATOM      2  C2  BZF d   1       1.999  -5.302   0.281  0.00  0.00     0.174 A 
ATOM      3  C3  BZF d   1       3.046  -4.478   0.072  0.00  0.00    -0.012 A 
ATOM      4  C3A BZF d   1       2.552  -3.164   0.349  0.00  0.00    -0.107 A 
ATOM      5  C4  BZF d   1       3.123  -1.924   0.333  0.00  0.00     0.055 A 
ATOM      6  C5  BZF d   1       2.347  -0.837   0.584  0.00  0.00    -0.016 A 
ATOM      7  C6  BZF d   1       0.998  -0.953   0.848  0.00  0.00     0.022 A 
ATOM      8  C7  BZF d   1       0.388  -2.162   0.880  0.00  0.00     0.029 A 
ATOM      9  C7A BZF d   1       1.176  -3.266   0.659  0.00  0.00     0.058 A 
ENDROOT
TORSDOF 0
ENDMDL
