MODEL 1
REMARK minimizedAffinity -4.25240755
REMARK minimizedRMSD -1
REMARK  0 active torsions:
REMARK  status: ('A' for Active; 'I' for Inactive)
ROOT
ATOM      1  C1  DEN d   1      -0.177  -0.078  -1.386  0.00  0.00     0.130 A 
ATOM      2  C2  DEN d   1       0.647  -1.137  -0.810  0.00  0.00    -0.031 A 
ATOM      3  C3  DEN d   1       0.693  -0.937   0.652  0.00  0.00     0.027 A 
ATOM      4  C4  DEN d   1      -0.430   0.899   2.074  0.00  0.00     0.027 A 
ATOM      5  C5  DEN d   1      -1.220   2.026   2.031  0.00  0.00    -0.003 A 
ATOM      6  C6  DEN d   1      -1.686   2.546   0.853  0.00  0.00     0.001 A 
ATOM      7  C7  DEN d   1      -1.403   1.913  -0.328  0.00  0.00     0.017 A 
ATOM      8  C8  DEN d   1      -0.601   0.780  -0.293  0.00  0.00    -0.094 A 
ATOM      9  C9  DEN d   1      -0.150   0.262   0.909  0.00  0.00    -0.072 A 
ENDROOT
TORSDOF 0
ENDMDL
