MODEL 1
REMARK minimizedAffinity -3.32745409
REMARK minimizedRMSD -1
REMARK  0 active torsions:
REMARK  status: ('A' for Active; 'I' for Inactive)
ROOT
ATOM      1  C1  DEN d   1      -1.974   1.207   1.182  0.00  0.00     0.130 A 
ATOM      2  C2  DEN d   1      -1.222   2.134   2.023  0.00  0.00    -0.031 A 
ATOM      3  C3  DEN d   1       0.215   1.945   1.738  0.00  0.00     0.027 A 
ATOM      4  C4  DEN d   1       1.341   0.321   0.081  0.00  0.00     0.027 A 
ATOM      5  C5  DEN d   1       1.115  -0.671  -0.847  0.00  0.00    -0.003 A 
ATOM      6  C6  DEN d   1      -0.143  -1.127  -1.136  0.00  0.00     0.001 A 
ATOM      7  C7  DEN d   1      -1.229  -0.559  -0.524  0.00  0.00     0.017 A 
ATOM      8  C8  DEN d   1      -1.009   0.438   0.418  0.00  0.00    -0.094 A 
ATOM      9  C9  DEN d   1       0.270   0.894   0.688  0.00  0.00    -0.072 A 
ENDROOT
TORSDOF 0
ENDMDL
