MODEL 1
REMARK minimizedAffinity 2.25723195
REMARK minimizedRMSD -1
REMARK  0 active torsions:
REMARK  status: ('A' for Active; 'I' for Inactive)
ROOT
ATOM      1  C1  DEN d   1       0.347   1.389  -0.754  0.00  0.00     0.130 A 
ATOM      2  C2  DEN d   1       0.902   0.114  -1.199  0.00  0.00    -0.031 A 
ATOM      3  C3  DEN d   1       1.068  -0.751  -0.014  0.00  0.00     0.027 A 
ATOM      4  C4  DEN d   1       0.517  -0.244   2.454  0.00  0.00     0.027 A 
ATOM      5  C5  DEN d   1       0.038   0.710   3.324  0.00  0.00    -0.003 A 
ATOM      6  C6  DEN d   1      -0.337   1.959   2.904  0.00  0.00     0.001 A 
ATOM      7  C7  DEN d   1      -0.281   2.272   1.572  0.00  0.00     0.017 A 
ATOM      8  C8  DEN d   1       0.208   1.318   0.689  0.00  0.00    -0.094 A 
ATOM      9  C9  DEN d   1       0.570   0.057   1.132  0.00  0.00    -0.072 A 
ENDROOT
TORSDOF 0
ENDMDL
