MODEL 1
REMARK minimizedAffinity -4.28512001
REMARK minimizedRMSD -1
REMARK  0 active torsions:
REMARK  status: ('A' for Active; 'I' for Inactive)
ROOT
ATOM      1  C1  DEN d   1       2.859  -3.942  -1.097  0.00  0.00     0.130 A 
ATOM      2  C2  DEN d   1       3.415  -5.158  -0.509  0.00  0.00    -0.031 A 
ATOM      3  C3  DEN d   1       2.297  -5.957   0.030  0.00  0.00     0.027 A 
ATOM      4  C4  DEN d   1      -0.229  -5.436   0.007  0.00  0.00     0.027 A 
ATOM      5  C5  DEN d   1      -1.182  -4.516  -0.370  0.00  0.00    -0.003 A 
ATOM      6  C6  DEN d   1      -0.855  -3.335  -0.981  0.00  0.00     0.001 A 
ATOM      7  C7  DEN d   1       0.455  -3.062  -1.273  0.00  0.00     0.017 A 
ATOM      8  C8  DEN d   1       1.423  -3.981  -0.889  0.00  0.00    -0.094 A 
ATOM      9  C9  DEN d   1       1.071  -5.175  -0.283  0.00  0.00    -0.072 A 
ENDROOT
TORSDOF 0
ENDMDL
