MODEL 1
REMARK minimizedAffinity 0.386339217
REMARK minimizedRMSD -1
REMARK  0 active torsions:
REMARK  status: ('A' for Active; 'I' for Inactive)
ROOT
ATOM      1  C1  DEN d   1      -1.368   1.952   1.282  0.00  0.00     0.130 A 
ATOM      2  C2  DEN d   1      -1.983   2.250  -0.009  0.00  0.00    -0.031 A 
ATOM      3  C3  DEN d   1      -1.424   1.316  -1.007  0.00  0.00     0.027 A 
ATOM      4  C4  DEN d   1       0.321  -0.555  -0.679  0.00  0.00     0.027 A 
ATOM      5  C5  DEN d   1       1.139  -1.179   0.237  0.00  0.00    -0.003 A 
ATOM      6  C6  DEN d   1       1.204  -0.784   1.547  0.00  0.00     0.001 A 
ATOM      7  C7  DEN d   1       0.402   0.235   1.989  0.00  0.00     0.017 A 
ATOM      8  C8  DEN d   1      -0.420   0.874   1.070  0.00  0.00    -0.094 A 
ATOM      9  C9  DEN d   1      -0.480   0.452  -0.248  0.00  0.00    -0.072 A 
ENDROOT
TORSDOF 0
ENDMDL
