MODEL 1
REMARK minimizedAffinity 10.0144825
REMARK minimizedRMSD -1
REMARK  2 active torsions:
REMARK  status: ('A' for Active; 'I' for Inactive)
REMARK    1  A    between atoms: C1_2  and  C2_3 
REMARK    2  A    between atoms: C2_3  and  C3_4 
ROOT
ATOM      1  C3  UNL d   1       2.528  -0.638  -1.002  0.00  0.00    -0.075 A 
ATOM      2  C4  UNL d   1       2.071  -0.026   0.174  0.00  0.00     0.002 A 
ATOM      3  C5  UNL d   1       2.425   1.290   0.472  0.00  0.00     0.002 A 
ATOM      4  C6  UNL d   1       3.248   2.006  -0.394  0.00  0.00    -0.004 A 
ATOM      5  C7  UNL d   1       3.721   1.403  -1.558  0.00  0.00     0.002 A 
ATOM      6  C8  UNL d   1       3.365   0.088  -1.861  0.00  0.00     0.002 A 
ENDROOT
BRANCH   1   7
ATOM      7  C2  UNL d   1       2.124  -2.052  -1.345  0.00  0.00     0.056 C 
BRANCH   7   8
ATOM      8  C1  UNL d   1       1.877  -2.285  -2.839  0.00  0.00     0.007 C 
ATOM      9  C   UNL d   1       3.023  -3.010  -3.532  0.00  0.00     0.009 C 
ENDBRANCH   7   8
ENDBRANCH   1   7
TORSDOF 2
ENDMDL
