MODEL 1
REMARK minimizedAffinity 4.84996319
REMARK minimizedRMSD -1
REMARK  2 active torsions:
REMARK  status: ('A' for Active; 'I' for Inactive)
REMARK    1  A    between atoms: C1_2  and  C2_3 
REMARK    2  A    between atoms: C2_3  and  C3_4 
ROOT
ATOM      1  C3  UNL d   1      -5.250   4.052   3.248  0.00  0.00    -0.075 A 
ATOM      2  C4  UNL d   1      -6.000   5.235   3.327  0.00  0.00     0.002 A 
ATOM      3  C5  UNL d   1      -5.995   6.000   4.494  0.00  0.00     0.002 A 
ATOM      4  C6  UNL d   1      -5.252   5.587   5.598  0.00  0.00    -0.004 A 
ATOM      5  C7  UNL d   1      -4.517   4.405   5.536  0.00  0.00     0.002 A 
ATOM      6  C8  UNL d   1      -4.516   3.641   4.368  0.00  0.00     0.002 A 
ENDROOT
BRANCH   1   7
ATOM      7  C2  UNL d   1      -5.227   3.236   1.978  0.00  0.00     0.056 C 
BRANCH   7   8
ATOM      8  C1  UNL d   1      -4.472   1.908   2.104  0.00  0.00     0.007 C 
ATOM      9  C   UNL d   1      -4.322   1.175   0.778  0.00  0.00     0.009 C 
ENDBRANCH   7   8
ENDBRANCH   1   7
TORSDOF 2
ENDMDL
