MODEL 1
REMARK minimizedAffinity 16.0228577
REMARK minimizedRMSD -1
REMARK  2 active torsions:
REMARK  status: ('A' for Active; 'I' for Inactive)
REMARK    1  A    between atoms: C1_2  and  C2_3 
REMARK    2  A    between atoms: C2_3  and  C3_4 
ROOT
ATOM      1  C3  UNL d   1       2.674  -1.125   1.107  0.00  0.00    -0.075 A 
ATOM      2  C4  UNL d   1       2.094  -0.229   0.198  0.00  0.00     0.002 A 
ATOM      3  C5  UNL d   1       2.843   0.819  -0.339  0.00  0.00     0.002 A 
ATOM      4  C6  UNL d   1       4.175   0.989   0.032  0.00  0.00    -0.004 A 
ATOM      5  C7  UNL d   1       4.756   0.114   0.946  0.00  0.00     0.002 A 
ATOM      6  C8  UNL d   1       4.011  -0.938   1.482  0.00  0.00     0.002 A 
ENDROOT
BRANCH   1   7
ATOM      7  C2  UNL d   1       1.877  -2.278   1.670  0.00  0.00     0.056 C 
BRANCH   7   8
ATOM      8  C1  UNL d   1       1.544  -2.138   3.159  0.00  0.00     0.007 C 
ATOM      9  C   UNL d   1       0.064  -2.333   3.464  0.00  0.00     0.009 C 
ENDBRANCH   7   8
ENDBRANCH   1   7
TORSDOF 2
ENDMDL
