MODEL 1
REMARK minimizedAffinity 13.3376369
REMARK minimizedRMSD -1
REMARK  2 active torsions:
REMARK  status: ('A' for Active; 'I' for Inactive)
REMARK    1  A    between atoms: C1_2  and  C2_3 
REMARK    2  A    between atoms: C2_3  and  C3_4 
ROOT
ATOM      1  C3  UNL d   1      -5.261   4.204   3.301  0.00  0.00    -0.075 A 
ATOM      2  C4  UNL d   1      -5.996   4.186   4.495  0.00  0.00     0.002 A 
ATOM      3  C5  UNL d   1      -5.694   5.074   5.527  0.00  0.00     0.002 A 
ATOM      4  C6  UNL d   1      -4.648   5.983   5.384  0.00  0.00    -0.004 A 
ATOM      5  C7  UNL d   1      -3.900   5.999   4.209  0.00  0.00     0.002 A 
ATOM      6  C8  UNL d   1      -4.203   5.114   3.172  0.00  0.00     0.002 A 
ENDROOT
BRANCH   1   7
ATOM      7  C2  UNL d   1      -5.602   3.265   2.169  0.00  0.00     0.056 C 
BRANCH   7   8
ATOM      8  C1  UNL d   1      -4.905   1.903   2.256  0.00  0.00     0.007 C 
ATOM      9  C   UNL d   1      -4.330   1.437   0.925  0.00  0.00     0.009 C 
ENDBRANCH   7   8
ENDBRANCH   1   7
TORSDOF 2
ENDMDL
