MODEL 1
REMARK minimizedAffinity 17.729126
REMARK minimizedRMSD -1
REMARK  2 active torsions:
REMARK  status: ('A' for Active; 'I' for Inactive)
REMARK    1  A    between atoms: C1_2  and  C2_3 
REMARK    2  A    between atoms: C2_3  and  C3_4 
ROOT
ATOM      1  C3  UNL d   1      -4.585   3.254  -0.745  0.00  0.00    -0.075 A 
ATOM      2  C4  UNL d   1      -4.508   2.425   0.383  0.00  0.00     0.002 A 
ATOM      3  C5  UNL d   1      -5.062   1.145   0.360  0.00  0.00     0.002 A 
ATOM      4  C6  UNL d   1      -5.708   0.682  -0.785  0.00  0.00    -0.004 A 
ATOM      5  C7  UNL d   1      -5.805   1.504  -1.905  0.00  0.00     0.002 A 
ATOM      6  C8  UNL d   1      -5.248   2.784  -1.887  0.00  0.00     0.002 A 
ENDROOT
BRANCH   1   7
ATOM      7  C2  UNL d   1      -3.962   4.630  -0.736  0.00  0.00     0.056 C 
BRANCH   7   8
ATOM      8  C1  UNL d   1      -4.137   5.386   0.585  0.00  0.00     0.007 C 
ATOM      9  C   UNL d   1      -5.521   6.000   0.746  0.00  0.00     0.009 C 
ENDBRANCH   7   8
ENDBRANCH   1   7
TORSDOF 2
ENDMDL
