MODEL 1
REMARK minimizedAffinity 16.8256645
REMARK minimizedRMSD -1
REMARK  2 active torsions:
REMARK  status: ('A' for Active; 'I' for Inactive)
REMARK    1  A    between atoms: C1_2  and  C2_3 
REMARK    2  A    between atoms: C2_3  and  C3_4 
ROOT
ATOM      1  C3  UNL d   1       2.075  -2.439  -0.530  0.00  0.00    -0.075 A 
ATOM      2  C4  UNL d   1       2.623  -2.664   0.741  0.00  0.00     0.002 A 
ATOM      3  C5  UNL d   1       3.301  -1.645   1.411  0.00  0.00     0.002 A 
ATOM      4  C6  UNL d   1       3.449  -0.395   0.816  0.00  0.00    -0.004 A 
ATOM      5  C7  UNL d   1       2.923  -0.164  -0.454  0.00  0.00     0.002 A 
ATOM      6  C8  UNL d   1       2.240  -1.181  -1.124  0.00  0.00     0.002 A 
ENDROOT
BRANCH   1   7
ATOM      7  C2  UNL d   1       1.315  -3.528  -1.248  0.00  0.00     0.056 C 
BRANCH   7   8
ATOM      8  C1  UNL d   1       0.516  -4.448  -0.318  0.00  0.00     0.007 C 
ATOM      9  C   UNL d   1      -0.682  -5.096  -0.999  0.00  0.00     0.009 C 
ENDBRANCH   7   8
ENDBRANCH   1   7
TORSDOF 2
ENDMDL
