MODEL 1
REMARK minimizedAffinity 2.4664259
REMARK minimizedRMSD -1
REMARK  0 active torsions:
REMARK  status: ('A' for Active; 'I' for Inactive)
ROOT
ATOM      1  C   UNL d   1       3.652  -1.471   5.994  0.00  0.00     0.078 C 
ATOM      2  C1  UNL d   1       2.316  -1.569   5.319  0.00  0.00    -0.077 A 
ATOM      3  C2  UNL d   1       2.131  -1.094   4.015  0.00  0.00    -0.001 A 
ATOM      4  C3  UNL d   1       0.879  -1.183   3.403  0.00  0.00     0.003 A 
ATOM      5  C4  UNL d   1      -0.196  -1.746   4.087  0.00  0.00    -0.005 A 
ATOM      6  C5  UNL d   1      -0.021  -2.219   5.386  0.00  0.00     0.003 A 
ATOM      7  C6  UNL d   1       1.229  -2.131   6.000  0.00  0.00    -0.001 A 
ENDROOT
TORSDOF 0
ENDMDL
