MODEL 1
REMARK minimizedAffinity -1.57567346
REMARK minimizedRMSD -1
REMARK  0 active torsions:
REMARK  status: ('A' for Active; 'I' for Inactive)
ROOT
ATOM      1  C   UNL d   1      -2.605   0.777   0.155  0.00  0.00     0.078 C 
ATOM      2  C1  UNL d   1      -1.567   0.294   1.124  0.00  0.00    -0.077 A 
ATOM      3  C2  UNL d   1      -0.224   0.179   0.745  0.00  0.00    -0.001 A 
ATOM      4  C3  UNL d   1       0.730  -0.281   1.654  0.00  0.00     0.003 A 
ATOM      5  C4  UNL d   1       0.351  -0.631   2.949  0.00  0.00    -0.005 A 
ATOM      6  C5  UNL d   1      -0.984  -0.522   3.335  0.00  0.00     0.003 A 
ATOM      7  C6  UNL d   1      -1.939  -0.062   2.427  0.00  0.00    -0.001 A 
ENDROOT
TORSDOF 0
ENDMDL
