MODEL 1
REMARK minimizedAffinity 6.03757381
REMARK minimizedRMSD -1
REMARK  0 active torsions:
REMARK  status: ('A' for Active; 'I' for Inactive)
ROOT
ATOM      1  C   UNL d   1      -0.204  -1.042   3.799  0.00  0.00     0.078 C 
ATOM      2  C1  UNL d   1      -0.936  -0.565   2.581  0.00  0.00    -0.077 A 
ATOM      3  C2  UNL d   1      -2.289  -0.210   2.645  0.00  0.00    -0.001 A 
ATOM      4  C3  UNL d   1      -2.960   0.224   1.501  0.00  0.00     0.003 A 
ATOM      5  C4  UNL d   1      -2.288   0.305   0.283  0.00  0.00    -0.005 A 
ATOM      6  C5  UNL d   1      -0.942  -0.049   0.209  0.00  0.00     0.003 A 
ATOM      7  C6  UNL d   1      -0.269  -0.482   1.352  0.00  0.00    -0.001 A 
ENDROOT
TORSDOF 0
ENDMDL
