MODEL 1
REMARK minimizedAffinity 2.70560789
REMARK minimizedRMSD -1
REMARK  0 active torsions:
REMARK  status: ('A' for Active; 'I' for Inactive)
ROOT
ATOM      1  C   UNL d   1       0.892  -0.904   3.261  0.00  0.00     0.078 C 
ATOM      2  C1  UNL d   1       0.099  -0.470   2.065  0.00  0.00    -0.077 A 
ATOM      3  C2  UNL d   1      -1.252  -0.118   2.185  0.00  0.00    -0.001 A 
ATOM      4  C3  UNL d   1      -1.981   0.275   1.061  0.00  0.00     0.003 A 
ATOM      5  C4  UNL d   1      -1.368   0.319  -0.190  0.00  0.00    -0.005 A 
ATOM      6  C5  UNL d   1      -0.026  -0.031  -0.319  0.00  0.00     0.003 A 
ATOM      7  C6  UNL d   1       0.705  -0.424   0.804  0.00  0.00    -0.001 A 
ENDROOT
TORSDOF 0
ENDMDL
