MODEL 1
REMARK minimizedAffinity -0.0828607753
REMARK minimizedRMSD -1
REMARK  0 active torsions:
REMARK  status: ('A' for Active; 'I' for Inactive)
ROOT
ATOM      1  C   UNL d   1       0.281  -1.659   4.459  0.00  0.00     0.078 C 
ATOM      2  C1  UNL d   1      -0.318  -1.098   3.204  0.00  0.00    -0.077 A 
ATOM      3  C2  UNL d   1       0.377  -1.144   1.990  0.00  0.00    -0.001 A 
ATOM      4  C3  UNL d   1      -0.189  -0.608   0.832  0.00  0.00     0.003 A 
ATOM      5  C4  UNL d   1      -1.452  -0.022   0.877  0.00  0.00    -0.005 A 
ATOM      6  C5  UNL d   1      -2.151   0.030   2.081  0.00  0.00     0.003 A 
ATOM      7  C6  UNL d   1      -1.586  -0.505   3.240  0.00  0.00    -0.001 A 
ENDROOT
TORSDOF 0
ENDMDL
