MODEL 1
REMARK minimizedAffinity 5.41852188
REMARK minimizedRMSD -1
REMARK  0 active torsions:
REMARK  status: ('A' for Active; 'I' for Inactive)
ROOT
ATOM      1  C   UNL d   1      -2.376  -0.130   3.228  0.00  0.00     0.078 C 
ATOM      2  C1  UNL d   1      -1.838  -0.279   1.836  0.00  0.00    -0.077 A 
ATOM      3  C2  UNL d   1      -2.689  -0.563   0.760  0.00  0.00    -0.001 A 
ATOM      4  C3  UNL d   1      -2.173  -0.708  -0.528  0.00  0.00     0.003 A 
ATOM      5  C4  UNL d   1      -0.805  -0.573  -0.754  0.00  0.00    -0.005 A 
ATOM      6  C5  UNL d   1       0.050  -0.293   0.311  0.00  0.00     0.003 A 
ATOM      7  C6  UNL d   1      -0.464  -0.147   1.600  0.00  0.00    -0.001 A 
ENDROOT
TORSDOF 0
ENDMDL
