MODEL 1
REMARK minimizedAffinity 5.08210993
REMARK minimizedRMSD -1
REMARK  1 active torsions:
REMARK  status: ('A' for Active; 'I' for Inactive)
REMARK    1  A    between atoms: C1_2  and  C2_3 
ROOT
ATOM      1  C2  UNL d   1       3.017  -1.314  -0.354  0.00  0.00    -0.073 A 
ATOM      2  C3  UNL d   1       1.893  -0.648   0.149  0.00  0.00    -0.002 A 
ATOM      3  C4  UNL d   1       1.991   0.678   0.573  0.00  0.00     0.004 A 
ATOM      4  C5  UNL d   1       3.209   1.353   0.492  0.00  0.00    -0.004 A 
ATOM      5  C6  UNL d   1       4.340   0.708  -0.019  0.00  0.00    -0.075 A 
ATOM      6  C7  UNL d   1       5.658   1.420  -0.111  0.00  0.00     0.076 C 
ATOM      7  C8  UNL d   1       4.235  -0.624  -0.440  0.00  0.00     0.001 A 
ENDROOT
BRANCH   1   8
ATOM      8  C1  UNL d   1       2.915  -2.744  -0.818  0.00  0.00     0.053 C 
ATOM      9  C   UNL d   1       3.478  -2.930  -2.218  0.00  0.00     0.018 C 
ENDBRANCH   1   8
TORSDOF 1
ENDMDL
