MODEL 1
REMARK minimizedAffinity 0.1876643
REMARK minimizedRMSD -1
REMARK  1 active torsions:
REMARK  status: ('A' for Active; 'I' for Inactive)
REMARK    1  A    between atoms: C1_2  and  C2_3 
ROOT
ATOM      1  C2  UNL d   1       1.393   1.030   0.768  0.00  0.00    -0.073 A 
ATOM      2  C3  UNL d   1       1.298   1.161   2.158  0.00  0.00    -0.002 A 
ATOM      3  C4  UNL d   1       0.063   1.404   2.761  0.00  0.00     0.004 A 
ATOM      4  C5  UNL d   1      -1.089   1.512   1.982  0.00  0.00    -0.004 A 
ATOM      5  C6  UNL d   1      -1.016   1.373   0.592  0.00  0.00    -0.075 A 
ATOM      6  C7  UNL d   1      -2.246   1.490  -0.260  0.00  0.00     0.076 C 
ATOM      7  C8  UNL d   1       0.228   1.132  -0.006  0.00  0.00     0.001 A 
ENDROOT
BRANCH   1   8
ATOM      8  C1  UNL d   1       2.723   0.761   0.113  0.00  0.00     0.053 C 
ATOM      9  C   UNL d   1       3.677   1.937   0.256  0.00  0.00     0.018 C 
ENDBRANCH   1   8
TORSDOF 1
ENDMDL
