MODEL 1
REMARK minimizedAffinity 0.867234588
REMARK minimizedRMSD -1
REMARK  1 active torsions:
REMARK  status: ('A' for Active; 'I' for Inactive)
REMARK    1  A    between atoms: C1_2  and  C2_3 
ROOT
ATOM      1  C2  UNL d   1       0.293   0.338   2.571  0.00  0.00    -0.073 A 
ATOM      2  C3  UNL d   1       1.494  -0.236   2.141  0.00  0.00    -0.002 A 
ATOM      3  C4  UNL d   1       1.890  -0.127   0.807  0.00  0.00     0.004 A 
ATOM      4  C5  UNL d   1       1.093   0.562  -0.108  0.00  0.00    -0.004 A 
ATOM      5  C6  UNL d   1      -0.106   1.152   0.306  0.00  0.00    -0.075 A 
ATOM      6  C7  UNL d   1      -0.976   1.894  -0.666  0.00  0.00     0.076 C 
ATOM      7  C8  UNL d   1      -0.498   1.036   1.646  0.00  0.00     0.001 A 
ENDROOT
BRANCH   1   8
ATOM      8  C1  UNL d   1      -0.135   0.228   4.012  0.00  0.00     0.053 C 
ATOM      9  C   UNL d   1       0.909  -0.475   4.864  0.00  0.00     0.018 C 
ENDBRANCH   1   8
TORSDOF 1
ENDMDL
