MODEL 1
REMARK minimizedAffinity 1.78171635
REMARK minimizedRMSD -1
REMARK  1 active torsions:
REMARK  status: ('A' for Active; 'I' for Inactive)
REMARK    1  A    between atoms: C1_2  and  C2_3 
ROOT
ATOM      1  C2  UNL d   1       1.429  -0.019   0.891  0.00  0.00    -0.073 A 
ATOM      2  C3  UNL d   1       1.169  -0.114   2.262  0.00  0.00    -0.002 A 
ATOM      3  C4  UNL d   1      -0.058   0.307   2.778  0.00  0.00     0.004 A 
ATOM      4  C5  UNL d   1      -1.038   0.819   1.928  0.00  0.00    -0.004 A 
ATOM      5  C6  UNL d   1      -0.801   0.910   0.552  0.00  0.00    -0.075 A 
ATOM      6  C7  UNL d   1      -1.844   1.461  -0.375  0.00  0.00     0.076 C 
ATOM      7  C8  UNL d   1       0.434   0.488   0.043  0.00  0.00     0.001 A 
ENDROOT
BRANCH   1   8
ATOM      8  C1  UNL d   1       2.750  -0.478   0.329  0.00  0.00     0.053 C 
ATOM      9  C   UNL d   1       3.518   0.660  -0.325  0.00  0.00     0.018 C 
ENDBRANCH   1   8
TORSDOF 1
ENDMDL
