MODEL 1
REMARK minimizedAffinity -2.51735306
REMARK minimizedRMSD -1
REMARK  1 active torsions:
REMARK  status: ('A' for Active; 'I' for Inactive)
REMARK    1  A    between atoms: C1_2  and  C2_3 
ROOT
ATOM      1  C2  UNL d   1       1.900  -0.733   1.154  0.00  0.00    -0.073 A 
ATOM      2  C3  UNL d   1       2.358   0.560   0.878  0.00  0.00    -0.002 A 
ATOM      3  C4  UNL d   1       3.242   0.784  -0.179  0.00  0.00     0.004 A 
ATOM      4  C5  UNL d   1       3.670  -0.279  -0.973  0.00  0.00    -0.004 A 
ATOM      5  C6  UNL d   1       3.214  -1.577  -0.721  0.00  0.00    -0.075 A 
ATOM      6  C7  UNL d   1       3.667  -2.732  -1.565  0.00  0.00     0.076 C 
ATOM      7  C8  UNL d   1       2.329  -1.794   0.344  0.00  0.00     0.001 A 
ENDROOT
BRANCH   1   8
ATOM      8  C1  UNL d   1       0.941  -0.979   2.290  0.00  0.00     0.053 C 
ATOM      9  C   UNL d   1       0.479   0.317   2.937  0.00  0.00     0.018 C 
ENDBRANCH   1   8
TORSDOF 1
ENDMDL
