MODEL 1
REMARK minimizedAffinity 4.01242256
REMARK minimizedRMSD -1
REMARK  1 active torsions:
REMARK  status: ('A' for Active; 'I' for Inactive)
REMARK    1  A    between atoms: C1_2  and  C2_3 
ROOT
ATOM      1  C2  UNL d   1       1.367   0.710   0.547  0.00  0.00    -0.073 A 
ATOM      2  C3  UNL d   1       1.288   0.591   1.939  0.00  0.00    -0.002 A 
ATOM      3  C4  UNL d   1       0.117   0.944   2.611  0.00  0.00     0.004 A 
ATOM      4  C5  UNL d   1      -0.987   1.413   1.899  0.00  0.00    -0.004 A 
ATOM      5  C6  UNL d   1      -0.931   1.528   0.507  0.00  0.00    -0.075 A 
ATOM      6  C7  UNL d   1      -2.109   2.033  -0.274  0.00  0.00     0.076 C 
ATOM      7  C8  UNL d   1       0.249   1.174  -0.161  0.00  0.00     0.001 A 
ENDROOT
BRANCH   1   8
ATOM      8  C1  UNL d   1       2.627   0.323  -0.184  0.00  0.00     0.053 C 
ATOM      9  C   UNL d   1       3.731   1.353  -0.001  0.00  0.00     0.018 C 
ENDBRANCH   1   8
TORSDOF 1
ENDMDL
