MODEL 1
REMARK minimizedAffinity 7.68311977
REMARK minimizedRMSD -1
REMARK  1 active torsions:
REMARK  status: ('A' for Active; 'I' for Inactive)
REMARK    1  A    between atoms: C1_2  and  C2_3 
ROOT
ATOM      1  C2  UNL d   1      -2.206  -3.107   0.210  0.00  0.00    -0.077 A 
ATOM      2  C3  UNL d   1      -2.186  -4.452   0.605  0.00  0.00     0.002 A 
ATOM      3  C4  UNL d   1      -1.045  -5.231   0.400  0.00  0.00     0.002 A 
ATOM      4  C5  UNL d   1       0.084  -4.673  -0.196  0.00  0.00    -0.004 A 
ATOM      5  C6  UNL d   1       0.073  -3.337  -0.594  0.00  0.00     0.002 A 
ATOM      6  C7  UNL d   1      -1.067  -2.557  -0.391  0.00  0.00     0.002 A 
ENDROOT
BRANCH   1   7
ATOM      7  C1  UNL d   1      -3.418  -2.252   0.474  0.00  0.00     0.055 C 
ATOM      8  C   UNL d   1      -4.657  -2.824  -0.200  0.00  0.00     0.019 C 
ENDBRANCH   1   7
TORSDOF 1
ENDMDL
