MODEL 1
REMARK minimizedAffinity 7.58449459
REMARK minimizedRMSD -1
REMARK  1 active torsions:
REMARK  status: ('A' for Active; 'I' for Inactive)
REMARK    1  A    between atoms: C1_2  and  C2_3 
ROOT
ATOM      1  C2  UNL d   1      -0.010  -4.913   0.379  0.00  0.00    -0.077 A 
ATOM      2  C3  UNL d   1       0.283  -3.975  -0.621  0.00  0.00     0.002 A 
ATOM      3  C4  UNL d   1      -0.612  -2.941  -0.903  0.00  0.00     0.002 A 
ATOM      4  C5  UNL d   1      -1.803  -2.833  -0.188  0.00  0.00    -0.004 A 
ATOM      5  C6  UNL d   1      -2.105  -3.763   0.806  0.00  0.00     0.002 A 
ATOM      6  C7  UNL d   1      -1.212  -4.797   1.089  0.00  0.00     0.002 A 
ENDROOT
BRANCH   1   7
ATOM      7  C1  UNL d   1       0.976  -6.000   0.719  0.00  0.00     0.055 C 
ATOM      8  C   UNL d   1       2.409  -5.528   0.522  0.00  0.00     0.019 C 
ENDBRANCH   1   7
TORSDOF 1
ENDMDL
