MODEL 1
REMARK minimizedAffinity 5.10391331
REMARK minimizedRMSD -1
REMARK  1 active torsions:
REMARK  status: ('A' for Active; 'I' for Inactive)
REMARK    1  A    between atoms: C1_2  and  C2_3 
ROOT
ATOM      1  C2  UNL d   1       1.880  -1.998   4.810  0.00  0.00    -0.077 A 
ATOM      2  C3  UNL d   1       3.030  -2.646   5.282  0.00  0.00     0.002 A 
ATOM      3  C4  UNL d   1       4.133  -2.826   4.445  0.00  0.00     0.002 A 
ATOM      4  C5  UNL d   1       4.098  -2.358   3.133  0.00  0.00    -0.004 A 
ATOM      5  C6  UNL d   1       2.957  -1.715   2.653  0.00  0.00     0.002 A 
ATOM      6  C7  UNL d   1       1.854  -1.535   3.488  0.00  0.00     0.002 A 
ENDROOT
BRANCH   1   7
ATOM      7  C1  UNL d   1       0.708  -1.759   5.726  0.00  0.00     0.055 C 
ATOM      8  C   UNL d   1      -0.597  -2.212   5.086  0.00  0.00     0.019 C 
ENDBRANCH   1   7
TORSDOF 1
ENDMDL
