MODEL 1
REMARK minimizedAffinity -0.370739043
REMARK minimizedRMSD -1
REMARK  1 active torsions:
REMARK  status: ('A' for Active; 'I' for Inactive)
REMARK    1  A    between atoms: C1_2  and  C2_3 
ROOT
ATOM      1  C2  UNL d   1      -0.738  -3.726   0.123  0.00  0.00    -0.077 A 
ATOM      2  C3  UNL d   1      -1.765  -3.652  -0.828  0.00  0.00     0.002 A 
ATOM      3  C4  UNL d   1      -2.845  -2.789  -0.635  0.00  0.00     0.002 A 
ATOM      4  C5  UNL d   1      -2.907  -1.991   0.506  0.00  0.00    -0.004 A 
ATOM      5  C6  UNL d   1      -1.891  -2.059   1.458  0.00  0.00     0.002 A 
ATOM      6  C7  UNL d   1      -0.811  -2.922   1.268  0.00  0.00     0.002 A 
ENDROOT
BRANCH   1   7
ATOM      7  C1  UNL d   1       0.453  -4.619  -0.107  0.00  0.00     0.055 C 
ATOM      8  C   UNL d   1       1.757  -3.843   0.004  0.00  0.00     0.019 C 
ENDBRANCH   1   7
TORSDOF 1
ENDMDL
