MODEL 1
REMARK minimizedAffinity 5.2015996
REMARK minimizedRMSD -1
REMARK  1 active torsions:
REMARK  status: ('A' for Active; 'I' for Inactive)
REMARK    1  A    between atoms: C1_2  and  C2_3 
ROOT
ATOM      1  C2  UNL d   1      -0.581   2.389  -0.788  0.00  0.00    -0.077 A 
ATOM      2  C3  UNL d   1      -0.125   3.672  -1.122  0.00  0.00     0.002 A 
ATOM      3  C4  UNL d   1      -1.015   4.634  -1.603  0.00  0.00     0.002 A 
ATOM      4  C5  UNL d   1      -2.366   4.325  -1.751  0.00  0.00    -0.004 A 
ATOM      5  C6  UNL d   1      -2.828   3.051  -1.423  0.00  0.00     0.002 A 
ATOM      6  C7  UNL d   1      -1.940   2.088  -0.943  0.00  0.00     0.002 A 
ENDROOT
BRANCH   1   7
ATOM      7  C1  UNL d   1       0.368   1.365  -0.223  0.00  0.00     0.055 C 
ATOM      8  C   UNL d   1       0.775   1.714   1.202  0.00  0.00     0.019 C 
ENDBRANCH   1   7
TORSDOF 1
ENDMDL
