MODEL 1
REMARK minimizedAffinity 5.18232918
REMARK minimizedRMSD -1
REMARK  1 active torsions:
REMARK  status: ('A' for Active; 'I' for Inactive)
REMARK    1  A    between atoms: C1_2  and  C2_3 
ROOT
ATOM      1  C2  UNL d   1       0.244   1.301   0.587  0.00  0.00    -0.077 A 
ATOM      2  C3  UNL d   1       0.266   2.252   1.617  0.00  0.00     0.002 A 
ATOM      3  C4  UNL d   1       0.676   1.892   2.902  0.00  0.00     0.002 A 
ATOM      4  C5  UNL d   1       1.070   0.583   3.168  0.00  0.00    -0.004 A 
ATOM      5  C6  UNL d   1       1.050  -0.371   2.151  0.00  0.00     0.002 A 
ATOM      6  C7  UNL d   1       0.640  -0.013   0.866  0.00  0.00     0.002 A 
ENDROOT
BRANCH   1   7
ATOM      7  C1  UNL d   1      -0.150   1.699  -0.811  0.00  0.00     0.055 C 
ATOM      8  C   UNL d   1       0.016   3.196  -1.028  0.00  0.00     0.019 C 
ENDBRANCH   1   7
TORSDOF 1
ENDMDL
