MODEL 1
REMARK minimizedAffinity 10.3738165
REMARK minimizedRMSD -1
REMARK  1 active torsions:
REMARK  status: ('A' for Active; 'I' for Inactive)
REMARK    1  A    between atoms: C1_2  and  C2_3 
ROOT
ATOM      1  C2  UNL d   1       0.941  -3.270   0.964  0.00  0.00    -0.077 A 
ATOM      2  C3  UNL d   1      -0.405  -2.948   0.738  0.00  0.00     0.002 A 
ATOM      3  C4  UNL d   1      -1.401  -3.909   0.921  0.00  0.00     0.002 A 
ATOM      4  C5  UNL d   1      -1.062  -5.196   1.334  0.00  0.00    -0.004 A 
ATOM      5  C6  UNL d   1       0.273  -5.526   1.560  0.00  0.00     0.002 A 
ATOM      6  C7  UNL d   1       1.270  -4.567   1.376  0.00  0.00     0.002 A 
ENDROOT
BRANCH   1   7
ATOM      7  C1  UNL d   1       2.012  -2.221   0.815  0.00  0.00     0.055 C 
ATOM      8  C   UNL d   1       3.048  -2.326   1.924  0.00  0.00     0.019 C 
ENDBRANCH   1   7
TORSDOF 1
ENDMDL
