MODEL 1
REMARK minimizedAffinity -3.33527493
REMARK minimizedRMSD -1
REMARK  1 active torsions:
REMARK  status: ('A' for Active; 'I' for Inactive)
REMARK    1  A    between atoms: C1_2  and  C2_3 
ROOT
ATOM      1  C2  UNL d   1       2.956   2.157  -2.745  0.00  0.00    -0.077 A 
ATOM      2  C3  UNL d   1       3.984   1.224  -2.552  0.00  0.00     0.002 A 
ATOM      3  C4  UNL d   1       5.266   1.649  -2.197  0.00  0.00     0.002 A 
ATOM      4  C5  UNL d   1       5.529   3.007  -2.028  0.00  0.00    -0.004 A 
ATOM      5  C6  UNL d   1       4.514   3.943  -2.220  0.00  0.00     0.002 A 
ATOM      6  C7  UNL d   1       3.232   3.520  -2.576  0.00  0.00     0.002 A 
ENDROOT
BRANCH   1   7
ATOM      7  C1  UNL d   1       1.561   1.698  -3.080  0.00  0.00     0.055 C 
ATOM      8  C   UNL d   1       0.917   0.980  -1.902  0.00  0.00     0.019 C 
ENDBRANCH   1   7
TORSDOF 1
ENDMDL
