MODEL 1
REMARK minimizedAffinity 0.955406249
REMARK minimizedRMSD -1
REMARK  1 active torsions:
REMARK  status: ('A' for Active; 'I' for Inactive)
REMARK    1  A    between atoms: C1_2  and  C2_3 
ROOT
ATOM      1  C2  UNL d   1       5.966  -0.032  -4.575  0.00  0.00    -0.077 A 
ATOM      2  C3  UNL d   1       5.964   1.350  -4.340  0.00  0.00     0.002 A 
ATOM      3  C4  UNL d   1       5.979   1.844  -3.034  0.00  0.00     0.002 A 
ATOM      4  C5  UNL d   1       6.000   0.964  -1.955  0.00  0.00    -0.004 A 
ATOM      5  C6  UNL d   1       6.000  -0.412  -2.178  0.00  0.00     0.002 A 
ATOM      6  C7  UNL d   1       5.984  -0.908  -3.483  0.00  0.00     0.002 A 
ENDROOT
BRANCH   1   7
ATOM      7  C1  UNL d   1       6.000  -0.567  -5.983  0.00  0.00     0.055 C 
ATOM      8  C   UNL d   1       5.957  -2.088  -5.999  0.00  0.00     0.019 C 
ENDBRANCH   1   7
TORSDOF 1
ENDMDL
