MODEL 1
REMARK minimizedAffinity 6.1740737
REMARK minimizedRMSD -1
REMARK  1 active torsions:
REMARK  status: ('A' for Active; 'I' for Inactive)
REMARK    1  A    between atoms: C1_2  and  C2_3 
ROOT
ATOM      1  C2  UNL d   1       0.604  -2.985   0.546  0.00  0.00    -0.077 A 
ATOM      2  C3  UNL d   1      -0.635  -3.562   0.857  0.00  0.00     0.002 A 
ATOM      3  C4  UNL d   1      -0.703  -4.866   1.350  0.00  0.00     0.002 A 
ATOM      4  C5  UNL d   1       0.465  -5.603   1.541  0.00  0.00    -0.004 A 
ATOM      5  C6  UNL d   1       1.702  -5.038   1.233  0.00  0.00     0.002 A 
ATOM      6  C7  UNL d   1       1.772  -3.735   0.738  0.00  0.00     0.002 A 
ENDROOT
BRANCH   1   7
ATOM      7  C1  UNL d   1       0.683  -1.561   0.060  0.00  0.00     0.055 C 
ATOM      8  C   UNL d   1       1.474  -0.690   1.025  0.00  0.00     0.019 C 
ENDBRANCH   1   7
TORSDOF 1
ENDMDL
