MODEL 1
REMARK minimizedAffinity -2.80601382
REMARK minimizedRMSD -1
REMARK  1 active torsions:
REMARK  status: ('A' for Active; 'I' for Inactive)
REMARK    1  A    between atoms: C1_2  and  C2_3 
ROOT
ATOM      1  C2  UNL d   1       5.965   0.357  -3.572  0.00  0.00    -0.077 A 
ATOM      2  C3  UNL d   1       5.977  -1.045  -3.581  0.00  0.00     0.002 A 
ATOM      3  C4  UNL d   1       5.991  -1.743  -4.790  0.00  0.00     0.002 A 
ATOM      4  C5  UNL d   1       5.998  -1.048  -5.998  0.00  0.00    -0.004 A 
ATOM      5  C6  UNL d   1       5.985   0.346  -5.999  0.00  0.00     0.002 A 
ATOM      6  C7  UNL d   1       5.969   1.046  -4.792  0.00  0.00     0.002 A 
ENDROOT
BRANCH   1   7
ATOM      7  C1  UNL d   1       5.999   1.113  -2.269  0.00  0.00     0.055 C 
ATOM      8  C   UNL d   1       4.967   2.231  -2.250  0.00  0.00     0.019 C 
ENDBRANCH   1   7
TORSDOF 1
ENDMDL
