MODEL 1
REMARK minimizedAffinity 0.730797052
REMARK minimizedRMSD -1
REMARK  1 active torsions:
REMARK  status: ('A' for Active; 'I' for Inactive)
REMARK    1  A    between atoms: C1_2  and  C2_3 
ROOT
ATOM      1  C2  UNL d   1       3.275   0.367  -4.707  0.00  0.00    -0.077 A 
ATOM      2  C3  UNL d   1       4.196  -0.002  -3.715  0.00  0.00     0.002 A 
ATOM      3  C4  UNL d   1       5.552   0.291  -3.867  0.00  0.00     0.002 A 
ATOM      4  C5  UNL d   1       6.000   0.958  -5.006  0.00  0.00    -0.004 A 
ATOM      5  C6  UNL d   1       5.092   1.327  -5.998  0.00  0.00     0.002 A 
ATOM      6  C7  UNL d   1       3.736   1.034  -5.849  0.00  0.00     0.002 A 
ENDROOT
BRANCH   1   7
ATOM      7  C1  UNL d   1       1.805   0.095  -4.522  0.00  0.00     0.055 C 
ATOM      8  C   UNL d   1       1.549  -0.745  -3.280  0.00  0.00     0.019 C 
ENDBRANCH   1   7
TORSDOF 1
ENDMDL
