MODEL 1
REMARK minimizedAffinity 0.773259997
REMARK minimizedRMSD -1
REMARK  1 active torsions:
REMARK  status: ('A' for Active; 'I' for Inactive)
REMARK    1  A    between atoms: C1_2  and  C2_3 
ROOT
ATOM      1  C2  UNL d   1       1.103  -0.540  -1.457  0.00  0.00    -0.077 A 
ATOM      2  C3  UNL d   1       1.325   0.607  -2.233  0.00  0.00     0.002 A 
ATOM      3  C4  UNL d   1       1.589   0.495  -3.599  0.00  0.00     0.002 A 
ATOM      4  C5  UNL d   1       1.631  -0.760  -4.202  0.00  0.00    -0.004 A 
ATOM      5  C6  UNL d   1       1.414  -1.907  -3.439  0.00  0.00     0.002 A 
ATOM      6  C7  UNL d   1       1.150  -1.797  -2.073  0.00  0.00     0.002 A 
ENDROOT
BRANCH   1   7
ATOM      7  C1  UNL d   1       0.769  -0.419   0.007  0.00  0.00     0.055 C 
ATOM      8  C   UNL d   1      -0.299  -1.423   0.415  0.00  0.00     0.019 C 
ENDBRANCH   1   7
TORSDOF 1
ENDMDL
