MODEL 1
REMARK minimizedAffinity -2.79131579
REMARK minimizedRMSD -1
REMARK  1 active torsions:
REMARK  status: ('A' for Active; 'I' for Inactive)
REMARK    1  A    between atoms: C1_2  and  C2_3 
ROOT
ATOM      1  C2  UNL d   1       0.973   0.812  -1.527  0.00  0.00    -0.077 A 
ATOM      2  C3  UNL d   1       0.982  -0.210  -0.567  0.00  0.00     0.002 A 
ATOM      3  C4  UNL d   1       1.164  -1.539  -0.953  0.00  0.00     0.002 A 
ATOM      4  C5  UNL d   1       1.343  -1.858  -2.298  0.00  0.00    -0.004 A 
ATOM      5  C6  UNL d   1       1.334  -0.849  -3.260  0.00  0.00     0.002 A 
ATOM      6  C7  UNL d   1       1.151   0.480  -2.876  0.00  0.00     0.002 A 
ENDROOT
BRANCH   1   7
ATOM      7  C1  UNL d   1       0.826   2.251  -1.108  0.00  0.00     0.055 C 
ATOM      8  C   UNL d   1       1.521   2.515   0.220  0.00  0.00     0.019 C 
ENDBRANCH   1   7
TORSDOF 1
ENDMDL
