MODEL 1
REMARK minimizedAffinity 1.15037525
REMARK minimizedRMSD -1
REMARK  1 active torsions:
REMARK  status: ('A' for Active; 'I' for Inactive)
REMARK    1  A    between atoms: C1_2  and  C2_3 
ROOT
ATOM      1  C2  UNL d   1       1.217  -0.457  -2.797  0.00  0.00    -0.077 A 
ATOM      2  C3  UNL d   1       0.976  -0.783  -1.455  0.00  0.00     0.002 A 
ATOM      3  C4  UNL d   1       0.722   0.222  -0.519  0.00  0.00     0.002 A 
ATOM      4  C5  UNL d   1       0.702   1.557  -0.916  0.00  0.00    -0.004 A 
ATOM      5  C6  UNL d   1       0.941   1.892  -2.248  0.00  0.00     0.002 A 
ATOM      6  C7  UNL d   1       1.197   0.889  -3.185  0.00  0.00     0.002 A 
ENDROOT
BRANCH   1   7
ATOM      7  C1  UNL d   1       1.442  -1.542  -3.818  0.00  0.00     0.055 C 
ATOM      8  C   UNL d   1       0.904  -2.880  -3.331  0.00  0.00     0.019 C 
ENDBRANCH   1   7
TORSDOF 1
ENDMDL
