MODEL 1
REMARK minimizedAffinity 6.11907768
REMARK minimizedRMSD -1
REMARK  1 active torsions:
REMARK  status: ('A' for Active; 'I' for Inactive)
REMARK    1  A    between atoms: C1_2  and  C2_3 
ROOT
ATOM      1  C2  UNL d   1       1.318   1.873  -0.916  0.00  0.00    -0.077 A 
ATOM      2  C3  UNL d   1       1.161   0.481  -0.970  0.00  0.00     0.002 A 
ATOM      3  C4  UNL d   1       1.081  -0.174  -2.200  0.00  0.00     0.002 A 
ATOM      4  C5  UNL d   1       1.162   0.555  -3.385  0.00  0.00    -0.004 A 
ATOM      5  C6  UNL d   1       1.317   1.940  -3.342  0.00  0.00     0.002 A 
ATOM      6  C7  UNL d   1       1.395   2.596  -2.113  0.00  0.00     0.002 A 
ENDROOT
BRANCH   1   7
ATOM      7  C1  UNL d   1       1.453   2.576   0.410  0.00  0.00     0.055 C 
ATOM      8  C   UNL d   1       2.670   2.079   1.178  0.00  0.00     0.019 C 
ENDBRANCH   1   7
TORSDOF 1
ENDMDL
