MODEL 1
REMARK minimizedAffinity 2.46707273
REMARK minimizedRMSD -1
REMARK  1 active torsions:
REMARK  status: ('A' for Active; 'I' for Inactive)
REMARK    1  A    between atoms: C1_2  and  C2_3 
ROOT
ATOM      1  C2  UNL d   1       1.296  -0.382  -2.638  0.00  0.00    -0.077 A 
ATOM      2  C3  UNL d   1       1.106  -0.692  -1.284  0.00  0.00     0.002 A 
ATOM      3  C4  UNL d   1       0.716   0.298  -0.380  0.00  0.00     0.002 A 
ATOM      4  C5  UNL d   1       0.507   1.603  -0.821  0.00  0.00    -0.004 A 
ATOM      5  C6  UNL d   1       0.695   1.922  -2.165  0.00  0.00     0.002 A 
ATOM      6  C7  UNL d   1       1.087   0.935  -3.069  0.00  0.00     0.002 A 
ENDROOT
BRANCH   1   7
ATOM      7  C1  UNL d   1       1.670  -1.458  -3.623  0.00  0.00     0.055 C 
ATOM      8  C   UNL d   1       1.550  -2.842  -3.002  0.00  0.00     0.019 C 
ENDBRANCH   1   7
TORSDOF 1
ENDMDL
