MODEL 1
REMARK minimizedAffinity 10.307724
REMARK minimizedRMSD -1
REMARK  0 active torsions:
REMARK  status: ('A' for Active; 'I' for Inactive)
ROOT
ATOM      1  C   UNL d   1      -1.481  -3.650  -4.871  0.00  0.00    -0.002 A 
ATOM      2  C1  UNL d   1      -1.267  -3.011  -3.658  0.00  0.00     0.010 A 
ATOM      3  C2  UNL d   1       0.024  -2.889  -3.138  0.00  0.00     0.041 A 
ATOM      4  C3  UNL d   1       1.105  -3.423  -3.866  0.00  0.00    -0.075 A 
ATOM      5  S   UNL d   1       2.772  -3.390  -3.426  0.00  0.00     0.015 SA
ATOM      6  C4  UNL d   1       3.238  -4.223  -4.838  0.00  0.00     0.022 A 
ATOM      7  C5  UNL d   1       2.161  -4.527  -5.637  0.00  0.00     0.026 A 
ATOM      8  C6  UNL d   1       0.914  -4.070  -5.090  0.00  0.00    -0.082 A 
ATOM      9  C7  UNL d   1      -0.406  -4.179  -5.590  0.00  0.00     0.045 A 
ENDROOT
TORSDOF 0
ENDMDL
