MODEL 1
REMARK minimizedAffinity 7.818645
REMARK minimizedRMSD -1
REMARK  0 active torsions:
REMARK  status: ('A' for Active; 'I' for Inactive)
ROOT
ATOM      1  C   UNL d   1      -0.229  -2.995  -1.466  0.00  0.00    -0.002 A 
ATOM      2  C1  UNL d   1      -0.169  -2.000  -2.432  0.00  0.00     0.010 A 
ATOM      3  C2  UNL d   1      -0.180  -2.327  -3.789  0.00  0.00     0.041 A 
ATOM      4  C3  UNL d   1      -0.255  -3.684  -4.163  0.00  0.00    -0.075 A 
ATOM      5  S   UNL d   1      -0.283  -4.320  -5.765  0.00  0.00     0.015 SA
ATOM      6  C4  UNL d   1      -0.377  -5.927  -5.205  0.00  0.00     0.022 A 
ATOM      7  C5  UNL d   1      -0.387  -5.995  -3.831  0.00  0.00     0.026 A 
ATOM      8  C6  UNL d   1      -0.318  -4.703  -3.208  0.00  0.00    -0.082 A 
ATOM      9  C7  UNL d   1      -0.304  -4.339  -1.840  0.00  0.00     0.045 A 
ENDROOT
TORSDOF 0
ENDMDL
