MODEL 1
REMARK minimizedAffinity 18.5154457
REMARK minimizedRMSD -1
REMARK  0 active torsions:
REMARK  status: ('A' for Active; 'I' for Inactive)
ROOT
ATOM      1  C   UNL d   1       2.381  -1.223   3.083  0.00  0.00    -0.002 A 
ATOM      2  C1  UNL d   1       2.755  -2.224   2.198  0.00  0.00     0.010 A 
ATOM      3  C2  UNL d   1       3.703  -3.180   2.566  0.00  0.00     0.041 A 
ATOM      4  C3  UNL d   1       4.274  -3.114   3.852  0.00  0.00    -0.075 A 
ATOM      5  S   UNL d   1       5.453  -4.178   4.522  0.00  0.00     0.015 SA
ATOM      6  C4  UNL d   1       5.488  -3.329   6.000  0.00  0.00     0.022 A 
ATOM      7  C5  UNL d   1       4.628  -2.257   5.999  0.00  0.00     0.026 A 
ATOM      8  C6  UNL d   1       3.913  -2.116   4.762  0.00  0.00    -0.082 A 
ATOM      9  C7  UNL d   1       2.949  -1.160   4.358  0.00  0.00     0.045 A 
ENDROOT
TORSDOF 0
ENDMDL
