MODEL 1
REMARK minimizedAffinity 10.1326609
REMARK minimizedRMSD -1
REMARK  0 active torsions:
REMARK  status: ('A' for Active; 'I' for Inactive)
ROOT
ATOM      1  C   UNL d   1      -3.707   1.513   0.405  0.00  0.00    -0.002 A 
ATOM      2  C1  UNL d   1      -2.597   2.097   0.999  0.00  0.00     0.010 A 
ATOM      3  C2  UNL d   1      -2.517   3.483   1.147  0.00  0.00     0.041 A 
ATOM      4  C3  UNL d   1      -3.582   4.280   0.685  0.00  0.00    -0.075 A 
ATOM      5  S   UNL d   1      -3.703   5.999   0.760  0.00  0.00     0.015 SA
ATOM      6  C4  UNL d   1      -5.232   5.999   0.006  0.00  0.00     0.022 A 
ATOM      7  C5  UNL d   1      -5.654   4.727  -0.303  0.00  0.00     0.026 A 
ATOM      8  C6  UNL d   1      -4.711   3.716   0.083  0.00  0.00    -0.082 A 
ATOM      9  C7  UNL d   1      -4.762   2.308  -0.053  0.00  0.00     0.045 A 
ENDROOT
TORSDOF 0
ENDMDL
