MODEL 1
REMARK minimizedAffinity 16.0655518
REMARK minimizedRMSD -1
REMARK  0 active torsions:
REMARK  status: ('A' for Active; 'I' for Inactive)
ROOT
ATOM      1  C   UNL d   1      -0.309  -2.347  -1.274  0.00  0.00    -0.002 A 
ATOM      2  C1  UNL d   1      -1.311  -2.335  -2.234  0.00  0.00     0.010 A 
ATOM      3  C2  UNL d   1      -1.045  -2.743  -3.543  0.00  0.00     0.041 A 
ATOM      4  C3  UNL d   1       0.257  -3.169  -3.872  0.00  0.00    -0.075 A 
ATOM      5  S   UNL d   1       0.814  -3.714  -5.410  0.00  0.00     0.015 SA
ATOM      6  C4  UNL d   1       2.394  -3.976  -4.828  0.00  0.00     0.022 A 
ATOM      7  C5  UNL d   1       2.512  -3.661  -3.496  0.00  0.00     0.026 A 
ATOM      8  C6  UNL d   1       1.282  -3.191  -2.922  0.00  0.00    -0.082 A 
ATOM      9  C7  UNL d   1       0.981  -2.770  -1.605  0.00  0.00     0.045 A 
ENDROOT
TORSDOF 0
ENDMDL
