MODEL 1
REMARK minimizedAffinity 20.1760406
REMARK minimizedRMSD -1
REMARK  0 active torsions:
REMARK  status: ('A' for Active; 'I' for Inactive)
ROOT
ATOM      1  C   UNL d   1       0.891  -2.567  -3.060  0.00  0.00    -0.002 A 
ATOM      2  C1  UNL d   1      -0.022  -2.288  -2.053  0.00  0.00     0.010 A 
ATOM      3  C2  UNL d   1       0.414  -2.020  -0.754  0.00  0.00     0.041 A 
ATOM      4  C3  UNL d   1       1.796  -2.036  -0.481  0.00  0.00    -0.075 A 
ATOM      5  S   UNL d   1       2.560  -1.736   1.035  0.00  0.00     0.015 SA
ATOM      6  C4  UNL d   1       4.116  -1.971   0.382  0.00  0.00     0.022 A 
ATOM      7  C5  UNL d   1       4.073  -2.272  -0.959  0.00  0.00     0.026 A 
ATOM      8  C6  UNL d   1       2.735  -2.314  -1.479  0.00  0.00    -0.082 A 
ATOM      9  C7  UNL d   1       2.262  -2.582  -2.786  0.00  0.00     0.045 A 
ENDROOT
TORSDOF 0
ENDMDL
