MODEL 1
REMARK minimizedAffinity 10.5044241
REMARK minimizedRMSD -1
REMARK  0 active torsions:
REMARK  status: ('A' for Active; 'I' for Inactive)
ROOT
ATOM      1  C   UNL d   1       0.410  -2.527  -1.928  0.00  0.00    -0.002 A 
ATOM      2  C1  UNL d   1      -0.635  -2.638  -2.835  0.00  0.00     0.010 A 
ATOM      3  C2  UNL d   1      -1.959  -2.661  -2.394  0.00  0.00     0.041 A 
ATOM      4  C3  UNL d   1      -2.219  -2.568  -1.012  0.00  0.00    -0.075 A 
ATOM      5  S   UNL d   1      -3.761  -2.574  -0.241  0.00  0.00     0.015 SA
ATOM      6  C4  UNL d   1      -3.069  -2.429   1.310  0.00  0.00     0.022 A 
ATOM      7  C5  UNL d   1      -1.697  -2.375   1.259  0.00  0.00     0.026 A 
ATOM      8  C6  UNL d   1      -1.184  -2.454  -0.080  0.00  0.00    -0.082 A 
ATOM      9  C7  UNL d   1       0.149  -2.434  -0.559  0.00  0.00     0.045 A 
ENDROOT
TORSDOF 0
ENDMDL
