MODEL 1
REMARK minimizedAffinity 11.5662479
REMARK minimizedRMSD -1
REMARK  0 active torsions:
REMARK  status: ('A' for Active; 'I' for Inactive)
ROOT
ATOM      1  C   UNL d   1      -0.456  -2.745  -1.458  0.00  0.00    -0.002 A 
ATOM      2  C1  UNL d   1      -1.403  -2.840  -2.469  0.00  0.00     0.010 A 
ATOM      3  C2  UNL d   1      -1.018  -3.138  -3.777  0.00  0.00     0.041 A 
ATOM      4  C3  UNL d   1       0.348  -3.343  -4.056  0.00  0.00    -0.075 A 
ATOM      5  S   UNL d   1       1.052  -3.721  -5.583  0.00  0.00     0.015 SA
ATOM      6  C4  UNL d   1       2.626  -3.766  -4.931  0.00  0.00     0.022 A 
ATOM      7  C5  UNL d   1       2.632  -3.502  -3.582  0.00  0.00     0.026 A 
ATOM      8  C6  UNL d   1       1.320  -3.255  -3.055  0.00  0.00    -0.082 A 
ATOM      9  C7  UNL d   1       0.897  -2.950  -1.738  0.00  0.00     0.045 A 
ENDROOT
TORSDOF 0
ENDMDL
