MODEL 1
REMARK minimizedAffinity 16.6161919
REMARK minimizedRMSD -1
REMARK  0 active torsions:
REMARK  status: ('A' for Active; 'I' for Inactive)
ROOT
ATOM      1  C   UNL d   1       1.123   4.838   1.240  0.00  0.00    -0.002 A 
ATOM      2  C1  UNL d   1       0.384   6.000   1.066  0.00  0.00     0.010 A 
ATOM      3  C2  UNL d   1      -0.976   5.937   0.756  0.00  0.00     0.041 A 
ATOM      4  C3  UNL d   1      -1.588   4.675   0.626  0.00  0.00    -0.075 A 
ATOM      5  S   UNL d   1      -3.240   4.355   0.252  0.00  0.00     0.015 SA
ATOM      6  C4  UNL d   1      -3.006   2.669   0.316  0.00  0.00     0.022 A 
ATOM      7  C5  UNL d   1      -1.704   2.340   0.614  0.00  0.00     0.026 A 
ATOM      8  C6  UNL d   1      -0.866   3.491   0.797  0.00  0.00    -0.082 A 
ATOM      9  C7  UNL d   1       0.512   3.587   1.109  0.00  0.00     0.045 A 
ENDROOT
TORSDOF 0
ENDMDL
