MODEL 1
REMARK minimizedAffinity -4.09058332
REMARK minimizedRMSD -1
REMARK  2 active torsions:
REMARK  status: ('A' for Active; 'I' for Inactive)
REMARK    1  A    between atoms: C1_2  and  C2_3 
REMARK    2  A    between atoms: C2_3  and  C3_4 
ROOT
ATOM      1  C3  UNL d   1       4.175   0.922  -0.329  0.00  0.00    -0.075 A 
ATOM      2  C4  UNL d   1       4.064   0.061   0.772  0.00  0.00     0.002 A 
ATOM      3  C5  UNL d   1       4.904   0.211   1.877  0.00  0.00     0.002 A 
ATOM      4  C6  UNL d   1       5.869   1.215   1.890  0.00  0.00    -0.004 A 
ATOM      5  C7  UNL d   1       6.000   2.066   0.794  0.00  0.00     0.002 A 
ATOM      6  C8  UNL d   1       5.158   1.921  -0.310  0.00  0.00     0.002 A 
ENDROOT
BRANCH   1   7
ATOM      7  C2  UNL d   1       3.250   0.784  -1.514  0.00  0.00     0.056 C 
BRANCH   7   8
ATOM      8  C1  UNL d   1       3.768   1.454  -2.791  0.00  0.00     0.007 C 
ATOM      9  C   UNL d   1       2.665   1.778  -3.790  0.00  0.00     0.009 C 
ENDBRANCH   7   8
ENDBRANCH   1   7
TORSDOF 2
ENDMDL
