MODEL 1
REMARK minimizedAffinity 1.42401588
REMARK minimizedRMSD -1
REMARK  2 active torsions:
REMARK  status: ('A' for Active; 'I' for Inactive)
REMARK    1  A    between atoms: C1_2  and  C2_3 
REMARK    2  A    between atoms: C2_3  and  C3_4 
ROOT
ATOM      1  C3  UNL d   1       3.875   1.137  -0.643  0.00  0.00    -0.075 A 
ATOM      2  C4  UNL d   1       2.711   1.456   0.072  0.00  0.00     0.002 A 
ATOM      3  C5  UNL d   1       2.429   0.825   1.283  0.00  0.00     0.002 A 
ATOM      4  C6  UNL d   1       3.298  -0.139   1.789  0.00  0.00    -0.004 A 
ATOM      5  C7  UNL d   1       4.449  -0.475   1.080  0.00  0.00     0.002 A 
ATOM      6  C8  UNL d   1       4.736   0.158  -0.131  0.00  0.00     0.002 A 
ENDROOT
BRANCH   1   7
ATOM      7  C2  UNL d   1       4.201   1.838  -1.940  0.00  0.00     0.056 C 
BRANCH   7   8
ATOM      8  C1  UNL d   1       3.405   1.325  -3.144  0.00  0.00     0.007 C 
ATOM      9  C   UNL d   1       2.176   2.168  -3.455  0.00  0.00     0.009 C 
ENDBRANCH   7   8
ENDBRANCH   1   7
TORSDOF 2
ENDMDL
