MODEL 1
REMARK minimizedAffinity -3.20494509
REMARK minimizedRMSD -1
REMARK  2 active torsions:
REMARK  status: ('A' for Active; 'I' for Inactive)
REMARK    1  A    between atoms: C1_2  and  C2_3 
REMARK    2  A    between atoms: C2_3  and  C3_4 
ROOT
ATOM      1  C3  UNL d   1       3.100   0.407   2.173  0.00  0.00    -0.075 A 
ATOM      2  C4  UNL d   1       2.691  -0.152   3.393  0.00  0.00     0.002 A 
ATOM      3  C5  UNL d   1       1.507   0.264   4.002  0.00  0.00     0.002 A 
ATOM      4  C6  UNL d   1       0.723   1.249   3.406  0.00  0.00    -0.004 A 
ATOM      5  C7  UNL d   1       1.127   1.824   2.203  0.00  0.00     0.002 A 
ATOM      6  C8  UNL d   1       2.310   1.406   1.589  0.00  0.00     0.002 A 
ENDROOT
BRANCH   1   7
ATOM      7  C2  UNL d   1       4.365  -0.059   1.495  0.00  0.00     0.056 C 
BRANCH   7   8
ATOM      8  C1  UNL d   1       5.239   1.077   0.954  0.00  0.00     0.007 C 
ATOM      9  C   UNL d   1       5.992   0.704  -0.316  0.00  0.00     0.009 C 
ENDBRANCH   7   8
ENDBRANCH   1   7
TORSDOF 2
ENDMDL
