MODEL 1
REMARK minimizedAffinity 8.30634975
REMARK minimizedRMSD -1
REMARK  2 active torsions:
REMARK  status: ('A' for Active; 'I' for Inactive)
REMARK    1  A    between atoms: C1_2  and  C2_3 
REMARK    2  A    between atoms: C2_3  and  C3_4 
ROOT
ATOM      1  C3  UNL d   1      -4.301  -3.370  -2.637  0.00  0.00    -0.075 A 
ATOM      2  C4  UNL d   1      -3.483  -3.398  -3.776  0.00  0.00     0.002 A 
ATOM      3  C5  UNL d   1      -2.139  -3.033  -3.692  0.00  0.00     0.002 A 
ATOM      4  C6  UNL d   1      -1.600  -2.627  -2.473  0.00  0.00    -0.004 A 
ATOM      5  C7  UNL d   1      -2.407  -2.580  -1.339  0.00  0.00     0.002 A 
ATOM      6  C8  UNL d   1      -3.751  -2.949  -1.419  0.00  0.00     0.002 A 
ENDROOT
BRANCH   1   7
ATOM      7  C2  UNL d   1      -5.749  -3.792  -2.716  0.00  0.00     0.056 C 
BRANCH   7   8
ATOM      8  C1  UNL d   1      -5.997  -5.250  -2.315  0.00  0.00     0.007 C 
ATOM      9  C   UNL d   1      -4.988  -5.774  -1.301  0.00  0.00     0.009 C 
ENDBRANCH   7   8
ENDBRANCH   1   7
TORSDOF 2
ENDMDL
