MODEL 1
REMARK minimizedAffinity 4.74702454
REMARK minimizedRMSD -1
REMARK  2 active torsions:
REMARK  status: ('A' for Active; 'I' for Inactive)
REMARK    1  A    between atoms: C1_2  and  C2_3 
REMARK    2  A    between atoms: C2_3  and  C3_4 
ROOT
ATOM      1  C3  UNL d   1       3.664   1.032  -0.362  0.00  0.00    -0.075 A 
ATOM      2  C4  UNL d   1       4.432   0.026   0.241  0.00  0.00     0.002 A 
ATOM      3  C5  UNL d   1       3.896  -0.757   1.264  0.00  0.00     0.002 A 
ATOM      4  C6  UNL d   1       2.593  -0.537   1.703  0.00  0.00    -0.004 A 
ATOM      5  C7  UNL d   1       1.826   0.471   1.122  0.00  0.00     0.002 A 
ATOM      6  C8  UNL d   1       2.358   1.252   0.096  0.00  0.00     0.002 A 
ENDROOT
BRANCH   1   7
ATOM      7  C2  UNL d   1       4.228   1.863  -1.490  0.00  0.00     0.056 C 
BRANCH   7   8
ATOM      8  C1  UNL d   1       3.500   1.678  -2.825  0.00  0.00     0.007 C 
ATOM      9  C   UNL d   1       4.388   1.095  -3.917  0.00  0.00     0.009 C 
ENDBRANCH   7   8
ENDBRANCH   1   7
TORSDOF 2
ENDMDL
