MODEL 1
REMARK minimizedAffinity 9.28954697
REMARK minimizedRMSD -1
REMARK  2 active torsions:
REMARK  status: ('A' for Active; 'I' for Inactive)
REMARK    1  A    between atoms: C1_2  and  C2_3 
REMARK    2  A    between atoms: C2_3  and  C3_4 
ROOT
ATOM      1  C3  UNL d   1      -1.406  -3.982  -3.260  0.00  0.00    -0.075 A 
ATOM      2  C4  UNL d   1      -2.609  -3.282  -3.092  0.00  0.00     0.002 A 
ATOM      3  C5  UNL d   1      -2.883  -2.622  -1.893  0.00  0.00     0.002 A 
ATOM      4  C6  UNL d   1      -1.964  -2.663  -0.847  0.00  0.00    -0.004 A 
ATOM      5  C7  UNL d   1      -0.773  -3.370  -0.997  0.00  0.00     0.002 A 
ATOM      6  C8  UNL d   1      -0.495  -4.027  -2.197  0.00  0.00     0.002 A 
ENDROOT
BRANCH   1   7
ATOM      7  C2  UNL d   1      -1.091  -4.673  -4.566  0.00  0.00     0.056 C 
BRANCH   7   8
ATOM      8  C1  UNL d   1      -1.611  -3.935  -5.804  0.00  0.00     0.007 C 
ATOM      9  C   UNL d   1      -0.973  -2.566  -5.999  0.00  0.00     0.009 C 
ENDBRANCH   7   8
ENDBRANCH   1   7
TORSDOF 2
ENDMDL
