MODEL 1
REMARK minimizedAffinity 1.12421072
REMARK minimizedRMSD -1
REMARK  2 active torsions:
REMARK  status: ('A' for Active; 'I' for Inactive)
REMARK    1  A    between atoms: C1_2  and  C2_3 
REMARK    2  A    between atoms: C2_3  and  C3_4 
ROOT
ATOM      1  C3  UNL d   1       4.088   1.264   0.266  0.00  0.00    -0.075 A 
ATOM      2  C4  UNL d   1       4.897   2.250   0.851  0.00  0.00     0.002 A 
ATOM      3  C5  UNL d   1       5.850   1.906   1.811  0.00  0.00     0.002 A 
ATOM      4  C6  UNL d   1       5.999   0.578   2.204  0.00  0.00    -0.004 A 
ATOM      5  C7  UNL d   1       5.189  -0.407   1.642  0.00  0.00     0.002 A 
ATOM      6  C8  UNL d   1       4.238  -0.066   0.678  0.00  0.00     0.002 A 
ENDROOT
BRANCH   1   7
ATOM      7  C2  UNL d   1       3.076   1.625  -0.795  0.00  0.00     0.056 C 
BRANCH   7   8
ATOM      8  C1  UNL d   1       3.696   2.040  -2.134  0.00  0.00     0.007 C 
ATOM      9  C   UNL d   1       4.034   0.856  -3.031  0.00  0.00     0.009 C 
ENDBRANCH   7   8
ENDBRANCH   1   7
TORSDOF 2
ENDMDL
