MODEL 1
REMARK minimizedAffinity 3.41512394
REMARK minimizedRMSD -1
REMARK  2 active torsions:
REMARK  status: ('A' for Active; 'I' for Inactive)
REMARK    1  A    between atoms: C1_2  and  C2_3 
REMARK    2  A    between atoms: C2_3  and  C3_4 
ROOT
ATOM      1  C3  UNL d   1      -2.321  -3.449  -1.219  0.00  0.00    -0.075 A 
ATOM      2  C4  UNL d   1      -1.476  -2.495  -0.633  0.00  0.00     0.002 A 
ATOM      3  C5  UNL d   1      -0.795  -2.783   0.550  0.00  0.00     0.002 A 
ATOM      4  C6  UNL d   1      -0.957  -4.022   1.167  0.00  0.00    -0.004 A 
ATOM      5  C7  UNL d   1      -1.807  -4.971   0.602  0.00  0.00     0.002 A 
ATOM      6  C8  UNL d   1      -2.486  -4.687  -0.584  0.00  0.00     0.002 A 
ENDROOT
BRANCH   1   7
ATOM      7  C2  UNL d   1      -3.037  -3.153  -2.515  0.00  0.00     0.056 C 
BRANCH   7   8
ATOM      8  C1  UNL d   1      -2.274  -2.209  -3.449  0.00  0.00     0.007 C 
ATOM      9  C   UNL d   1      -1.809  -2.881  -4.734  0.00  0.00     0.009 C 
ENDBRANCH   7   8
ENDBRANCH   1   7
TORSDOF 2
ENDMDL
