MODEL 1
REMARK minimizedAffinity 0.208594918
REMARK minimizedRMSD -1
REMARK  2 active torsions:
REMARK  status: ('A' for Active; 'I' for Inactive)
REMARK    1  A    between atoms: C1_2  and  C2_3 
REMARK    2  A    between atoms: C2_3  and  C3_4 
ROOT
ATOM      1  C3  UNL d   1       2.475   1.581  -3.051  0.00  0.00    -0.075 A 
ATOM      2  C4  UNL d   1       1.627   2.230  -3.960  0.00  0.00     0.002 A 
ATOM      3  C5  UNL d   1       1.970   2.319  -5.310  0.00  0.00     0.002 A 
ATOM      4  C6  UNL d   1       3.167   1.769  -5.765  0.00  0.00    -0.004 A 
ATOM      5  C7  UNL d   1       4.024   1.136  -4.868  0.00  0.00     0.002 A 
ATOM      6  C8  UNL d   1       3.682   1.043  -3.518  0.00  0.00     0.002 A 
ENDROOT
BRANCH   1   7
ATOM      7  C2  UNL d   1       2.095   1.456  -1.595  0.00  0.00     0.056 C 
BRANCH   7   8
ATOM      8  C1  UNL d   1       2.850   0.352  -0.846  0.00  0.00     0.007 C 
ATOM      9  C   UNL d   1       2.675   0.425   0.665  0.00  0.00     0.009 C 
ENDBRANCH   7   8
ENDBRANCH   1   7
TORSDOF 2
ENDMDL
