MODEL 1
REMARK minimizedAffinity 9.0947237
REMARK minimizedRMSD -1
REMARK  2 active torsions:
REMARK  status: ('A' for Active; 'I' for Inactive)
REMARK    1  A    between atoms: C1_2  and  C2_3 
REMARK    2  A    between atoms: C2_3  and  C3_4 
ROOT
ATOM      1  C3  UNL d   1       3.800   1.079  -1.554  0.00  0.00    -0.075 A 
ATOM      2  C4  UNL d   1       4.958   0.370  -1.205  0.00  0.00     0.002 A 
ATOM      3  C5  UNL d   1       4.976  -0.446  -0.073  0.00  0.00     0.002 A 
ATOM      4  C6  UNL d   1       3.841  -0.554   0.728  0.00  0.00    -0.004 A 
ATOM      5  C7  UNL d   1       2.690   0.158   0.400  0.00  0.00     0.002 A 
ATOM      6  C8  UNL d   1       2.668   0.971  -0.735  0.00  0.00     0.002 A 
ENDROOT
BRANCH   1   7
ATOM      7  C2  UNL d   1       3.765   1.939  -2.795  0.00  0.00     0.056 C 
BRANCH   7   8
ATOM      8  C1  UNL d   1       3.863   1.150  -4.105  0.00  0.00     0.007 C 
ATOM      9  C   UNL d   1       5.257   1.172  -4.716  0.00  0.00     0.009 C 
ENDBRANCH   7   8
ENDBRANCH   1   7
TORSDOF 2
ENDMDL
