MODEL 1
REMARK minimizedAffinity 0.46245119
REMARK minimizedRMSD -1
REMARK  2 active torsions:
REMARK  status: ('A' for Active; 'I' for Inactive)
REMARK    1  A    between atoms: C1_2  and  C2_3 
REMARK    2  A    between atoms: C2_3  and  C3_4 
ROOT
ATOM      1  C3  UNL d   1      -2.672  -3.502  -0.533  0.00  0.00    -0.075 A 
ATOM      2  C4  UNL d   1      -3.299  -4.712  -0.863  0.00  0.00     0.002 A 
ATOM      3  C5  UNL d   1      -3.512  -5.059  -2.198  0.00  0.00     0.002 A 
ATOM      4  C6  UNL d   1      -3.112  -4.198  -3.217  0.00  0.00    -0.004 A 
ATOM      5  C7  UNL d   1      -2.503  -2.985  -2.900  0.00  0.00     0.002 A 
ATOM      6  C8  UNL d   1      -2.284  -2.638  -1.566  0.00  0.00     0.002 A 
ENDROOT
BRANCH   1   7
ATOM      7  C2  UNL d   1      -2.412  -3.134   0.908  0.00  0.00     0.056 C 
BRANCH   7   8
ATOM      8  C1  UNL d   1      -1.240  -3.890   1.542  0.00  0.00     0.007 C 
ATOM      9  C   UNL d   1       0.015  -3.886   0.679  0.00  0.00     0.009 C 
ENDBRANCH   7   8
ENDBRANCH   1   7
TORSDOF 2
ENDMDL
