MODEL 1
REMARK minimizedAffinity 8.98618603
REMARK minimizedRMSD -1
REMARK  0 active torsions:
REMARK  status: ('A' for Active; 'I' for Inactive)
ROOT
ATOM      1  C   UNL d   1       2.907  -0.013   1.512  0.00  0.00    -0.002 A 
ATOM      2  C1  UNL d   1       1.533  -0.089   1.694  0.00  0.00     0.010 A 
ATOM      3  C2  UNL d   1       0.692   0.895   1.170  0.00  0.00     0.041 A 
ATOM      4  C3  UNL d   1       1.260   1.965   0.452  0.00  0.00    -0.075 A 
ATOM      5  S   UNL d   1       0.425   3.284  -0.281  0.00  0.00     0.015 SA
ATOM      6  C4  UNL d   1       1.872   3.979  -0.853  0.00  0.00     0.022 A 
ATOM      7  C5  UNL d   1       2.975   3.236  -0.503  0.00  0.00     0.026 A 
ATOM      8  C6  UNL d   1       2.640   2.063   0.255  0.00  0.00    -0.082 A 
ATOM      9  C7  UNL d   1       3.466   1.051   0.799  0.00  0.00     0.045 A 
ENDROOT
TORSDOF 0
ENDMDL
