MODEL 1
REMARK minimizedAffinity 11.1979704
REMARK minimizedRMSD -1
REMARK  0 active torsions:
REMARK  status: ('A' for Active; 'I' for Inactive)
ROOT
ATOM      1  C   UNL d   1      -1.384  -3.260  -3.337  0.00  0.00    -0.002 A 
ATOM      2  C1  UNL d   1      -2.657  -3.009  -2.847  0.00  0.00     0.010 A 
ATOM      3  C2  UNL d   1      -2.844  -2.630  -1.516  0.00  0.00     0.041 A 
ATOM      4  C3  UNL d   1      -1.718  -2.504  -0.679  0.00  0.00    -0.075 A 
ATOM      5  S   UNL d   1      -1.706  -2.052   0.985  0.00  0.00     0.015 SA
ATOM      6  C4  UNL d   1      -0.009  -2.180   1.083  0.00  0.00     0.022 A 
ATOM      7  C5  UNL d   1       0.550  -2.558  -0.114  0.00  0.00     0.026 A 
ATOM      8  C6  UNL d   1      -0.426  -2.751  -1.150  0.00  0.00    -0.082 A 
ATOM      9  C7  UNL d   1      -0.269  -3.135  -2.504  0.00  0.00     0.045 A 
ENDROOT
TORSDOF 0
ENDMDL
