MODEL 1
REMARK minimizedAffinity 16.8224945
REMARK minimizedRMSD -1
REMARK  0 active torsions:
REMARK  status: ('A' for Active; 'I' for Inactive)
ROOT
ATOM      1  C   UNL d   1       2.911  -4.766   0.080  0.00  0.00    -0.002 A 
ATOM      2  C1  UNL d   1       2.548  -4.444  -1.220  0.00  0.00     0.010 A 
ATOM      3  C2  UNL d   1       1.422  -3.657  -1.469  0.00  0.00     0.041 A 
ATOM      4  C3  UNL d   1       0.661  -3.193  -0.378  0.00  0.00    -0.075 A 
ATOM      5  S   UNL d   1      -0.757  -2.214  -0.442  0.00  0.00     0.015 SA
ATOM      6  C4  UNL d   1      -0.914  -2.199   1.255  0.00  0.00     0.022 A 
ATOM      7  C5  UNL d   1       0.082  -2.918   1.871  0.00  0.00     0.026 A 
ATOM      8  C6  UNL d   1       1.007  -3.503   0.940  0.00  0.00    -0.082 A 
ATOM      9  C7  UNL d   1       2.153  -4.303   1.159  0.00  0.00     0.045 A 
ENDROOT
TORSDOF 0
ENDMDL
