MODEL 1
REMARK minimizedAffinity 4.79391956
REMARK minimizedRMSD -1
REMARK  0 active torsions:
REMARK  status: ('A' for Active; 'I' for Inactive)
ROOT
ATOM      1  C   UNL d   1       4.042  -0.342   0.572  0.00  0.00    -0.002 A 
ATOM      2  C1  UNL d   1       3.362  -0.333   1.781  0.00  0.00     0.010 A 
ATOM      3  C2  UNL d   1       2.489   0.710   2.097  0.00  0.00     0.041 A 
ATOM      4  C3  UNL d   1       2.309   1.753   1.167  0.00  0.00    -0.075 A 
ATOM      5  S   UNL d   1       1.290   3.133   1.338  0.00  0.00     0.015 SA
ATOM      6  C4  UNL d   1       1.734   3.743  -0.190  0.00  0.00     0.022 A 
ATOM      7  C5  UNL d   1       2.637   2.926  -0.829  0.00  0.00     0.026 A 
ATOM      8  C6  UNL d   1       2.982   1.765  -0.057  0.00  0.00    -0.082 A 
ATOM      9  C7  UNL d   1       3.861   0.694  -0.348  0.00  0.00     0.045 A 
ENDROOT
TORSDOF 0
ENDMDL
