MODEL 1
REMARK minimizedAffinity -0.495231599
REMARK minimizedRMSD -1
REMARK  0 active torsions:
REMARK  status: ('A' for Active; 'I' for Inactive)
ROOT
ATOM      1  C   UNL d   1      -0.172   3.667  -0.814  0.00  0.00    -0.002 A 
ATOM      2  C1  UNL d   1      -1.028   2.971   0.028  0.00  0.00     0.010 A 
ATOM      3  C2  UNL d   1      -0.538   1.971   0.871  0.00  0.00     0.041 A 
ATOM      4  C3  UNL d   1       0.841   1.681   0.854  0.00  0.00    -0.075 A 
ATOM      5  S   UNL d   1       1.665   0.499   1.800  0.00  0.00     0.015 SA
ATOM      6  C4  UNL d   1       3.173   0.890   1.109  0.00  0.00     0.022 A 
ATOM      7  C5  UNL d   1       3.069   1.896   0.178  0.00  0.00     0.026 A 
ATOM      8  C6  UNL d   1       1.723   2.369   0.016  0.00  0.00    -0.082 A 
ATOM      9  C7  UNL d   1       1.195   3.376  -0.827  0.00  0.00     0.045 A 
ENDROOT
TORSDOF 0
ENDMDL
