MODEL 1
REMARK minimizedAffinity 4.54040098
REMARK minimizedRMSD -1
REMARK  0 active torsions:
REMARK  status: ('A' for Active; 'I' for Inactive)
ROOT
ATOM      1  C   UNL d   1       1.266   3.822  -0.807  0.00  0.00    -0.002 A 
ATOM      2  C1  UNL d   1      -0.011   3.421  -0.441  0.00  0.00     0.010 A 
ATOM      3  C2  UNL d   1      -0.203   2.259   0.310  0.00  0.00     0.041 A 
ATOM      4  C3  UNL d   1       0.922   1.502   0.692  0.00  0.00    -0.075 A 
ATOM      5  S   UNL d   1       0.929   0.045   1.615  0.00  0.00     0.015 SA
ATOM      6  C4  UNL d   1       2.627  -0.078   1.545  0.00  0.00     0.022 A 
ATOM      7  C5  UNL d   1       3.191   0.958   0.840  0.00  0.00     0.026 A 
ATOM      8  C6  UNL d   1       2.218   1.886   0.337  0.00  0.00    -0.082 A 
ATOM      9  C7  UNL d   1       2.379   3.068  -0.426  0.00  0.00     0.045 A 
ENDROOT
TORSDOF 0
ENDMDL
