MODEL 1
REMARK minimizedAffinity 3.0182395
REMARK minimizedRMSD -1
REMARK  0 active torsions:
REMARK  status: ('A' for Active; 'I' for Inactive)
ROOT
ATOM      1  C   UNL d   1       3.034  -0.782   1.943  0.00  0.00    -0.002 A 
ATOM      2  C1  UNL d   1       1.920  -1.599   2.073  0.00  0.00     0.010 A 
ATOM      3  C2  UNL d   1       0.650  -1.126   1.738  0.00  0.00     0.041 A 
ATOM      4  C3  UNL d   1       0.517   0.194   1.264  0.00  0.00    -0.075 A 
ATOM      5  S   UNL d   1      -0.939   0.987   0.791  0.00  0.00     0.015 SA
ATOM      6  C4  UNL d   1      -0.116   2.429   0.405  0.00  0.00     0.022 A 
ATOM      7  C5  UNL d   1       1.237   2.325   0.625  0.00  0.00     0.026 A 
ATOM      8  C6  UNL d   1       1.624   1.035   1.123  0.00  0.00    -0.082 A 
ATOM      9  C7  UNL d   1       2.899   0.527   1.472  0.00  0.00     0.045 A 
ENDROOT
TORSDOF 0
ENDMDL
