MODEL 1
REMARK minimizedAffinity -2.04041457
REMARK minimizedRMSD -1
REMARK  0 active torsions:
REMARK  status: ('A' for Active; 'I' for Inactive)
ROOT
ATOM      1  C   UNL d   1       1.631  -0.940   5.259  0.00  0.00    -0.002 A 
ATOM      2  C1  UNL d   1       2.118   0.348   5.090  0.00  0.00     0.010 A 
ATOM      3  C2  UNL d   1       2.049   0.976   3.844  0.00  0.00     0.041 A 
ATOM      4  C3  UNL d   1       1.475   0.280   2.762  0.00  0.00    -0.075 A 
ATOM      5  S   UNL d   1       1.283   0.849   1.145  0.00  0.00     0.015 SA
ATOM      6  C4  UNL d   1       0.550  -0.605   0.642  0.00  0.00     0.022 A 
ATOM      7  C5  UNL d   1       0.447  -1.513   1.669  0.00  0.00     0.026 A 
ATOM      8  C6  UNL d   1       0.978  -1.018   2.908  0.00  0.00    -0.082 A 
ATOM      9  C7  UNL d   1       1.063  -1.627   4.183  0.00  0.00     0.045 A 
ENDROOT
TORSDOF 0
ENDMDL
