MODEL 1
REMARK minimizedAffinity 2.63007569
REMARK minimizedRMSD -1
REMARK  1 active torsions:
REMARK  status: ('A' for Active; 'I' for Inactive)
REMARK    1  A    between atoms: C1_2  and  C2_3 
ROOT
ATOM      1  C2  UNL d   1       4.238   4.393   2.283  0.00  0.00    -0.076 A 
ATOM      2  C3  UNL d   1       4.010   5.439   1.372  0.00  0.00     0.004 A 
ATOM      3  C4  UNL d   1       4.284   5.280   0.015  0.00  0.00    -0.003 A 
ATOM      4  C5  UNL d   1       4.790   4.073  -0.454  0.00  0.00     0.000 A 
ATOM      5  C6  UNL d   1       5.005   3.018   0.433  0.00  0.00     0.000 A 
ATOM      6  C7  UNL d   1       4.719   3.156   1.802  0.00  0.00    -0.073 A 
ATOM      7  C8  UNL d   1       4.977   1.988   2.714  0.00  0.00     0.078 C 
ENDROOT
BRANCH   1   8
ATOM      8  C1  UNL d   1       3.948   4.632   3.748  0.00  0.00     0.053 C 
ATOM      9  C   UNL d   1       3.285   5.977   3.999  0.00  0.00     0.018 C 
ENDBRANCH   1   8
TORSDOF 1
ENDMDL
