MODEL 1
REMARK minimizedAffinity -3.6491251
REMARK minimizedRMSD -1
REMARK  1 active torsions:
REMARK  status: ('A' for Active; 'I' for Inactive)
REMARK    1  A    between atoms: C1_2  and  C2_3 
ROOT
ATOM      1  C2  UNL d   1      -2.142  -3.915  -0.095  0.00  0.00    -0.076 A 
ATOM      2  C3  UNL d   1      -2.945  -3.012   0.623  0.00  0.00     0.004 A 
ATOM      3  C4  UNL d   1      -2.402  -1.854   1.178  0.00  0.00    -0.003 A 
ATOM      4  C5  UNL d   1      -1.048  -1.581   1.025  0.00  0.00     0.000 A 
ATOM      5  C6  UNL d   1      -0.240  -2.457   0.300  0.00  0.00     0.000 A 
ATOM      6  C7  UNL d   1      -0.774  -3.620  -0.280  0.00  0.00    -0.073 A 
ATOM      7  C8  UNL d   1       0.145  -4.532  -1.045  0.00  0.00     0.078 C 
ENDROOT
BRANCH   1   8
ATOM      8  C1  UNL d   1      -2.780  -5.167  -0.652  0.00  0.00     0.053 C 
ATOM      9  C   UNL d   1      -4.018  -5.585   0.126  0.00  0.00     0.018 C 
ENDBRANCH   1   8
TORSDOF 1
ENDMDL
