MODEL 1
REMARK minimizedAffinity 3.35993385
REMARK minimizedRMSD -1
REMARK  1 active torsions:
REMARK  status: ('A' for Active; 'I' for Inactive)
REMARK    1  A    between atoms: C1_2  and  C2_3 
ROOT
ATOM      1  C2  UNL d   1       2.590   2.140   2.261  0.00  0.00    -0.076 A 
ATOM      2  C3  UNL d   1       1.440   1.794   1.530  0.00  0.00     0.004 A 
ATOM      3  C4  UNL d   1       1.514   0.922   0.446  0.00  0.00    -0.003 A 
ATOM      4  C5  UNL d   1       2.740   0.380   0.075  0.00  0.00     0.000 A 
ATOM      5  C6  UNL d   1       3.888   0.698   0.799  0.00  0.00     0.000 A 
ATOM      6  C7  UNL d   1       3.828   1.563   1.905  0.00  0.00    -0.073 A 
ATOM      7  C8  UNL d   1       5.099   1.876   2.647  0.00  0.00     0.078 C 
ENDROOT
BRANCH   1   8
ATOM      8  C1  UNL d   1       2.453   3.113   3.410  0.00  0.00     0.053 C 
ATOM      9  C   UNL d   1       2.902   4.518   3.041  0.00  0.00     0.018 C 
ENDBRANCH   1   8
TORSDOF 1
ENDMDL
