MODEL 1
REMARK minimizedAffinity 7.08957911
REMARK minimizedRMSD -1
REMARK  1 active torsions:
REMARK  status: ('A' for Active; 'I' for Inactive)
REMARK    1  A    between atoms: C1_2  and  C2_3 
ROOT
ATOM      1  C2  UNL d   1       1.994   3.655   2.322  0.00  0.00    -0.076 A 
ATOM      2  C3  UNL d   1       1.498   2.415   1.884  0.00  0.00     0.004 A 
ATOM      3  C4  UNL d   1       2.358   1.426   1.409  0.00  0.00    -0.003 A 
ATOM      4  C5  UNL d   1       3.728   1.661   1.366  0.00  0.00     0.000 A 
ATOM      5  C6  UNL d   1       4.239   2.879   1.814  0.00  0.00     0.000 A 
ATOM      6  C7  UNL d   1       3.387   3.881   2.310  0.00  0.00    -0.073 A 
ATOM      7  C8  UNL d   1       3.992   5.177   2.774  0.00  0.00     0.078 C 
ENDROOT
BRANCH   1   8
ATOM      8  C1  UNL d   1       1.011   4.700   2.801  0.00  0.00     0.053 C 
ATOM      9  C   UNL d   1       0.590   4.485   4.247  0.00  0.00     0.018 C 
ENDBRANCH   1   8
TORSDOF 1
ENDMDL
