MODEL 1
REMARK minimizedAffinity 8.77106285
REMARK minimizedRMSD -1
REMARK  1 active torsions:
REMARK  status: ('A' for Active; 'I' for Inactive)
REMARK    1  A    between atoms: C1_2  and  C2_3 
ROOT
ATOM      1  C2  UNL d   1       3.713   3.622   2.343  0.00  0.00    -0.076 A 
ATOM      2  C3  UNL d   1       2.324   3.763   2.173  0.00  0.00     0.004 A 
ATOM      3  C4  UNL d   1       1.519   2.658   1.900  0.00  0.00    -0.003 A 
ATOM      4  C5  UNL d   1       2.089   1.394   1.794  0.00  0.00     0.000 A 
ATOM      5  C6  UNL d   1       3.462   1.233   1.977  0.00  0.00     0.000 A 
ATOM      6  C7  UNL d   1       4.286   2.334   2.269  0.00  0.00    -0.073 A 
ATOM      7  C8  UNL d   1       5.761   2.103   2.452  0.00  0.00     0.078 C 
ENDROOT
BRANCH   1   8
ATOM      8  C1  UNL d   1       4.539   4.859   2.610  0.00  0.00     0.053 C 
ATOM      9  C   UNL d   1       4.568   5.234   4.084  0.00  0.00     0.018 C 
ENDBRANCH   1   8
TORSDOF 1
ENDMDL
