MODEL 1
REMARK minimizedAffinity 10.225852
REMARK minimizedRMSD -1
REMARK  1 active torsions:
REMARK  status: ('A' for Active; 'I' for Inactive)
REMARK    1  A    between atoms: C1_2  and  C2_3 
ROOT
ATOM      1  C2  UNL d   1       2.225   2.123   1.912  0.00  0.00    -0.076 A 
ATOM      2  C3  UNL d   1       3.539   2.152   1.414  0.00  0.00     0.004 A 
ATOM      3  C4  UNL d   1       4.498   2.998   1.968  0.00  0.00    -0.003 A 
ATOM      4  C5  UNL d   1       4.158   3.829   3.030  0.00  0.00     0.000 A 
ATOM      5  C6  UNL d   1       2.863   3.801   3.548  0.00  0.00     0.000 A 
ATOM      6  C7  UNL d   1       1.889   2.942   3.011  0.00  0.00    -0.073 A 
ATOM      7  C8  UNL d   1       0.507   2.957   3.605  0.00  0.00     0.078 C 
ENDROOT
BRANCH   1   8
ATOM      8  C1  UNL d   1       1.220   1.205   1.252  0.00  0.00     0.053 C 
ATOM      9  C   UNL d   1       1.879   0.170   0.354  0.00  0.00     0.018 C 
ENDBRANCH   1   8
TORSDOF 1
ENDMDL
