MODEL 1
REMARK minimizedAffinity 2.85761189
REMARK minimizedRMSD -1
REMARK  1 active torsions:
REMARK  status: ('A' for Active; 'I' for Inactive)
REMARK    1  A    between atoms: C1_2  and  C2_3 
ROOT
ATOM      1  C2  UNL d   1       0.391  -3.851  -0.032  0.00  0.00    -0.076 A 
ATOM      2  C3  UNL d   1      -0.736  -3.011  -0.047  0.00  0.00     0.004 A 
ATOM      3  C4  UNL d   1      -1.855  -3.327  -0.815  0.00  0.00    -0.003 A 
ATOM      4  C5  UNL d   1      -1.866  -4.488  -1.580  0.00  0.00     0.000 A 
ATOM      5  C6  UNL d   1      -0.764  -5.342  -1.563  0.00  0.00     0.000 A 
ATOM      6  C7  UNL d   1       0.367  -5.047  -0.782  0.00  0.00    -0.073 A 
ATOM      7  C8  UNL d   1       1.530  -6.000  -0.806  0.00  0.00     0.078 C 
ENDROOT
BRANCH   1   8
ATOM      8  C1  UNL d   1       1.587  -3.443   0.799  0.00  0.00     0.053 C 
ATOM      9  C   UNL d   1       2.264  -2.189   0.269  0.00  0.00     0.018 C 
ENDBRANCH   1   8
TORSDOF 1
ENDMDL
