MODEL 1
REMARK minimizedAffinity 4.1280055
REMARK minimizedRMSD -1
REMARK  1 active torsions:
REMARK  status: ('A' for Active; 'I' for Inactive)
REMARK    1  A    between atoms: C1_2  and  C2_3 
ROOT
ATOM      1  C2  UNL d   1       3.447   4.720   3.040  0.00  0.00    -0.076 A 
ATOM      2  C3  UNL d   1       4.243   3.632   2.644  0.00  0.00     0.004 A 
ATOM      3  C4  UNL d   1       3.666   2.424   2.255  0.00  0.00    -0.003 A 
ATOM      4  C5  UNL d   1       2.282   2.286   2.255  0.00  0.00     0.000 A 
ATOM      5  C6  UNL d   1       1.476   3.361   2.628  0.00  0.00     0.000 A 
ATOM      6  C7  UNL d   1       2.042   4.590   3.008  0.00  0.00    -0.073 A 
ATOM      7  C8  UNL d   1       1.125   5.714   3.407  0.00  0.00     0.078 C 
ENDROOT
BRANCH   1   8
ATOM      8  C1  UNL d   1       4.130   5.996   3.477  0.00  0.00     0.053 C 
ATOM      9  C   UNL d   1       4.462   6.000   4.962  0.00  0.00     0.018 C 
ENDBRANCH   1   8
TORSDOF 1
ENDMDL
