MODEL 1
REMARK minimizedAffinity 11.6538286
REMARK minimizedRMSD -1
REMARK  1 active torsions:
REMARK  status: ('A' for Active; 'I' for Inactive)
REMARK    1  A    between atoms: C1_2  and  C2_3 
ROOT
ATOM      1  C2  UNL d   1      -3.673   0.406   0.929  0.00  0.00    -0.076 A 
ATOM      2  C3  UNL d   1      -4.575  -0.104   1.879  0.00  0.00     0.004 A 
ATOM      3  C4  UNL d   1      -4.243  -1.206   2.664  0.00  0.00    -0.003 A 
ATOM      4  C5  UNL d   1      -3.002  -1.816   2.514  0.00  0.00     0.000 A 
ATOM      5  C6  UNL d   1      -2.087  -1.312   1.590  0.00  0.00     0.000 A 
ATOM      6  C7  UNL d   1      -2.401  -0.191   0.801  0.00  0.00    -0.073 A 
ATOM      7  C8  UNL d   1      -1.379   0.306  -0.184  0.00  0.00     0.078 C 
ENDROOT
BRANCH   1   8
ATOM      8  C1  UNL d   1      -4.099   1.587   0.087  0.00  0.00     0.053 C 
ATOM      9  C   UNL d   1      -5.573   1.536  -0.286  0.00  0.00     0.018 C 
ENDBRANCH   1   8
TORSDOF 1
ENDMDL
