MODEL 1
REMARK minimizedAffinity 10.3680649
REMARK minimizedRMSD -1
REMARK  1 active torsions:
REMARK  status: ('A' for Active; 'I' for Inactive)
REMARK    1  A    between atoms: C1_2  and  C2_3 
ROOT
ATOM      1  C2  UNL d   1       3.475   2.533   2.248  0.00  0.00    -0.076 A 
ATOM      2  C3  UNL d   1       4.655   1.780   2.115  0.00  0.00     0.004 A 
ATOM      3  C4  UNL d   1       5.904   2.398   2.108  0.00  0.00    -0.003 A 
ATOM      4  C5  UNL d   1       5.994   3.780   2.234  0.00  0.00     0.000 A 
ATOM      5  C6  UNL d   1       4.835   4.541   2.384  0.00  0.00     0.000 A 
ATOM      6  C7  UNL d   1       3.569   3.932   2.410  0.00  0.00    -0.073 A 
ATOM      7  C8  UNL d   1       2.352   4.801   2.568  0.00  0.00     0.078 C 
ENDROOT
BRANCH   1   8
ATOM      8  C1  UNL d   1       2.147   1.810   2.221  0.00  0.00     0.053 C 
ATOM      9  C   UNL d   1       2.000   0.907   1.006  0.00  0.00     0.018 C 
ENDBRANCH   1   8
TORSDOF 1
ENDMDL
