MODEL 1
REMARK minimizedAffinity 11.8910542
REMARK minimizedRMSD -1
REMARK  1 active torsions:
REMARK  status: ('A' for Active; 'I' for Inactive)
REMARK    1  A    between atoms: C1_2  and  C2_3 
ROOT
ATOM      1  C2  UNL d   1       3.854   2.370   2.256  0.00  0.00    -0.076 A 
ATOM      2  C3  UNL d   1       3.208   1.313   1.590  0.00  0.00     0.004 A 
ATOM      3  C4  UNL d   1       1.818   1.250   1.523  0.00  0.00    -0.003 A 
ATOM      4  C5  UNL d   1       1.049   2.244   2.119  0.00  0.00     0.000 A 
ATOM      5  C6  UNL d   1       1.673   3.309   2.768  0.00  0.00     0.000 A 
ATOM      6  C7  UNL d   1       3.075   3.396   2.831  0.00  0.00    -0.073 A 
ATOM      7  C8  UNL d   1       3.694   4.563   3.549  0.00  0.00     0.078 C 
ENDROOT
BRANCH   1   8
ATOM      8  C1  UNL d   1       5.364   2.370   2.320  0.00  0.00     0.053 C 
ATOM      9  C   UNL d   1       6.000   2.986   1.083  0.00  0.00     0.018 C 
ENDBRANCH   1   8
TORSDOF 1
ENDMDL
