MODEL 1
REMARK minimizedAffinity 8.71008682
REMARK minimizedRMSD -1
REMARK  1 active torsions:
REMARK  status: ('A' for Active; 'I' for Inactive)
REMARK    1  A    between atoms: C1_2  and  C2_3 
ROOT
ATOM      1  C2  UNL d   1       2.385   2.853   2.483  0.00  0.00    -0.076 A 
ATOM      2  C3  UNL d   1       1.928   2.499   3.764  0.00  0.00     0.004 A 
ATOM      3  C4  UNL d   1       1.498   3.470   4.667  0.00  0.00    -0.003 A 
ATOM      4  C5  UNL d   1       1.517   4.812   4.303  0.00  0.00     0.000 A 
ATOM      5  C6  UNL d   1       1.950   5.180   3.030  0.00  0.00     0.000 A 
ATOM      6  C7  UNL d   1       2.372   4.212   2.102  0.00  0.00    -0.073 A 
ATOM      7  C8  UNL d   1       2.835   4.666   0.745  0.00  0.00     0.078 C 
ENDROOT
BRANCH   1   8
ATOM      8  C1  UNL d   1       2.865   1.759   1.557  0.00  0.00     0.053 C 
ATOM      9  C   UNL d   1       1.725   1.093   0.802  0.00  0.00     0.018 C 
ENDBRANCH   1   8
TORSDOF 1
ENDMDL
