MODEL 1
REMARK minimizedAffinity 3.96938682
REMARK minimizedRMSD -1
REMARK  1 active torsions:
REMARK  status: ('A' for Active; 'I' for Inactive)
REMARK    1  A    between atoms: C1_2  and  C2_3 
ROOT
ATOM      1  C2  UNL d   1       3.886   3.930   3.558  0.00  0.00    -0.076 A 
ATOM      2  C3  UNL d   1       4.912   2.989   3.753  0.00  0.00     0.004 A 
ATOM      3  C4  UNL d   1       5.775   3.085   4.843  0.00  0.00    -0.003 A 
ATOM      4  C5  UNL d   1       5.626   4.124   5.756  0.00  0.00     0.000 A 
ATOM      5  C6  UNL d   1       4.603   5.056   5.588  0.00  0.00     0.000 A 
ATOM      6  C7  UNL d   1       3.714   4.964   4.503  0.00  0.00    -0.073 A 
ATOM      7  C8  UNL d   1       2.632   6.000   4.367  0.00  0.00     0.078 C 
ENDROOT
BRANCH   1   8
ATOM      8  C1  UNL d   1       2.997   3.791   2.343  0.00  0.00     0.053 C 
ATOM      9  C   UNL d   1       3.575   4.480   1.116  0.00  0.00     0.018 C 
ENDBRANCH   1   8
TORSDOF 1
ENDMDL
