MODEL 1
REMARK minimizedAffinity 4.36643457
REMARK minimizedRMSD -1
REMARK  0 active torsions:
REMARK  status: ('A' for Active; 'I' for Inactive)
ROOT
ATOM      1  O1  BZF d   1       2.748  -2.492   0.705  0.00  0.00    -0.204 OA
ATOM      2  C2  BZF d   1       1.881  -2.686  -0.352  0.00  0.00     0.174 A 
ATOM      3  C3  BZF d   1       1.670  -1.532  -1.016  0.00  0.00    -0.012 A 
ATOM      4  C3A BZF d   1       2.527  -0.574  -0.387  0.00  0.00    -0.107 A 
ATOM      5  C4  BZF d   1       2.777   0.750  -0.609  0.00  0.00     0.055 A 
ATOM      6  C5  BZF d   1       3.615   1.413   0.230  0.00  0.00    -0.016 A 
ATOM      7  C6  BZF d   1       4.215   0.786   1.303  0.00  0.00     0.022 A 
ATOM      8  C7  BZF d   1       4.001  -0.527   1.560  0.00  0.00     0.029 A 
ATOM      9  C7A BZF d   1       3.180  -1.208   0.694  0.00  0.00     0.058 A 
ENDROOT
TORSDOF 0
ENDMDL
