MODEL 1
REMARK minimizedAffinity 7.51201248
REMARK minimizedRMSD -1
REMARK  0 active torsions:
REMARK  status: ('A' for Active; 'I' for Inactive)
ROOT
ATOM      1  O1  BZF d   1       3.261   1.033  -0.336  0.00  0.00    -0.204 OA
ATOM      2  C2  BZF d   1       4.165   0.099  -0.806  0.00  0.00     0.174 A 
ATOM      3  C3  BZF d   1       3.623  -1.136  -0.800  0.00  0.00    -0.012 A 
ATOM      4  C3A BZF d   1       2.267  -0.950  -0.382  0.00  0.00    -0.107 A 
ATOM      5  C4  BZF d   1       1.217  -1.803  -0.197  0.00  0.00     0.055 A 
ATOM      6  C5  BZF d   1       0.046  -1.313   0.288  0.00  0.00    -0.016 A 
ATOM      7  C6  BZF d   1      -0.108   0.022   0.602  0.00  0.00     0.022 A 
ATOM      8  C7  BZF d   1       0.904   0.907   0.430  0.00  0.00     0.029 A 
ATOM      9  C7A BZF d   1       2.078   0.420  -0.090  0.00  0.00     0.058 A 
ENDROOT
TORSDOF 0
ENDMDL
