MODEL 1
REMARK minimizedAffinity -0.907962322
REMARK minimizedRMSD -1
REMARK  0 active torsions:
REMARK  status: ('A' for Active; 'I' for Inactive)
ROOT
ATOM      1  O1  BZF d   1       2.530   1.052  -0.447  0.00  0.00    -0.204 OA
ATOM      2  C2  BZF d   1       3.809   1.450  -0.787  0.00  0.00     0.174 A 
ATOM      3  C3  BZF d   1       4.261   2.388   0.070  0.00  0.00    -0.012 A 
ATOM      4  C3A BZF d   1       3.235   2.522   1.058  0.00  0.00    -0.107 A 
ATOM      5  C4  BZF d   1       3.106   3.289   2.180  0.00  0.00     0.055 A 
ATOM      6  C5  BZF d   1       1.947   3.237   2.887  0.00  0.00    -0.016 A 
ATOM      7  C6  BZF d   1       0.895   2.434   2.498  0.00  0.00     0.022 A 
ATOM      8  C7  BZF d   1       0.977   1.651   1.394  0.00  0.00     0.029 A 
ATOM      9  C7A BZF d   1       2.160   1.677   0.697  0.00  0.00     0.058 A 
ENDROOT
TORSDOF 0
ENDMDL
