MODEL 1
REMARK minimizedAffinity 5.03786755
REMARK minimizedRMSD -1
REMARK  0 active torsions:
REMARK  status: ('A' for Active; 'I' for Inactive)
ROOT
ATOM      1  O1  BZF d   1       0.911   1.570   0.793  0.00  0.00    -0.204 OA
ATOM      2  C2  BZF d   1       0.046   1.477   1.867  0.00  0.00     0.174 A 
ATOM      3  C3  BZF d   1       0.633   1.926   2.995  0.00  0.00    -0.012 A 
ATOM      4  C3A BZF d   1       1.915   2.411   2.584  0.00  0.00    -0.107 A 
ATOM      5  C4  BZF d   1       2.955   2.994   3.250  0.00  0.00     0.055 A 
ATOM      6  C5  BZF d   1       4.096   3.283   2.569  0.00  0.00    -0.016 A 
ATOM      7  C6  BZF d   1       4.232   2.999   1.226  0.00  0.00     0.022 A 
ATOM      8  C7  BZF d   1       3.225   2.426   0.522  0.00  0.00     0.029 A 
ATOM      9  C7A BZF d   1       2.059   2.163   1.200  0.00  0.00     0.058 A 
ENDROOT
TORSDOF 0
ENDMDL
