MODEL 1
REMARK minimizedAffinity 14.321908
REMARK minimizedRMSD -1
REMARK  0 active torsions:
REMARK  status: ('A' for Active; 'I' for Inactive)
ROOT
ATOM      1  O1  BZF d   1      -3.332  -4.898  -1.485  0.00  0.00    -0.204 OA
ATOM      2  C2  BZF d   1      -2.033  -5.112  -1.066  0.00  0.00     0.174 A 
ATOM      3  C3  BZF d   1      -1.282  -5.610  -2.069  0.00  0.00    -0.012 A 
ATOM      4  C3A BZF d   1      -2.144  -5.627  -3.212  0.00  0.00    -0.107 A 
ATOM      5  C4  BZF d   1      -1.970  -6.000  -4.514  0.00  0.00     0.055 A 
ATOM      6  C5  BZF d   1      -3.033  -5.963  -5.359  0.00  0.00    -0.016 A 
ATOM      7  C6  BZF d   1      -4.284  -5.563  -4.936  0.00  0.00     0.022 A 
ATOM      8  C7  BZF d   1      -4.504  -5.178  -3.655  0.00  0.00     0.029 A 
ATOM      9  C7A BZF d   1      -3.424  -5.183  -2.806  0.00  0.00     0.058 A 
ENDROOT
TORSDOF 0
ENDMDL
