MODEL 1
REMARK minimizedAffinity 11.2982006
REMARK minimizedRMSD -1
REMARK  0 active torsions:
REMARK  status: ('A' for Active; 'I' for Inactive)
ROOT
ATOM      1  O1  BZF d   1       2.507   1.705  -0.239  0.00  0.00    -0.204 OA
ATOM      2  C2  BZF d   1       3.765   2.234  -0.455  0.00  0.00     0.174 A 
ATOM      3  C3  BZF d   1       4.204   2.885   0.642  0.00  0.00    -0.012 A 
ATOM      4  C3A BZF d   1       3.194   2.676   1.634  0.00  0.00    -0.107 A 
ATOM      5  C4  BZF d   1       3.063   3.062   2.937  0.00  0.00     0.055 A 
ATOM      6  C5  BZF d   1       1.921   2.755   3.606  0.00  0.00    -0.016 A 
ATOM      7  C6  BZF d   1       0.888   2.069   3.001  0.00  0.00     0.022 A 
ATOM      8  C7  BZF d   1       0.973   1.661   1.712  0.00  0.00     0.029 A 
ATOM      9  C7A BZF d   1       2.140   1.940   1.043  0.00  0.00     0.058 A 
ENDROOT
TORSDOF 0
ENDMDL
