MODEL 1
REMARK minimizedAffinity -0.708294988
REMARK minimizedRMSD -1
REMARK  0 active torsions:
REMARK  status: ('A' for Active; 'I' for Inactive)
ROOT
ATOM      1  O1  BZF d   1       1.171   0.780   0.034  0.00  0.00    -0.204 OA
ATOM      2  C2  BZF d   1      -0.081   1.330  -0.161  0.00  0.00     0.174 A 
ATOM      3  C3  BZF d   1      -0.933   0.413  -0.664  0.00  0.00    -0.012 A 
ATOM      4  C3A BZF d   1      -0.190  -0.809  -0.704  0.00  0.00    -0.107 A 
ATOM      5  C4  BZF d   1      -0.497  -2.082  -1.092  0.00  0.00     0.055 A 
ATOM      6  C5  BZF d   1       0.477  -3.030  -1.077  0.00  0.00    -0.016 A 
ATOM      7  C6  BZF d   1       1.767  -2.739  -0.684  0.00  0.00     0.022 A 
ATOM      8  C7  BZF d   1       2.118  -1.492  -0.286  0.00  0.00     0.029 A 
ATOM      9  C7A BZF d   1       1.128  -0.540  -0.269  0.00  0.00     0.058 A 
ENDROOT
TORSDOF 0
ENDMDL
