MODEL 1
REMARK minimizedAffinity 2.98191643
REMARK minimizedRMSD -1
REMARK  0 active torsions:
REMARK  status: ('A' for Active; 'I' for Inactive)
ROOT
ATOM      1  O1  BZF d   1       1.501  -3.012  -0.981  0.00  0.00    -0.204 OA
ATOM      2  C2  BZF d   1       0.129  -3.171  -0.936  0.00  0.00     0.174 A 
ATOM      3  C3  BZF d   1      -0.472  -2.031  -0.539  0.00  0.00    -0.012 A 
ATOM      4  C3A BZF d   1       0.583  -1.074  -0.411  0.00  0.00    -0.107 A 
ATOM      5  C4  BZF d   1       0.616   0.246  -0.063  0.00  0.00     0.055 A 
ATOM      6  C5  BZF d   1       1.818   0.873   0.037  0.00  0.00    -0.016 A 
ATOM      7  C6  BZF d   1       3.004   0.210  -0.198  0.00  0.00     0.022 A 
ATOM      8  C7  BZF d   1       3.022  -1.098  -0.551  0.00  0.00     0.029 A 
ATOM      9  C7A BZF d   1       1.808  -1.726  -0.686  0.00  0.00     0.058 A 
ENDROOT
TORSDOF 0
ENDMDL
