MODEL 1
REMARK minimizedAffinity 0.0322524682
REMARK minimizedRMSD -1
REMARK  0 active torsions:
REMARK  status: ('A' for Active; 'I' for Inactive)
ROOT
ATOM      1  O1  BZF d   1      -0.303   2.745   2.224  0.00  0.00    -0.204 OA
ATOM      2  C2  BZF d   1      -1.110   2.545   1.121  0.00  0.00     0.174 A 
ATOM      3  C3  BZF d   1      -0.377   2.154   0.058  0.00  0.00    -0.012 A 
ATOM      4  C3A BZF d   1       0.959   2.018   0.551  0.00  0.00    -0.107 A 
ATOM      5  C4  BZF d   1       2.139   1.643  -0.025  0.00  0.00     0.055 A 
ATOM      6  C5  BZF d   1       3.278   1.686   0.714  0.00  0.00    -0.016 A 
ATOM      7  C6  BZF d   1       3.275   2.104   2.029  0.00  0.00     0.022 A 
ATOM      8  C7  BZF d   1       2.128   2.481   2.645  0.00  0.00     0.029 A 
ATOM      9  C7A BZF d   1       0.970   2.407   1.911  0.00  0.00     0.058 A 
ENDROOT
TORSDOF 0
ENDMDL
