MODEL 1
REMARK minimizedAffinity -2.77508235
REMARK minimizedRMSD -1
REMARK  0 active torsions:
REMARK  status: ('A' for Active; 'I' for Inactive)
ROOT
ATOM      1  O1  BZF d   1       0.580   0.944  -0.479  0.00  0.00    -0.204 OA
ATOM      2  C2  BZF d   1      -0.403  -0.026  -0.436  0.00  0.00     0.174 A 
ATOM      3  C3  BZF d   1       0.132  -1.255  -0.581  0.00  0.00    -0.012 A 
ATOM      4  C3A BZF d   1       1.546  -1.047  -0.631  0.00  0.00    -0.107 A 
ATOM      5  C4  BZF d   1       2.615  -1.888  -0.751  0.00  0.00     0.055 A 
ATOM      6  C5  BZF d   1       3.864  -1.360  -0.842  0.00  0.00    -0.016 A 
ATOM      7  C6  BZF d   1       4.080   0.002  -0.823  0.00  0.00     0.022 A 
ATOM      8  C7  BZF d   1       3.051   0.876  -0.701  0.00  0.00     0.029 A 
ATOM      9  C7A BZF d   1       1.791   0.344  -0.575  0.00  0.00     0.058 A 
ENDROOT
TORSDOF 0
ENDMDL
