MODEL 1
REMARK minimizedAffinity 6.38156128
REMARK minimizedRMSD -1
REMARK  0 active torsions:
REMARK  status: ('A' for Active; 'I' for Inactive)
ROOT
ATOM      1  O1  BZF d   1      -1.312   0.907  -1.013  0.00  0.00    -0.204 OA
ATOM      2  C2  BZF d   1      -0.517   1.867  -0.417  0.00  0.00     0.174 A 
ATOM      3  C3  BZF d   1       0.613   1.316   0.072  0.00  0.00    -0.012 A 
ATOM      4  C3A BZF d   1       0.560  -0.060  -0.319  0.00  0.00    -0.107 A 
ATOM      5  C4  BZF d   1       1.404  -1.119  -0.141  0.00  0.00     0.055 A 
ATOM      6  C5  BZF d   1       1.024  -2.347  -0.583  0.00  0.00    -0.016 A 
ATOM      7  C6  BZF d   1      -0.192  -2.552  -1.201  0.00  0.00     0.022 A 
ATOM      8  C7  BZF d   1      -1.060  -1.531  -1.404  0.00  0.00     0.029 A 
ATOM      9  C7A BZF d   1      -0.665  -0.283  -0.988  0.00  0.00     0.058 A 
ENDROOT
TORSDOF 0
ENDMDL
