MODEL 1
REMARK minimizedAffinity -1.21035123
REMARK minimizedRMSD -1
REMARK  0 active torsions:
REMARK  status: ('A' for Active; 'I' for Inactive)
ROOT
ATOM      1  C   UNL d   1       0.422  -0.773  -1.175  0.00  0.00     0.172 C 
ATOM      2  N   UNL d   1       1.296  -1.188  -0.102  0.00  0.00    -0.070 N 
ATOM      3  C1  UNL d   1       1.189  -2.353   0.609  0.00  0.00    -0.004 A 
ATOM      4  C2  UNL d   1       2.206  -2.375   1.538  0.00  0.00    -0.047 A 
ATOM      5  C3  UNL d   1       2.950  -1.182   1.381  0.00  0.00    -0.047 A 
ATOM      6  C4  UNL d   1       2.364  -0.465   0.359  0.00  0.00    -0.004 A 
ENDROOT
TORSDOF 0
ENDMDL
