MODEL 1
REMARK minimizedAffinity 3.29760122
REMARK minimizedRMSD -1
REMARK  0 active torsions:
REMARK  status: ('A' for Active; 'I' for Inactive)
ROOT
ATOM      1  C   UNL d   1       1.495   2.656   4.517  0.00  0.00     0.172 C 
ATOM      2  N   UNL d   1       1.307   4.007   4.991  0.00  0.00    -0.070 N 
ATOM      3  C1  UNL d   1       2.191   4.712   5.764  0.00  0.00    -0.004 A 
ATOM      4  C2  UNL d   1       1.646   5.956   6.000  0.00  0.00    -0.047 A 
ATOM      5  C3  UNL d   1       0.391   5.999   5.347  0.00  0.00    -0.047 A 
ATOM      6  C4  UNL d   1       0.207   4.780   4.730  0.00  0.00    -0.004 A 
ENDROOT
TORSDOF 0
ENDMDL
