MODEL 1
REMARK minimizedAffinity 5.45253897
REMARK minimizedRMSD -1
REMARK  0 active torsions:
REMARK  status: ('A' for Active; 'I' for Inactive)
ROOT
ATOM      1  C   UNL d   1       5.993  -0.747  -1.589  0.00  0.00     0.172 C 
ATOM      2  N   UNL d   1       5.995   0.343  -0.641  0.00  0.00    -0.070 N 
ATOM      3  C1  UNL d   1       5.997   0.215   0.723  0.00  0.00    -0.004 A 
ATOM      4  C2  UNL d   1       5.999   1.481   1.266  0.00  0.00    -0.047 A 
ATOM      5  C3  UNL d   1       5.998   2.402   0.191  0.00  0.00    -0.047 A 
ATOM      6  C4  UNL d   1       5.996   1.670  -0.977  0.00  0.00    -0.004 A 
ENDROOT
TORSDOF 0
ENDMDL
