MODEL 1
REMARK minimizedAffinity -1.12979615
REMARK minimizedRMSD -1
REMARK  0 active torsions:
REMARK  status: ('A' for Active; 'I' for Inactive)
ROOT
ATOM      1  C   UNL d   1       6.000   1.830   2.947  0.00  0.00     0.172 C 
ATOM      2  N   UNL d   1       6.000   0.975   1.782  0.00  0.00    -0.070 N 
ATOM      3  C1  UNL d   1       6.000  -0.394   1.797  0.00  0.00    -0.004 A 
ATOM      4  C2  UNL d   1       5.999  -0.830   0.490  0.00  0.00    -0.047 A 
ATOM      5  C3  UNL d   1       5.999   0.317  -0.339  0.00  0.00    -0.047 A 
ATOM      6  C4  UNL d   1       5.999   1.421   0.487  0.00  0.00    -0.004 A 
ENDROOT
TORSDOF 0
ENDMDL
