MODEL 1
REMARK minimizedAffinity -1.42093873
REMARK minimizedRMSD -1
REMARK  0 active torsions:
REMARK  status: ('A' for Active; 'I' for Inactive)
ROOT
ATOM      1  C   UNL d   1       1.056  -2.477   0.837  0.00  0.00     0.172 C 
ATOM      2  N   UNL d   1       0.224  -1.815   1.815  0.00  0.00    -0.070 N 
ATOM      3  C1  UNL d   1      -1.129  -1.628   1.717  0.00  0.00    -0.004 A 
ATOM      4  C2  UNL d   1      -1.546  -0.960   2.847  0.00  0.00    -0.047 A 
ATOM      5  C3  UNL d   1      -0.404  -0.737   3.653  0.00  0.00    -0.047 A 
ATOM      6  C4  UNL d   1       0.678  -1.276   2.990  0.00  0.00    -0.004 A 
ENDROOT
TORSDOF 0
ENDMDL
