MODEL 1
REMARK minimizedAffinity 1.41462433
REMARK minimizedRMSD -1
REMARK  0 active torsions:
REMARK  status: ('A' for Active; 'I' for Inactive)
ROOT
ATOM      1  C   UNL d   1      -0.634  -1.403   2.892  0.00  0.00     0.172 C 
ATOM      2  N   UNL d   1       0.349  -1.867   1.942  0.00  0.00    -0.070 N 
ATOM      3  C1  UNL d   1       1.117  -2.994   2.074  0.00  0.00    -0.004 A 
ATOM      4  C2  UNL d   1       1.925  -3.087   0.961  0.00  0.00    -0.047 A 
ATOM      5  C3  UNL d   1       1.634  -1.977   0.132  0.00  0.00    -0.047 A 
ATOM      6  C4  UNL d   1       0.655  -1.239   0.764  0.00  0.00    -0.004 A 
ENDROOT
TORSDOF 0
ENDMDL
