MODEL 1
REMARK minimizedAffinity 1.89424658
REMARK minimizedRMSD -1
REMARK  0 active torsions:
REMARK  status: ('A' for Active; 'I' for Inactive)
ROOT
ATOM      1  C   UNL d   1       0.154  -1.330   2.885  0.00  0.00     0.172 C 
ATOM      2  N   UNL d   1       1.041  -1.957   1.934  0.00  0.00    -0.070 N 
ATOM      3  C1  UNL d   1       1.667  -3.163   2.101  0.00  0.00    -0.004 A 
ATOM      4  C2  UNL d   1       2.422  -3.407   0.973  0.00  0.00    -0.047 A 
ATOM      5  C3  UNL d   1       2.244  -2.308   0.099  0.00  0.00    -0.047 A 
ATOM      6  C4  UNL d   1       1.384  -1.425   0.719  0.00  0.00    -0.004 A 
ENDROOT
TORSDOF 0
ENDMDL
