MODEL 1
REMARK minimizedAffinity 2.92481375
REMARK minimizedRMSD -1
REMARK  0 active torsions:
REMARK  status: ('A' for Active; 'I' for Inactive)
ROOT
ATOM      1  C   UNL d   1       4.057   5.996   4.530  0.00  0.00     0.172 C 
ATOM      2  N   UNL d   1       2.982   5.104   4.895  0.00  0.00    -0.070 N 
ATOM      3  C1  UNL d   1       2.181   5.227   5.999  0.00  0.00    -0.004 A 
ATOM      4  C2  UNL d   1       1.282   4.183   5.988  0.00  0.00    -0.047 A 
ATOM      5  C3  UNL d   1       1.552   3.404   4.837  0.00  0.00    -0.047 A 
ATOM      6  C4  UNL d   1       2.609   3.997   4.179  0.00  0.00    -0.004 A 
ENDROOT
TORSDOF 0
ENDMDL
