MODEL 1
REMARK minimizedAffinity 7.40607405
REMARK minimizedRMSD -1
REMARK  0 active torsions:
REMARK  status: ('A' for Active; 'I' for Inactive)
ROOT
ATOM      1  C   UNL d   1      -3.613   4.690  -3.210  0.00  0.00     0.172 C 
ATOM      2  N   UNL d   1      -2.605   3.716  -2.863  0.00  0.00    -0.070 N 
ATOM      3  C1  UNL d   1      -2.839   2.407  -2.536  0.00  0.00    -0.004 A 
ATOM      4  C2  UNL d   1      -1.623   1.814  -2.273  0.00  0.00    -0.047 A 
ATOM      5  C3  UNL d   1      -0.624   2.801  -2.447  0.00  0.00    -0.047 A 
ATOM      6  C4  UNL d   1      -1.259   3.969  -2.813  0.00  0.00    -0.004 A 
ENDROOT
TORSDOF 0
ENDMDL
