MODEL 1
REMARK minimizedAffinity 2.21362591
REMARK minimizedRMSD -1
REMARK  0 active torsions:
REMARK  status: ('A' for Active; 'I' for Inactive)
ROOT
ATOM      1  C   UNL d   1       1.652  -2.213   1.720  0.00  0.00     0.172 C 
ATOM      2  N   UNL d   1       2.616  -3.269   1.516  0.00  0.00    -0.070 N 
ATOM      3  C1  UNL d   1       2.320  -4.574   1.222  0.00  0.00    -0.004 A 
ATOM      4  C2  UNL d   1       3.510  -5.260   1.105  0.00  0.00    -0.047 A 
ATOM      5  C3  UNL d   1       4.556  -4.336   1.338  0.00  0.00    -0.047 A 
ATOM      6  C4  UNL d   1       3.975  -3.112   1.590  0.00  0.00    -0.004 A 
ENDROOT
TORSDOF 0
ENDMDL
