MODEL 1
REMARK minimizedAffinity -4.45424938
REMARK minimizedRMSD -1
REMARK  1 active torsions:
REMARK  status: ('A' for Active; 'I' for Inactive)
REMARK    1  A    between atoms: C3_4  and  O_7 
ROOT
ATOM      1  C   UNL d   1      -0.890  -0.255  -0.156  0.00  0.00    -0.033 A 
ATOM      2  C1  UNL d   1       0.293  -0.066   0.561  0.00  0.00     0.039 A 
ATOM      3  C2  UNL d   1       0.268   0.593   1.791  0.00  0.00    -0.080 A 
ATOM      4  C3  UNL d   1      -0.944   1.056   2.294  0.00  0.00     0.150 A 
ATOM      5  C4  UNL d   1      -2.128   0.867   1.588  0.00  0.00    -0.007 A 
ATOM      6  C5  UNL d   1      -2.101   0.210   0.358  0.00  0.00     0.039 A 
ENDROOT
BRANCH   4   7
ATOM      7  O   UNL d   1      -1.018   1.709   3.488  0.00  0.00    -0.526 OA
ATOM      8  H5  UNL d   1      -0.120   1.792   3.850  0.00  0.00     0.418 HD
ENDBRANCH   4   7
TORSDOF 1
ENDMDL
