MODEL 1
REMARK minimizedAffinity -5.14611053
REMARK minimizedRMSD -1
REMARK  1 active torsions:
REMARK  status: ('A' for Active; 'I' for Inactive)
REMARK    1  A    between atoms: C3_4  and  O_7 
ROOT
ATOM      1  C   UNL d   1      -0.705  -0.267  -0.032  0.00  0.00    -0.033 A 
ATOM      2  C1  UNL d   1       0.447   0.292   0.523  0.00  0.00     0.039 A 
ATOM      3  C2  UNL d   1       0.373   1.000   1.724  0.00  0.00    -0.080 A 
ATOM      4  C3  UNL d   1      -0.858   1.139   2.360  0.00  0.00     0.150 A 
ATOM      5  C4  UNL d   1      -2.009   0.581   1.815  0.00  0.00    -0.007 A 
ATOM      6  C5  UNL d   1      -1.933  -0.124   0.614  0.00  0.00     0.039 A 
ENDROOT
BRANCH   4   7
ATOM      7  O   UNL d   1      -0.981   1.825   3.532  0.00  0.00    -0.526 OA
ATOM      8  H5  UNL d   1      -0.109   2.179   3.774  0.00  0.00     0.418 HD
ENDBRANCH   4   7
TORSDOF 1
ENDMDL
