MODEL 1
REMARK minimizedAffinity -2.39347839
REMARK minimizedRMSD -1
REMARK  1 active torsions:
REMARK  status: ('A' for Active; 'I' for Inactive)
REMARK    1  A    between atoms: C3_4  and  O_7 
ROOT
ATOM      1  C   UNL d   1       1.178  -0.469   0.000  0.00  0.00    -0.033 A 
ATOM      2  C1  UNL d   1      -0.159  -0.147  -0.240  0.00  0.00     0.039 A 
ATOM      3  C2  UNL d   1      -0.884   0.582   0.705  0.00  0.00    -0.080 A 
ATOM      4  C3  UNL d   1      -0.260   0.982   1.884  0.00  0.00     0.150 A 
ATOM      5  C4  UNL d   1       1.072   0.667   2.128  0.00  0.00    -0.007 A 
ATOM      6  C5  UNL d   1       1.794  -0.061   1.184  0.00  0.00     0.039 A 
ENDROOT
BRANCH   4   7
ATOM      7  O   UNL d   1      -0.928   1.691   2.838  0.00  0.00    -0.526 OA
ATOM      8  H5  UNL d   1      -1.847   1.810   2.546  0.00  0.00     0.418 HD
ENDBRANCH   4   7
TORSDOF 1
ENDMDL
