MODEL 1
REMARK minimizedAffinity -3.94661093
REMARK minimizedRMSD -1
REMARK  1 active torsions:
REMARK  status: ('A' for Active; 'I' for Inactive)
REMARK    1  A    between atoms: C3_4  and  O_7 
ROOT
ATOM      1  C   UNL d   1       1.794  -0.185  -3.070  0.00  0.00    -0.033 A 
ATOM      2  C1  UNL d   1       1.611   0.747  -4.093  0.00  0.00     0.039 A 
ATOM      3  C2  UNL d   1       0.368   0.867  -4.717  0.00  0.00    -0.080 A 
ATOM      4  C3  UNL d   1      -0.683   0.051  -4.308  0.00  0.00     0.150 A 
ATOM      5  C4  UNL d   1      -0.509  -0.878  -3.287  0.00  0.00    -0.007 A 
ATOM      6  C5  UNL d   1       0.733  -0.997  -2.666  0.00  0.00     0.039 A 
ENDROOT
BRANCH   4   7
ATOM      7  O   UNL d   1      -1.914   0.128  -4.890  0.00  0.00    -0.526 OA
ATOM      8  H5  UNL d   1      -1.878   0.792  -5.599  0.00  0.00     0.418 HD
ENDBRANCH   4   7
TORSDOF 1
ENDMDL
