MODEL 1
REMARK minimizedAffinity -4.02909613
REMARK minimizedRMSD -1
REMARK  1 active torsions:
REMARK  status: ('A' for Active; 'I' for Inactive)
REMARK    1  A    between atoms: C3_4  and  O_7 
ROOT
ATOM      1  C   UNL d   1      -1.123   1.524   2.638  0.00  0.00    -0.033 A 
ATOM      2  C1  UNL d   1       0.227   1.636   2.300  0.00  0.00     0.039 A 
ATOM      3  C2  UNL d   1       0.767   0.827   1.298  0.00  0.00    -0.080 A 
ATOM      4  C3  UNL d   1      -0.053  -0.088   0.643  0.00  0.00     0.150 A 
ATOM      5  C4  UNL d   1      -1.400  -0.202   0.972  0.00  0.00    -0.007 A 
ATOM      6  C5  UNL d   1      -1.937   0.607   1.974  0.00  0.00     0.039 A 
ENDROOT
BRANCH   4   7
ATOM      7  O   UNL d   1       0.430  -0.902  -0.338  0.00  0.00    -0.526 OA
ATOM      8  H5  UNL d   1       1.381  -0.733  -0.438  0.00  0.00     0.418 HD
ENDBRANCH   4   7
TORSDOF 1
ENDMDL
