MODEL 1
REMARK minimizedAffinity -4.60261726
REMARK minimizedRMSD -1
REMARK  1 active torsions:
REMARK  status: ('A' for Active; 'I' for Inactive)
REMARK    1  A    between atoms: C3_4  and  O_7 
ROOT
ATOM      1  C   UNL d   1      -0.938   1.414   2.708  0.00  0.00    -0.033 A 
ATOM      2  C1  UNL d   1      -1.912   0.735   1.973  0.00  0.00     0.039 A 
ATOM      3  C2  UNL d   1      -1.549  -0.005   0.845  0.00  0.00    -0.080 A 
ATOM      4  C3  UNL d   1      -0.211  -0.058   0.465  0.00  0.00     0.150 A 
ATOM      5  C4  UNL d   1       0.765   0.613   1.195  0.00  0.00    -0.007 A 
ATOM      6  C5  UNL d   1       0.400   1.352   2.320  0.00  0.00     0.039 A 
ENDROOT
BRANCH   4   7
ATOM      7  O   UNL d   1       0.192  -0.762  -0.631  0.00  0.00    -0.526 OA
ATOM      8  H5  UNL d   1      -0.593  -1.150  -1.052  0.00  0.00     0.418 HD
ENDBRANCH   4   7
TORSDOF 1
ENDMDL
