MODEL 1
REMARK minimizedAffinity -4.45272827
REMARK minimizedRMSD -1
REMARK  1 active torsions:
REMARK  status: ('A' for Active; 'I' for Inactive)
REMARK    1  A    between atoms: C3_4  and  O_7 
ROOT
ATOM      1  C   UNL d   1      -0.125  -0.433  -0.143  0.00  0.00    -0.033 A 
ATOM      2  C1  UNL d   1      -1.454  -0.251   0.246  0.00  0.00     0.039 A 
ATOM      3  C2  UNL d   1      -1.752   0.494   1.388  0.00  0.00    -0.080 A 
ATOM      4  C3  UNL d   1      -0.715   1.052   2.130  0.00  0.00     0.150 A 
ATOM      5  C4  UNL d   1       0.610   0.878   1.746  0.00  0.00    -0.007 A 
ATOM      6  C5  UNL d   1       0.907   0.133   0.606  0.00  0.00     0.039 A 
ENDROOT
BRANCH   4   7
ATOM      7  O   UNL d   1      -0.957   1.784   3.255  0.00  0.00    -0.526 OA
ATOM      8  H5  UNL d   1      -1.916   1.796   3.414  0.00  0.00     0.418 HD
ENDBRANCH   4   7
TORSDOF 1
ENDMDL
