MODEL 1
REMARK minimizedAffinity -3.58149457
REMARK minimizedRMSD -1
REMARK  1 active torsions:
REMARK  status: ('A' for Active; 'I' for Inactive)
REMARK    1  A    between atoms: C3_4  and  O_7 
ROOT
ATOM      1  C   UNL d   1      -1.640   0.474   1.642  0.00  0.00    -0.033 A 
ATOM      2  C1  UNL d   1      -1.298   0.615   2.989  0.00  0.00     0.039 A 
ATOM      3  C2  UNL d   1       0.031   0.472   3.392  0.00  0.00    -0.080 A 
ATOM      4  C3  UNL d   1       1.007   0.189   2.440  0.00  0.00     0.150 A 
ATOM      5  C4  UNL d   1       0.674   0.052   1.097  0.00  0.00    -0.007 A 
ATOM      6  C5  UNL d   1      -0.654   0.194   0.696  0.00  0.00     0.039 A 
ENDROOT
BRANCH   4   7
ATOM      7  O   UNL d   1       2.316   0.036   2.786  0.00  0.00    -0.526 OA
ATOM      8  H5  UNL d   1       2.393   0.130   3.750  0.00  0.00     0.418 HD
ENDBRANCH   4   7
TORSDOF 1
ENDMDL
