MODEL 1
REMARK minimizedAffinity -5.08768606
REMARK minimizedRMSD -1
REMARK  1 active torsions:
REMARK  status: ('A' for Active; 'I' for Inactive)
REMARK    1  A    between atoms: C3_4  and  O_7 
ROOT
ATOM      1  C   UNL d   1      -1.053   1.170   2.846  0.00  0.00    -0.033 A 
ATOM      2  C1  UNL d   1      -2.062   0.518   2.134  0.00  0.00     0.039 A 
ATOM      3  C2  UNL d   1      -1.801   0.004   0.863  0.00  0.00    -0.080 A 
ATOM      4  C3  UNL d   1      -0.529   0.147   0.316  0.00  0.00     0.150 A 
ATOM      5  C4  UNL d   1       0.482   0.792   1.021  0.00  0.00    -0.007 A 
ATOM      6  C5  UNL d   1       0.219   1.306   2.290  0.00  0.00     0.039 A 
ENDROOT
BRANCH   4   7
ATOM      7  O   UNL d   1      -0.228  -0.334  -0.924  0.00  0.00    -0.526 OA
ATOM      8  H5  UNL d   1      -1.030  -0.729  -1.304  0.00  0.00     0.418 HD
ENDBRANCH   4   7
TORSDOF 1
ENDMDL
