MODEL 1
REMARK minimizedAffinity -4.96170473
REMARK minimizedRMSD -1
REMARK  1 active torsions:
REMARK  status: ('A' for Active; 'I' for Inactive)
REMARK    1  A    between atoms: C3_4  and  O_7 
ROOT
ATOM      1  C   UNL d   1      -0.835   1.096   2.593  0.00  0.00    -0.033 A 
ATOM      2  C1  UNL d   1      -1.962   0.597   1.938  0.00  0.00     0.039 A 
ATOM      3  C2  UNL d   1      -1.825  -0.062   0.715  0.00  0.00    -0.080 A 
ATOM      4  C3  UNL d   1      -0.558  -0.217   0.159  0.00  0.00     0.150 A 
ATOM      5  C4  UNL d   1       0.569   0.274   0.809  0.00  0.00    -0.007 A 
ATOM      6  C5  UNL d   1       0.431   0.933   2.030  0.00  0.00     0.039 A 
ENDROOT
BRANCH   4   7
ATOM      7  O   UNL d   1      -0.376  -0.849  -1.035  0.00  0.00    -0.526 OA
ATOM      8  H5  UNL d   1      -1.246  -1.109  -1.381  0.00  0.00     0.418 HD
ENDBRANCH   4   7
TORSDOF 1
ENDMDL
