MODEL 1
REMARK minimizedAffinity -5.46493816
REMARK minimizedRMSD -1
REMARK  1 active torsions:
REMARK  status: ('A' for Active; 'I' for Inactive)
REMARK    1  A    between atoms: C3_4  and  O_7 
ROOT
ATOM      1  C   UNL d   1      -0.578   0.979   2.252  0.00  0.00    -0.033 A 
ATOM      2  C1  UNL d   1       0.334   0.354   3.105  0.00  0.00     0.039 A 
ATOM      3  C2  UNL d   1       1.329  -0.473   2.582  0.00  0.00    -0.080 A 
ATOM      4  C3  UNL d   1       1.403  -0.666   1.205  0.00  0.00     0.150 A 
ATOM      5  C4  UNL d   1       0.501  -0.044   0.348  0.00  0.00    -0.007 A 
ATOM      6  C5  UNL d   1      -0.493   0.781   0.873  0.00  0.00     0.039 A 
ENDROOT
BRANCH   4   7
ATOM      7  O   UNL d   1       2.354  -1.468   0.648  0.00  0.00    -0.526 OA
ATOM      8  H5  UNL d   1       2.889  -1.853   1.362  0.00  0.00     0.418 HD
ENDBRANCH   4   7
TORSDOF 1
ENDMDL
