MODEL 1
REMARK minimizedAffinity 1.01095581
REMARK minimizedRMSD -1
REMARK  0 active torsions:
REMARK  status: ('A' for Active; 'I' for Inactive)
ROOT
ATOM      1  C   UNL d   1       0.213   2.032   2.474  0.00  0.00     0.077 C 
ATOM      2  C1  UNL d   1       0.813   1.094   1.469  0.00  0.00    -0.074 A 
ATOM      3  C2  UNL d   1       1.961   0.355   1.771  0.00  0.00    -0.005 A 
ATOM      4  C3  UNL d   1       2.502  -0.520   0.829  0.00  0.00     0.006 A 
ATOM      5  C4  UNL d   1       1.901  -0.665  -0.422  0.00  0.00    -0.005 A 
ATOM      6  C5  UNL d   1       0.752   0.065  -0.741  0.00  0.00    -0.074 A 
ATOM      7  C6  UNL d   1       0.088  -0.086  -2.078  0.00  0.00     0.077 C 
ATOM      8  C7  UNL d   1       0.211   0.938   0.213  0.00  0.00    -0.001 A 
ENDROOT
TORSDOF 0
ENDMDL
