MODEL 1
REMARK minimizedAffinity -5.59745026
REMARK minimizedRMSD -1
REMARK  0 active torsions:
REMARK  status: ('A' for Active; 'I' for Inactive)
ROOT
ATOM      1  C   UNL d   1      -0.002   1.039   3.148  0.00  0.00     0.077 C 
ATOM      2  C1  UNL d   1      -0.073   0.393   1.797  0.00  0.00    -0.074 A 
ATOM      3  C2  UNL d   1       1.090   0.106   1.075  0.00  0.00    -0.005 A 
ATOM      4  C3  UNL d   1       1.009  -0.504  -0.176  0.00  0.00     0.006 A 
ATOM      5  C4  UNL d   1      -0.234  -0.833  -0.719  0.00  0.00    -0.005 A 
ATOM      6  C5  UNL d   1      -1.408  -0.554  -0.012  0.00  0.00    -0.074 A 
ATOM      7  C6  UNL d   1      -2.752  -0.909  -0.576  0.00  0.00     0.077 C 
ATOM      8  C7  UNL d   1      -1.318   0.053   1.249  0.00  0.00    -0.001 A 
ENDROOT
TORSDOF 0
ENDMDL
