MODEL 1
REMARK minimizedAffinity 7.29302406
REMARK minimizedRMSD -1
REMARK  0 active torsions:
REMARK  status: ('A' for Active; 'I' for Inactive)
ROOT
ATOM      1  C   UNL d   1       1.084  -1.798   3.143  0.00  0.00     0.077 C 
ATOM      2  C1  UNL d   1       0.328  -0.522   2.922  0.00  0.00    -0.074 A 
ATOM      3  C2  UNL d   1       0.835   0.702   3.371  0.00  0.00    -0.005 A 
ATOM      4  C3  UNL d   1       0.125   1.881   3.149  0.00  0.00     0.006 A 
ATOM      5  C4  UNL d   1      -1.097   1.850   2.477  0.00  0.00    -0.005 A 
ATOM      6  C5  UNL d   1      -1.620   0.636   2.019  0.00  0.00    -0.074 A 
ATOM      7  C6  UNL d   1      -2.927   0.586   1.286  0.00  0.00     0.077 C 
ATOM      8  C7  UNL d   1      -0.897  -0.544   2.240  0.00  0.00    -0.001 A 
ENDROOT
TORSDOF 0
ENDMDL
