MODEL 1
REMARK minimizedAffinity 0.196547732
REMARK minimizedRMSD -1
REMARK  0 active torsions:
REMARK  status: ('A' for Active; 'I' for Inactive)
ROOT
ATOM      1  C   UNL d   1      -1.024   1.330  -0.463  0.00  0.00     0.077 C 
ATOM      2  C1  UNL d   1      -0.461   0.677   0.764  0.00  0.00    -0.074 A 
ATOM      3  C2  UNL d   1       0.913   0.693   1.021  0.00  0.00    -0.005 A 
ATOM      4  C3  UNL d   1       1.421   0.090   2.172  0.00  0.00     0.006 A 
ATOM      5  C4  UNL d   1       0.560  -0.536   3.075  0.00  0.00    -0.005 A 
ATOM      6  C5  UNL d   1      -0.817  -0.563   2.834  0.00  0.00    -0.074 A 
ATOM      7  C6  UNL d   1      -1.757  -1.222   3.799  0.00  0.00     0.077 C 
ATOM      8  C7  UNL d   1      -1.320   0.053   1.680  0.00  0.00    -0.001 A 
ENDROOT
TORSDOF 0
ENDMDL
