MODEL 1
REMARK minimizedAffinity 0.476586789
REMARK minimizedRMSD -1
REMARK  0 active torsions:
REMARK  status: ('A' for Active; 'I' for Inactive)
ROOT
ATOM      1  C   UNL d   1       3.387  -2.193   5.995  0.00  0.00     0.077 C 
ATOM      2  C1  UNL d   1       2.390  -1.852   4.928  0.00  0.00    -0.074 A 
ATOM      3  C2  UNL d   1       2.804  -1.333   3.697  0.00  0.00    -0.005 A 
ATOM      4  C3  UNL d   1       1.865  -1.029   2.711  0.00  0.00     0.006 A 
ATOM      5  C4  UNL d   1       0.506  -1.242   2.945  0.00  0.00    -0.005 A 
ATOM      6  C5  UNL d   1       0.074  -1.762   4.169  0.00  0.00    -0.074 A 
ATOM      7  C6  UNL d   1      -1.382  -2.007   4.433  0.00  0.00     0.077 C 
ATOM      8  C7  UNL d   1       1.024  -2.071   5.153  0.00  0.00    -0.001 A 
ENDROOT
TORSDOF 0
ENDMDL
