MODEL 1
REMARK minimizedAffinity -1.22005963
REMARK minimizedRMSD -1
REMARK  0 active torsions:
REMARK  status: ('A' for Active; 'I' for Inactive)
ROOT
ATOM      1  C   UNL d   1      -2.374   0.415   1.527  0.00  0.00     0.077 C 
ATOM      2  C1  UNL d   1      -1.956  -0.527   2.617  0.00  0.00    -0.074 A 
ATOM      3  C2  UNL d   1      -2.898  -1.315   3.287  0.00  0.00    -0.005 A 
ATOM      4  C3  UNL d   1      -2.493  -2.194   4.292  0.00  0.00     0.006 A 
ATOM      5  C4  UNL d   1      -1.145  -2.292   4.637  0.00  0.00    -0.005 A 
ATOM      6  C5  UNL d   1      -0.189  -1.513   3.979  0.00  0.00    -0.074 A 
ATOM      7  C6  UNL d   1       1.265  -1.614   4.331  0.00  0.00     0.077 C 
ATOM      8  C7  UNL d   1      -0.603  -0.637   2.965  0.00  0.00    -0.001 A 
ENDROOT
TORSDOF 0
ENDMDL
