MODEL 1
REMARK minimizedAffinity 2.94725943
REMARK minimizedRMSD -1
REMARK  0 active torsions:
REMARK  status: ('A' for Active; 'I' for Inactive)
ROOT
ATOM      1  C   UNL d   1      -0.621  -5.517  -5.999  0.00  0.00     0.077 C 
ATOM      2  C1  UNL d   1      -1.330  -4.195  -5.981  0.00  0.00    -0.074 A 
ATOM      3  C2  UNL d   1      -0.613  -2.995  -5.967  0.00  0.00    -0.005 A 
ATOM      4  C3  UNL d   1      -1.287  -1.773  -5.960  0.00  0.00     0.006 A 
ATOM      5  C4  UNL d   1      -2.682  -1.740  -5.965  0.00  0.00    -0.005 A 
ATOM      6  C5  UNL d   1      -3.416  -2.930  -5.979  0.00  0.00    -0.074 A 
ATOM      7  C6  UNL d   1      -4.915  -2.912  -5.995  0.00  0.00     0.077 C 
ATOM      8  C7  UNL d   1      -2.732  -4.154  -5.994  0.00  0.00    -0.001 A 
ENDROOT
TORSDOF 0
ENDMDL
