MODEL 1
REMARK minimizedAffinity -5.89853525
REMARK minimizedRMSD -1
REMARK  0 active torsions:
REMARK  status: ('A' for Active; 'I' for Inactive)
ROOT
ATOM      1  C2' OXE d   1       1.682  -0.487  -0.852  0.00  0.00     0.078 C 
ATOM      2  C1' OXE d   1      -0.727   0.660   0.023  0.00  0.00     0.078 C 
ATOM      3  C1  OXE d   1      -0.142  -0.461   0.845  0.00  0.00    -0.078 A 
ATOM      4  C2  OXE d   1       1.012  -1.047   0.385  0.00  0.00    -0.078 A 
ATOM      5  C3  OXE d   1       1.623  -2.049   1.134  0.00  0.00     0.003 A 
ATOM      6  C4  OXE d   1       0.992  -2.568   2.271  0.00  0.00    -0.002 A 
ATOM      7  C5  OXE d   1      -0.204  -2.012   2.736  0.00  0.00    -0.002 A 
ATOM      8  C6  OXE d   1      -0.761  -0.932   2.060  0.00  0.00     0.003 A 
ENDROOT
TORSDOF 0
ENDMDL
