MODEL 1
REMARK minimizedAffinity -0.977410555
REMARK minimizedRMSD -1
REMARK  0 active torsions:
REMARK  status: ('A' for Active; 'I' for Inactive)
ROOT
ATOM      1  C2' OXE d   1      -0.802   0.926  -0.687  0.00  0.00     0.078 C 
ATOM      2  C1' OXE d   1       1.754   0.225  -1.615  0.00  0.00     0.078 C 
ATOM      3  C1  OXE d   1       1.284  -0.385  -0.318  0.00  0.00    -0.078 A 
ATOM      4  C2  OXE d   1       0.051  -0.000   0.152  0.00  0.00    -0.078 A 
ATOM      5  C3  OXE d   1      -0.453  -0.575   1.316  0.00  0.00     0.003 A 
ATOM      6  C4  OXE d   1       0.347  -1.423   2.091  0.00  0.00    -0.002 A 
ATOM      7  C5  OXE d   1       1.621  -1.796   1.651  0.00  0.00    -0.002 A 
ATOM      8  C6  OXE d   1       2.087  -1.321   0.430  0.00  0.00     0.003 A 
ENDROOT
TORSDOF 0
ENDMDL
