MODEL 1
REMARK minimizedAffinity -0.831493556
REMARK minimizedRMSD -1
REMARK  0 active torsions:
REMARK  status: ('A' for Active; 'I' for Inactive)
ROOT
ATOM      1  C2' OXE d   1      -0.460   0.565  -0.672  0.00  0.00     0.078 C 
ATOM      2  C1' OXE d   1       2.225  -0.158  -1.058  0.00  0.00     0.078 C 
ATOM      3  C1  OXE d   1       1.541  -0.637   0.198  0.00  0.00    -0.078 A 
ATOM      4  C2  OXE d   1       0.241  -0.240   0.401  0.00  0.00    -0.078 A 
ATOM      5  C3  OXE d   1      -0.454  -0.700   1.516  0.00  0.00     0.003 A 
ATOM      6  C4  OXE d   1       0.206  -1.435   2.508  0.00  0.00    -0.002 A 
ATOM      7  C5  OXE d   1       1.541  -1.817   2.340  0.00  0.00    -0.002 A 
ATOM      8  C6  OXE d   1       2.209  -1.463   1.173  0.00  0.00     0.003 A 
ENDROOT
TORSDOF 0
ENDMDL
