MODEL 1
REMARK minimizedAffinity -3.94892144
REMARK minimizedRMSD -1
REMARK  0 active torsions:
REMARK  status: ('A' for Active; 'I' for Inactive)
ROOT
ATOM      1  C2' OXE d   1      -1.748   1.059   1.383  0.00  0.00     0.078 C 
ATOM      2  C1' OXE d   1      -1.100  -1.104   3.052  0.00  0.00     0.078 C 
ATOM      3  C1  OXE d   1      -0.140  -0.761   1.940  0.00  0.00    -0.078 A 
ATOM      4  C2  OXE d   1      -0.488   0.269   1.100  0.00  0.00    -0.078 A 
ATOM      5  C3  OXE d   1       0.388   0.662   0.092  0.00  0.00     0.003 A 
ATOM      6  C4  OXE d   1       1.546  -0.079  -0.170  0.00  0.00    -0.002 A 
ATOM      7  C5  OXE d   1       1.899  -1.157   0.650  0.00  0.00    -0.002 A 
ATOM      8  C6  OXE d   1       1.090  -1.483   1.733  0.00  0.00     0.003 A 
ENDROOT
TORSDOF 0
ENDMDL
