MODEL 1
REMARK minimizedAffinity -1.23024905
REMARK minimizedRMSD -1
REMARK  0 active torsions:
REMARK  status: ('A' for Active; 'I' for Inactive)
ROOT
ATOM      1  C2' OXE d   1       0.334  -1.806   3.411  0.00  0.00     0.078 C 
ATOM      2  C1' OXE d   1      -1.835  -0.262   2.518  0.00  0.00     0.078 C 
ATOM      3  C1  OXE d   1      -0.635  -0.381   1.612  0.00  0.00    -0.078 A 
ATOM      4  C2  OXE d   1       0.440  -1.099   2.076  0.00  0.00    -0.078 A 
ATOM      5  C3  OXE d   1       1.550  -1.286   1.258  0.00  0.00     0.003 A 
ATOM      6  C4  OXE d   1       1.645  -0.621   0.029  0.00  0.00    -0.002 A 
ATOM      7  C5  OXE d   1       0.577   0.148  -0.446  0.00  0.00    -0.002 A 
ATOM      8  C6  OXE d   1      -0.584   0.244   0.313  0.00  0.00     0.003 A 
ENDROOT
TORSDOF 0
ENDMDL
