MODEL 1
REMARK minimizedAffinity -3.19261694
REMARK minimizedRMSD -1
REMARK  0 active torsions:
REMARK  status: ('A' for Active; 'I' for Inactive)
ROOT
ATOM      1  C2' OXE d   1      -1.303   0.334   2.116  0.00  0.00     0.078 C 
ATOM      2  C1' OXE d   1      -0.714   1.334  -0.441  0.00  0.00     0.078 C 
ATOM      3  C1  OXE d   1       0.222   0.307   0.146  0.00  0.00    -0.078 A 
ATOM      4  C2  OXE d   1      -0.048  -0.142   1.417  0.00  0.00    -0.078 A 
ATOM      5  C3  OXE d   1       0.752  -1.130   1.984  0.00  0.00     0.003 A 
ATOM      6  C4  OXE d   1       1.917  -1.558   1.335  0.00  0.00    -0.002 A 
ATOM      7  C5  OXE d   1       2.232  -1.084   0.057  0.00  0.00    -0.002 A 
ATOM      8  C6  OXE d   1       1.374  -0.185  -0.568  0.00  0.00     0.003 A 
ENDROOT
TORSDOF 0
ENDMDL
