MODEL 1
REMARK minimizedAffinity -1.98809099
REMARK minimizedRMSD -1
REMARK  0 active torsions:
REMARK  status: ('A' for Active; 'I' for Inactive)
ROOT
ATOM      1  C2' OXE d   1       2.334   0.590  -1.051  0.00  0.00     0.078 C 
ATOM      2  C1' OXE d   1       2.172  -1.515   0.799  0.00  0.00     0.078 C 
ATOM      3  C1  OXE d   1       0.963  -0.628   0.635  0.00  0.00    -0.078 A 
ATOM      4  C2  OXE d   1       1.067   0.428  -0.238  0.00  0.00    -0.078 A 
ATOM      5  C3  OXE d   1      -0.037   1.244  -0.468  0.00  0.00     0.003 A 
ATOM      6  C4  OXE d   1      -1.201   1.093   0.295  0.00  0.00    -0.002 A 
ATOM      7  C5  OXE d   1      -1.314   0.048   1.219  0.00  0.00    -0.002 A 
ATOM      8  C6  OXE d   1      -0.259  -0.845   1.369  0.00  0.00     0.003 A 
ENDROOT
TORSDOF 0
ENDMDL
