MODEL 1
REMARK minimizedAffinity -1.23193371
REMARK minimizedRMSD -1
REMARK  0 active torsions:
REMARK  status: ('A' for Active; 'I' for Inactive)
ROOT
ATOM      1  C2' OXE d   1       2.721   0.205  -1.389  0.00  0.00     0.078 C 
ATOM      2  C1' OXE d   1       1.938  -1.517   0.685  0.00  0.00     0.078 C 
ATOM      3  C1  OXE d   1       0.962  -0.454   0.246  0.00  0.00    -0.078 A 
ATOM      4  C2  OXE d   1       1.371   0.414  -0.737  0.00  0.00    -0.078 A 
ATOM      5  C3  OXE d   1       0.489   1.378  -1.216  0.00  0.00     0.003 A 
ATOM      6  C4  OXE d   1      -0.754   1.570  -0.601  0.00  0.00    -0.002 A 
ATOM      7  C5  OXE d   1      -1.174   0.723   0.429  0.00  0.00    -0.002 A 
ATOM      8  C6  OXE d   1      -0.348  -0.319   0.835  0.00  0.00     0.003 A 
ENDROOT
TORSDOF 0
ENDMDL
