MODEL 1
REMARK minimizedAffinity -3.8445127
REMARK minimizedRMSD -1
REMARK  0 active torsions:
REMARK  status: ('A' for Active; 'I' for Inactive)
ROOT
ATOM      1  C2' OXE d   1      -0.931  -1.329   2.861  0.00  0.00     0.078 C 
ATOM      2  C1' OXE d   1       1.558  -2.099   1.816  0.00  0.00     0.078 C 
ATOM      3  C1  OXE d   1       0.863  -0.920   1.182  0.00  0.00    -0.078 A 
ATOM      4  C2  OXE d   1      -0.376  -0.580   1.669  0.00  0.00    -0.078 A 
ATOM      5  C3  OXE d   1      -1.036   0.533   1.156  0.00  0.00     0.003 A 
ATOM      6  C4  OXE d   1      -0.520   1.215   0.047  0.00  0.00    -0.002 A 
ATOM      7  C5  OXE d   1       0.722   0.859  -0.490  0.00  0.00    -0.002 A 
ATOM      8  C6  OXE d   1       1.445  -0.177   0.092  0.00  0.00     0.003 A 
ENDROOT
TORSDOF 0
ENDMDL
