MODEL 1
REMARK minimizedAffinity -4.31088781
REMARK minimizedRMSD -1
REMARK  0 active torsions:
REMARK  status: ('A' for Active; 'I' for Inactive)
ROOT
ATOM      1  C2' OXE d   1      -0.229   0.554  -0.035  0.00  0.00     0.078 C 
ATOM      2  C1' OXE d   1       2.236  -0.753   0.270  0.00  0.00     0.078 C 
ATOM      3  C1  OXE d   1       1.153  -1.050   1.277  0.00  0.00    -0.078 A 
ATOM      4  C2  OXE d   1      -0.035  -0.371   1.147  0.00  0.00    -0.078 A 
ATOM      5  C3  OXE d   1      -1.086  -0.648   2.015  0.00  0.00     0.003 A 
ATOM      6  C4  OXE d   1      -0.895  -1.498   3.112  0.00  0.00    -0.002 A 
ATOM      7  C5  OXE d   1       0.320  -2.169   3.286  0.00  0.00    -0.002 A 
ATOM      8  C6  OXE d   1       1.337  -1.990   2.355  0.00  0.00     0.003 A 
ENDROOT
TORSDOF 0
ENDMDL
