MODEL 1
REMARK minimizedAffinity -4.43912077
REMARK minimizedRMSD -1
REMARK  0 active torsions:
REMARK  status: ('A' for Active; 'I' for Inactive)
ROOT
ATOM      1  C2' OXE d   1      -1.525   1.100  -0.165  0.00  0.00     0.078 C 
ATOM      2  C1' OXE d   1      -1.896  -0.398   2.179  0.00  0.00     0.078 C 
ATOM      3  C1  OXE d   1      -0.572  -0.523   1.467  0.00  0.00    -0.078 A 
ATOM      4  C2  OXE d   1      -0.417   0.178   0.295  0.00  0.00    -0.078 A 
ATOM      5  C3  OXE d   1       0.804   0.141  -0.373  0.00  0.00     0.003 A 
ATOM      6  C4  OXE d   1       1.820  -0.723   0.054  0.00  0.00    -0.002 A 
ATOM      7  C5  OXE d   1       1.667  -1.476   1.223  0.00  0.00    -0.002 A 
ATOM      8  C6  OXE d   1       0.496  -1.355   1.963  0.00  0.00     0.003 A 
ENDROOT
TORSDOF 0
ENDMDL
