MODEL 1
REMARK minimizedAffinity -0.615268588
REMARK minimizedRMSD -1
REMARK  0 active torsions:
REMARK  status: ('A' for Active; 'I' for Inactive)
ROOT
ATOM      1  C2' OXE d   1      -0.714  -0.700   2.041  0.00  0.00     0.078 C 
ATOM      2  C1' OXE d   1       1.903  -1.215   1.165  0.00  0.00     0.078 C 
ATOM      3  C1  OXE d   1       1.059  -0.273   0.343  0.00  0.00    -0.078 A 
ATOM      4  C2  OXE d   1      -0.236  -0.064   0.753  0.00  0.00    -0.078 A 
ATOM      5  C3  OXE d   1      -1.040   0.838   0.062  0.00  0.00     0.003 A 
ATOM      6  C4  OXE d   1      -0.594   1.415  -1.133  0.00  0.00    -0.002 A 
ATOM      7  C5  OXE d   1       0.708   1.183  -1.590  0.00  0.00    -0.002 A 
ATOM      8  C6  OXE d   1       1.560   0.377  -0.842  0.00  0.00     0.003 A 
ENDROOT
TORSDOF 0
ENDMDL
