MODEL 1
REMARK minimizedAffinity -4.24123716
REMARK minimizedRMSD -1
REMARK  0 active torsions:
REMARK  status: ('A' for Active; 'I' for Inactive)
ROOT
ATOM      1  C2' OXE d   1       0.703  -2.316   3.250  0.00  0.00     0.078 C 
ATOM      2  C1' OXE d   1      -1.438  -0.631   2.574  0.00  0.00     0.078 C 
ATOM      3  C1  OXE d   1      -0.271  -0.702   1.622  0.00  0.00    -0.078 A 
ATOM      4  C2  OXE d   1       0.793  -1.493   1.983  0.00  0.00    -0.078 A 
ATOM      5  C3  OXE d   1       1.872  -1.636   1.115  0.00  0.00     0.003 A 
ATOM      6  C4  OXE d   1       1.952  -0.864  -0.050  0.00  0.00    -0.002 A 
ATOM      7  C5  OXE d   1       0.896  -0.022  -0.417  0.00  0.00    -0.002 A 
ATOM      8  C6  OXE d   1      -0.238   0.038   0.384  0.00  0.00     0.003 A 
ENDROOT
TORSDOF 0
ENDMDL
