MODEL 1
REMARK minimizedAffinity -1.7046411
REMARK minimizedRMSD -1
REMARK  0 active torsions:
REMARK  status: ('A' for Active; 'I' for Inactive)
ROOT
ATOM      1  C2' OXE d   1      -3.127   0.805  -2.479  0.00  0.00     0.078 C 
ATOM      2  C1' OXE d   1      -0.809   1.458  -1.037  0.00  0.00     0.078 C 
ATOM      3  C1  OXE d   1      -1.037   2.155  -2.355  0.00  0.00    -0.078 A 
ATOM      4  C2  OXE d   1      -2.150   1.795  -3.076  0.00  0.00    -0.078 A 
ATOM      5  C3  OXE d   1      -2.437   2.446  -4.272  0.00  0.00     0.003 A 
ATOM      6  C4  OXE d   1      -1.523   3.353  -4.822  0.00  0.00    -0.002 A 
ATOM      7  C5  OXE d   1      -0.363   3.705  -4.123  0.00  0.00    -0.002 A 
ATOM      8  C6  OXE d   1      -0.127   3.147  -2.871  0.00  0.00     0.003 A 
ENDROOT
TORSDOF 0
ENDMDL
