MODEL 1
REMARK minimizedAffinity -0.501537919
REMARK minimizedRMSD -1
REMARK  0 active torsions:
REMARK  status: ('A' for Active; 'I' for Inactive)
ROOT
ATOM      1  C2' OXE d   1      -3.016  -5.988  -5.009  0.00  0.00     0.078 C 
ATOM      2  C1' OXE d   1      -1.959  -4.953  -2.623  0.00  0.00     0.078 C 
ATOM      3  C1  OXE d   1      -1.002  -5.227  -3.756  0.00  0.00    -0.078 A 
ATOM      4  C2  OXE d   1      -1.521  -5.778  -4.903  0.00  0.00    -0.078 A 
ATOM      5  C3  OXE d   1      -0.691  -6.000  -5.998  0.00  0.00     0.003 A 
ATOM      6  C4  OXE d   1       0.692  -5.812  -5.888  0.00  0.00    -0.002 A 
ATOM      7  C5  OXE d   1       1.247  -5.289  -4.715  0.00  0.00    -0.002 A 
ATOM      8  C6  OXE d   1       0.410  -4.952  -3.657  0.00  0.00     0.003 A 
ENDROOT
TORSDOF 0
ENDMDL
