MODEL 1
REMARK minimizedAffinity -4.00793219
REMARK minimizedRMSD -1
REMARK  0 active torsions:
REMARK  status: ('A' for Active; 'I' for Inactive)
ROOT
ATOM      1  C2' OXE d   1       1.526  -0.824  -0.743  0.00  0.00     0.078 C 
ATOM      2  C1' OXE d   1      -0.996   0.152   0.010  0.00  0.00     0.078 C 
ATOM      3  C1  OXE d   1      -0.297  -0.794   0.954  0.00  0.00    -0.078 A 
ATOM      4  C2  OXE d   1       0.916  -1.303   0.556  0.00  0.00    -0.078 A 
ATOM      5  C3  OXE d   1       1.629  -2.137   1.413  0.00  0.00     0.003 A 
ATOM      6  C4  OXE d   1       1.053  -2.584   2.608  0.00  0.00    -0.002 A 
ATOM      7  C5  OXE d   1      -0.199  -2.109   3.014  0.00  0.00    -0.002 A 
ATOM      8  C6  OXE d   1      -0.867  -1.183   2.221  0.00  0.00     0.003 A 
ENDROOT
TORSDOF 0
ENDMDL
