MODEL 1
REMARK minimizedAffinity 1.59757292
REMARK minimizedRMSD -1
REMARK  0 active torsions:
REMARK  status: ('A' for Active; 'I' for Inactive)
ROOT
ATOM      1  C2' OXE d   1       2.332  -1.202   1.065  0.00  0.00     0.078 C 
ATOM      2  C1' OXE d   1       0.526   0.186  -0.576  0.00  0.00     0.078 C 
ATOM      3  C1  OXE d   1       0.015  -0.348   0.739  0.00  0.00    -0.078 A 
ATOM      4  C2  OXE d   1       0.893  -1.067   1.514  0.00  0.00    -0.078 A 
ATOM      5  C3  OXE d   1       0.488  -1.535   2.761  0.00  0.00     0.003 A 
ATOM      6  C4  OXE d   1      -0.847  -1.414   3.164  0.00  0.00    -0.002 A 
ATOM      7  C5  OXE d   1      -1.768  -0.720   2.371  0.00  0.00    -0.002 A 
ATOM      8  C6  OXE d   1      -1.344  -0.146   1.178  0.00  0.00     0.003 A 
ENDROOT
TORSDOF 0
ENDMDL
