MODEL 1
REMARK minimizedAffinity -0.106677815
REMARK minimizedRMSD -1
REMARK  0 active torsions:
REMARK  status: ('A' for Active; 'I' for Inactive)
ROOT
ATOM      1  C2' OXE d   1      -1.796  -0.110   2.096  0.00  0.00     0.078 C 
ATOM      2  C1' OXE d   1      -1.698   0.319  -0.676  0.00  0.00     0.078 C 
ATOM      3  C1  OXE d   1      -0.421  -0.081   0.019  0.00  0.00    -0.078 A 
ATOM      4  C2  OXE d   1      -0.468  -0.244   1.383  0.00  0.00    -0.078 A 
ATOM      5  C3  OXE d   1       0.669  -0.666   2.066  0.00  0.00     0.003 A 
ATOM      6  C4  OXE d   1       1.896  -0.778   1.401  0.00  0.00    -0.002 A 
ATOM      7  C5  OXE d   1       1.974  -0.578   0.018  0.00  0.00    -0.002 A 
ATOM      8  C6  OXE d   1       0.819  -0.272  -0.693  0.00  0.00     0.003 A 
ENDROOT
TORSDOF 0
ENDMDL
