MODEL 1
REMARK minimizedAffinity 8.42095661
REMARK minimizedRMSD -1
REMARK  2 active torsions:
REMARK  status: ('A' for Active; 'I' for Inactive)
REMARK    1  A    between atoms: C2'_3  and  C1'_4 
REMARK    2  A    between atoms: C1'_4  and  C1_5 
ROOT
ATOM      1  C1  I4B d   1       1.257  -3.854   4.248  0.00  0.00    -0.075 A 
ATOM      2  C2  I4B d   1       0.204  -4.277   5.020  0.00  0.00     0.003 A 
ATOM      3  C3  I4B d   1       0.372  -5.348   5.930  0.00  0.00     0.002 A 
ATOM      4  C4  I4B d   1       1.588  -5.997   5.999  0.00  0.00    -0.004 A 
ATOM      5  C5  I4B d   1       2.661  -5.553   5.232  0.00  0.00     0.002 A 
ATOM      6  C6  I4B d   1       2.499  -4.467   4.359  0.00  0.00     0.003 A 
ENDROOT
BRANCH   1   7
ATOM      7  C1' I4B d   1       1.036  -2.741   3.273  0.00  0.00     0.060 C 
BRANCH   7   8
ATOM      8  C2' I4B d   1       2.072  -1.670   3.545  0.00  0.00    -0.013 C 
ATOM      9  C4' I4B d   1       1.920  -0.511   2.595  0.00  0.00     0.013 C 
ATOM     10  C3' I4B d   1       1.917  -1.226   4.969  0.00  0.00     0.013 C 
ENDBRANCH   7   8
ENDBRANCH   1   7
TORSDOF 2
ENDMDL
