MODEL 1
REMARK minimizedAffinity 10.2766695
REMARK minimizedRMSD -1
REMARK  2 active torsions:
REMARK  status: ('A' for Active; 'I' for Inactive)
REMARK    1  A    between atoms: C2'_3  and  C1'_4 
REMARK    2  A    between atoms: C1'_4  and  C1_5 
ROOT
ATOM      1  C1  I4B d   1       3.516  -5.973  -3.475  0.00  0.00    -0.075 A 
ATOM      2  C2  I4B d   1       2.144  -5.998  -3.426  0.00  0.00     0.003 A 
ATOM      3  C3  I4B d   1       1.388  -5.999  -4.623  0.00  0.00     0.002 A 
ATOM      4  C4  I4B d   1       2.038  -5.924  -5.838  0.00  0.00    -0.004 A 
ATOM      5  C5  I4B d   1       3.430  -5.922  -5.886  0.00  0.00     0.002 A 
ATOM      6  C6  I4B d   1       4.173  -5.959  -4.698  0.00  0.00     0.003 A 
ENDROOT
BRANCH   1   7
ATOM      7  C1' I4B d   1       4.282  -5.939  -2.191  0.00  0.00     0.060 C 
BRANCH   7   8
ATOM      8  C2' I4B d   1       3.734  -4.804  -1.350  0.00  0.00    -0.013 C 
ATOM      9  C4' I4B d   1       3.035  -3.780  -2.205  0.00  0.00     0.013 C 
ATOM     10  C3' I4B d   1       2.801  -5.389  -0.333  0.00  0.00     0.013 C 
ENDBRANCH   7   8
ENDBRANCH   1   7
TORSDOF 2
ENDMDL
