MODEL 1
REMARK minimizedAffinity 10.0510492
REMARK minimizedRMSD -1
REMARK  2 active torsions:
REMARK  status: ('A' for Active; 'I' for Inactive)
REMARK    1  A    between atoms: C2'_3  and  C1'_4 
REMARK    2  A    between atoms: C1'_4  and  C1_5 
ROOT
ATOM      1  C1  I4B d   1      -3.633  -0.418  -2.782  0.00  0.00    -0.075 A 
ATOM      2  C2  I4B d   1      -4.367   0.483  -3.513  0.00  0.00     0.003 A 
ATOM      3  C3  I4B d   1      -4.220   1.873  -3.286  0.00  0.00     0.002 A 
ATOM      4  C4  I4B d   1      -3.371   2.313  -2.291  0.00  0.00    -0.004 A 
ATOM      5  C5  I4B d   1      -2.610   1.399  -1.567  0.00  0.00     0.002 A 
ATOM      6  C6  I4B d   1      -2.733   0.025  -1.823  0.00  0.00     0.003 A 
ENDROOT
BRANCH   1   7
ATOM      7  C1' I4B d   1      -3.838  -1.880  -3.025  0.00  0.00     0.060 C 
BRANCH   7   8
ATOM      8  C2' I4B d   1      -4.504  -2.468  -1.798  0.00  0.00    -0.013 C 
ATOM      9  C4' I4B d   1      -5.999  -2.300  -1.856  0.00  0.00     0.013 C 
ATOM     10  C3' I4B d   1      -4.124  -3.917  -1.715  0.00  0.00     0.013 C 
ENDBRANCH   7   8
ENDBRANCH   1   7
TORSDOF 2
ENDMDL
