MODEL 1
REMARK minimizedAffinity 8.48925972
REMARK minimizedRMSD -1
REMARK  2 active torsions:
REMARK  status: ('A' for Active; 'I' for Inactive)
REMARK    1  A    between atoms: C2'_3  and  C1'_4 
REMARK    2  A    between atoms: C1'_4  and  C1_5 
ROOT
ATOM      1  C1  I4B d   1       3.657  -3.221   3.855  0.00  0.00    -0.075 A 
ATOM      2  C2  I4B d   1       4.830  -2.882   3.229  0.00  0.00     0.003 A 
ATOM      3  C3  I4B d   1       5.998  -2.633   3.990  0.00  0.00     0.002 A 
ATOM      4  C4  I4B d   1       5.936  -2.684   5.367  0.00  0.00    -0.004 A 
ATOM      5  C5  I4B d   1       4.751  -3.051   5.999  0.00  0.00     0.002 A 
ATOM      6  C6  I4B d   1       3.607  -3.333   5.239  0.00  0.00     0.003 A 
ENDROOT
BRANCH   1   7
ATOM      7  C1' I4B d   1       2.434  -3.445   3.023  0.00  0.00     0.060 C 
BRANCH   7   8
ATOM      8  C2' I4B d   1       1.562  -2.212   3.134  0.00  0.00    -0.013 C 
ATOM      9  C4' I4B d   1       2.084  -1.094   2.270  0.00  0.00     0.013 C 
ATOM     10  C3' I4B d   1       0.167  -2.594   2.739  0.00  0.00     0.013 C 
ENDBRANCH   7   8
ENDBRANCH   1   7
TORSDOF 2
ENDMDL
