MODEL 1
REMARK minimizedAffinity 12.1507502
REMARK minimizedRMSD -1
REMARK  2 active torsions:
REMARK  status: ('A' for Active; 'I' for Inactive)
REMARK    1  A    between atoms: C2'_3  and  C1'_4 
REMARK    2  A    between atoms: C1'_4  and  C1_5 
ROOT
ATOM      1  C1  I4B d   1       2.408  -1.169   2.748  0.00  0.00    -0.075 A 
ATOM      2  C2  I4B d   1       2.992  -2.010   3.663  0.00  0.00     0.003 A 
ATOM      3  C3  I4B d   1       2.674  -3.390   3.667  0.00  0.00     0.002 A 
ATOM      4  C4  I4B d   1       1.736  -3.874   2.778  0.00  0.00    -0.004 A 
ATOM      5  C5  I4B d   1       1.162  -3.024   1.837  0.00  0.00     0.002 A 
ATOM      6  C6  I4B d   1       1.509  -1.666   1.813  0.00  0.00     0.003 A 
ENDROOT
BRANCH   1   7
ATOM      7  C1' I4B d   1       2.742   0.288   2.793  0.00  0.00     0.060 C 
BRANCH   7   8
ATOM      8  C2' I4B d   1       2.944   0.765   1.369  0.00  0.00    -0.013 C 
ATOM      9  C4' I4B d   1       2.999   2.269   1.301  0.00  0.00     0.013 C 
ATOM     10  C3' I4B d   1       4.210   0.153   0.851  0.00  0.00     0.013 C 
ENDBRANCH   7   8
ENDBRANCH   1   7
TORSDOF 2
ENDMDL
