MODEL 1
REMARK minimizedAffinity -1.56462955
REMARK minimizedRMSD -1
REMARK  0 active torsions:
REMARK  status: ('A' for Active; 'I' for Inactive)
ROOT
ATOM      1  C   UNL d   1       2.750  -1.396   0.197  0.00  0.00     0.124 A 
ATOM      2  C1  UNL d   1       1.914  -1.980  -0.744  0.00  0.00     0.062 A 
ATOM      3  C2  UNL d   1       0.607  -1.527  -0.897  0.00  0.00     0.162 A 
ATOM      4  C3  UNL d   1       0.128  -0.482  -0.108  0.00  0.00    -0.034 A 
ATOM      5  C4  UNL d   1       0.974   0.101   0.837  0.00  0.00     0.162 A 
ATOM      6  C5  UNL d   1       2.280  -0.356   0.987  0.00  0.00     0.062 A 
ATOM      7  F   UNL d   1       3.086   0.210   1.896  0.00  0.00    -0.097 F 
ATOM      8  F1  UNL d   1       0.545   1.108   1.613  0.00  0.00    -0.096 F 
ATOM      9  I   UNL d   1      -1.826   0.199  -0.334  0.00  0.00    -0.060 I 
ATOM     10  F2  UNL d   1      -0.178  -2.111  -1.814  0.00  0.00    -0.096 F 
ATOM     11  F3  UNL d   1       2.366  -2.986  -1.507  0.00  0.00    -0.097 F 
ATOM     12  F4  UNL d   1       4.007  -1.834   0.343  0.00  0.00    -0.092 F 
ENDROOT
TORSDOF 0
ENDMDL
