MODEL 1
REMARK minimizedAffinity 3.15064955
REMARK minimizedRMSD -1
REMARK  0 active torsions:
REMARK  status: ('A' for Active; 'I' for Inactive)
ROOT
ATOM      1  C   UNL d   1       1.196  -0.848  -0.175  0.00  0.00     0.124 A 
ATOM      2  C1  UNL d   1       0.140  -0.607  -1.043  0.00  0.00     0.062 A 
ATOM      3  C2  UNL d   1      -1.030  -0.017  -0.575  0.00  0.00     0.162 A 
ATOM      4  C3  UNL d   1      -1.150   0.338   0.768  0.00  0.00    -0.034 A 
ATOM      5  C4  UNL d   1      -0.084   0.092   1.636  0.00  0.00     0.162 A 
ATOM      6  C5  UNL d   1       1.083  -0.499   1.163  0.00  0.00     0.062 A 
ATOM      7  F   UNL d   1       2.102  -0.731   2.003  0.00  0.00    -0.097 F 
ATOM      8  F1  UNL d   1      -0.167   0.420   2.933  0.00  0.00    -0.096 F 
ATOM      9  I   UNL d   1      -2.899   1.221   1.473  0.00  0.00    -0.060 I 
ATOM     10  F2  UNL d   1      -2.034   0.204  -1.436  0.00  0.00    -0.096 F 
ATOM     11  F3  UNL d   1       0.247  -0.945  -2.337  0.00  0.00    -0.097 F 
ATOM     12  F4  UNL d   1       2.321  -1.417  -0.629  0.00  0.00    -0.092 F 
ENDROOT
TORSDOF 0
ENDMDL
