MODEL 1
REMARK minimizedAffinity -0.165652692
REMARK minimizedRMSD -1
REMARK  0 active torsions:
REMARK  status: ('A' for Active; 'I' for Inactive)
ROOT
ATOM      1  C   UNL d   1       2.473  -1.232   0.589  0.00  0.00     0.124 A 
ATOM      2  C1  UNL d   1       2.067  -0.123   1.318  0.00  0.00     0.062 A 
ATOM      3  C2  UNL d   1       0.868   0.514   1.013  0.00  0.00     0.162 A 
ATOM      4  C3  UNL d   1       0.065   0.044  -0.027  0.00  0.00    -0.034 A 
ATOM      5  C4  UNL d   1       0.481  -1.071  -0.756  0.00  0.00     0.162 A 
ATOM      6  C5  UNL d   1       1.680  -1.705  -0.447  0.00  0.00     0.062 A 
ATOM      7  F   UNL d   1       2.071  -2.776  -1.153  0.00  0.00    -0.097 F 
ATOM      8  F1  UNL d   1      -0.266  -1.550  -1.762  0.00  0.00    -0.096 F 
ATOM      9  I   UNL d   1      -1.728   0.994  -0.486  0.00  0.00    -0.060 I 
ATOM     10  F2  UNL d   1       0.500   1.584   1.734  0.00  0.00    -0.096 F 
ATOM     11  F3  UNL d   1       2.832   0.336   2.319  0.00  0.00    -0.097 F 
ATOM     12  F4  UNL d   1       3.628  -1.843   0.884  0.00  0.00    -0.092 F 
ENDROOT
TORSDOF 0
ENDMDL
