MODEL 1
REMARK minimizedAffinity 0.448660403
REMARK minimizedRMSD -1
REMARK  0 active torsions:
REMARK  status: ('A' for Active; 'I' for Inactive)
ROOT
ATOM      1  C   UNL d   1       1.883  -2.236  -0.856  0.00  0.00     0.124 A 
ATOM      2  C1  UNL d   1       2.506  -1.569   0.189  0.00  0.00     0.062 A 
ATOM      3  C2  UNL d   1       1.877  -0.492   0.806  0.00  0.00     0.162 A 
ATOM      4  C3  UNL d   1       0.616  -0.075   0.380  0.00  0.00    -0.034 A 
ATOM      5  C4  UNL d   1      -0.004  -0.750  -0.673  0.00  0.00     0.162 A 
ATOM      6  C5  UNL d   1       0.629  -1.826  -1.286  0.00  0.00     0.062 A 
ATOM      7  F   UNL d   1       0.025  -2.470  -2.296  0.00  0.00    -0.097 F 
ATOM      8  F1  UNL d   1      -1.216  -0.376  -1.108  0.00  0.00    -0.096 F 
ATOM      9  I   UNL d   1      -0.328   1.535   1.300  0.00  0.00    -0.060 I 
ATOM     10  F2  UNL d   1       2.503   0.134   1.814  0.00  0.00    -0.096 F 
ATOM     11  F3  UNL d   1       3.719  -1.963   0.606  0.00  0.00    -0.097 F 
ATOM     12  F4  UNL d   1       2.491  -3.272  -1.449  0.00  0.00    -0.092 F 
ENDROOT
TORSDOF 0
ENDMDL
