MODEL 1
REMARK minimizedAffinity -1.28136599
REMARK minimizedRMSD -1
REMARK  0 active torsions:
REMARK  status: ('A' for Active; 'I' for Inactive)
ROOT
ATOM      1  C   UNL d   1       2.093  -0.600  -0.011  0.00  0.00     0.124 A 
ATOM      2  C1  UNL d   1       1.587   0.687  -0.128  0.00  0.00     0.062 A 
ATOM      3  C2  UNL d   1       0.216   0.892  -0.249  0.00  0.00     0.162 A 
ATOM      4  C3  UNL d   1      -0.660  -0.193  -0.253  0.00  0.00    -0.034 A 
ATOM      5  C4  UNL d   1      -0.144  -1.485  -0.135  0.00  0.00     0.162 A 
ATOM      6  C5  UNL d   1       1.227  -1.684  -0.014  0.00  0.00     0.062 A 
ATOM      7  F   UNL d   1       1.714  -2.929   0.099  0.00  0.00    -0.097 F 
ATOM      8  F1  UNL d   1      -0.958  -2.551  -0.135  0.00  0.00    -0.096 F 
ATOM      9  I   UNL d   1      -2.712   0.109  -0.434  0.00  0.00    -0.060 I 
ATOM     10  F2  UNL d   1      -0.245   2.147  -0.361  0.00  0.00    -0.096 F 
ATOM     11  F3  UNL d   1       2.422   1.737  -0.125  0.00  0.00    -0.097 F 
ATOM     12  F4  UNL d   1       3.413  -0.794   0.105  0.00  0.00    -0.092 F 
ENDROOT
TORSDOF 0
ENDMDL
