MODEL 1
REMARK minimizedAffinity -3.86184573
REMARK minimizedRMSD -1
REMARK  0 active torsions:
REMARK  status: ('A' for Active; 'I' for Inactive)
ROOT
ATOM      1  C   UNL d   1       2.917  -0.714   0.787  0.00  0.00     0.124 A 
ATOM      2  C1  UNL d   1       1.932  -1.573   0.318  0.00  0.00     0.062 A 
ATOM      3  C2  UNL d   1       0.730  -1.064  -0.163  0.00  0.00     0.162 A 
ATOM      4  C3  UNL d   1       0.505   0.313  -0.180  0.00  0.00    -0.034 A 
ATOM      5  C4  UNL d   1       1.499   1.171   0.294  0.00  0.00     0.162 A 
ATOM      6  C5  UNL d   1       2.699   0.657   0.774  0.00  0.00     0.062 A 
ATOM      7  F   UNL d   1       3.649   1.488   1.226  0.00  0.00    -0.097 F 
ATOM      8  F1  UNL d   1       1.316   2.499   0.292  0.00  0.00    -0.096 F 
ATOM      9  I   UNL d   1      -1.292   1.078  -0.899  0.00  0.00    -0.060 I 
ATOM     10  F2  UNL d   1      -0.204  -1.917  -0.610  0.00  0.00    -0.096 F 
ATOM     11  F3  UNL d   1       2.140  -2.898   0.330  0.00  0.00    -0.097 F 
ATOM     12  F4  UNL d   1       4.072  -1.207   1.250  0.00  0.00    -0.092 F 
ENDROOT
TORSDOF 0
ENDMDL
