MODEL 1
REMARK minimizedAffinity -3.23157477
REMARK minimizedRMSD -1
REMARK  0 active torsions:
REMARK  status: ('A' for Active; 'I' for Inactive)
ROOT
ATOM      1  C   UNL d   1       2.761  -0.392  -0.507  0.00  0.00     0.124 A 
ATOM      2  C1  UNL d   1       1.832  -1.416  -0.385  0.00  0.00     0.062 A 
ATOM      3  C2  UNL d   1       0.478  -1.122  -0.257  0.00  0.00     0.162 A 
ATOM      4  C3  UNL d   1       0.043   0.203  -0.253  0.00  0.00    -0.034 A 
ATOM      5  C4  UNL d   1       0.983   1.228  -0.376  0.00  0.00     0.162 A 
ATOM      6  C5  UNL d   1       2.335   0.929  -0.503  0.00  0.00     0.062 A 
ATOM      7  F   UNL d   1       3.231   1.920  -0.622  0.00  0.00    -0.097 F 
ATOM      8  F1  UNL d   1       0.599   2.514  -0.376  0.00  0.00    -0.096 F 
ATOM      9  I   UNL d   1      -1.981   0.648  -0.063  0.00  0.00    -0.060 I 
ATOM     10  F2  UNL d   1      -0.397  -2.132  -0.140  0.00  0.00    -0.096 F 
ATOM     11  F3  UNL d   1       2.241  -2.693  -0.388  0.00  0.00    -0.097 F 
ATOM     12  F4  UNL d   1       4.063  -0.678  -0.629  0.00  0.00    -0.092 F 
ENDROOT
TORSDOF 0
ENDMDL
