MODEL 1
REMARK minimizedAffinity -0.99955231
REMARK minimizedRMSD -1
REMARK  0 active torsions:
REMARK  status: ('A' for Active; 'I' for Inactive)
ROOT
ATOM      1  C   UNL d   1       1.546   2.383  -0.006  0.00  0.00     0.124 A 
ATOM      2  C1  UNL d   1       0.626   1.745  -0.826  0.00  0.00     0.062 A 
ATOM      3  C2  UNL d   1       0.502   0.359  -0.795  0.00  0.00     0.162 A 
ATOM      4  C3  UNL d   1       1.300  -0.399   0.061  0.00  0.00    -0.034 A 
ATOM      5  C4  UNL d   1       2.224   0.249   0.883  0.00  0.00     0.162 A 
ATOM      6  C5  UNL d   1       2.344   1.634   0.848  0.00  0.00     0.062 A 
ATOM      7  F   UNL d   1       3.234   2.248   1.641  0.00  0.00    -0.097 F 
ATOM      8  F1  UNL d   1       3.007  -0.450   1.718  0.00  0.00    -0.096 F 
ATOM      9  I   UNL d   1       1.117  -2.472   0.112  0.00  0.00    -0.060 I 
ATOM     10  F2  UNL d   1      -0.396  -0.230  -1.599  0.00  0.00    -0.096 F 
ATOM     11  F3  UNL d   1      -0.146   2.466  -1.653  0.00  0.00    -0.097 F 
ATOM     12  F4  UNL d   1       1.664   3.716  -0.039  0.00  0.00    -0.092 F 
ENDROOT
TORSDOF 0
ENDMDL
