MODEL 1
REMARK minimizedAffinity 0.948017538
REMARK minimizedRMSD -1
REMARK  0 active torsions:
REMARK  status: ('A' for Active; 'I' for Inactive)
ROOT
ATOM      1  C   UNL d   1      -4.087   0.535  -0.063  0.00  0.00     0.124 A 
ATOM      2  C1  UNL d   1      -3.320   0.385  -1.211  0.00  0.00     0.062 A 
ATOM      3  C2  UNL d   1      -1.931   0.384  -1.129  0.00  0.00     0.162 A 
ATOM      4  C3  UNL d   1      -1.299   0.532   0.106  0.00  0.00    -0.034 A 
ATOM      5  C4  UNL d   1      -2.076   0.683   1.255  0.00  0.00     0.162 A 
ATOM      6  C5  UNL d   1      -3.465   0.684   1.168  0.00  0.00     0.062 A 
ATOM      7  F   UNL d   1      -4.204   0.828   2.278  0.00  0.00    -0.097 F 
ATOM      8  F1  UNL d   1      -1.501   0.828   2.458  0.00  0.00    -0.096 F 
ATOM      9  I   UNL d   1       0.779   0.531   0.232  0.00  0.00    -0.060 I 
ATOM     10  F2  UNL d   1      -1.215   0.238  -2.254  0.00  0.00    -0.096 F 
ATOM     11  F3  UNL d   1      -3.919   0.243  -2.402  0.00  0.00    -0.097 F 
ATOM     12  F4  UNL d   1      -5.424   0.537  -0.145  0.00  0.00    -0.092 F 
ENDROOT
TORSDOF 0
ENDMDL
