MODEL 1
REMARK minimizedAffinity -4.36066389
REMARK minimizedRMSD -1
REMARK  0 active torsions:
REMARK  status: ('A' for Active; 'I' for Inactive)
ROOT
ATOM      1  N1  IND d   1      -2.923   0.994  -1.812  0.00  0.00    -0.196 N 
ATOM      2  C2  IND d   1      -2.280   1.878  -2.633  0.00  0.00     0.054 A 
ATOM      3  C3  IND d   1      -0.965   1.935  -2.324  0.00  0.00    -0.031 A 
ATOM      4  C4  IND d   1       0.366   0.592  -0.577  0.00  0.00     0.051 A 
ATOM      5  C5  IND d   1       0.207  -0.310   0.437  0.00  0.00    -0.031 A 
ATOM      6  C6  IND d   1      -1.027  -0.837   0.758  0.00  0.00     0.015 A 
ATOM      7  C7  IND d   1      -2.152  -0.487   0.067  0.00  0.00    -0.016 A 
ATOM      8  C8  IND d   1      -1.996   0.434  -0.959  0.00  0.00    -0.047 A 
ATOM      9  C9  IND d   1      -0.753   1.004  -1.262  0.00  0.00    -0.096 A 
ATOM     10  HN1 IND d   1      -3.764   0.818  -1.825  0.00  0.00     0.298 HD
ENDROOT
TORSDOF 0
ENDMDL
