MODEL 1
REMARK minimizedAffinity -4.63614464
REMARK minimizedRMSD -1
REMARK  0 active torsions:
REMARK  status: ('A' for Active; 'I' for Inactive)
ROOT
ATOM      1  N1  IND d   1      -0.926  -0.351   2.241  0.00  0.00    -0.196 N 
ATOM      2  C2  IND d   1      -1.688   0.735   1.913  0.00  0.00     0.054 A 
ATOM      3  C3  IND d   1      -1.128   1.409   0.883  0.00  0.00    -0.031 A 
ATOM      4  C4  IND d   1       0.982   0.851  -0.482  0.00  0.00     0.051 A 
ATOM      5  C5  IND d   1       2.032  -0.022  -0.533  0.00  0.00    -0.031 A 
ATOM      6  C6  IND d   1       2.151  -1.073   0.354  0.00  0.00     0.015 A 
ATOM      7  C7  IND d   1       1.214  -1.296   1.323  0.00  0.00    -0.016 A 
ATOM      8  C8  IND d   1       0.150  -0.407   1.382  0.00  0.00    -0.047 A 
ATOM      9  C9  IND d   1       0.046   0.685   0.512  0.00  0.00    -0.096 A 
ATOM     10  HN1 IND d   1      -1.090  -0.905   2.878  0.00  0.00     0.298 HD
ENDROOT
TORSDOF 0
ENDMDL
