MODEL 1
REMARK minimizedAffinity -2.75150156
REMARK minimizedRMSD -1
REMARK  0 active torsions:
REMARK  status: ('A' for Active; 'I' for Inactive)
ROOT
ATOM      1  N1  IND d   1       0.701   0.457  -0.259  0.00  0.00    -0.196 N 
ATOM      2  C2  IND d   1       0.273  -0.399   0.717  0.00  0.00     0.054 A 
ATOM      3  C3  IND d   1      -1.067  -0.565   0.643  0.00  0.00    -0.031 A 
ATOM      4  C4  IND d   1      -2.741   0.390  -1.063  0.00  0.00     0.051 A 
ATOM      5  C5  IND d   1      -2.829   1.252  -2.120  0.00  0.00    -0.031 A 
ATOM      6  C6  IND d   1      -1.722   1.904  -2.622  0.00  0.00     0.015 A 
ATOM      7  C7  IND d   1      -0.478   1.709  -2.091  0.00  0.00    -0.016 A 
ATOM      8  C8  IND d   1      -0.386   0.840  -1.014  0.00  0.00    -0.047 A 
ATOM      9  C9  IND d   1      -1.513   0.208  -0.472  0.00  0.00    -0.096 A 
ATOM     10  HN1 IND d   1       1.512   0.713  -0.381  0.00  0.00     0.298 HD
ENDROOT
TORSDOF 0
ENDMDL
