MODEL 1
REMARK minimizedAffinity 1.87359858
REMARK minimizedRMSD -1
REMARK  0 active torsions:
REMARK  status: ('A' for Active; 'I' for Inactive)
ROOT
ATOM      1  N1  IND d   1      -0.638   1.058  -0.610  0.00  0.00    -0.196 N 
ATOM      2  C2  IND d   1      -1.510   0.656   0.363  0.00  0.00     0.054 A 
ATOM      3  C3  IND d   1      -0.913  -0.229   1.192  0.00  0.00    -0.031 A 
ATOM      4  C4  IND d   1       1.517  -1.081   1.200  0.00  0.00     0.051 A 
ATOM      5  C5  IND d   1       2.680  -1.025   0.485  0.00  0.00    -0.031 A 
ATOM      6  C6  IND d   1       2.800  -0.254  -0.653  0.00  0.00     0.015 A 
ATOM      7  C7  IND d   1       1.760   0.502  -1.115  0.00  0.00    -0.016 A 
ATOM      8  C8  IND d   1       0.575   0.442  -0.395  0.00  0.00    -0.047 A 
ATOM      9  C9  IND d   1       0.434  -0.371   0.737  0.00  0.00    -0.096 A 
ATOM     10  HN1 IND d   1      -0.818   1.605  -1.250  0.00  0.00     0.298 HD
ENDROOT
TORSDOF 0
ENDMDL
