MODEL 1
REMARK minimizedAffinity 1.00088286
REMARK minimizedRMSD -1
REMARK  0 active torsions:
REMARK  status: ('A' for Active; 'I' for Inactive)
ROOT
ATOM      1  N1  IND d   1      -0.033  -0.378   0.112  0.00  0.00    -0.196 N 
ATOM      2  C2  IND d   1       1.219   0.169   0.165  0.00  0.00     0.054 A 
ATOM      3  C3  IND d   1       1.306   1.228  -0.671  0.00  0.00    -0.031 A 
ATOM      4  C4  IND d   1      -0.510   2.300  -2.147  0.00  0.00     0.051 A 
ATOM      5  C5  IND d   1      -1.802   2.131  -2.558  0.00  0.00    -0.031 A 
ATOM      6  C6  IND d   1      -2.588   1.098  -2.089  0.00  0.00     0.015 A 
ATOM      7  C7  IND d   1      -2.111   0.198  -1.178  0.00  0.00    -0.016 A 
ATOM      8  C8  IND d   1      -0.797   0.362  -0.764  0.00  0.00    -0.047 A 
ATOM      9  C9  IND d   1       0.018   1.384  -1.268  0.00  0.00    -0.096 A 
ATOM     10  HN1 IND d   1      -0.298  -1.068   0.550  0.00  0.00     0.298 HD
ENDROOT
TORSDOF 0
ENDMDL
