MODEL 1
REMARK minimizedAffinity 1.51196098
REMARK minimizedRMSD -1
REMARK  0 active torsions:
REMARK  status: ('A' for Active; 'I' for Inactive)
ROOT
ATOM      1  N1  IND d   1      -2.431  -0.587   0.551  0.00  0.00    -0.196 N 
ATOM      2  C2  IND d   1      -2.236  -0.708   1.899  0.00  0.00     0.054 A 
ATOM      3  C3  IND d   1      -0.948  -0.442   2.213  0.00  0.00    -0.031 A 
ATOM      4  C4  IND d   1       0.985   0.310   0.688  0.00  0.00     0.051 A 
ATOM      5  C5  IND d   1       1.301   0.525  -0.624  0.00  0.00    -0.031 A 
ATOM      6  C6  IND d   1       0.370   0.380  -1.631  0.00  0.00     0.015 A 
ATOM      7  C7  IND d   1      -0.921   0.024  -1.362  0.00  0.00    -0.016 A 
ATOM      8  C8  IND d   1      -1.244  -0.202  -0.031  0.00  0.00    -0.047 A 
ATOM      9  C9  IND d   1      -0.292  -0.098   0.991  0.00  0.00    -0.096 A 
ATOM     10  HN1 IND d   1      -3.172  -0.728   0.137  0.00  0.00     0.298 HD
ENDROOT
TORSDOF 0
ENDMDL
