MODEL 1
REMARK minimizedAffinity -2.69051647
REMARK minimizedRMSD -1
REMARK  0 active torsions:
REMARK  status: ('A' for Active; 'I' for Inactive)
ROOT
ATOM      1  N1  IND d   1      -1.878  -0.273  -0.112  0.00  0.00    -0.196 N 
ATOM      2  C2  IND d   1      -0.767   0.032   0.623  0.00  0.00     0.054 A 
ATOM      3  C3  IND d   1      -0.064   1.021   0.026  0.00  0.00    -0.031 A 
ATOM      4  C4  IND d   1      -0.605   2.351  -2.111  0.00  0.00     0.051 A 
ATOM      5  C5  IND d   1      -1.494   2.409  -3.147  0.00  0.00    -0.031 A 
ATOM      6  C6  IND d   1      -2.580   1.561  -3.225  0.00  0.00     0.015 A 
ATOM      7  C7  IND d   1      -2.824   0.626  -2.259  0.00  0.00    -0.016 A 
ATOM      8  C8  IND d   1      -1.920   0.559  -1.209  0.00  0.00    -0.047 A 
ATOM      9  C9  IND d   1      -0.793   1.389  -1.146  0.00  0.00    -0.096 A 
ATOM     10  HN1 IND d   1      -2.453  -0.883   0.078  0.00  0.00     0.298 HD
ENDROOT
TORSDOF 0
ENDMDL
