MODEL 1
REMARK minimizedAffinity 3.18464041
REMARK minimizedRMSD -1
REMARK  0 active torsions:
REMARK  status: ('A' for Active; 'I' for Inactive)
ROOT
ATOM      1  N1  IND d   1       0.403  -0.651  -0.337  0.00  0.00    -0.196 N 
ATOM      2  C2  IND d   1       1.507   0.096  -0.033  0.00  0.00     0.054 A 
ATOM      3  C3  IND d   1       1.476   1.272  -0.699  0.00  0.00    -0.031 A 
ATOM      4  C4  IND d   1      -0.338   2.221  -2.260  0.00  0.00     0.051 A 
ATOM      5  C5  IND d   1      -1.515   1.890  -2.869  0.00  0.00    -0.031 A 
ATOM      6  C6  IND d   1      -2.128   0.672  -2.659  0.00  0.00     0.015 A 
ATOM      7  C7  IND d   1      -1.588  -0.261  -1.820  0.00  0.00    -0.016 A 
ATOM      8  C8  IND d   1      -0.389   0.069  -1.205  0.00  0.00    -0.047 A 
ATOM      9  C9  IND d   1       0.259   1.287  -1.447  0.00  0.00    -0.096 A 
ATOM     10  HN1 IND d   1       0.232  -1.439  -0.037  0.00  0.00     0.298 HD
ENDROOT
TORSDOF 0
ENDMDL
