MODEL 1
REMARK minimizedAffinity -6.17738104
REMARK minimizedRMSD -1
REMARK  0 active torsions:
REMARK  status: ('A' for Active; 'I' for Inactive)
ROOT
ATOM      1  N1  IND d   1       0.411  -0.037  -0.383  0.00  0.00    -0.196 N 
ATOM      2  C2  IND d   1      -0.718   0.724  -0.262  0.00  0.00     0.054 A 
ATOM      3  C3  IND d   1      -1.561   0.174   0.642  0.00  0.00    -0.031 A 
ATOM      4  C4  IND d   1      -1.244  -1.915   2.114  0.00  0.00     0.051 A 
ATOM      5  C5  IND d   1      -0.390  -2.959   2.333  0.00  0.00    -0.031 A 
ATOM      6  C6  IND d   1       0.801  -3.083   1.646  0.00  0.00     0.015 A 
ATOM      7  C7  IND d   1       1.188  -2.158   0.718  0.00  0.00    -0.016 A 
ATOM      8  C8  IND d   1       0.320  -1.100   0.488  0.00  0.00    -0.047 A 
ATOM      9  C9  IND d   1      -0.910  -0.991   1.151  0.00  0.00    -0.096 A 
ATOM     10  HN1 IND d   1       1.068   0.122  -0.914  0.00  0.00     0.298 HD
ENDROOT
TORSDOF 0
ENDMDL
