MODEL 1
REMARK minimizedAffinity -5.56888056
REMARK minimizedRMSD -1
REMARK  0 active torsions:
REMARK  status: ('A' for Active; 'I' for Inactive)
ROOT
ATOM      1  N1  IND d   1      -1.722  -0.035   1.842  0.00  0.00    -0.196 N 
ATOM      2  C2  IND d   1      -1.764   0.774   0.741  0.00  0.00     0.054 A 
ATOM      3  C3  IND d   1      -0.696   0.541  -0.055  0.00  0.00    -0.031 A 
ATOM      4  C4  IND d   1       1.189  -1.193   0.203  0.00  0.00     0.051 A 
ATOM      5  C5  IND d   1       1.676  -2.134   1.067  0.00  0.00    -0.031 A 
ATOM      6  C6  IND d   1       1.041  -2.432   2.255  0.00  0.00     0.015 A 
ATOM      7  C7  IND d   1      -0.116  -1.804   2.621  0.00  0.00    -0.016 A 
ATOM      8  C8  IND d   1      -0.610  -0.843   1.750  0.00  0.00    -0.047 A 
ATOM      9  C9  IND d   1       0.053  -0.507   0.563  0.00  0.00    -0.096 A 
ATOM     10  HN1 IND d   1      -2.294  -0.038   2.484  0.00  0.00     0.298 HD
ENDROOT
TORSDOF 0
ENDMDL
