MODEL 1
REMARK minimizedAffinity -2.51519585
REMARK minimizedRMSD -1
REMARK  0 active torsions:
REMARK  status: ('A' for Active; 'I' for Inactive)
ROOT
ATOM      1  N1  IND d   1      -0.571   0.828   0.710  0.00  0.00    -0.196 N 
ATOM      2  C2  IND d   1      -1.162  -0.080   1.544  0.00  0.00     0.054 A 
ATOM      3  C3  IND d   1      -2.307  -0.546   0.996  0.00  0.00    -0.031 A 
ATOM      4  C4  IND d   1      -3.349  -0.031  -1.302  0.00  0.00     0.051 A 
ATOM      5  C5  IND d   1      -3.192   0.765  -2.401  0.00  0.00    -0.031 A 
ATOM      6  C6  IND d   1      -2.131   1.638  -2.524  0.00  0.00     0.015 A 
ATOM      7  C7  IND d   1      -1.177   1.740  -1.552  0.00  0.00    -0.016 A 
ATOM      8  C8  IND d   1      -1.336   0.939  -0.431  0.00  0.00    -0.047 A 
ATOM      9  C9  IND d   1      -2.434   0.081  -0.282  0.00  0.00    -0.096 A 
ATOM     10  HN1 IND d   1       0.156   1.258   0.871  0.00  0.00     0.298 HD
ENDROOT
TORSDOF 0
ENDMDL
