MODEL 1
REMARK minimizedAffinity -3.53601933
REMARK minimizedRMSD -1
REMARK  0 active torsions:
REMARK  status: ('A' for Active; 'I' for Inactive)
ROOT
ATOM      1  N1  IND d   1      -3.303   0.372  -1.647  0.00  0.00    -0.196 N 
ATOM      2  C2  IND d   1      -3.027   1.240  -2.666  0.00  0.00     0.054 A 
ATOM      3  C3  IND d   1      -1.803   1.788  -2.499  0.00  0.00    -0.031 A 
ATOM      4  C4  IND d   1      -0.039   1.330  -0.680  0.00  0.00     0.051 A 
ATOM      5  C5  IND d   1       0.152   0.643   0.485  0.00  0.00    -0.031 A 
ATOM      6  C6  IND d   1      -0.817  -0.189   1.009  0.00  0.00     0.015 A 
ATOM      7  C7  IND d   1      -2.014  -0.373   0.378  0.00  0.00    -0.016 A 
ATOM      8  C8  IND d   1      -2.215   0.328  -0.802  0.00  0.00    -0.047 A 
ATOM      9  C9  IND d   1      -1.252   1.206  -1.317  0.00  0.00    -0.096 A 
ATOM     10  HN1 IND d   1      -4.033  -0.071  -1.549  0.00  0.00     0.298 HD
ENDROOT
TORSDOF 0
ENDMDL
