MODEL 1
REMARK minimizedAffinity -4.44317436
REMARK minimizedRMSD -1
REMARK  0 active torsions:
REMARK  status: ('A' for Active; 'I' for Inactive)
ROOT
ATOM      1  N1  IND d   1      -0.362   0.614   0.468  0.00  0.00    -0.196 N 
ATOM      2  C2  IND d   1      -0.970  -0.173   1.406  0.00  0.00     0.054 A 
ATOM      3  C3  IND d   1      -2.171  -0.601   0.955  0.00  0.00    -0.031 A 
ATOM      4  C4  IND d   1      -3.292  -0.214  -1.330  0.00  0.00     0.051 A 
ATOM      5  C5  IND d   1      -3.139   0.470  -2.503  0.00  0.00    -0.031 A 
ATOM      6  C6  IND d   1      -2.028   1.251  -2.752  0.00  0.00     0.015 A 
ATOM      7  C7  IND d   1      -1.020   1.368  -1.837  0.00  0.00    -0.016 A 
ATOM      8  C8  IND d   1      -1.176   0.680  -0.642  0.00  0.00    -0.047 A 
ATOM      9  C9  IND d   1      -2.320  -0.080  -0.367  0.00  0.00    -0.096 A 
ATOM     10  HN1 IND d   1       0.399   1.002   0.556  0.00  0.00     0.298 HD
ENDROOT
TORSDOF 0
ENDMDL
