MODEL 1
REMARK minimizedAffinity 3.17472863
REMARK minimizedRMSD -1
REMARK  0 active torsions:
REMARK  status: ('A' for Active; 'I' for Inactive)
ROOT
ATOM      1  C2' OXE d   1      -2.367   0.497   2.070  0.00  0.00     0.078 C 
ATOM      2  C1' OXE d   1      -3.543  -0.107  -0.406  0.00  0.00     0.078 C 
ATOM      3  C1  OXE d   1      -2.053  -0.298  -0.270  0.00  0.00    -0.078 A 
ATOM      4  C2  OXE d   1      -1.479   0.044   0.931  0.00  0.00    -0.078 A 
ATOM      5  C3  OXE d   1      -0.117  -0.164   1.128  0.00  0.00     0.003 A 
ATOM      6  C4  OXE d   1       0.698  -0.573   0.066  0.00  0.00    -0.002 A 
ATOM      7  C5  OXE d   1       0.140  -0.889  -1.177  0.00  0.00    -0.002 A 
ATOM      8  C6  OXE d   1      -1.237  -0.798  -1.349  0.00  0.00     0.003 A 
ENDROOT
TORSDOF 0
ENDMDL
