MODEL 1
REMARK minimizedAffinity 2.2490592
REMARK minimizedRMSD -1
REMARK  0 active torsions:
REMARK  status: ('A' for Active; 'I' for Inactive)
ROOT
ATOM      1  C2' OXE d   1      -1.201   0.378  -0.832  0.00  0.00     0.078 C 
ATOM      2  C1' OXE d   1       1.391  -0.317  -0.009  0.00  0.00     0.078 C 
ATOM      3  C1  OXE d   1       0.292  -0.353   1.023  0.00  0.00    -0.078 A 
ATOM      4  C2  OXE d   1      -0.964   0.033   0.623  0.00  0.00    -0.078 A 
ATOM      5  C3  OXE d   1      -2.025  -0.034   1.521  0.00  0.00     0.003 A 
ATOM      6  C4  OXE d   1      -1.796  -0.345   2.867  0.00  0.00    -0.002 A 
ATOM      7  C5  OXE d   1      -0.516  -0.703   3.305  0.00  0.00    -0.002 A 
ATOM      8  C6  OXE d   1       0.528  -0.753   2.388  0.00  0.00     0.003 A 
ENDROOT
TORSDOF 0
ENDMDL
