MODEL 1
REMARK minimizedAffinity 0.399302393
REMARK minimizedRMSD -1
REMARK  0 active torsions:
REMARK  status: ('A' for Active; 'I' for Inactive)
ROOT
ATOM      1  C2' OXE d   1       1.214   0.001   0.359  0.00  0.00     0.078 C 
ATOM      2  C1' OXE d   1      -1.581   0.242   0.239  0.00  0.00     0.078 C 
ATOM      3  C1  OXE d   1      -0.969  -0.214   1.541  0.00  0.00    -0.078 A 
ATOM      4  C2  OXE d   1       0.396  -0.373   1.576  0.00  0.00    -0.078 A 
ATOM      5  C3  OXE d   1       1.016  -0.739   2.767  0.00  0.00     0.003 A 
ATOM      6  C4  OXE d   1       0.252  -1.093   3.885  0.00  0.00    -0.002 A 
ATOM      7  C5  OXE d   1      -1.142  -0.976   3.858  0.00  0.00    -0.002 A 
ATOM      8  C6  OXE d   1      -1.764  -0.498   2.710  0.00  0.00     0.003 A 
ENDROOT
TORSDOF 0
ENDMDL
