MODEL 1
REMARK minimizedAffinity -1.00780284
REMARK minimizedRMSD -1
REMARK  0 active torsions:
REMARK  status: ('A' for Active; 'I' for Inactive)
ROOT
ATOM      1  C2' OXE d   1       0.226  -1.057   3.742  0.00  0.00     0.078 C 
ATOM      2  C1' OXE d   1       1.099  -0.707   1.097  0.00  0.00     0.078 C 
ATOM      3  C1  OXE d   1      -0.341  -0.384   1.412  0.00  0.00    -0.078 A 
ATOM      4  C2  OXE d   1      -0.771  -0.602   2.698  0.00  0.00    -0.078 A 
ATOM      5  C3  OXE d   1      -2.074  -0.269   3.055  0.00  0.00     0.003 A 
ATOM      6  C4  OXE d   1      -2.993   0.141   2.082  0.00  0.00    -0.002 A 
ATOM      7  C5  OXE d   1      -2.586   0.332   0.757  0.00  0.00    -0.002 A 
ATOM      8  C6  OXE d   1      -1.256   0.115   0.415  0.00  0.00     0.003 A 
ENDROOT
TORSDOF 0
ENDMDL
