MODEL 1
REMARK minimizedAffinity 3.54423928
REMARK minimizedRMSD -1
REMARK  0 active torsions:
REMARK  status: ('A' for Active; 'I' for Inactive)
ROOT
ATOM      1  C2' OXE d   1       2.384  -1.189   0.783  0.00  0.00     0.078 C 
ATOM      2  C1' OXE d   1       2.268   0.960  -1.020  0.00  0.00     0.078 C 
ATOM      3  C1  OXE d   1       0.970   0.300  -0.628  0.00  0.00    -0.078 A 
ATOM      4  C2  OXE d   1       1.040  -0.781   0.218  0.00  0.00    -0.078 A 
ATOM      5  C3  OXE d   1      -0.132  -1.392   0.655  0.00  0.00     0.003 A 
ATOM      6  C4  OXE d   1      -1.369  -1.015   0.120  0.00  0.00    -0.002 A 
ATOM      7  C5  OXE d   1      -1.460   0.058  -0.774  0.00  0.00    -0.002 A 
ATOM      8  C6  OXE d   1      -0.307   0.751  -1.124  0.00  0.00     0.003 A 
ENDROOT
TORSDOF 0
ENDMDL
