MODEL 1
REMARK minimizedAffinity -4.58520222
REMARK minimizedRMSD -1
REMARK  0 active torsions:
REMARK  status: ('A' for Active; 'I' for Inactive)
ROOT
ATOM      1  C2' OXE d   1      -0.139   0.098  -0.491  0.00  0.00     0.078 C 
ATOM      2  C1' OXE d   1       2.063  -0.494   1.145  0.00  0.00     0.078 C 
ATOM      3  C1  OXE d   1       0.719  -0.329   1.808  0.00  0.00    -0.078 A 
ATOM      4  C2  OXE d   1      -0.345   0.007   1.006  0.00  0.00    -0.078 A 
ATOM      5  C3  OXE d   1      -1.617   0.118   1.559  0.00  0.00     0.003 A 
ATOM      6  C4  OXE d   1      -1.797   0.042   2.945  0.00  0.00    -0.002 A 
ATOM      7  C5  OXE d   1      -0.720  -0.260   3.785  0.00  0.00    -0.002 A 
ATOM      8  C6  OXE d   1       0.534  -0.490   3.229  0.00  0.00     0.003 A 
ENDROOT
TORSDOF 0
ENDMDL
