MODEL 1
REMARK minimizedAffinity 3.12932396
REMARK minimizedRMSD -1
REMARK  0 active torsions:
REMARK  status: ('A' for Active; 'I' for Inactive)
ROOT
ATOM      1  C2' OXE d   1       3.273   1.637   1.453  0.00  0.00     0.078 C 
ATOM      2  C1' OXE d   1       1.574  -0.251   0.257  0.00  0.00     0.078 C 
ATOM      3  C1  OXE d   1       2.492   0.539  -0.642  0.00  0.00    -0.078 A 
ATOM      4  C2  OXE d   1       3.286   1.493  -0.054  0.00  0.00    -0.078 A 
ATOM      5  C3  OXE d   1       4.190   2.212  -0.831  0.00  0.00     0.003 A 
ATOM      6  C4  OXE d   1       4.189   2.080  -2.225  0.00  0.00    -0.002 A 
ATOM      7  C5  OXE d   1       3.360   1.142  -2.848  0.00  0.00    -0.002 A 
ATOM      8  C6  OXE d   1       2.537   0.335  -2.069  0.00  0.00     0.003 A 
ENDROOT
TORSDOF 0
ENDMDL
