MODEL 1
REMARK minimizedAffinity 2.86996961
REMARK minimizedRMSD -1
REMARK  0 active torsions:
REMARK  status: ('A' for Active; 'I' for Inactive)
ROOT
ATOM      1  C2' OXE d   1       3.097   1.106   0.538  0.00  0.00     0.078 C 
ATOM      2  C1' OXE d   1       5.441  -0.342  -0.000  0.00  0.00     0.078 C 
ATOM      3  C1  OXE d   1       4.650   0.178  -1.175  0.00  0.00    -0.078 A 
ATOM      4  C2  OXE d   1       3.479   0.845  -0.903  0.00  0.00    -0.078 A 
ATOM      5  C3  OXE d   1       2.740   1.393  -1.947  0.00  0.00     0.003 A 
ATOM      6  C4  OXE d   1       3.095   1.138  -3.277  0.00  0.00    -0.002 A 
ATOM      7  C5  OXE d   1       4.262   0.427  -3.577  0.00  0.00    -0.002 A 
ATOM      8  C6  OXE d   1       5.071  -0.022  -2.539  0.00  0.00     0.003 A 
ENDROOT
TORSDOF 0
ENDMDL
