MODEL 1
REMARK minimizedAffinity 1.401649
REMARK minimizedRMSD -1
REMARK  1 active torsions:
REMARK  status: ('A' for Active; 'I' for Inactive)
REMARK    1  A    between atoms: C1_2  and  C2_3 
ROOT
ATOM      1  C2  UNL d   1       2.443  -3.466  -0.003  0.00  0.00    -0.076 A 
ATOM      2  C3  UNL d   1       1.221  -4.143   0.152  0.00  0.00     0.004 A 
ATOM      3  C4  UNL d   1       0.088  -3.481   0.622  0.00  0.00    -0.003 A 
ATOM      4  C5  UNL d   1       0.159  -2.131   0.944  0.00  0.00     0.000 A 
ATOM      5  C6  UNL d   1       1.358  -1.438   0.780  0.00  0.00     0.000 A 
ATOM      6  C7  UNL d   1       2.505  -2.087   0.292  0.00  0.00    -0.073 A 
ATOM      7  C8  UNL d   1       3.774  -1.293   0.140  0.00  0.00     0.078 C 
ENDROOT
BRANCH   1   8
ATOM      8  C1  UNL d   1       3.645  -4.243  -0.491  0.00  0.00     0.053 C 
ATOM      9  C   UNL d   1       4.010  -5.394   0.434  0.00  0.00     0.018 C 
ENDBRANCH   1   8
TORSDOF 1
ENDMDL
