MODEL 1
REMARK minimizedAffinity 9.53442764
REMARK minimizedRMSD -1
REMARK  1 active torsions:
REMARK  status: ('A' for Active; 'I' for Inactive)
REMARK    1  A    between atoms: C1_2  and  C2_3 
ROOT
ATOM      1  C2  UNL d   1       1.375  -1.299   0.882  0.00  0.00    -0.076 A 
ATOM      2  C3  UNL d   1       0.399  -0.297   1.023  0.00  0.00     0.004 A 
ATOM      3  C4  UNL d   1      -0.947  -0.569   0.788  0.00  0.00    -0.003 A 
ATOM      4  C5  UNL d   1      -1.340  -1.847   0.409  0.00  0.00     0.000 A 
ATOM      5  C6  UNL d   1      -0.388  -2.858   0.281  0.00  0.00     0.000 A 
ATOM      6  C7  UNL d   1       0.972  -2.605   0.530  0.00  0.00    -0.073 A 
ATOM      7  C8  UNL d   1       1.957  -3.730   0.372  0.00  0.00     0.078 C 
ENDROOT
BRANCH   1   8
ATOM      8  C1  UNL d   1       2.824  -0.938   1.124  0.00  0.00     0.053 C 
ATOM      9  C   UNL d   1       2.979   0.365   1.893  0.00  0.00     0.018 C 
ENDBRANCH   1   8
TORSDOF 1
ENDMDL
