MODEL 1
REMARK minimizedAffinity 3.87430286
REMARK minimizedRMSD -1
REMARK  1 active torsions:
REMARK  status: ('A' for Active; 'I' for Inactive)
REMARK    1  A    between atoms: C1_2  and  C2_3 
ROOT
ATOM      1  C2  UNL d   1       0.883  -2.389   0.266  0.00  0.00    -0.076 A 
ATOM      2  C3  UNL d   1       2.161  -1.813   0.376  0.00  0.00     0.004 A 
ATOM      3  C4  UNL d   1       2.319  -0.489   0.782  0.00  0.00    -0.003 A 
ATOM      4  C5  UNL d   1       1.201   0.281   1.084  0.00  0.00     0.000 A 
ATOM      5  C6  UNL d   1      -0.073  -0.279   0.997  0.00  0.00     0.000 A 
ATOM      6  C7  UNL d   1      -0.248  -1.617   0.605  0.00  0.00    -0.073 A 
ATOM      7  C8  UNL d   1      -1.646  -2.168   0.523  0.00  0.00     0.078 C 
ENDROOT
BRANCH   1   8
ATOM      8  C1  UNL d   1       0.773  -3.821  -0.205  0.00  0.00     0.053 C 
ATOM      9  C   UNL d   1       2.083  -4.581  -0.071  0.00  0.00     0.018 C 
ENDBRANCH   1   8
TORSDOF 1
ENDMDL
