MODEL 1
REMARK minimizedAffinity 0.385054559
REMARK minimizedRMSD -1
REMARK  1 active torsions:
REMARK  status: ('A' for Active; 'I' for Inactive)
REMARK    1  A    between atoms: C1_2  and  C2_3 
ROOT
ATOM      1  C2  UNL d   1       1.101  -2.163   0.231  0.00  0.00    -0.076 A 
ATOM      2  C3  UNL d   1       2.293  -1.430   0.368  0.00  0.00     0.004 A 
ATOM      3  C4  UNL d   1       3.535  -2.054   0.263  0.00  0.00    -0.003 A 
ATOM      4  C5  UNL d   1       3.605  -3.421   0.018  0.00  0.00     0.000 A 
ATOM      5  C6  UNL d   1       2.433  -4.160  -0.139  0.00  0.00     0.000 A 
ATOM      6  C7  UNL d   1       1.173  -3.543  -0.051  0.00  0.00    -0.073 A 
ATOM      7  C8  UNL d   1      -0.058  -4.390  -0.222  0.00  0.00     0.078 C 
ENDROOT
BRANCH   1   8
ATOM      8  C1  UNL d   1      -0.217  -1.437   0.383  0.00  0.00     0.053 C 
ATOM      9  C   UNL d   1      -0.215  -0.464   1.551  0.00  0.00     0.018 C 
ENDBRANCH   1   8
TORSDOF 1
ENDMDL
