MODEL 1
REMARK minimizedAffinity 0.563880742
REMARK minimizedRMSD -1
REMARK  1 active torsions:
REMARK  status: ('A' for Active; 'I' for Inactive)
REMARK    1  A    between atoms: C1_2  and  C2_3 
ROOT
ATOM      1  C2  UNL d   1       1.418  -1.422   0.834  0.00  0.00    -0.076 A 
ATOM      2  C3  UNL d   1       2.209  -2.582   0.753  0.00  0.00     0.004 A 
ATOM      3  C4  UNL d   1       1.630  -3.831   0.538  0.00  0.00    -0.003 A 
ATOM      4  C5  UNL d   1       0.251  -3.942   0.401  0.00  0.00     0.000 A 
ATOM      5  C6  UNL d   1      -0.547  -2.800   0.461  0.00  0.00     0.000 A 
ATOM      6  C7  UNL d   1       0.022  -1.531   0.661  0.00  0.00    -0.073 A 
ATOM      7  C8  UNL d   1      -0.887  -0.334   0.723  0.00  0.00     0.078 C 
ENDROOT
BRANCH   1   8
ATOM      8  C1  UNL d   1       2.099  -0.098   1.096  0.00  0.00     0.053 C 
ATOM      9  C   UNL d   1       2.510   0.069   2.550  0.00  0.00     0.018 C 
ENDBRANCH   1   8
TORSDOF 1
ENDMDL
