MODEL 1
REMARK minimizedAffinity 1.6252284
REMARK minimizedRMSD -1
REMARK  1 active torsions:
REMARK  status: ('A' for Active; 'I' for Inactive)
REMARK    1  A    between atoms: C1_2  and  C2_3 
ROOT
ATOM      1  C2  UNL d   1       1.496  -2.941   0.484  0.00  0.00    -0.076 A 
ATOM      2  C3  UNL d   1       2.274  -1.828   0.849  0.00  0.00     0.004 A 
ATOM      3  C4  UNL d   1       1.711  -0.556   0.928  0.00  0.00    -0.003 A 
ATOM      4  C5  UNL d   1       0.362  -0.375   0.645  0.00  0.00     0.000 A 
ATOM      5  C6  UNL d   1      -0.428  -1.471   0.299  0.00  0.00     0.000 A 
ATOM      6  C7  UNL d   1       0.120  -2.763   0.230  0.00  0.00    -0.073 A 
ATOM      7  C8  UNL d   1      -0.777  -3.908  -0.155  0.00  0.00     0.078 C 
ENDROOT
BRANCH   1   8
ATOM      8  C1  UNL d   1       2.167  -4.293   0.387  0.00  0.00     0.053 C 
ATOM      9  C   UNL d   1       3.685  -4.190   0.362  0.00  0.00     0.018 C 
ENDBRANCH   1   8
TORSDOF 1
ENDMDL
