MODEL 1
REMARK minimizedAffinity -2.56592989
REMARK minimizedRMSD -1
REMARK  1 active torsions:
REMARK  status: ('A' for Active; 'I' for Inactive)
REMARK    1  A    between atoms: C1_2  and  C2_3 
ROOT
ATOM      1  C2  UNL d   1       0.718  -2.416   0.258  0.00  0.00    -0.076 A 
ATOM      2  C3  UNL d   1      -0.666  -2.173   0.208  0.00  0.00     0.004 A 
ATOM      3  C4  UNL d   1      -1.210  -1.009   0.748  0.00  0.00    -0.003 A 
ATOM      4  C5  UNL d   1      -0.379  -0.068   1.346  0.00  0.00     0.000 A 
ATOM      5  C6  UNL d   1       0.998  -0.284   1.389  0.00  0.00     0.000 A 
ATOM      6  C7  UNL d   1       1.565  -1.445   0.834  0.00  0.00    -0.073 A 
ATOM      7  C8  UNL d   1       3.055  -1.629   0.914  0.00  0.00     0.078 C 
ENDROOT
BRANCH   1   8
ATOM      8  C1  UNL d   1       1.248  -3.708  -0.320  0.00  0.00     0.053 C 
ATOM      9  C   UNL d   1       2.561  -4.136   0.317  0.00  0.00     0.018 C 
ENDBRANCH   1   8
TORSDOF 1
ENDMDL
