MODEL 1
REMARK minimizedAffinity -2.29617453
REMARK minimizedRMSD -1
REMARK  1 active torsions:
REMARK  status: ('A' for Active; 'I' for Inactive)
REMARK    1  A    between atoms: C1_2  and  C2_3 
ROOT
ATOM      1  C2  UNL d   1       1.240  -1.940  -0.031  0.00  0.00    -0.076 A 
ATOM      2  C3  UNL d   1       2.469  -1.267   0.080  0.00  0.00     0.004 A 
ATOM      3  C4  UNL d   1       3.676  -1.952  -0.047  0.00  0.00    -0.003 A 
ATOM      4  C5  UNL d   1       3.673  -3.322  -0.288  0.00  0.00     0.000 A 
ATOM      5  C6  UNL d   1       2.463  -4.002  -0.419  0.00  0.00     0.000 A 
ATOM      6  C7  UNL d   1       1.237  -3.323  -0.309  0.00  0.00    -0.073 A 
ATOM      7  C8  UNL d   1      -0.038  -4.108  -0.453  0.00  0.00     0.078 C 
ENDROOT
BRANCH   1   8
ATOM      8  C1  UNL d   1      -0.037  -1.149   0.143  0.00  0.00     0.053 C 
ATOM      9  C   UNL d   1       0.003  -0.238   1.360  0.00  0.00     0.018 C 
ENDBRANCH   1   8
TORSDOF 1
ENDMDL
