MODEL 1
REMARK minimizedAffinity -0.497281343
REMARK minimizedRMSD -1
REMARK  1 active torsions:
REMARK  status: ('A' for Active; 'I' for Inactive)
REMARK    1  A    between atoms: C1_2  and  C2_3 
ROOT
ATOM      1  C2  UNL d   1       2.308  -3.451  -0.045  0.00  0.00    -0.076 A 
ATOM      2  C3  UNL d   1       0.989  -3.872   0.204  0.00  0.00     0.004 A 
ATOM      3  C4  UNL d   1       0.063  -3.017   0.797  0.00  0.00    -0.003 A 
ATOM      4  C5  UNL d   1       0.439  -1.726   1.151  0.00  0.00     0.000 A 
ATOM      5  C6  UNL d   1       1.738  -1.286   0.896  0.00  0.00     0.000 A 
ATOM      6  C7  UNL d   1       2.679  -2.130   0.284  0.00  0.00    -0.073 A 
ATOM      7  C8  UNL d   1       4.067  -1.605   0.038  0.00  0.00     0.078 C 
ENDROOT
BRANCH   1   8
ATOM      8  C1  UNL d   1       3.276  -4.432  -0.666  0.00  0.00     0.053 C 
ATOM      9  C   UNL d   1       3.991  -5.283   0.373  0.00  0.00     0.018 C 
ENDBRANCH   1   8
TORSDOF 1
ENDMDL
