MODEL 1
REMARK minimizedAffinity -3.57540178
REMARK minimizedRMSD -1
REMARK  1 active torsions:
REMARK  status: ('A' for Active; 'I' for Inactive)
REMARK    1  A    between atoms: C1_2  and  C2_3 
ROOT
ATOM      1  C2  UNL d   1       1.235  -2.723   0.048  0.00  0.00    -0.076 A 
ATOM      2  C3  UNL d   1       0.109  -3.152   0.771  0.00  0.00     0.004 A 
ATOM      3  C4  UNL d   1      -0.629  -2.259   1.546  0.00  0.00    -0.003 A 
ATOM      4  C5  UNL d   1      -0.253  -0.921   1.610  0.00  0.00     0.000 A 
ATOM      5  C6  UNL d   1       0.851  -0.475   0.885  0.00  0.00     0.000 A 
ATOM      6  C7  UNL d   1       1.596  -1.359   0.086  0.00  0.00    -0.073 A 
ATOM      7  C8  UNL d   1       2.782  -0.824  -0.670  0.00  0.00     0.078 C 
ENDROOT
BRANCH   1   8
ATOM      8  C1  UNL d   1       2.013  -3.742  -0.753  0.00  0.00     0.053 C 
ATOM      9  C   UNL d   1       3.354  -4.080  -0.121  0.00  0.00     0.018 C 
ENDBRANCH   1   8
TORSDOF 1
ENDMDL
