MODEL 1
REMARK minimizedAffinity -1.60337973
REMARK minimizedRMSD -1
REMARK  1 active torsions:
REMARK  status: ('A' for Active; 'I' for Inactive)
REMARK    1  A    between atoms: C1_2  and  C2_3 
ROOT
ATOM      1  C2  UNL d   1       1.689  -1.752   0.048  0.00  0.00    -0.076 A 
ATOM      2  C3  UNL d   1       0.689  -2.427  -0.674  0.00  0.00     0.004 A 
ATOM      3  C4  UNL d   1      -0.650  -2.060  -0.561  0.00  0.00    -0.003 A 
ATOM      4  C5  UNL d   1      -1.013  -1.010   0.276  0.00  0.00     0.000 A 
ATOM      5  C6  UNL d   1      -0.033  -0.317   0.985  0.00  0.00     0.000 A 
ATOM      6  C7  UNL d   1       1.324  -0.664   0.870  0.00  0.00    -0.073 A 
ATOM      7  C8  UNL d   1       2.338   0.114   1.663  0.00  0.00     0.078 C 
ENDROOT
BRANCH   1   8
ATOM      8  C1  UNL d   1       3.122  -2.212  -0.094  0.00  0.00     0.053 C 
ATOM      9  C   UNL d   1       3.229  -3.703  -0.374  0.00  0.00     0.018 C 
ENDBRANCH   1   8
TORSDOF 1
ENDMDL
