MODEL 1
REMARK minimizedAffinity -3.09147406
REMARK minimizedRMSD -1
REMARK  1 active torsions:
REMARK  status: ('A' for Active; 'I' for Inactive)
REMARK    1  A    between atoms: C1_2  and  C2_3 
ROOT
ATOM      1  C2  UNL d   1       1.786  -2.001   0.498  0.00  0.00    -0.076 A 
ATOM      2  C3  UNL d   1       1.879  -0.789   1.204  0.00  0.00     0.004 A 
ATOM      3  C4  UNL d   1       0.739  -0.044   1.504  0.00  0.00    -0.003 A 
ATOM      4  C5  UNL d   1      -0.512  -0.500   1.103  0.00  0.00     0.000 A 
ATOM      5  C6  UNL d   1      -0.625  -1.709   0.417  0.00  0.00     0.000 A 
ATOM      6  C7  UNL d   1       0.513  -2.480   0.121  0.00  0.00    -0.073 A 
ATOM      7  C8  UNL d   1       0.333  -3.773  -0.626  0.00  0.00     0.078 C 
ENDROOT
BRANCH   1   8
ATOM      8  C1  UNL d   1       3.058  -2.753   0.178  0.00  0.00     0.053 C 
ATOM      9  C   UNL d   1       2.988  -4.217   0.582  0.00  0.00     0.018 C 
ENDBRANCH   1   8
TORSDOF 1
ENDMDL
