MODEL 1
REMARK minimizedAffinity -1.51523364
REMARK minimizedRMSD -1
REMARK  1 active torsions:
REMARK  status: ('A' for Active; 'I' for Inactive)
REMARK    1  A    between atoms: C1_2  and  C2_3 
ROOT
ATOM      1  C2  UNL d   1       1.725  -1.596   0.457  0.00  0.00    -0.076 A 
ATOM      2  C3  UNL d   1       1.662  -0.544   1.387  0.00  0.00     0.004 A 
ATOM      3  C4  UNL d   1       0.437  -0.066   1.848  0.00  0.00    -0.003 A 
ATOM      4  C5  UNL d   1      -0.746  -0.632   1.385  0.00  0.00     0.000 A 
ATOM      5  C6  UNL d   1      -0.702  -1.688   0.476  0.00  0.00     0.000 A 
ATOM      6  C7  UNL d   1       0.526  -2.193   0.014  0.00  0.00    -0.073 A 
ATOM      7  C8  UNL d   1       0.515  -3.329  -0.972  0.00  0.00     0.078 C 
ENDROOT
BRANCH   1   8
ATOM      8  C1  UNL d   1       3.083  -2.054  -0.027  0.00  0.00     0.053 C 
ATOM      9  C   UNL d   1       3.256  -3.562   0.067  0.00  0.00     0.018 C 
ENDBRANCH   1   8
TORSDOF 1
ENDMDL
