MODEL 1
REMARK minimizedAffinity 0.932480574
REMARK minimizedRMSD -1
REMARK  1 active torsions:
REMARK  status: ('A' for Active; 'I' for Inactive)
REMARK    1  A    between atoms: C1_2  and  C2_3 
ROOT
ATOM      1  C2  UNL d   1       0.189  -1.104   1.649  0.00  0.00    -0.076 A 
ATOM      2  C3  UNL d   1       1.432  -0.486   1.428  0.00  0.00     0.004 A 
ATOM      3  C4  UNL d   1       2.221  -0.833   0.333  0.00  0.00    -0.003 A 
ATOM      4  C5  UNL d   1       1.780  -1.805  -0.559  0.00  0.00     0.000 A 
ATOM      5  C6  UNL d   1       0.541  -2.416  -0.365  0.00  0.00     0.000 A 
ATOM      6  C7  UNL d   1      -0.274  -2.065   0.725  0.00  0.00    -0.073 A 
ATOM      7  C8  UNL d   1      -1.597  -2.760   0.890  0.00  0.00     0.078 C 
ENDROOT
BRANCH   1   8
ATOM      8  C1  UNL d   1      -0.611  -0.705   2.869  0.00  0.00     0.053 C 
ATOM      9  C   UNL d   1       0.227  -0.698   4.138  0.00  0.00     0.018 C 
ENDBRANCH   1   8
TORSDOF 1
ENDMDL
