MODEL 1
REMARK minimizedAffinity -0.387682289
REMARK minimizedRMSD -1
REMARK  1 active torsions:
REMARK  status: ('A' for Active; 'I' for Inactive)
REMARK    1  A    between atoms: C1_2  and  C2_3 
ROOT
ATOM      1  C2  UNL d   1       1.743  -2.069  -0.026  0.00  0.00    -0.076 A 
ATOM      2  C3  UNL d   1       1.961  -0.701   0.215  0.00  0.00     0.004 A 
ATOM      3  C4  UNL d   1       0.987   0.083   0.831  0.00  0.00    -0.003 A 
ATOM      4  C5  UNL d   1      -0.220  -0.488   1.218  0.00  0.00     0.000 A 
ATOM      5  C6  UNL d   1      -0.447  -1.847   1.003  0.00  0.00     0.000 A 
ATOM      6  C7  UNL d   1       0.531  -2.656   0.397  0.00  0.00    -0.073 A 
ATOM      7  C8  UNL d   1       0.231  -4.114   0.184  0.00  0.00     0.078 C 
ENDROOT
BRANCH   1   8
ATOM      8  C1  UNL d   1       2.825  -2.863  -0.723  0.00  0.00     0.053 C 
ATOM      9  C   UNL d   1       4.167  -2.767  -0.014  0.00  0.00     0.018 C 
ENDBRANCH   1   8
TORSDOF 1
ENDMDL
