MODEL 1
REMARK minimizedAffinity -2.59222698
REMARK minimizedRMSD -1
REMARK  0 active torsions:
REMARK  status: ('A' for Active; 'I' for Inactive)
ROOT
ATOM      1  C   UNL d   1      -1.822  -0.375   2.528  0.00  0.00     0.020 A 
ATOM      2  C1  UNL d   1      -1.327   0.783   1.929  0.00  0.00     0.020 A 
ATOM      3  C2  UNL d   1      -0.249   0.707   1.045  0.00  0.00     0.034 A 
ATOM      4  C3  UNL d   1       0.338  -0.531   0.756  0.00  0.00     0.017 A 
ATOM      5  C4  UNL d   1      -0.159  -1.693   1.357  0.00  0.00     0.017 A 
ATOM      6  C5  UNL d   1      -1.239  -1.610   2.242  0.00  0.00     0.034 A 
ATOM      7 Cl   UNL d   1       0.513  -3.255   1.050  0.00  0.00    -0.070 Cl
ATOM      8 Cl1  UNL d   1       1.667  -0.551  -0.348  0.00  0.00    -0.070 Cl
ENDROOT
TORSDOF 0
ENDMDL
