MODEL 1
REMARK minimizedAffinity 0.188263774
REMARK minimizedRMSD -1
REMARK  0 active torsions:
REMARK  status: ('A' for Active; 'I' for Inactive)
ROOT
ATOM      1  C   UNL d   1       4.505   5.535   1.625  0.00  0.00     0.020 A 
ATOM      2  C1  UNL d   1       3.640   4.474   1.890  0.00  0.00     0.020 A 
ATOM      3  C2  UNL d   1       3.490   3.445   0.958  0.00  0.00     0.034 A 
ATOM      4  C3  UNL d   1       4.208   3.475  -0.243  0.00  0.00     0.017 A 
ATOM      5  C4  UNL d   1       5.076   4.539  -0.508  0.00  0.00     0.017 A 
ATOM      6  C5  UNL d   1       5.222   5.567   0.428  0.00  0.00     0.034 A 
ATOM      7 Cl   UNL d   1       5.995   4.645  -1.969  0.00  0.00    -0.070 Cl
ATOM      8 Cl1  UNL d   1       3.975   2.168  -1.350  0.00  0.00    -0.070 Cl
ENDROOT
TORSDOF 0
ENDMDL
