MODEL 1
REMARK minimizedAffinity -0.283597797
REMARK minimizedRMSD -1
REMARK  0 active torsions:
REMARK  status: ('A' for Active; 'I' for Inactive)
ROOT
ATOM      1  C   UNL d   1      -0.135   0.186   1.511  0.00  0.00     0.020 A 
ATOM      2  C1  UNL d   1      -1.125  -0.725   1.145  0.00  0.00     0.020 A 
ATOM      3  C2  UNL d   1      -0.786  -1.876   0.432  0.00  0.00     0.034 A 
ATOM      4  C3  UNL d   1       0.547  -2.120   0.082  0.00  0.00     0.017 A 
ATOM      5  C4  UNL d   1       1.541  -1.205   0.449  0.00  0.00     0.017 A 
ATOM      6  C5  UNL d   1       1.195  -0.054   1.164  0.00  0.00     0.034 A 
ATOM      7 Cl   UNL d   1       3.207  -1.438   0.053  0.00  0.00    -0.070 Cl
ATOM      8 Cl1  UNL d   1       0.895  -3.564  -0.800  0.00  0.00    -0.070 Cl
ENDROOT
TORSDOF 0
ENDMDL
