MODEL 1
REMARK minimizedAffinity 1.07800615
REMARK minimizedRMSD -1
REMARK  0 active torsions:
REMARK  status: ('A' for Active; 'I' for Inactive)
ROOT
ATOM      1  C   UNL d   1       4.051   5.510   2.236  0.00  0.00     0.020 A 
ATOM      2  C1  UNL d   1       3.312   4.346   2.033  0.00  0.00     0.020 A 
ATOM      3  C2  UNL d   1       3.395   3.670   0.814  0.00  0.00     0.034 A 
ATOM      4  C3  UNL d   1       4.219   4.158  -0.207  0.00  0.00     0.017 A 
ATOM      5  C4  UNL d   1       4.961   5.327  -0.002  0.00  0.00     0.017 A 
ATOM      6  C5  UNL d   1       4.874   6.000   1.221  0.00  0.00     0.034 A 
ATOM      7 Cl   UNL d   1       5.999   5.991  -1.213  0.00  0.00    -0.070 Cl
ATOM      8 Cl1  UNL d   1       4.274   3.272  -1.689  0.00  0.00    -0.070 Cl
ENDROOT
TORSDOF 0
ENDMDL
