MODEL 1
REMARK minimizedAffinity -0.533451796
REMARK minimizedRMSD -1
REMARK  0 active torsions:
REMARK  status: ('A' for Active; 'I' for Inactive)
ROOT
ATOM      1  C   UNL d   1      -0.595  -2.675  -0.025  0.00  0.00     0.020 A 
ATOM      2  C1  UNL d   1      -1.193  -1.691   0.760  0.00  0.00     0.020 A 
ATOM      3  C2  UNL d   1      -0.411  -0.692   1.344  0.00  0.00     0.034 A 
ATOM      4  C3  UNL d   1       0.974  -0.676   1.143  0.00  0.00     0.017 A 
ATOM      5  C4  UNL d   1       1.574  -1.665   0.355  0.00  0.00     0.017 A 
ATOM      6  C5  UNL d   1       0.786  -2.662  -0.227  0.00  0.00     0.034 A 
ATOM      7 Cl   UNL d   1       3.277  -1.711   0.062  0.00  0.00    -0.070 Cl
ATOM      8 Cl1  UNL d   1       1.880   0.589   1.895  0.00  0.00    -0.070 Cl
ENDROOT
TORSDOF 0
ENDMDL
