MODEL 1
REMARK minimizedAffinity -1.54595673
REMARK minimizedRMSD -1
REMARK  0 active torsions:
REMARK  status: ('A' for Active; 'I' for Inactive)
ROOT
ATOM      1  C   UNL d   1      -1.268  -0.054   1.773  0.00  0.00     0.020 A 
ATOM      2  C1  UNL d   1      -1.766  -1.348   1.628  0.00  0.00     0.020 A 
ATOM      3  C2  UNL d   1      -0.958  -2.351   1.089  0.00  0.00     0.034 A 
ATOM      4  C3  UNL d   1       0.352  -2.062   0.691  0.00  0.00     0.017 A 
ATOM      5  C4  UNL d   1       0.852  -0.763   0.837  0.00  0.00     0.017 A 
ATOM      6  C5  UNL d   1       0.039   0.238   1.378  0.00  0.00     0.034 A 
ATOM      7 Cl   UNL d   1       2.458  -0.329   0.370  0.00  0.00    -0.070 Cl
ATOM      8 Cl1  UNL d   1       1.295  -3.351   0.033  0.00  0.00    -0.070 Cl
ENDROOT
TORSDOF 0
ENDMDL
