MODEL 1
REMARK minimizedAffinity 4.15752888
REMARK minimizedRMSD -1
REMARK  0 active torsions:
REMARK  status: ('A' for Active; 'I' for Inactive)
ROOT
ATOM      1  C   UNL d   1      -1.727  -0.907   1.108  0.00  0.00     0.020 A 
ATOM      2  C1  UNL d   1      -1.168   0.060   1.942  0.00  0.00     0.020 A 
ATOM      3  C2  UNL d   1       0.219   0.145   2.081  0.00  0.00     0.034 A 
ATOM      4  C3  UNL d   1       1.051  -0.738   1.384  0.00  0.00     0.017 A 
ATOM      5  C4  UNL d   1       0.489  -1.709   0.547  0.00  0.00     0.017 A 
ATOM      6  C5  UNL d   1      -0.900  -1.789   0.411  0.00  0.00     0.034 A 
ATOM      7 Cl   UNL d   1       1.452  -2.833  -0.345  0.00  0.00    -0.070 Cl
ATOM      8 Cl1  UNL d   1       2.757  -0.576   1.603  0.00  0.00    -0.070 Cl
ENDROOT
TORSDOF 0
ENDMDL
