MODEL 1
REMARK minimizedAffinity -2.89809251
REMARK minimizedRMSD -1
REMARK  0 active torsions:
REMARK  status: ('A' for Active; 'I' for Inactive)
ROOT
ATOM      1  C   UNL d   1       0.088  -1.349   0.083  0.00  0.00     0.020 A 
ATOM      2  C1  UNL d   1      -1.166  -1.183   0.669  0.00  0.00     0.020 A 
ATOM      3  C2  UNL d   1      -1.266  -0.826   2.016  0.00  0.00     0.034 A 
ATOM      4  C3  UNL d   1      -0.110  -0.633   2.780  0.00  0.00     0.017 A 
ATOM      5  C4  UNL d   1       1.149  -0.800   2.191  0.00  0.00     0.017 A 
ATOM      6  C5  UNL d   1       1.243  -1.157   0.842  0.00  0.00     0.034 A 
ATOM      7 Cl   UNL d   1       2.621  -0.579   3.070  0.00  0.00    -0.070 Cl
ATOM      8 Cl1  UNL d   1      -0.307  -0.192   4.439  0.00  0.00    -0.070 Cl
ENDROOT
TORSDOF 0
ENDMDL
