MODEL 1
REMARK minimizedAffinity -1.65060937
REMARK minimizedRMSD -1
REMARK  0 active torsions:
REMARK  status: ('A' for Active; 'I' for Inactive)
ROOT
ATOM      1  C   UNL d   1       1.172  -0.100   0.850  0.00  0.00     0.020 A 
ATOM      2  C1  UNL d   1      -0.163  -0.486   0.748  0.00  0.00     0.020 A 
ATOM      3  C2  UNL d   1      -0.488  -1.760   0.276  0.00  0.00     0.034 A 
ATOM      4  C3  UNL d   1       0.524  -2.652  -0.096  0.00  0.00     0.017 A 
ATOM      5  C4  UNL d   1       1.864  -2.264   0.006  0.00  0.00     0.017 A 
ATOM      6  C5  UNL d   1       2.184  -0.987   0.480  0.00  0.00     0.034 A 
ATOM      7 Cl   UNL d   1       3.168  -3.309  -0.434  0.00  0.00    -0.070 Cl
ATOM      8 Cl1  UNL d   1       0.049  -4.211  -0.670  0.00  0.00    -0.070 Cl
ENDROOT
TORSDOF 0
ENDMDL
