MODEL 1
REMARK minimizedAffinity -1.75262845
REMARK minimizedRMSD -1
REMARK  0 active torsions:
REMARK  status: ('A' for Active; 'I' for Inactive)
ROOT
ATOM      1  C   UNL d   1      -0.853  -0.585   1.177  0.00  0.00     0.020 A 
ATOM      2  C1  UNL d   1      -1.284  -1.903   1.031  0.00  0.00     0.020 A 
ATOM      3  C2  UNL d   1      -0.439  -2.855   0.457  0.00  0.00     0.034 A 
ATOM      4  C3  UNL d   1       0.842  -2.490   0.027  0.00  0.00     0.017 A 
ATOM      5  C4  UNL d   1       1.274  -1.167   0.174  0.00  0.00     0.017 A 
ATOM      6  C5  UNL d   1       0.424  -0.218   0.750  0.00  0.00     0.034 A 
ATOM      7 Cl   UNL d   1       2.841  -0.642  -0.332  0.00  0.00    -0.070 Cl
ATOM      8 Cl1  UNL d   1       1.834  -3.719  -0.673  0.00  0.00    -0.070 Cl
ENDROOT
TORSDOF 0
ENDMDL
