MODEL 1
REMARK minimizedAffinity -0.52898103
REMARK minimizedRMSD -1
REMARK  0 active torsions:
REMARK  status: ('A' for Active; 'I' for Inactive)
ROOT
ATOM      1  C   UNL d   1       0.168  -0.559   1.739  0.00  0.00     0.020 A 
ATOM      2  C1  UNL d   1      -0.748  -1.474   1.220  0.00  0.00     0.020 A 
ATOM      3  C2  UNL d   1      -0.319  -2.466   0.336  0.00  0.00     0.034 A 
ATOM      4  C3  UNL d   1       1.029  -2.545  -0.033  0.00  0.00     0.017 A 
ATOM      5  C4  UNL d   1       1.947  -1.626   0.488  0.00  0.00     0.017 A 
ATOM      6  C5  UNL d   1       1.512  -0.635   1.374  0.00  0.00     0.034 A 
ATOM      7 Cl   UNL d   1       3.627  -1.661   0.080  0.00  0.00    -0.070 Cl
ATOM      8 Cl1  UNL d   1       1.489  -3.797  -1.131  0.00  0.00    -0.070 Cl
ENDROOT
TORSDOF 0
ENDMDL
