MODEL 1
REMARK minimizedAffinity 3.96095657
REMARK minimizedRMSD -1
REMARK  0 active torsions:
REMARK  status: ('A' for Active; 'I' for Inactive)
ROOT
ATOM      1  C   UNL d   1      -2.493   2.416   1.681  0.00  0.00     0.020 A 
ATOM      2  C1  UNL d   1      -3.436   2.824   0.738  0.00  0.00     0.020 A 
ATOM      3  C2  UNL d   1      -3.703   2.022  -0.374  0.00  0.00     0.034 A 
ATOM      4  C3  UNL d   1      -3.027   0.809  -0.545  0.00  0.00     0.017 A 
ATOM      5  C4  UNL d   1      -2.081   0.400   0.403  0.00  0.00     0.017 A 
ATOM      6  C5  UNL d   1      -1.818   1.207   1.514  0.00  0.00     0.034 A 
ATOM      7 Cl   UNL d   1      -1.207  -1.084   0.260  0.00  0.00    -0.070 Cl
ATOM      8 Cl1  UNL d   1      -3.407  -0.133  -1.943  0.00  0.00    -0.070 Cl
ENDROOT
TORSDOF 0
ENDMDL
