MODEL 1
REMARK minimizedAffinity 4.0935111
REMARK minimizedRMSD -1
REMARK  0 active torsions:
REMARK  status: ('A' for Active; 'I' for Inactive)
ROOT
ATOM      1  C   UNL d   1       1.634  -0.053   2.316  0.00  0.00     0.020 A 
ATOM      2  C1  UNL d   1       2.533  -0.410   1.313  0.00  0.00     0.020 A 
ATOM      3  C2  UNL d   1       2.060  -0.897   0.092  0.00  0.00     0.034 A 
ATOM      4  C3  UNL d   1       0.684  -1.028  -0.127  0.00  0.00     0.017 A 
ATOM      5  C4  UNL d   1      -0.218  -0.669   0.881  0.00  0.00     0.017 A 
ATOM      6  C5  UNL d   1       0.261  -0.182   2.101  0.00  0.00     0.034 A 
ATOM      7 Cl   UNL d   1      -1.930  -0.803   0.684  0.00  0.00    -0.070 Cl
ATOM      8 Cl1  UNL d   1       0.170  -1.637  -1.661  0.00  0.00    -0.070 Cl
ENDROOT
TORSDOF 0
ENDMDL
