MODEL 1
REMARK minimizedAffinity -0.910501957
REMARK minimizedRMSD -1
REMARK  0 active torsions:
REMARK  status: ('A' for Active; 'I' for Inactive)
ROOT
ATOM      1  C   UNL d   1       0.254  -0.580   0.772  0.00  0.00     0.020 A 
ATOM      2  C1  UNL d   1      -0.392  -1.793   0.541  0.00  0.00     0.020 A 
ATOM      3  C2  UNL d   1       0.339  -2.903   0.114  0.00  0.00     0.034 A 
ATOM      4  C3  UNL d   1       1.721  -2.803  -0.084  0.00  0.00     0.017 A 
ATOM      5  C4  UNL d   1       2.369  -1.584   0.148  0.00  0.00     0.017 A 
ATOM      6  C5  UNL d   1       1.632  -0.475   0.576  0.00  0.00     0.034 A 
ATOM      7 Cl   UNL d   1       4.071  -1.382  -0.074  0.00  0.00    -0.070 Cl
ATOM      8 Cl1  UNL d   1       2.562  -4.216  -0.613  0.00  0.00    -0.070 Cl
ENDROOT
TORSDOF 0
ENDMDL
