MODEL 1
REMARK minimizedAffinity 0.79001379
REMARK minimizedRMSD -1
REMARK  0 active torsions:
REMARK  status: ('A' for Active; 'I' for Inactive)
ROOT
ATOM      1  C   UNL d   1       0.761  -0.058   1.483  0.00  0.00     0.020 A 
ATOM      2  C1  UNL d   1      -0.508  -0.477   1.084  0.00  0.00     0.020 A 
ATOM      3  C2  UNL d   1      -0.648  -1.599   0.265  0.00  0.00     0.034 A 
ATOM      4  C3  UNL d   1       0.483  -2.306  -0.160  0.00  0.00     0.017 A 
ATOM      5  C4  UNL d   1       1.756  -1.885   0.241  0.00  0.00     0.017 A 
ATOM      6  C5  UNL d   1       1.890  -0.761   1.062  0.00  0.00     0.034 A 
ATOM      7 Cl   UNL d   1       3.199  -2.706  -0.242  0.00  0.00    -0.070 Cl
ATOM      8 Cl1  UNL d   1       0.236  -3.684  -1.172  0.00  0.00    -0.070 Cl
ENDROOT
TORSDOF 0
ENDMDL
