MODEL 1
REMARK minimizedAffinity 8.51181602
REMARK minimizedRMSD -1
REMARK  0 active torsions:
REMARK  status: ('A' for Active; 'I' for Inactive)
ROOT
ATOM      1  C   UNL d   1       0.875  -1.459  -0.242  0.00  0.00     0.020 A 
ATOM      2  C1  UNL d   1      -0.410  -1.388   0.295  0.00  0.00     0.020 A 
ATOM      3  C2  UNL d   1      -0.591  -0.980   1.618  0.00  0.00     0.034 A 
ATOM      4  C3  UNL d   1       0.514  -0.641   2.408  0.00  0.00     0.017 A 
ATOM      5  C4  UNL d   1       1.803  -0.713   1.868  0.00  0.00     0.017 A 
ATOM      6  C5  UNL d   1       1.979  -1.123   0.542  0.00  0.00     0.034 A 
ATOM      7 Cl   UNL d   1       3.215  -0.312   2.780  0.00  0.00    -0.070 Cl
ATOM      8 Cl1  UNL d   1       0.216  -0.144   4.036  0.00  0.00    -0.070 Cl
ENDROOT
TORSDOF 0
ENDMDL
