MODEL 1
REMARK minimizedAffinity 4.4309864
REMARK minimizedRMSD -1
REMARK  0 active torsions:
REMARK  status: ('A' for Active; 'I' for Inactive)
ROOT
ATOM      1  C   UNL d   1      -0.326  -2.849  -1.312  0.00  0.00     0.020 A 
ATOM      2  C1  UNL d   1      -1.012  -2.765  -0.101  0.00  0.00     0.020 A 
ATOM      3  C2  UNL d   1      -0.527  -1.945   0.920  0.00  0.00     0.034 A 
ATOM      4  C3  UNL d   1       0.647  -1.207   0.733  0.00  0.00     0.017 A 
ATOM      5  C4  UNL d   1       1.335  -1.292  -0.483  0.00  0.00     0.017 A 
ATOM      6  C5  UNL d   1       0.845  -2.114  -1.502  0.00  0.00     0.034 A 
ATOM      7 Cl   UNL d   1       2.791  -0.412  -0.788  0.00  0.00    -0.070 Cl
ATOM      8 Cl1  UNL d   1       1.189  -0.215   2.040  0.00  0.00    -0.070 Cl
ENDROOT
TORSDOF 0
ENDMDL
