MODEL 1
REMARK minimizedAffinity 3.04033804
REMARK minimizedRMSD -1
REMARK  0 active torsions:
REMARK  status: ('A' for Active; 'I' for Inactive)
ROOT
ATOM      1  C   UNL d   1       3.636   3.496  -4.857  0.00  0.00     0.020 A 
ATOM      2  C1  UNL d   1       3.262   3.136  -3.563  0.00  0.00     0.020 A 
ATOM      3  C2  UNL d   1       2.096   3.661  -3.002  0.00  0.00     0.034 A 
ATOM      4  C3  UNL d   1       1.300   4.549  -3.735  0.00  0.00     0.017 A 
ATOM      5  C4  UNL d   1       1.677   4.910  -5.033  0.00  0.00     0.017 A 
ATOM      6  C5  UNL d   1       2.845   4.381  -5.591  0.00  0.00     0.034 A 
ATOM      7 Cl   UNL d   1       0.746   6.000  -5.999  0.00  0.00    -0.070 Cl
ATOM      8 Cl1  UNL d   1      -0.128   5.160  -2.978  0.00  0.00    -0.070 Cl
ENDROOT
TORSDOF 0
ENDMDL
