MODEL 1
REMARK minimizedAffinity 7.3899374
REMARK minimizedRMSD -1
REMARK  1 active torsions:
REMARK  status: ('A' for Active; 'I' for Inactive)
REMARK    1  A    between atoms: N_2  and  C1_3 
ROOT
ATOM      1  C1  UNL d   1      -5.226   4.194   3.693  0.00  0.00     0.143 A 
ATOM      2  C2  UNL d   1      -5.998   4.148   4.859  0.00  0.00    -0.057 A 
ATOM      3  C3  UNL d   1      -5.639   4.880   5.997  0.00  0.00     0.033 A 
ATOM      4  C4  UNL d   1      -4.482   5.651   5.999  0.00  0.00    -0.042 A 
ATOM      5  C5  UNL d   1      -3.686   5.693   4.860  0.00  0.00     0.033 A 
ATOM      6  C6  UNL d   1      -4.053   4.965   3.724  0.00  0.00    -0.057 A 
ENDROOT
BRANCH   1   7
ATOM      7  N   UNL d   1      -5.476   3.413   2.562  0.00  0.00    -0.732 N 
ATOM      8  C   UNL d   1      -4.766   2.170   2.353  0.00  0.00     0.284 C 
ATOM      9  H3  UNL d   1      -6.466   3.370   2.332  0.00  0.00     0.395 HD
ENDBRANCH   1   7
TORSDOF 1
ENDMDL
