MODEL 1
REMARK minimizedAffinity 8.21480179
REMARK minimizedRMSD -1
REMARK  1 active torsions:
REMARK  status: ('A' for Active; 'I' for Inactive)
REMARK    1  A    between atoms: N_2  and  C1_3 
ROOT
ATOM      1  C1  UNL d   1       2.615  -0.809  -1.316  0.00  0.00     0.143 A 
ATOM      2  C2  UNL d   1       3.407   0.096  -2.030  0.00  0.00    -0.057 A 
ATOM      3  C3  UNL d   1       3.668   1.380  -1.536  0.00  0.00     0.033 A 
ATOM      4  C4  UNL d   1       3.114   1.792  -0.329  0.00  0.00    -0.042 A 
ATOM      5  C5  UNL d   1       2.303   0.918   0.386  0.00  0.00     0.033 A 
ATOM      6  C6  UNL d   1       2.052  -0.365  -0.109  0.00  0.00    -0.057 A 
ENDROOT
BRANCH   1   7
ATOM      7  N   UNL d   1       2.239  -2.065  -1.801  0.00  0.00    -0.732 N 
ATOM      8  C   UNL d   1       2.536  -2.448  -3.164  0.00  0.00     0.284 C 
ATOM      9  H3  UNL d   1       2.388  -2.805  -1.119  0.00  0.00     0.395 HD
ENDBRANCH   1   7
TORSDOF 1
ENDMDL
