MODEL 1
REMARK minimizedAffinity 7.68866444
REMARK minimizedRMSD -1
REMARK  1 active torsions:
REMARK  status: ('A' for Active; 'I' for Inactive)
REMARK    1  A    between atoms: N_2  and  C1_3 
ROOT
ATOM      1  C1  UNL d   1       2.945  -0.839  -1.330  0.00  0.00     0.143 A 
ATOM      2  C2  UNL d   1       3.473   0.108  -2.213  0.00  0.00    -0.057 A 
ATOM      3  C3  UNL d   1       3.760   1.413  -1.792  0.00  0.00     0.033 A 
ATOM      4  C4  UNL d   1       3.495   1.802  -0.483  0.00  0.00    -0.042 A 
ATOM      5  C5  UNL d   1       2.947   0.883   0.405  0.00  0.00     0.033 A 
ATOM      6  C6  UNL d   1       2.669  -0.420  -0.019  0.00  0.00    -0.057 A 
ENDROOT
BRANCH   1   7
ATOM      7  N   UNL d   1       2.547  -2.123  -1.713  0.00  0.00    -0.732 N 
ATOM      8  C   UNL d   1       2.881  -2.638  -3.023  0.00  0.00     0.284 C 
ATOM      9  H3  UNL d   1       2.649  -2.801  -0.961  0.00  0.00     0.395 HD
ENDBRANCH   1   7
TORSDOF 1
ENDMDL
