MODEL 1
REMARK minimizedAffinity 7.1893816
REMARK minimizedRMSD -1
REMARK  1 active torsions:
REMARK  status: ('A' for Active; 'I' for Inactive)
REMARK    1  A    between atoms: N_2  and  C1_3 
ROOT
ATOM      1  C1  UNL d   1      -5.391   4.266   3.725  0.00  0.00     0.143 A 
ATOM      2  C2  UNL d   1      -4.328   5.146   3.497  0.00  0.00    -0.057 A 
ATOM      3  C3  UNL d   1      -3.858   5.995   4.506  0.00  0.00     0.033 A 
ATOM      4  C4  UNL d   1      -4.465   6.000   5.757  0.00  0.00    -0.042 A 
ATOM      5  C5  UNL d   1      -5.540   5.152   6.000  0.00  0.00     0.033 A 
ATOM      6  C6  UNL d   1      -6.000   4.301   4.990  0.00  0.00    -0.057 A 
ENDROOT
BRANCH   1   7
ATOM      7  N   UNL d   1      -5.968   3.468   2.734  0.00  0.00    -0.732 N 
ATOM      8  C   UNL d   1      -5.362   3.368   1.424  0.00  0.00     0.284 C 
ATOM      9  H3  UNL d   1      -6.316   2.585   3.100  0.00  0.00     0.395 HD
ENDBRANCH   1   7
TORSDOF 1
ENDMDL
