MODEL 1
REMARK minimizedAffinity 15.7711105
REMARK minimizedRMSD -1
REMARK  1 active torsions:
REMARK  status: ('A' for Active; 'I' for Inactive)
REMARK    1  A    between atoms: N_2  and  C1_3 
ROOT
ATOM      1  C1  UNL d   1       2.761  -1.214   1.218  0.00  0.00     0.143 A 
ATOM      2  C2  UNL d   1       2.091  -0.345   0.351  0.00  0.00    -0.057 A 
ATOM      3  C3  UNL d   1       2.748   0.740  -0.241  0.00  0.00     0.033 A 
ATOM      4  C4  UNL d   1       4.086   0.992   0.048  0.00  0.00    -0.042 A 
ATOM      5  C5  UNL d   1       4.765   0.156   0.927  0.00  0.00     0.033 A 
ATOM      6  C6  UNL d   1       4.104  -0.930   1.509  0.00  0.00    -0.057 A 
ENDROOT
BRANCH   1   7
ATOM      7  N   UNL d   1       2.137  -2.252   1.915  0.00  0.00    -0.732 N 
ATOM      8  C   UNL d   1       1.264  -1.969   3.033  0.00  0.00     0.284 C 
ATOM      9  H3  UNL d   1       1.796  -2.985   1.296  0.00  0.00     0.395 HD
ENDBRANCH   1   7
TORSDOF 1
ENDMDL
