MODEL 1
REMARK minimizedAffinity 7.64699221
REMARK minimizedRMSD -1
REMARK  1 active torsions:
REMARK  status: ('A' for Active; 'I' for Inactive)
REMARK    1  A    between atoms: N_2  and  C1_3 
ROOT
ATOM      1  C1  UNL d   1       3.313   1.310  -0.855  0.00  0.00     0.143 A 
ATOM      2  C2  UNL d   1       2.339   0.529  -1.487  0.00  0.00    -0.057 A 
ATOM      3  C3  UNL d   1       1.745  -0.559  -0.835  0.00  0.00     0.033 A 
ATOM      4  C4  UNL d   1       2.138  -0.904   0.454  0.00  0.00    -0.042 A 
ATOM      5  C5  UNL d   1       3.123  -0.157   1.092  0.00  0.00     0.033 A 
ATOM      6  C6  UNL d   1       3.706   0.933   0.438  0.00  0.00    -0.057 A 
ENDROOT
BRANCH   1   7
ATOM      7  N   UNL d   1       4.010   2.344  -1.485  0.00  0.00    -0.732 N 
ATOM      8  C   UNL d   1       5.215   2.068  -2.238  0.00  0.00     0.284 C 
ATOM      9  H3  UNL d   1       3.389   3.018  -1.927  0.00  0.00     0.395 HD
ENDBRANCH   1   7
TORSDOF 1
ENDMDL
