MODEL 1
REMARK minimizedAffinity 10.7977715
REMARK minimizedRMSD -1
REMARK  1 active torsions:
REMARK  status: ('A' for Active; 'I' for Inactive)
REMARK    1  A    between atoms: N_2  and  C1_3 
ROOT
ATOM      1  C1  UNL d   1      -5.034   3.105  -0.523  0.00  0.00     0.143 A 
ATOM      2  C2  UNL d   1      -5.140   2.571  -1.812  0.00  0.00    -0.057 A 
ATOM      3  C3  UNL d   1      -5.408   1.212  -2.015  0.00  0.00     0.033 A 
ATOM      4  C4  UNL d   1      -5.548   0.355  -0.929  0.00  0.00    -0.042 A 
ATOM      5  C5  UNL d   1      -5.422   0.859   0.361  0.00  0.00     0.033 A 
ATOM      6  C6  UNL d   1      -5.161   2.218   0.558  0.00  0.00    -0.057 A 
ENDROOT
BRANCH   1   7
ATOM      7  N   UNL d   1      -4.671   4.428  -0.256  0.00  0.00    -0.732 N 
ATOM      8  C   UNL d   1      -3.277   4.813  -0.204  0.00  0.00     0.284 C 
ATOM      9  H3  UNL d   1      -5.271   5.098  -0.731  0.00  0.00     0.395 HD
ENDBRANCH   1   7
TORSDOF 1
ENDMDL
