MODEL 1
REMARK minimizedAffinity 22.0069447
REMARK minimizedRMSD -1
REMARK  1 active torsions:
REMARK  status: ('A' for Active; 'I' for Inactive)
REMARK    1  A    between atoms: N_2  and  C1_3 
ROOT
ATOM      1  C1  UNL d   1       5.686   0.668   3.911  0.00  0.00     0.143 A 
ATOM      2  C2  UNL d   1       5.265   1.460   2.838  0.00  0.00    -0.057 A 
ATOM      3  C3  UNL d   1       4.868   2.789   3.029  0.00  0.00     0.033 A 
ATOM      4  C4  UNL d   1       4.857   3.342   4.305  0.00  0.00    -0.042 A 
ATOM      5  C5  UNL d   1       5.247   2.565   5.390  0.00  0.00     0.033 A 
ATOM      6  C6  UNL d   1       5.649   1.241   5.192  0.00  0.00    -0.057 A 
ENDROOT
BRANCH   1   7
ATOM      7  N   UNL d   1       5.998  -0.689   3.800  0.00  0.00    -0.732 N 
ATOM      8  C   UNL d   1       5.999  -1.342   2.509  0.00  0.00     0.284 C 
ATOM      9  H3  UNL d   1       6.772  -0.960   4.404  0.00  0.00     0.395 HD
ENDBRANCH   1   7
TORSDOF 1
ENDMDL
