MODEL 1
REMARK minimizedAffinity 3.1578927
REMARK minimizedRMSD -1
REMARK  1 active torsions:
REMARK  status: ('A' for Active; 'I' for Inactive)
REMARK    1  A    between atoms: N_2  and  C1_3 
ROOT
ATOM      1  C1  UNL d   1      -5.022   4.469   3.604  0.00  0.00     0.143 A 
ATOM      2  C2  UNL d   1      -3.879   5.254   3.793  0.00  0.00    -0.057 A 
ATOM      3  C3  UNL d   1      -3.697   6.000   4.964  0.00  0.00     0.033 A 
ATOM      4  C4  UNL d   1      -4.671   5.996   5.957  0.00  0.00    -0.042 A 
ATOM      5  C5  UNL d   1      -5.826   5.243   5.779  0.00  0.00     0.033 A 
ATOM      6  C6  UNL d   1      -5.999   4.495   4.611  0.00  0.00    -0.057 A 
ENDROOT
BRANCH   1   7
ATOM      7  N   UNL d   1      -5.307   3.783   2.421  0.00  0.00    -0.732 N 
ATOM      8  C   UNL d   1      -4.378   2.806   1.893  0.00  0.00     0.284 C 
ATOM      9  H3  UNL d   1      -6.283   3.504   2.359  0.00  0.00     0.395 HD
ENDBRANCH   1   7
TORSDOF 1
ENDMDL
