MODEL 1
REMARK minimizedAffinity 5.44603586
REMARK minimizedRMSD -1
REMARK  1 active torsions:
REMARK  status: ('A' for Active; 'I' for Inactive)
REMARK    1  A    between atoms: N_2  and  C1_3 
ROOT
ATOM      1  C1  UNL d   1      -4.876   4.665   3.084  0.00  0.00     0.143 A 
ATOM      2  C2  UNL d   1      -3.771   5.397   3.531  0.00  0.00    -0.057 A 
ATOM      3  C3  UNL d   1      -3.762   6.000   4.795  0.00  0.00     0.033 A 
ATOM      4  C4  UNL d   1      -4.875   5.906   5.624  0.00  0.00    -0.042 A 
ATOM      5  C5  UNL d   1      -5.994   5.205   5.191  0.00  0.00     0.033 A 
ATOM      6  C6  UNL d   1      -5.994   4.599   3.930  0.00  0.00    -0.057 A 
ENDROOT
BRANCH   1   7
ATOM      7  N   UNL d   1      -4.984   4.125   1.800  0.00  0.00    -0.732 N 
ATOM      8  C   UNL d   1      -4.282   2.909   1.450  0.00  0.00     0.284 C 
ATOM      9  H3  UNL d   1      -5.932   4.177   1.435  0.00  0.00     0.395 HD
ENDBRANCH   1   7
TORSDOF 1
ENDMDL
