MODEL 1
REMARK minimizedAffinity 14.5453672
REMARK minimizedRMSD -1
REMARK  1 active torsions:
REMARK  status: ('A' for Active; 'I' for Inactive)
REMARK    1  A    between atoms: N_2  and  C1_3 
ROOT
ATOM      1  C1  UNL d   1       0.364  -2.614   4.055  0.00  0.00     0.143 A 
ATOM      2  C2  UNL d   1       0.833  -3.011   5.312  0.00  0.00    -0.057 A 
ATOM      3  C3  UNL d   1       0.251  -4.083   5.999  0.00  0.00     0.033 A 
ATOM      4  C4  UNL d   1      -0.833  -4.761   5.452  0.00  0.00    -0.042 A 
ATOM      5  C5  UNL d   1      -1.332  -4.369   4.215  0.00  0.00     0.033 A 
ATOM      6  C6  UNL d   1      -0.742  -3.301   3.530  0.00  0.00    -0.057 A 
ENDROOT
BRANCH   1   7
ATOM      7  N   UNL d   1       0.836  -1.494   3.366  0.00  0.00    -0.732 N 
ATOM      8  C   UNL d   1       0.082  -0.259   3.362  0.00  0.00     0.284 C 
ATOM      9  H3  UNL d   1       1.840  -1.368   3.472  0.00  0.00     0.395 HD
ENDBRANCH   1   7
TORSDOF 1
ENDMDL
