MODEL 1
REMARK minimizedAffinity -3.953228
REMARK minimizedRMSD -1
REMARK  1 active torsions:
REMARK  status: ('A' for Active; 'I' for Inactive)
REMARK    1  A    between atoms: C3_4  and  O_7 
ROOT
ATOM      1  C   UNL d   1       0.384   0.741  -0.695  0.00  0.00    -0.033 A 
ATOM      2  C1  UNL d   1       1.318   1.575  -0.077  0.00  0.00     0.039 A 
ATOM      3  C2  UNL d   1       1.257   1.793   1.301  0.00  0.00    -0.080 A 
ATOM      4  C3  UNL d   1       0.261   1.171   2.048  0.00  0.00     0.150 A 
ATOM      5  C4  UNL d   1      -0.671   0.336   1.439  0.00  0.00    -0.007 A 
ATOM      6  C5  UNL d   1      -0.609   0.121   0.063  0.00  0.00     0.039 A 
ENDROOT
BRANCH   4   7
ATOM      7  O   UNL d   1       0.159   1.357   3.394  0.00  0.00    -0.526 OA
ATOM      8  H5  UNL d   1       0.850   1.981   3.672  0.00  0.00     0.418 HD
ENDBRANCH   4   7
TORSDOF 1
ENDMDL
