MODEL 1
REMARK minimizedAffinity -5.27034664
REMARK minimizedRMSD -1
REMARK  1 active torsions:
REMARK  status: ('A' for Active; 'I' for Inactive)
REMARK    1  A    between atoms: C3_4  and  O_7 
ROOT
ATOM      1  C   UNL d   1       2.065   2.637   1.326  0.00  0.00    -0.033 A 
ATOM      2  C1  UNL d   1       2.980   1.950   0.527  0.00  0.00     0.039 A 
ATOM      3  C2  UNL d   1       2.583   0.804  -0.165  0.00  0.00    -0.080 A 
ATOM      4  C3  UNL d   1       1.270   0.356  -0.049  0.00  0.00     0.150 A 
ATOM      5  C4  UNL d   1       0.352   1.038   0.743  0.00  0.00    -0.007 A 
ATOM      6  C5  UNL d   1       0.750   2.182   1.433  0.00  0.00     0.039 A 
ENDROOT
BRANCH   4   7
ATOM      7  O   UNL d   1       0.837  -0.760  -0.701  0.00  0.00    -0.526 OA
ATOM      8  H5  UNL d   1       1.587  -1.143  -1.186  0.00  0.00     0.418 HD
ENDBRANCH   4   7
TORSDOF 1
ENDMDL
