MODEL 1
REMARK minimizedAffinity -1.50101483
REMARK minimizedRMSD -1
REMARK  1 active torsions:
REMARK  status: ('A' for Active; 'I' for Inactive)
REMARK    1  A    between atoms: C3_4  and  O_7 
ROOT
ATOM      1  C   UNL d   1      -0.536   0.368   1.038  0.00  0.00    -0.033 A 
ATOM      2  C1  UNL d   1      -0.633  -0.485  -0.063  0.00  0.00     0.039 A 
ATOM      3  C2  UNL d   1       0.517  -0.858  -0.763  0.00  0.00    -0.080 A 
ATOM      4  C3  UNL d   1       1.755  -0.373  -0.351  0.00  0.00     0.150 A 
ATOM      5  C4  UNL d   1       1.859   0.474   0.748  0.00  0.00    -0.007 A 
ATOM      6  C5  UNL d   1       0.710   0.846   1.445  0.00  0.00     0.039 A 
ENDROOT
BRANCH   4   7
ATOM      7  O   UNL d   1       2.904  -0.705  -1.005  0.00  0.00    -0.526 OA
ATOM      8  H5  UNL d   1       2.675  -1.272  -1.760  0.00  0.00     0.418 HD
ENDBRANCH   4   7
TORSDOF 1
ENDMDL
