MODEL 1
REMARK minimizedAffinity -2.38208675
REMARK minimizedRMSD -1
REMARK  1 active torsions:
REMARK  status: ('A' for Active; 'I' for Inactive)
REMARK    1  A    between atoms: C3_4  and  O_7 
ROOT
ATOM      1  C   UNL d   1      -3.116  -1.260  -3.315  0.00  0.00    -0.033 A 
ATOM      2  C1  UNL d   1      -1.856  -0.822  -3.729  0.00  0.00     0.039 A 
ATOM      3  C2  UNL d   1      -0.745  -1.004  -2.903  0.00  0.00    -0.080 A 
ATOM      4  C3  UNL d   1      -0.907  -1.625  -1.667  0.00  0.00     0.150 A 
ATOM      5  C4  UNL d   1      -2.158  -2.067  -1.250  0.00  0.00    -0.007 A 
ATOM      6  C5  UNL d   1      -3.266  -1.884  -2.076  0.00  0.00     0.039 A 
ENDROOT
BRANCH   4   7
ATOM      7  O   UNL d   1       0.147  -1.821  -0.825  0.00  0.00    -0.526 OA
ATOM      8  H5  UNL d   1       0.942  -1.439  -1.233  0.00  0.00     0.418 HD
ENDBRANCH   4   7
TORSDOF 1
ENDMDL
