MODEL 1
REMARK minimizedAffinity -3.15708709
REMARK minimizedRMSD -1
REMARK  1 active torsions:
REMARK  status: ('A' for Active; 'I' for Inactive)
REMARK    1  A    between atoms: C3_4  and  O_7 
ROOT
ATOM      1  C   UNL d   1       0.030  -0.343   0.251  0.00  0.00    -0.033 A 
ATOM      2  C1  UNL d   1      -0.547   0.140   1.427  0.00  0.00     0.039 A 
ATOM      3  C2  UNL d   1      -0.239   1.424   1.881  0.00  0.00    -0.080 A 
ATOM      4  C3  UNL d   1       0.645   2.214   1.151  0.00  0.00     0.150 A 
ATOM      5  C4  UNL d   1       1.220   1.740  -0.024  0.00  0.00    -0.007 A 
ATOM      6  C5  UNL d   1       0.912   0.457  -0.475  0.00  0.00     0.039 A 
ENDROOT
BRANCH   4   7
ATOM      7  O   UNL d   1       0.980   3.471   1.557  0.00  0.00    -0.526 OA
ATOM      8  H5  UNL d   1       0.529   3.653   2.399  0.00  0.00     0.418 HD
ENDBRANCH   4   7
TORSDOF 1
ENDMDL
