MODEL 1
REMARK minimizedAffinity -4.32042885
REMARK minimizedRMSD -1
REMARK  1 active torsions:
REMARK  status: ('A' for Active; 'I' for Inactive)
REMARK    1  A    between atoms: C3_4  and  O_7 
ROOT
ATOM      1  C   UNL d   1      -0.717  -0.164  -0.003  0.00  0.00    -0.033 A 
ATOM      2  C1  UNL d   1      -0.141   0.829  -0.798  0.00  0.00     0.039 A 
ATOM      3  C2  UNL d   1       0.484   1.927  -0.204  0.00  0.00    -0.080 A 
ATOM      4  C3  UNL d   1       0.525   2.020   1.185  0.00  0.00     0.150 A 
ATOM      5  C4  UNL d   1      -0.045   1.033   1.983  0.00  0.00    -0.007 A 
ATOM      6  C5  UNL d   1      -0.668  -0.062   1.387  0.00  0.00     0.039 A 
ENDROOT
BRANCH   4   7
ATOM      7  O   UNL d   1       1.119   3.076   1.811  0.00  0.00    -0.526 OA
ATOM      8  H5  UNL d   1       1.443   3.693   1.133  0.00  0.00     0.418 HD
ENDBRANCH   4   7
TORSDOF 1
ENDMDL
