MODEL 1
REMARK minimizedAffinity -2.79279566
REMARK minimizedRMSD -1
REMARK  1 active torsions:
REMARK  status: ('A' for Active; 'I' for Inactive)
REMARK    1  A    between atoms: C3_4  and  O_7 
ROOT
ATOM      1  C   UNL d   1      -1.115   0.365   0.578  0.00  0.00    -0.033 A 
ATOM      2  C1  UNL d   1       0.016   0.152  -0.213  0.00  0.00     0.039 A 
ATOM      3  C2  UNL d   1       1.253   0.662   0.184  0.00  0.00    -0.080 A 
ATOM      4  C3  UNL d   1       1.347   1.382   1.372  0.00  0.00     0.150 A 
ATOM      5  C4  UNL d   1       0.225   1.594   2.167  0.00  0.00    -0.007 A 
ATOM      6  C5  UNL d   1      -1.010   1.085   1.769  0.00  0.00     0.039 A 
ENDROOT
BRANCH   4   7
ATOM      7  O   UNL d   1       2.532   1.904   1.798  0.00  0.00    -0.526 OA
ATOM      8  H5  UNL d   1       3.213   1.702   1.135  0.00  0.00     0.418 HD
ENDBRANCH   4   7
TORSDOF 1
ENDMDL
