MODEL 1
REMARK minimizedAffinity -2.685812
REMARK minimizedRMSD -1
REMARK  1 active torsions:
REMARK  status: ('A' for Active; 'I' for Inactive)
REMARK    1  A    between atoms: C3_4  and  O_7 
ROOT
ATOM      1  C   UNL d   1      -2.413  -1.708  -2.728  0.00  0.00    -0.033 A 
ATOM      2  C1  UNL d   1      -1.486  -0.786  -3.219  0.00  0.00     0.039 A 
ATOM      3  C2  UNL d   1      -0.491  -0.281  -2.380  0.00  0.00    -0.080 A 
ATOM      4  C3  UNL d   1      -0.433  -0.705  -1.055  0.00  0.00     0.150 A 
ATOM      5  C4  UNL d   1      -1.352  -1.626  -0.561  0.00  0.00    -0.007 A 
ATOM      6  C5  UNL d   1      -2.345  -2.129  -1.400  0.00  0.00     0.039 A 
ENDROOT
BRANCH   4   7
ATOM      7  O   UNL d   1       0.517  -0.237  -0.197  0.00  0.00    -0.526 OA
ATOM      8  H5  UNL d   1       1.064   0.413  -0.669  0.00  0.00     0.418 HD
ENDBRANCH   4   7
TORSDOF 1
ENDMDL
