MODEL 1
REMARK minimizedAffinity -3.23044634
REMARK minimizedRMSD -1
REMARK  1 active torsions:
REMARK  status: ('A' for Active; 'I' for Inactive)
REMARK    1  A    between atoms: C3_4  and  O_7 
ROOT
ATOM      1  C   UNL d   1       0.428   1.705   1.843  0.00  0.00    -0.033 A 
ATOM      2  C1  UNL d   1       1.309   1.819   0.765  0.00  0.00     0.039 A 
ATOM      3  C2  UNL d   1       1.272   0.883  -0.271  0.00  0.00    -0.080 A 
ATOM      4  C3  UNL d   1       0.351  -0.159  -0.217  0.00  0.00     0.150 A 
ATOM      5  C4  UNL d   1      -0.532  -0.277   0.851  0.00  0.00    -0.007 A 
ATOM      6  C5  UNL d   1      -0.493   0.658   1.885  0.00  0.00     0.039 A 
ENDROOT
BRANCH   4   7
ATOM      7  O   UNL d   1       0.281  -1.099  -1.202  0.00  0.00    -0.526 OA
ATOM      8  H5  UNL d   1       0.970  -0.907  -1.860  0.00  0.00     0.418 HD
ENDBRANCH   4   7
TORSDOF 1
ENDMDL
