MODEL 1
REMARK minimizedAffinity -1.5573734
REMARK minimizedRMSD -1
REMARK  1 active torsions:
REMARK  status: ('A' for Active; 'I' for Inactive)
REMARK    1  A    between atoms: C3_4  and  O_7 
ROOT
ATOM      1  C   UNL d   1      -1.575  -1.210  -2.981  0.00  0.00    -0.033 A 
ATOM      2  C1  UNL d   1      -1.592  -1.887  -1.760  0.00  0.00     0.039 A 
ATOM      3  C2  UNL d   1      -2.789  -2.407  -1.265  0.00  0.00    -0.080 A 
ATOM      4  C3  UNL d   1      -3.961  -2.243  -1.999  0.00  0.00     0.150 A 
ATOM      5  C4  UNL d   1      -3.950  -1.573  -3.218  0.00  0.00    -0.007 A 
ATOM      6  C5  UNL d   1      -2.753  -1.054  -3.710  0.00  0.00     0.039 A 
ENDROOT
BRANCH   4   7
ATOM      7  O   UNL d   1      -5.154  -2.729  -1.555  0.00  0.00    -0.526 OA
ATOM      8  H5  UNL d   1      -5.014  -3.142  -0.687  0.00  0.00     0.418 HD
ENDBRANCH   4   7
TORSDOF 1
ENDMDL
