MODEL 1
REMARK minimizedAffinity -4.2721324
REMARK minimizedRMSD -1
REMARK  1 active torsions:
REMARK  status: ('A' for Active; 'I' for Inactive)
REMARK    1  A    between atoms: C3_4  and  O_7 
ROOT
ATOM      1  C   UNL d   1      -0.991  -0.669   0.169  0.00  0.00    -0.033 A 
ATOM      2  C1  UNL d   1       0.358  -0.639  -0.191  0.00  0.00     0.039 A 
ATOM      3  C2  UNL d   1       1.183   0.388   0.272  0.00  0.00    -0.080 A 
ATOM      4  C3  UNL d   1       0.648   1.377   1.093  0.00  0.00     0.150 A 
ATOM      5  C4  UNL d   1      -0.694   1.352   1.458  0.00  0.00    -0.007 A 
ATOM      6  C5  UNL d   1      -1.516   0.326   0.994  0.00  0.00     0.039 A 
ENDROOT
BRANCH   4   7
ATOM      7  O   UNL d   1       1.413   2.402   1.565  0.00  0.00    -0.526 OA
ATOM      8  H5  UNL d   1       2.312   2.305   1.207  0.00  0.00     0.418 HD
ENDBRANCH   4   7
TORSDOF 1
ENDMDL
