MODEL 1
REMARK minimizedAffinity -4.08556271
REMARK minimizedRMSD -1
REMARK  1 active torsions:
REMARK  status: ('A' for Active; 'I' for Inactive)
REMARK    1  A    between atoms: C3_4  and  O_7 
ROOT
ATOM      1  C   UNL d   1       1.489   1.341   1.378  0.00  0.00    -0.033 A 
ATOM      2  C1  UNL d   1       0.111   1.451   1.573  0.00  0.00     0.039 A 
ATOM      3  C2  UNL d   1      -0.764   0.611   0.882  0.00  0.00    -0.080 A 
ATOM      4  C3  UNL d   1      -0.248  -0.335  -0.000  0.00  0.00     0.150 A 
ATOM      5  C4  UNL d   1       1.123  -0.453  -0.196  0.00  0.00    -0.007 A 
ATOM      6  C5  UNL d   1       1.995   0.387   0.494  0.00  0.00     0.039 A 
ENDROOT
BRANCH   4   7
ATOM      7  O   UNL d   1      -1.063  -1.174  -0.701  0.00  0.00    -0.526 OA
ATOM      8  H5  UNL d   1      -1.986  -0.958  -0.486  0.00  0.00     0.418 HD
ENDBRANCH   4   7
TORSDOF 1
ENDMDL
