MODEL 1
REMARK minimizedAffinity -0.940265238
REMARK minimizedRMSD -1
REMARK  1 active torsions:
REMARK  status: ('A' for Active; 'I' for Inactive)
REMARK    1  A    between atoms: C1_2  and  C2_3 
ROOT
ATOM      1  C2  UNL d   1       5.494   3.295   3.619  0.00  0.00    -0.073 A 
ATOM      2  C3  UNL d   1       4.565   2.991   2.618  0.00  0.00    -0.002 A 
ATOM      3  C4  UNL d   1       4.109   1.682   2.454  0.00  0.00     0.004 A 
ATOM      4  C5  UNL d   1       4.571   0.667   3.293  0.00  0.00    -0.004 A 
ATOM      5  C6  UNL d   1       5.491   0.954   4.306  0.00  0.00    -0.075 A 
ATOM      6  C7  UNL d   1       6.000  -0.126   5.215  0.00  0.00     0.076 C 
ATOM      7  C8  UNL d   1       5.946   2.270   4.463  0.00  0.00     0.001 A 
ENDROOT
BRANCH   1   8
ATOM      8  C1  UNL d   1       5.985   4.708   3.804  0.00  0.00     0.053 C 
ATOM      9  C   UNL d   1       6.000   5.482   2.495  0.00  0.00     0.018 C 
ENDBRANCH   1   8
TORSDOF 1
ENDMDL
