MODEL 1
REMARK minimizedAffinity -0.0516609512
REMARK minimizedRMSD -1
REMARK  1 active torsions:
REMARK  status: ('A' for Active; 'I' for Inactive)
REMARK    1  A    between atoms: C1_2  and  C2_3 
ROOT
ATOM      1  C2  UNL d   1       5.975  -0.890   4.781  0.00  0.00    -0.073 A 
ATOM      2  C3  UNL d   1       5.910  -0.191   5.992  0.00  0.00    -0.002 A 
ATOM      3  C4  UNL d   1       5.881   1.204   6.000  0.00  0.00     0.004 A 
ATOM      4  C5  UNL d   1       5.911   1.914   4.799  0.00  0.00    -0.004 A 
ATOM      5  C6  UNL d   1       5.965   1.233   3.579  0.00  0.00    -0.075 A 
ATOM      6  C7  UNL d   1       5.999   1.981   2.279  0.00  0.00     0.076 C 
ATOM      7  C8  UNL d   1       5.996  -0.168   3.579  0.00  0.00     0.001 A 
ENDROOT
BRANCH   1   8
ATOM      8  C1  UNL d   1       6.000  -2.397   4.768  0.00  0.00     0.053 C 
ATOM      9  C   UNL d   1       4.763  -2.981   4.104  0.00  0.00     0.018 C 
ENDBRANCH   1   8
TORSDOF 1
ENDMDL
