MODEL 1
REMARK minimizedAffinity -0.678469598
REMARK minimizedRMSD -1
REMARK  1 active torsions:
REMARK  status: ('A' for Active; 'I' for Inactive)
REMARK    1  A    between atoms: C1_2  and  C2_3 
ROOT
ATOM      1  C2  UNL d   1       5.879   2.412   4.337  0.00  0.00    -0.073 A 
ATOM      2  C3  UNL d   1       5.996   1.821   5.600  0.00  0.00    -0.002 A 
ATOM      3  C4  UNL d   1       5.891   0.437   5.743  0.00  0.00     0.004 A 
ATOM      4  C5  UNL d   1       5.676  -0.370   4.626  0.00  0.00    -0.004 A 
ATOM      5  C6  UNL d   1       5.568   0.201   3.354  0.00  0.00    -0.075 A 
ATOM      6  C7  UNL d   1       5.334  -0.653   2.142  0.00  0.00     0.076 C 
ATOM      7  C8  UNL d   1       5.672   1.592   3.218  0.00  0.00     0.001 A 
ENDROOT
BRANCH   1   8
ATOM      8  C1  UNL d   1       5.999   3.905   4.176  0.00  0.00     0.053 C 
ATOM      9  C   UNL d   1       5.999   4.324   2.714  0.00  0.00     0.018 C 
ENDBRANCH   1   8
TORSDOF 1
ENDMDL
