MODEL 1
REMARK minimizedAffinity 0.715051651
REMARK minimizedRMSD -1
REMARK  1 active torsions:
REMARK  status: ('A' for Active; 'I' for Inactive)
REMARK    1  A    between atoms: C1_2  and  C2_3 
ROOT
ATOM      1  C2  UNL d   1       5.508   2.006   3.630  0.00  0.00    -0.073 A 
ATOM      2  C3  UNL d   1       5.761   2.622   4.862  0.00  0.00    -0.002 A 
ATOM      3  C4  UNL d   1       6.000   1.850   5.999  0.00  0.00     0.004 A 
ATOM      4  C5  UNL d   1       5.995   0.457   5.917  0.00  0.00    -0.004 A 
ATOM      5  C6  UNL d   1       5.757  -0.176   4.693  0.00  0.00    -0.075 A 
ATOM      6  C7  UNL d   1       5.746  -1.673   4.587  0.00  0.00     0.076 C 
ATOM      7  C8  UNL d   1       5.515   0.606   3.555  0.00  0.00     0.001 A 
ENDROOT
BRANCH   1   8
ATOM      8  C1  UNL d   1       5.256   2.836   2.398  0.00  0.00     0.053 C 
ATOM      9  C   UNL d   1       5.874   4.221   2.507  0.00  0.00     0.018 C 
ENDBRANCH   1   8
TORSDOF 1
ENDMDL
