MODEL 1
REMARK minimizedAffinity 0.677237749
REMARK minimizedRMSD -1
REMARK  1 active torsions:
REMARK  status: ('A' for Active; 'I' for Inactive)
REMARK    1  A    between atoms: C1_2  and  C2_3 
ROOT
ATOM      1  C2  UNL d   1       5.997   1.986   3.447  0.00  0.00    -0.073 A 
ATOM      2  C3  UNL d   1       5.992   1.732   4.823  0.00  0.00    -0.002 A 
ATOM      3  C4  UNL d   1       5.997   2.789   5.734  0.00  0.00     0.004 A 
ATOM      4  C5  UNL d   1       6.000   4.108   5.281  0.00  0.00    -0.004 A 
ATOM      5  C6  UNL d   1       5.992   4.382   3.909  0.00  0.00    -0.075 A 
ATOM      6  C7  UNL d   1       5.998   5.795   3.405  0.00  0.00     0.076 C 
ATOM      7  C8  UNL d   1       5.990   3.315   3.000  0.00  0.00     0.001 A 
ENDROOT
BRANCH   1   8
ATOM      8  C1  UNL d   1       5.984   0.849   2.458  0.00  0.00     0.053 C 
ATOM      9  C   UNL d   1       5.995  -0.506   3.148  0.00  0.00     0.018 C 
ENDBRANCH   1   8
TORSDOF 1
ENDMDL
