MODEL 1
REMARK minimizedAffinity -1.41361415
REMARK minimizedRMSD -1
REMARK  1 active torsions:
REMARK  status: ('A' for Active; 'I' for Inactive)
REMARK    1  A    between atoms: C1_2  and  C2_3 
ROOT
ATOM      1  C2  UNL d   1       5.976   0.865   4.771  0.00  0.00    -0.073 A 
ATOM      2  C3  UNL d   1       5.990   0.294   3.493  0.00  0.00    -0.002 A 
ATOM      3  C4  UNL d   1       5.997   1.107   2.359  0.00  0.00     0.004 A 
ATOM      4  C5  UNL d   1       5.999   2.495   2.490  0.00  0.00    -0.004 A 
ATOM      5  C6  UNL d   1       5.998   3.084   3.758  0.00  0.00    -0.075 A 
ATOM      6  C7  UNL d   1       5.997   4.577   3.916  0.00  0.00     0.076 C 
ATOM      7  C8  UNL d   1       5.987   2.262   4.893  0.00  0.00     0.001 A 
ENDROOT
BRANCH   1   8
ATOM      8  C1  UNL d   1       5.974  -0.008   5.999  0.00  0.00     0.053 C 
ATOM      9  C   UNL d   1       5.722  -1.469   5.660  0.00  0.00     0.018 C 
ENDBRANCH   1   8
TORSDOF 1
ENDMDL
