MODEL 1
REMARK minimizedAffinity 7.77642441
REMARK minimizedRMSD -1
REMARK  1 active torsions:
REMARK  status: ('A' for Active; 'I' for Inactive)
REMARK    1  A    between atoms: C1_2  and  C2_3 
ROOT
ATOM      1  C2  UNL d   1       5.864   4.861   3.749  0.00  0.00    -0.073 A 
ATOM      2  C3  UNL d   1       5.914   5.652   2.596  0.00  0.00    -0.002 A 
ATOM      3  C4  UNL d   1       5.981   5.057   1.335  0.00  0.00     0.004 A 
ATOM      4  C5  UNL d   1       5.992   3.667   1.214  0.00  0.00    -0.004 A 
ATOM      5  C6  UNL d   1       5.931   2.860   2.355  0.00  0.00    -0.075 A 
ATOM      6  C7  UNL d   1       5.945   1.364   2.242  0.00  0.00     0.076 C 
ATOM      7  C8  UNL d   1       5.866   3.465   3.617  0.00  0.00     0.001 A 
ENDROOT
BRANCH   1   8
ATOM      8  C1  UNL d   1       5.785   5.499   5.112  0.00  0.00     0.053 C 
ATOM      9  C   UNL d   1       4.726   4.846   5.986  0.00  0.00     0.018 C 
ENDBRANCH   1   8
TORSDOF 1
ENDMDL
