MODEL 1
REMARK minimizedAffinity -1.71613455
REMARK minimizedRMSD -1
REMARK  1 active torsions:
REMARK  status: ('A' for Active; 'I' for Inactive)
REMARK    1  A    between atoms: C1_2  and  C2_3 
ROOT
ATOM      1  C2  UNL d   1       5.456   1.521   4.301  0.00  0.00    -0.073 A 
ATOM      2  C3  UNL d   1       4.465   1.147   3.387  0.00  0.00    -0.002 A 
ATOM      3  C4  UNL d   1       3.968   2.073   2.468  0.00  0.00     0.004 A 
ATOM      4  C5  UNL d   1       4.461   3.378   2.450  0.00  0.00    -0.004 A 
ATOM      5  C6  UNL d   1       5.460   3.767   3.349  0.00  0.00    -0.075 A 
ATOM      6  C7  UNL d   1       6.000   5.167   3.344  0.00  0.00     0.076 C 
ATOM      7  C8  UNL d   1       5.952   2.832   4.270  0.00  0.00     0.001 A 
ENDROOT
BRANCH   1   8
ATOM      8  C1  UNL d   1       6.000   0.522   5.291  0.00  0.00     0.053 C 
ATOM      9  C   UNL d   1       5.980  -0.895   4.740  0.00  0.00     0.018 C 
ENDBRANCH   1   8
TORSDOF 1
ENDMDL
