MODEL 1
REMARK minimizedAffinity 15.6981926
REMARK minimizedRMSD -1
REMARK  1 active torsions:
REMARK  status: ('A' for Active; 'I' for Inactive)
REMARK    1  A    between atoms: C1_2  and  C2_3 
ROOT
ATOM      1  C2  UNL d   1      -1.482   4.685   3.867  0.00  0.00    -0.073 A 
ATOM      2  C3  UNL d   1      -0.163   4.540   4.309  0.00  0.00    -0.002 A 
ATOM      3  C4  UNL d   1       0.774   3.866   3.524  0.00  0.00     0.004 A 
ATOM      4  C5  UNL d   1       0.404   3.339   2.287  0.00  0.00    -0.004 A 
ATOM      5  C6  UNL d   1      -0.907   3.484   1.822  0.00  0.00    -0.075 A 
ATOM      6  C7  UNL d   1      -1.322   2.920   0.495  0.00  0.00     0.076 C 
ATOM      7  C8  UNL d   1      -1.843   4.159   2.618  0.00  0.00     0.001 A 
ENDROOT
BRANCH   1   8
ATOM      8  C1  UNL d   1      -2.496   5.417   4.708  0.00  0.00     0.053 C 
ATOM      9  C   UNL d   1      -3.579   4.488   5.232  0.00  0.00     0.018 C 
ENDBRANCH   1   8
TORSDOF 1
ENDMDL
