MODEL 1
REMARK minimizedAffinity 5.85192633
REMARK minimizedRMSD -1
REMARK  1 active torsions:
REMARK  status: ('A' for Active; 'I' for Inactive)
REMARK    1  A    between atoms: C1_2  and  C2_3 
ROOT
ATOM      1  C2  UNL d   1       5.268   1.004   3.806  0.00  0.00    -0.073 A 
ATOM      2  C3  UNL d   1       5.466   0.779   5.173  0.00  0.00    -0.002 A 
ATOM      3  C4  UNL d   1       5.826  -0.487   5.634  0.00  0.00     0.004 A 
ATOM      4  C5  UNL d   1       5.999  -1.539   4.734  0.00  0.00    -0.004 A 
ATOM      5  C6  UNL d   1       5.817  -1.332   3.363  0.00  0.00    -0.075 A 
ATOM      6  C7  UNL d   1       5.997  -2.453   2.383  0.00  0.00     0.076 C 
ATOM      7  C8  UNL d   1       5.453  -0.057   2.908  0.00  0.00     0.001 A 
ENDROOT
BRANCH   1   8
ATOM      8  C1  UNL d   1       4.884   2.372   3.302  0.00  0.00     0.053 C 
ATOM      9  C   UNL d   1       5.985   3.394   3.537  0.00  0.00     0.018 C 
ENDBRANCH   1   8
TORSDOF 1
ENDMDL
