MODEL 1
REMARK minimizedAffinity -2.64678431
REMARK minimizedRMSD -1
REMARK  1 active torsions:
REMARK  status: ('A' for Active; 'I' for Inactive)
REMARK    1  A    between atoms: C1_2  and  C2_3 
ROOT
ATOM      1  C2  UNL d   1       5.320   2.382   3.620  0.00  0.00    -0.073 A 
ATOM      2  C3  UNL d   1       5.667   1.783   2.404  0.00  0.00    -0.002 A 
ATOM      3  C4  UNL d   1       6.000   0.429   2.354  0.00  0.00     0.004 A 
ATOM      4  C5  UNL d   1       5.982  -0.341   3.517  0.00  0.00    -0.004 A 
ATOM      5  C6  UNL d   1       5.626   0.236   4.740  0.00  0.00    -0.075 A 
ATOM      6  C7  UNL d   1       5.605  -0.579   6.000  0.00  0.00     0.076 C 
ATOM      7  C8  UNL d   1       5.296   1.597   4.782  0.00  0.00     0.001 A 
ENDROOT
BRANCH   1   8
ATOM      8  C1  UNL d   1       4.953   3.842   3.678  0.00  0.00     0.053 C 
ATOM      9  C   UNL d   1       5.950   4.710   2.926  0.00  0.00     0.018 C 
ENDBRANCH   1   8
TORSDOF 1
ENDMDL
