MODEL 1
REMARK minimizedAffinity -1.24906075
REMARK minimizedRMSD -1
REMARK  0 active torsions:
REMARK  status: ('A' for Active; 'I' for Inactive)
ROOT
ATOM      1  C   UNL d   1       3.857   3.045   2.180  0.00  0.00     0.124 A 
ATOM      2  C1  UNL d   1       4.031   1.687   2.411  0.00  0.00     0.062 A 
ATOM      3  C2  UNL d   1       3.080   0.774   1.965  0.00  0.00     0.162 A 
ATOM      4  C3  UNL d   1       1.947   1.215   1.282  0.00  0.00    -0.034 A 
ATOM      5  C4  UNL d   1       1.779   2.582   1.054  0.00  0.00     0.162 A 
ATOM      6  C5  UNL d   1       2.732   3.490   1.502  0.00  0.00     0.062 A 
ATOM      7  F   UNL d   1       2.562   4.802   1.277  0.00  0.00    -0.097 F 
ATOM      8  F1  UNL d   1       0.701   3.040   0.400  0.00  0.00    -0.096 F 
ATOM      9  I   UNL d   1       0.523  -0.148   0.613  0.00  0.00    -0.060 I 
ATOM     10  F2  UNL d   1       3.274  -0.532   2.203  0.00  0.00    -0.096 F 
ATOM     11  F3  UNL d   1       5.117   1.254   3.068  0.00  0.00    -0.097 F 
ATOM     12  F4  UNL d   1       4.773   3.922   2.611  0.00  0.00    -0.092 F 
ENDROOT
TORSDOF 0
ENDMDL
