MODEL 1
REMARK minimizedAffinity -5.81185436
REMARK minimizedRMSD -1
REMARK  0 active torsions:
REMARK  status: ('A' for Active; 'I' for Inactive)
ROOT
ATOM      1  C   UNL d   1      -1.654  -0.695   1.712  0.00  0.00     0.124 A 
ATOM      2  C1  UNL d   1      -0.359  -0.692   2.212  0.00  0.00     0.062 A 
ATOM      3  C2  UNL d   1       0.715  -0.979   1.374  0.00  0.00     0.162 A 
ATOM      4  C3  UNL d   1       0.499  -1.271   0.028  0.00  0.00    -0.034 A 
ATOM      5  C4  UNL d   1      -0.807  -1.273  -0.468  0.00  0.00     0.162 A 
ATOM      6  C5  UNL d   1      -1.877  -0.985   0.373  0.00  0.00     0.062 A 
ATOM      7  F   UNL d   1      -3.127  -0.989  -0.111  0.00  0.00    -0.097 F 
ATOM      8  F1  UNL d   1      -1.050  -1.550  -1.757  0.00  0.00    -0.096 F 
ATOM      9  I   UNL d   1       2.102  -1.701  -1.228  0.00  0.00    -0.060 I 
ATOM     10  F2  UNL d   1       1.955  -0.969   1.884  0.00  0.00    -0.096 F 
ATOM     11  F3  UNL d   1      -0.142  -0.413   3.505  0.00  0.00    -0.097 F 
ATOM     12  F4  UNL d   1      -2.686  -0.419   2.520  0.00  0.00    -0.092 F 
ENDROOT
TORSDOF 0
ENDMDL
