MODEL 1
REMARK minimizedAffinity -4.66239786
REMARK minimizedRMSD -1
REMARK  0 active torsions:
REMARK  status: ('A' for Active; 'I' for Inactive)
ROOT
ATOM      1  C   UNL d   1       1.326  -1.636   1.172  0.00  0.00     0.124 A 
ATOM      2  C1  UNL d   1       0.708  -1.137   2.310  0.00  0.00     0.062 A 
ATOM      3  C2  UNL d   1      -0.578  -0.611   2.235  0.00  0.00     0.162 A 
ATOM      4  C3  UNL d   1      -1.257  -0.583   1.017  0.00  0.00    -0.034 A 
ATOM      5  C4  UNL d   1      -0.629  -1.086  -0.124  0.00  0.00     0.162 A 
ATOM      6  C5  UNL d   1       0.657  -1.611  -0.044  0.00  0.00     0.062 A 
ATOM      7  F   UNL d   1       1.252  -2.093  -1.145  0.00  0.00    -0.097 F 
ATOM      8  F1  UNL d   1      -1.253  -1.075  -1.311  0.00  0.00    -0.096 F 
ATOM      9  I   UNL d   1      -3.181   0.202   0.900  0.00  0.00    -0.060 I 
ATOM     10  F2  UNL d   1      -1.151  -0.135   3.351  0.00  0.00    -0.096 F 
ATOM     11  F3  UNL d   1       1.353  -1.159   3.486  0.00  0.00    -0.097 F 
ATOM     12  F4  UNL d   1       2.564  -2.140   1.247  0.00  0.00    -0.092 F 
ENDROOT
TORSDOF 0
ENDMDL
