MODEL 1
REMARK minimizedAffinity 4.44570398
REMARK minimizedRMSD -1
REMARK  0 active torsions:
REMARK  status: ('A' for Active; 'I' for Inactive)
ROOT
ATOM      1  C   UNL d   1       0.002  -1.866  -2.944  0.00  0.00     0.124 A 
ATOM      2  C1  UNL d   1      -0.537  -0.993  -3.879  0.00  0.00     0.062 A 
ATOM      3  C2  UNL d   1       0.300  -0.198  -4.658  0.00  0.00     0.162 A 
ATOM      4  C3  UNL d   1       1.684  -0.275  -4.506  0.00  0.00    -0.034 A 
ATOM      5  C4  UNL d   1       2.218  -1.155  -3.563  0.00  0.00     0.162 A 
ATOM      6  C5  UNL d   1       1.378  -1.947  -2.787  0.00  0.00     0.062 A 
ATOM      7  F   UNL d   1       1.900  -2.790  -1.885  0.00  0.00    -0.097 F 
ATOM      8  F1  UNL d   1       3.545  -1.253  -3.392  0.00  0.00    -0.096 F 
ATOM      9  I   UNL d   1       2.938   0.911  -5.669  0.00  0.00    -0.060 I 
ATOM     10  F2  UNL d   1      -0.248   0.637  -5.553  0.00  0.00    -0.096 F 
ATOM     11  F3  UNL d   1      -1.866  -0.913  -4.032  0.00  0.00    -0.097 F 
ATOM     12  F4  UNL d   1      -0.805  -2.629  -2.195  0.00  0.00    -0.092 F 
ENDROOT
TORSDOF 0
ENDMDL
