MODEL 1
REMARK minimizedAffinity -1.39630342
REMARK minimizedRMSD -1
REMARK  0 active torsions:
REMARK  status: ('A' for Active; 'I' for Inactive)
ROOT
ATOM      1  C   UNL d   1       1.261  -1.889   1.028  0.00  0.00     0.124 A 
ATOM      2  C1  UNL d   1       0.376  -1.993  -0.036  0.00  0.00     0.062 A 
ATOM      3  C2  UNL d   1      -0.877  -1.392   0.033  0.00  0.00     0.162 A 
ATOM      4  C3  UNL d   1      -1.254  -0.680   1.172  0.00  0.00    -0.034 A 
ATOM      5  C4  UNL d   1      -0.359  -0.580   2.239  0.00  0.00     0.162 A 
ATOM      6  C5  UNL d   1       0.892  -1.182   2.164  0.00  0.00     0.062 A 
ATOM      7  F   UNL d   1       1.746  -1.080   3.194  0.00  0.00    -0.097 F 
ATOM      8  F1  UNL d   1      -0.689   0.098   3.349  0.00  0.00    -0.096 F 
ATOM      9  I   UNL d   1      -3.127   0.220   1.280  0.00  0.00    -0.060 I 
ATOM     10  F2  UNL d   1      -1.712  -1.510  -1.010  0.00  0.00    -0.096 F 
ATOM     11  F3  UNL d   1       0.729  -2.676  -1.135  0.00  0.00    -0.097 F 
ATOM     12  F4  UNL d   1       2.466  -2.469   0.959  0.00  0.00    -0.092 F 
ENDROOT
TORSDOF 0
ENDMDL
