MODEL 1
REMARK minimizedAffinity -1.77019238
REMARK minimizedRMSD -1
REMARK  0 active torsions:
REMARK  status: ('A' for Active; 'I' for Inactive)
ROOT
ATOM      1  O1  BZF d   1       0.527   1.697   2.173  0.00  0.00    -0.204 OA
ATOM      2  C2  BZF d   1       0.872   0.360   2.211  0.00  0.00     0.174 A 
ATOM      3  C3  BZF d   1       0.647  -0.226   1.017  0.00  0.00    -0.012 A 
ATOM      4  C3A BZF d   1       0.217   0.830   0.154  0.00  0.00    -0.107 A 
ATOM      5  C4  BZF d   1      -0.141   0.880  -1.163  0.00  0.00     0.055 A 
ATOM      6  C5  BZF d   1      -0.582   2.055  -1.684  0.00  0.00    -0.016 A 
ATOM      7  C6  BZF d   1      -0.683   3.197  -0.917  0.00  0.00     0.022 A 
ATOM      8  C7  BZF d   1      -0.334   3.198   0.393  0.00  0.00     0.029 A 
ATOM      9  C7A BZF d   1       0.143   2.020   0.914  0.00  0.00     0.058 A 
ENDROOT
TORSDOF 0
ENDMDL
