MODEL 1
REMARK minimizedAffinity 2.84837103
REMARK minimizedRMSD -1
REMARK  0 active torsions:
REMARK  status: ('A' for Active; 'I' for Inactive)
ROOT
ATOM      1  O1  BZF d   1       0.328   0.942  -1.026  0.00  0.00    -0.204 OA
ATOM      2  C2  BZF d   1       0.226  -0.395  -1.357  0.00  0.00     0.174 A 
ATOM      3  C3  BZF d   1       0.427  -1.173  -0.275  0.00  0.00    -0.012 A 
ATOM      4  C3A BZF d   1       0.579  -0.264   0.820  0.00  0.00    -0.107 A 
ATOM      5  C4  BZF d   1       0.789  -0.433   2.158  0.00  0.00     0.055 A 
ATOM      6  C5  BZF d   1       0.965   0.663   2.943  0.00  0.00    -0.016 A 
ATOM      7  C6  BZF d   1       0.942   1.940   2.421  0.00  0.00     0.022 A 
ATOM      8  C7  BZF d   1       0.733   2.158   1.100  0.00  0.00     0.029 A 
ATOM      9  C7A BZF d   1       0.522   1.054   0.310  0.00  0.00     0.058 A 
ENDROOT
TORSDOF 0
ENDMDL
