MODEL 1
REMARK minimizedAffinity 6.94427347
REMARK minimizedRMSD -1
REMARK  0 active torsions:
REMARK  status: ('A' for Active; 'I' for Inactive)
ROOT
ATOM      1  O1  BZF d   1       0.940   2.563   3.529  0.00  0.00    -0.204 OA
ATOM      2  C2  BZF d   1       0.599   1.227   3.621  0.00  0.00     0.174 A 
ATOM      3  C3  BZF d   1       0.031   0.798   2.475  0.00  0.00    -0.012 A 
ATOM      4  C3A BZF d   1       0.101   1.913   1.580  0.00  0.00    -0.107 A 
ATOM      5  C4  BZF d   1      -0.286   2.102   0.284  0.00  0.00     0.055 A 
ATOM      6  C5  BZF d   1      -0.143   3.332  -0.275  0.00  0.00    -0.016 A 
ATOM      7  C6  BZF d   1       0.378   4.396   0.434  0.00  0.00     0.022 A 
ATOM      8  C7  BZF d   1       0.780   4.255   1.720  0.00  0.00     0.029 A 
ATOM      9  C7A BZF d   1       0.667   3.005   2.278  0.00  0.00     0.058 A 
ENDROOT
TORSDOF 0
ENDMDL
