MODEL 1
REMARK minimizedAffinity 11.6011705
REMARK minimizedRMSD -1
REMARK  0 active torsions:
REMARK  status: ('A' for Active; 'I' for Inactive)
ROOT
ATOM      1  O1  BZF d   1      -5.078   0.008   3.711  0.00  0.00    -0.204 OA
ATOM      2  C2  BZF d   1      -4.897   0.588   4.952  0.00  0.00     0.174 A 
ATOM      3  C3  BZF d   1      -5.147  -0.299   5.936  0.00  0.00    -0.012 A 
ATOM      4  C3A BZF d   1      -5.418  -1.535   5.269  0.00  0.00    -0.107 A 
ATOM      5  C4  BZF d   1      -5.721  -2.792   5.708  0.00  0.00     0.055 A 
ATOM      6  C5  BZF d   1      -5.999  -3.761   4.796  0.00  0.00    -0.016 A 
ATOM      7  C6  BZF d   1      -5.989  -3.506   3.440  0.00  0.00     0.022 A 
ATOM      8  C7  BZF d   1      -5.690  -2.276   2.957  0.00  0.00     0.029 A 
ATOM      9  C7A BZF d   1      -5.376  -1.304   3.875  0.00  0.00     0.058 A 
ENDROOT
TORSDOF 0
ENDMDL
