MODEL 1
REMARK minimizedAffinity 18.0521355
REMARK minimizedRMSD -1
REMARK  0 active torsions:
REMARK  status: ('A' for Active; 'I' for Inactive)
ROOT
ATOM      1  O1  BZF d   1      -0.071   0.863   1.166  0.00  0.00    -0.204 OA
ATOM      2  C2  BZF d   1      -0.017  -0.041   2.210  0.00  0.00     0.174 A 
ATOM      3  C3  BZF d   1       0.690   0.463   3.242  0.00  0.00    -0.012 A 
ATOM      4  C3A BZF d   1       1.025   1.798   2.853  0.00  0.00    -0.107 A 
ATOM      5  C4  BZF d   1       1.708   2.811   3.463  0.00  0.00     0.055 A 
ATOM      6  C5  BZF d   1       1.923   3.967   2.783  0.00  0.00    -0.016 A 
ATOM      7  C6  BZF d   1       1.475   4.143   1.490  0.00  0.00     0.022 A 
ATOM      8  C7  BZF d   1       0.789   3.169   0.844  0.00  0.00     0.029 A 
ATOM      9  C7A BZF d   1       0.541   2.011   1.541  0.00  0.00     0.058 A 
ENDROOT
TORSDOF 0
ENDMDL
