MODEL 1
REMARK minimizedAffinity 8.48943233
REMARK minimizedRMSD -1
REMARK  0 active torsions:
REMARK  status: ('A' for Active; 'I' for Inactive)
ROOT
ATOM      1  O1  BZF d   1      -0.355  -1.734   0.390  0.00  0.00    -0.204 OA
ATOM      2  C2  BZF d   1       0.758  -1.097   0.903  0.00  0.00     0.174 A 
ATOM      3  C3  BZF d   1       1.054   0.004   0.183  0.00  0.00    -0.012 A 
ATOM      4  C3A BZF d   1       0.010   0.110  -0.789  0.00  0.00    -0.107 A 
ATOM      5  C4  BZF d   1      -0.261   1.006  -1.783  0.00  0.00     0.055 A 
ATOM      6  C5  BZF d   1      -1.321   0.783  -2.603  0.00  0.00    -0.016 A 
ATOM      7  C6  BZF d   1      -2.127  -0.327  -2.462  0.00  0.00     0.022 A 
ATOM      8  C7  BZF d   1      -1.901  -1.242  -1.488  0.00  0.00     0.029 A 
ATOM      9  C7A BZF d   1      -0.851  -1.002  -0.637  0.00  0.00     0.058 A 
ENDROOT
TORSDOF 0
ENDMDL
