MODEL 1
REMARK minimizedAffinity 8.15880489
REMARK minimizedRMSD -1
REMARK  0 active torsions:
REMARK  status: ('A' for Active; 'I' for Inactive)
ROOT
ATOM      1  O1  BZF d   1      -1.253  -4.949  -0.751  0.00  0.00    -0.204 OA
ATOM      2  C2  BZF d   1      -1.516  -3.718  -1.320  0.00  0.00     0.174 A 
ATOM      3  C3  BZF d   1      -0.415  -2.940  -1.309  0.00  0.00    -0.012 A 
ATOM      4  C3A BZF d   1       0.625  -3.767  -0.777  0.00  0.00    -0.107 A 
ATOM      5  C4  BZF d   1       1.953  -3.564  -0.533  0.00  0.00     0.055 A 
ATOM      6  C5  BZF d   1       2.674  -4.552   0.060  0.00  0.00    -0.016 A 
ATOM      7  C6  BZF d   1       2.098  -5.751   0.427  0.00  0.00     0.022 A 
ATOM      8  C7  BZF d   1       0.785  -6.000   0.201  0.00  0.00     0.029 A 
ATOM      9  C7A BZF d   1       0.062  -5.016  -0.428  0.00  0.00     0.058 A 
ENDROOT
TORSDOF 0
ENDMDL
