MODEL 1
REMARK minimizedAffinity -0.808860719
REMARK minimizedRMSD -1
REMARK  0 active torsions:
REMARK  status: ('A' for Active; 'I' for Inactive)
ROOT
ATOM      1  O1  BZF d   1      -1.001  -0.297  -2.877  0.00  0.00    -0.204 OA
ATOM      2  C2  BZF d   1      -2.315   0.095  -2.708  0.00  0.00     0.174 A 
ATOM      3  C3  BZF d   1      -2.583   0.319  -1.405  0.00  0.00    -0.012 A 
ATOM      4  C3A BZF d   1      -1.335   0.141  -0.728  0.00  0.00    -0.107 A 
ATOM      5  C4  BZF d   1      -0.954   0.244   0.579  0.00  0.00     0.055 A 
ATOM      6  C5  BZF d   1       0.325  -0.067   0.920  0.00  0.00    -0.016 A 
ATOM      7  C6  BZF d   1       1.245  -0.487  -0.018  0.00  0.00     0.022 A 
ATOM      8  C7  BZF d   1       0.914  -0.599  -1.327  0.00  0.00     0.029 A 
ATOM      9  C7A BZF d   1      -0.368  -0.255  -1.680  0.00  0.00     0.058 A 
ENDROOT
TORSDOF 0
ENDMDL
