MODEL 1
REMARK minimizedAffinity -1.29683578
REMARK minimizedRMSD -1
REMARK  0 active torsions:
REMARK  status: ('A' for Active; 'I' for Inactive)
ROOT
ATOM      1  O1  BZF d   1       0.143   2.572  -1.265  0.00  0.00    -0.204 OA
ATOM      2  C2  BZF d   1       0.269   3.940  -1.123  0.00  0.00     0.174 A 
ATOM      3  C3  BZF d   1       0.386   4.277   0.177  0.00  0.00    -0.012 A 
ATOM      4  C3A BZF d   1       0.422   3.035   0.886  0.00  0.00    -0.107 A 
ATOM      5  C4  BZF d   1       0.543   2.711   2.207  0.00  0.00     0.055 A 
ATOM      6  C5  BZF d   1       0.469   1.405   2.577  0.00  0.00    -0.016 A 
ATOM      7  C6  BZF d   1       0.271   0.400   1.653  0.00  0.00     0.022 A 
ATOM      8  C7  BZF d   1       0.150   0.672   0.331  0.00  0.00     0.029 A 
ATOM      9  C7A BZF d   1       0.257   1.987  -0.049  0.00  0.00     0.058 A 
ENDROOT
TORSDOF 0
ENDMDL
