MODEL 1
REMARK minimizedAffinity 7.55364943
REMARK minimizedRMSD -1
REMARK  0 active torsions:
REMARK  status: ('A' for Active; 'I' for Inactive)
ROOT
ATOM      1  N1  IND d   1       1.621  -4.834  -0.000  0.00  0.00    -0.196 N 
ATOM      2  C2  IND d   1       1.878  -6.000  -0.666  0.00  0.00     0.054 A 
ATOM      3  C3  IND d   1       3.141  -5.999  -1.147  0.00  0.00    -0.031 A 
ATOM      4  C4  IND d   1       4.994  -4.233  -0.873  0.00  0.00     0.051 A 
ATOM      5  C5  IND d   1       5.224  -2.981  -0.377  0.00  0.00    -0.031 A 
ATOM      6  C6  IND d   1       4.246  -2.269   0.286  0.00  0.00     0.015 A 
ATOM      7  C7  IND d   1       2.999  -2.789   0.489  0.00  0.00    -0.016 A 
ATOM      8  C8  IND d   1       2.760  -4.058  -0.020  0.00  0.00    -0.047 A 
ATOM      9  C9  IND d   1       3.736  -4.768  -0.731  0.00  0.00    -0.096 A 
ATOM     10  HN1 IND d   1       0.875  -4.620   0.369  0.00  0.00     0.298 HD
ENDROOT
TORSDOF 0
ENDMDL
