MODEL 1
REMARK minimizedAffinity 6.43001413
REMARK minimizedRMSD -1
REMARK  0 active torsions:
REMARK  status: ('A' for Active; 'I' for Inactive)
ROOT
ATOM      1  N1  IND d   1       1.152   4.223   0.095  0.00  0.00    -0.196 N 
ATOM      2  C2  IND d   1       0.197   5.043  -0.437  0.00  0.00     0.054 A 
ATOM      3  C3  IND d   1      -1.028   4.695   0.017  0.00  0.00    -0.031 A 
ATOM      4  C4  IND d   1      -1.686   2.878   1.718  0.00  0.00     0.051 A 
ATOM      5  C5  IND d   1      -1.165   1.850   2.452  0.00  0.00    -0.031 A 
ATOM      6  C6  IND d   1       0.183   1.556   2.439  0.00  0.00     0.015 A 
ATOM      7  C7  IND d   1       1.066   2.289   1.698  0.00  0.00    -0.016 A 
ATOM      8  C8  IND d   1       0.539   3.330   0.946  0.00  0.00    -0.047 A 
ATOM      9  C9  IND d   1      -0.834   3.606   0.922  0.00  0.00    -0.096 A 
ATOM     10  HN1 IND d   1       1.994   4.258  -0.074  0.00  0.00     0.298 HD
ENDROOT
TORSDOF 0
ENDMDL
