MODEL 1
REMARK minimizedAffinity 10.9902401
REMARK minimizedRMSD -1
REMARK  0 active torsions:
REMARK  status: ('A' for Active; 'I' for Inactive)
ROOT
ATOM      1  N1  IND d   1      -1.152  -1.194  -1.857  0.00  0.00    -0.196 N 
ATOM      2  C2  IND d   1      -0.895  -0.994  -3.185  0.00  0.00     0.054 A 
ATOM      3  C3  IND d   1      -1.608   0.056  -3.649  0.00  0.00    -0.031 A 
ATOM      4  C4  IND d   1      -3.180   1.654  -2.382  0.00  0.00     0.051 A 
ATOM      5  C5  IND d   1      -3.758   1.852  -1.160  0.00  0.00    -0.031 A 
ATOM      6  C6  IND d   1      -3.489   1.030  -0.085  0.00  0.00     0.015 A 
ATOM      7  C7  IND d   1      -2.619  -0.019  -0.190  0.00  0.00    -0.016 A 
ATOM      8  C8  IND d   1      -2.036  -0.227  -1.431  0.00  0.00    -0.047 A 
ATOM      9  C9  IND d   1      -2.338   0.578  -2.537  0.00  0.00    -0.096 A 
ATOM     10  HN1 IND d   1      -0.817  -1.818  -1.370  0.00  0.00     0.298 HD
ENDROOT
TORSDOF 0
ENDMDL
