MODEL 1
REMARK minimizedAffinity 5.78727579
REMARK minimizedRMSD -1
REMARK  0 active torsions:
REMARK  status: ('A' for Active; 'I' for Inactive)
ROOT
ATOM      1  N1  IND d   1       0.512   0.188   4.192  0.00  0.00    -0.196 N 
ATOM      2  C2  IND d   1       1.453  -0.758   3.895  0.00  0.00     0.054 A 
ATOM      3  C3  IND d   1       1.889  -0.604   2.624  0.00  0.00    -0.031 A 
ATOM      4  C4  IND d   1       1.267   1.192   0.888  0.00  0.00     0.051 A 
ATOM      5  C5  IND d   1       0.423   2.248   0.685  0.00  0.00    -0.031 A 
ATOM      6  C6  IND d   1      -0.450   2.681   1.661  0.00  0.00     0.015 A 
ATOM      7  C7  IND d   1      -0.504   2.079   2.887  0.00  0.00    -0.016 A 
ATOM      8  C8  IND d   1       0.346   1.003   3.094  0.00  0.00    -0.047 A 
ATOM      9  C9  IND d   1       1.205   0.532   2.092  0.00  0.00    -0.096 A 
ATOM     10  HN1 IND d   1       0.093   0.261   4.939  0.00  0.00     0.298 HD
ENDROOT
TORSDOF 0
ENDMDL
