MODEL 1
REMARK minimizedAffinity 3.62885189
REMARK minimizedRMSD -1
REMARK  0 active torsions:
REMARK  status: ('A' for Active; 'I' for Inactive)
ROOT
ATOM      1  N1  IND d   1       0.808   2.720  -0.098  0.00  0.00    -0.196 N 
ATOM      2  C2  IND d   1      -0.130   3.610   0.344  0.00  0.00     0.054 A 
ATOM      3  C3  IND d   1      -1.375   3.136   0.109  0.00  0.00    -0.031 A 
ATOM      4  C4  IND d   1      -2.104   0.881  -0.896  0.00  0.00     0.051 A 
ATOM      5  C5  IND d   1      -1.606  -0.248  -1.482  0.00  0.00    -0.031 A 
ATOM      6  C6  IND d   1      -0.250  -0.452  -1.637  0.00  0.00     0.015 A 
ATOM      7  C7  IND d   1       0.663   0.466  -1.200  0.00  0.00    -0.016 A 
ATOM      8  C8  IND d   1       0.160   1.618  -0.611  0.00  0.00    -0.047 A 
ATOM      9  C9  IND d   1      -1.216   1.849  -0.489  0.00  0.00    -0.096 A 
ATOM     10  HN1 IND d   1       1.660   2.830  -0.062  0.00  0.00     0.298 HD
ENDROOT
TORSDOF 0
ENDMDL
