MODEL 1
REMARK minimizedAffinity 6.44041061
REMARK minimizedRMSD -1
REMARK  0 active torsions:
REMARK  status: ('A' for Active; 'I' for Inactive)
ROOT
ATOM      1  N1  IND d   1       0.154  -1.313   5.537  0.00  0.00    -0.196 N 
ATOM      2  C2  IND d   1       1.342  -1.939   5.790  0.00  0.00     0.054 A 
ATOM      3  C3  IND d   1       2.325  -1.407   5.030  0.00  0.00    -0.031 A 
ATOM      4  C4  IND d   1       2.230   0.566   3.379  0.00  0.00     0.051 A 
ATOM      5  C5  IND d   1       1.356   1.434   2.786  0.00  0.00    -0.031 A 
ATOM      6  C6  IND d   1       0.010   1.432   3.089  0.00  0.00     0.015 A 
ATOM      7  C7  IND d   1      -0.513   0.566   4.007  0.00  0.00    -0.016 A 
ATOM      8  C8  IND d   1       0.370  -0.321   4.605  0.00  0.00    -0.047 A 
ATOM      9  C9  IND d   1       1.730  -0.353   4.271  0.00  0.00    -0.096 A 
ATOM     10  HN1 IND d   1      -0.602  -1.506   5.898  0.00  0.00     0.298 HD
ENDROOT
TORSDOF 0
ENDMDL
