MODEL 1
REMARK minimizedAffinity 14.8825073
REMARK minimizedRMSD -1
REMARK  0 active torsions:
REMARK  status: ('A' for Active; 'I' for Inactive)
ROOT
ATOM      1  N1  IND d   1       3.901  -1.024  -0.036  0.00  0.00    -0.196 N 
ATOM      2  C2  IND d   1       2.808  -1.341   0.721  0.00  0.00     0.054 A 
ATOM      3  C3  IND d   1       2.675  -2.683   0.816  0.00  0.00    -0.031 A 
ATOM      4  C4  IND d   1       4.193  -4.547  -0.107  0.00  0.00     0.051 A 
ATOM      5  C5  IND d   1       5.291  -4.750  -0.894  0.00  0.00    -0.031 A 
ATOM      6  C6  IND d   1       5.998  -3.701  -1.444  0.00  0.00     0.015 A 
ATOM      7  C7  IND d   1       5.638  -2.403  -1.217  0.00  0.00    -0.016 A 
ATOM      8  C8  IND d   1       4.519  -2.192  -0.424  0.00  0.00    -0.047 A 
ATOM      9  C9  IND d   1       3.772  -3.254   0.102  0.00  0.00    -0.096 A 
ATOM     10  HN1 IND d   1       4.159  -0.229  -0.236  0.00  0.00     0.298 HD
ENDROOT
TORSDOF 0
ENDMDL
