MODEL 1
REMARK minimizedAffinity 12.7796021
REMARK minimizedRMSD -1
REMARK  0 active torsions:
REMARK  status: ('A' for Active; 'I' for Inactive)
ROOT
ATOM      1  N1  IND d   1       0.616  -0.096   4.362  0.00  0.00    -0.196 N 
ATOM      2  C2  IND d   1       1.366  -0.868   5.205  0.00  0.00     0.054 A 
ATOM      3  C3  IND d   1       2.633  -0.400   5.267  0.00  0.00    -0.031 A 
ATOM      4  C4  IND d   1       3.668   1.675   4.149  0.00  0.00     0.051 A 
ATOM      5  C5  IND d   1       3.385   2.672   3.258  0.00  0.00    -0.031 A 
ATOM      6  C6  IND d   1       2.139   2.802   2.681  0.00  0.00     0.015 A 
ATOM      7  C7  IND d   1       1.121   1.942   2.982  0.00  0.00    -0.016 A 
ATOM      8  C8  IND d   1       1.407   0.924   3.880  0.00  0.00    -0.047 A 
ATOM      9  C9  IND d   1       2.682   0.761   4.437  0.00  0.00    -0.096 A 
ATOM     10  HN1 IND d   1      -0.211  -0.226   4.166  0.00  0.00     0.298 HD
ENDROOT
TORSDOF 0
ENDMDL
