MODEL 1
REMARK minimizedAffinity 8.09536266
REMARK minimizedRMSD -1
REMARK  0 active torsions:
REMARK  status: ('A' for Active; 'I' for Inactive)
ROOT
ATOM      1  N1  IND d   1       1.787  -6.000  -1.546  0.00  0.00    -0.196 N 
ATOM      2  C2  IND d   1       0.872  -5.999  -2.561  0.00  0.00     0.054 A 
ATOM      3  C3  IND d   1       1.458  -5.629  -3.722  0.00  0.00    -0.031 A 
ATOM      4  C4  IND d   1       3.926  -5.079  -4.206  0.00  0.00     0.051 A 
ATOM      5  C5  IND d   1       5.133  -4.910  -3.588  0.00  0.00    -0.031 A 
ATOM      6  C6  IND d   1       5.290  -5.101  -2.230  0.00  0.00     0.015 A 
ATOM      7  C7  IND d   1       4.243  -5.482  -1.439  0.00  0.00    -0.016 A 
ATOM      8  C8  IND d   1       3.015  -5.649  -2.062  0.00  0.00    -0.047 A 
ATOM      9  C9  IND d   1       2.840  -5.415  -3.432  0.00  0.00    -0.096 A 
ATOM     10  HN1 IND d   1       1.623  -6.188  -0.723  0.00  0.00     0.298 HD
ENDROOT
TORSDOF 0
ENDMDL
