MODEL 1
REMARK minimizedAffinity 20.5591831
REMARK minimizedRMSD -1
REMARK  0 active torsions:
REMARK  status: ('A' for Active; 'I' for Inactive)
ROOT
ATOM      1  C   UNL d   1      -1.458   2.453   1.084  0.00  0.00     0.124 A 
ATOM      2  C1  UNL d   1      -2.716   1.908   0.865  0.00  0.00     0.062 A 
ATOM      3  C2  UNL d   1      -2.844   0.582   0.463  0.00  0.00     0.162 A 
ATOM      4  C3  UNL d   1      -1.710  -0.210   0.278  0.00  0.00    -0.034 A 
ATOM      5  C4  UNL d   1      -0.449   0.346   0.499  0.00  0.00     0.162 A 
ATOM      6  C5  UNL d   1      -0.326   1.672   0.901  0.00  0.00     0.062 A 
ATOM      7  F   UNL d   1       0.890   2.197   1.112  0.00  0.00    -0.097 F 
ATOM      8  F1  UNL d   1       0.662  -0.387   0.330  0.00  0.00    -0.096 F 
ATOM      9  I   UNL d   1      -1.897  -2.193  -0.324  0.00  0.00    -0.060 I 
ATOM     10  F2  UNL d   1      -4.071   0.082   0.259  0.00  0.00    -0.096 F 
ATOM     11  F3  UNL d   1      -3.811   2.661   1.041  0.00  0.00    -0.097 F 
ATOM     12  F4  UNL d   1      -1.338   3.730   1.470  0.00  0.00    -0.092 F 
ENDROOT
TORSDOF 0
ENDMDL
