MODEL 1
REMARK minimizedAffinity 8.54101753
REMARK minimizedRMSD -1
REMARK  0 active torsions:
REMARK  status: ('A' for Active; 'I' for Inactive)
ROOT
ATOM      1  C   UNL d   1      -1.306   1.670   0.555  0.00  0.00     0.124 A 
ATOM      2  C1  UNL d   1      -1.524   2.702   1.458  0.00  0.00     0.062 A 
ATOM      3  C2  UNL d   1      -0.454   3.267   2.146  0.00  0.00     0.162 A 
ATOM      4  C3  UNL d   1       0.844   2.802   1.934  0.00  0.00    -0.034 A 
ATOM      5  C4  UNL d   1       1.054   1.763   1.026  0.00  0.00     0.162 A 
ATOM      6  C5  UNL d   1      -0.018   1.202   0.340  0.00  0.00     0.062 A 
ATOM      7  F   UNL d   1       0.194   0.205  -0.531  0.00  0.00    -0.097 F 
ATOM      8  F1  UNL d   1       2.289   1.291   0.798  0.00  0.00    -0.096 F 
ATOM      9  I   UNL d   1       2.446   3.643   2.962  0.00  0.00    -0.060 I 
ATOM     10  F2  UNL d   1      -0.693   4.263   3.012  0.00  0.00    -0.096 F 
ATOM     11  F3  UNL d   1      -2.768   3.156   1.668  0.00  0.00    -0.097 F 
ATOM     12  F4  UNL d   1      -2.338   1.128  -0.105  0.00  0.00    -0.092 F 
ENDROOT
TORSDOF 0
ENDMDL
