MODEL 1
REMARK minimizedAffinity 16.4968033
REMARK minimizedRMSD -1
REMARK  0 active torsions:
REMARK  status: ('A' for Active; 'I' for Inactive)
ROOT
ATOM      1  C   UNL d   1       0.204   3.272   2.692  0.00  0.00     0.124 A 
ATOM      2  C1  UNL d   1      -0.578   2.580   1.778  0.00  0.00     0.062 A 
ATOM      3  C2  UNL d   1       0.015   1.932   0.698  0.00  0.00     0.162 A 
ATOM      4  C3  UNL d   1       1.399   1.972   0.527  0.00  0.00    -0.034 A 
ATOM      5  C4  UNL d   1       2.179   2.671   1.451  0.00  0.00     0.162 A 
ATOM      6  C5  UNL d   1       1.581   3.317   2.528  0.00  0.00     0.062 A 
ATOM      7  F   UNL d   1       2.338   3.985   3.410  0.00  0.00    -0.097 F 
ATOM      8  F1  UNL d   1       3.512   2.729   1.317  0.00  0.00    -0.096 F 
ATOM      9  I   UNL d   1       2.290   1.004  -1.085  0.00  0.00    -0.060 I 
ATOM     10  F2  UNL d   1      -0.765   1.271  -0.170  0.00  0.00    -0.096 F 
ATOM     11  F3  UNL d   1      -1.909   2.536   1.934  0.00  0.00    -0.097 F 
ATOM     12  F4  UNL d   1      -0.370   3.896   3.729  0.00  0.00    -0.092 F 
ENDROOT
TORSDOF 0
ENDMDL
