MODEL 1
REMARK minimizedAffinity 15.336154
REMARK minimizedRMSD -1
REMARK  0 active torsions:
REMARK  status: ('A' for Active; 'I' for Inactive)
ROOT
ATOM      1  C   UNL d   1       1.743   0.432  -0.338  0.00  0.00     0.124 A 
ATOM      2  C1  UNL d   1       1.931  -0.447  -1.396  0.00  0.00     0.062 A 
ATOM      3  C2  UNL d   1       0.926  -1.343  -1.749  0.00  0.00     0.162 A 
ATOM      4  C3  UNL d   1      -0.278  -1.364  -1.045  0.00  0.00    -0.034 A 
ATOM      5  C4  UNL d   1      -0.460  -0.477   0.018  0.00  0.00     0.162 A 
ATOM      6  C5  UNL d   1       0.548   0.416   0.368  0.00  0.00     0.062 A 
ATOM      7  F   UNL d   1       0.364   1.264   1.390  0.00  0.00    -0.097 F 
ATOM      8  F1  UNL d   1      -1.605  -0.471   0.717  0.00  0.00    -0.096 F 
ATOM      9  I   UNL d   1      -1.783  -2.701  -1.570  0.00  0.00    -0.060 I 
ATOM     10  F2  UNL d   1       1.136  -2.181  -2.775  0.00  0.00    -0.096 F 
ATOM     11  F3  UNL d   1       3.085  -0.434  -2.078  0.00  0.00    -0.097 F 
ATOM     12  F4  UNL d   1       2.712   1.292   0.001  0.00  0.00    -0.092 F 
ENDROOT
TORSDOF 0
ENDMDL
