MODEL 1
REMARK minimizedAffinity 2.90743637
REMARK minimizedRMSD -1
REMARK  0 active torsions:
REMARK  status: ('A' for Active; 'I' for Inactive)
ROOT
ATOM      1  C   UNL d   1       1.355   1.376   0.924  0.00  0.00     0.124 A 
ATOM      2  C1  UNL d   1       0.908   0.071   0.771  0.00  0.00     0.062 A 
ATOM      3  C2  UNL d   1      -0.455  -0.195   0.678  0.00  0.00     0.162 A 
ATOM      4  C3  UNL d   1      -1.381   0.846   0.737  0.00  0.00    -0.034 A 
ATOM      5  C4  UNL d   1      -0.924   2.156   0.892  0.00  0.00     0.162 A 
ATOM      6  C5  UNL d   1       0.439   2.417   0.985  0.00  0.00     0.062 A 
ATOM      7  F   UNL d   1       0.870   3.678   1.133  0.00  0.00    -0.097 F 
ATOM      8  F1  UNL d   1      -1.787   3.180   0.953  0.00  0.00    -0.096 F 
ATOM      9  I   UNL d   1      -3.420   0.452   0.598  0.00  0.00    -0.060 I 
ATOM     10  F2  UNL d   1      -0.859  -1.466   0.530  0.00  0.00    -0.096 F 
ATOM     11  F3  UNL d   1       1.791  -0.936   0.713  0.00  0.00    -0.097 F 
ATOM     12  F4  UNL d   1       2.667   1.629   1.015  0.00  0.00    -0.092 F 
ENDROOT
TORSDOF 0
ENDMDL
