MODEL 1
REMARK minimizedAffinity 4.45968819
REMARK minimizedRMSD -1
REMARK  0 active torsions:
REMARK  status: ('A' for Active; 'I' for Inactive)
ROOT
ATOM      1  C   UNL d   1      -0.846   0.537   0.294  0.00  0.00     0.124 A 
ATOM      2  C1  UNL d   1       0.509   0.356   0.050  0.00  0.00     0.062 A 
ATOM      3  C2  UNL d   1       1.450   1.128   0.724  0.00  0.00     0.162 A 
ATOM      4  C3  UNL d   1       1.041   2.088   1.649  0.00  0.00    -0.034 A 
ATOM      5  C4  UNL d   1      -0.323   2.265   1.888  0.00  0.00     0.162 A 
ATOM      6  C5  UNL d   1      -1.260   1.491   1.212  0.00  0.00     0.062 A 
ATOM      7  F   UNL d   1      -2.568   1.667   1.449  0.00  0.00    -0.097 F 
ATOM      8  F1  UNL d   1      -0.751   3.179   2.772  0.00  0.00    -0.096 F 
ATOM      9  I   UNL d   1       2.446   3.245   2.659  0.00  0.00    -0.060 I 
ATOM     10  F2  UNL d   1       2.753   0.932   0.468  0.00  0.00    -0.096 F 
ATOM     11  F3  UNL d   1       0.912  -0.564  -0.838  0.00  0.00    -0.097 F 
ATOM     12  F4  UNL d   1      -1.749  -0.207  -0.357  0.00  0.00    -0.092 F 
ENDROOT
TORSDOF 0
ENDMDL
