MODEL 1
REMARK minimizedAffinity 6.41664982
REMARK minimizedRMSD -1
REMARK  0 active torsions:
REMARK  status: ('A' for Active; 'I' for Inactive)
ROOT
ATOM      1  C   UNL d   1      -0.576   2.350   1.397  0.00  0.00     0.124 A 
ATOM      2  C1  UNL d   1      -1.928   2.079   1.236  0.00  0.00     0.062 A 
ATOM      3  C2  UNL d   1      -2.340   0.850   0.730  0.00  0.00     0.162 A 
ATOM      4  C3  UNL d   1      -1.399  -0.119   0.381  0.00  0.00    -0.034 A 
ATOM      5  C4  UNL d   1      -0.041   0.161   0.545  0.00  0.00     0.162 A 
ATOM      6  C5  UNL d   1       0.365   1.392   1.051  0.00  0.00     0.062 A 
ATOM      7  F   UNL d   1       1.672   1.652   1.205  0.00  0.00    -0.097 F 
ATOM      8  F1  UNL d   1       0.890  -0.747   0.219  0.00  0.00    -0.096 F 
ATOM      9  I   UNL d   1      -2.011  -1.958  -0.376  0.00  0.00    -0.060 I 
ATOM     10  F2  UNL d   1      -3.653   0.615   0.586  0.00  0.00    -0.096 F 
ATOM     11  F3  UNL d   1      -2.840   3.004   1.569  0.00  0.00    -0.097 F 
ATOM     12  F4  UNL d   1      -0.183   3.534   1.883  0.00  0.00    -0.092 F 
ENDROOT
TORSDOF 0
ENDMDL
