MODEL 1
REMARK minimizedAffinity 7.20811224
REMARK minimizedRMSD -1
REMARK  0 active torsions:
REMARK  status: ('A' for Active; 'I' for Inactive)
ROOT
ATOM      1  C   UNL d   1       1.050   1.784   1.268  0.00  0.00     0.124 A 
ATOM      2  C1  UNL d   1       0.743   0.514   0.800  0.00  0.00     0.062 A 
ATOM      3  C2  UNL d   1      -0.572   0.184   0.482  0.00  0.00     0.162 A 
ATOM      4  C3  UNL d   1      -1.589   1.126   0.630  0.00  0.00    -0.034 A 
ATOM      5  C4  UNL d   1      -1.273   2.401   1.102  0.00  0.00     0.162 A 
ATOM      6  C5  UNL d   1       0.042   2.726   1.419  0.00  0.00     0.062 A 
ATOM      7  F   UNL d   1       0.337   3.954   1.871  0.00  0.00    -0.097 F 
ATOM      8  F1  UNL d   1      -2.227   3.332   1.257  0.00  0.00    -0.096 F 
ATOM      9  I   UNL d   1      -3.556   0.637   0.156  0.00  0.00    -0.060 I 
ATOM     10  F2  UNL d   1      -0.840  -1.051   0.032  0.00  0.00    -0.096 F 
ATOM     11  F3  UNL d   1       1.714  -0.399   0.654  0.00  0.00    -0.097 F 
ATOM     12  F4  UNL d   1       2.315   2.098   1.574  0.00  0.00    -0.092 F 
ENDROOT
TORSDOF 0
ENDMDL
