MODEL 1
REMARK minimizedAffinity 8.70396614
REMARK minimizedRMSD -1
REMARK  0 active torsions:
REMARK  status: ('A' for Active; 'I' for Inactive)
ROOT
ATOM      1  C   UNL d   1      -1.065   1.815   1.228  0.00  0.00     0.124 A 
ATOM      2  C1  UNL d   1      -1.450   0.509   0.961  0.00  0.00     0.062 A 
ATOM      3  C2  UNL d   1      -0.528  -0.402   0.452  0.00  0.00     0.162 A 
ATOM      4  C3  UNL d   1       0.787  -0.009   0.206  0.00  0.00    -0.034 A 
ATOM      5  C4  UNL d   1       1.166   1.308   0.476  0.00  0.00     0.162 A 
ATOM      6  C5  UNL d   1       0.242   2.214   0.985  0.00  0.00     0.062 A 
ATOM      7  F   UNL d   1       0.615   3.476   1.242  0.00  0.00    -0.097 F 
ATOM      8  F1  UNL d   1       2.423   1.719   0.251  0.00  0.00    -0.096 F 
ATOM      9  I   UNL d   1       2.168  -1.367  -0.556  0.00  0.00    -0.060 I 
ATOM     10  F2  UNL d   1      -0.927  -1.658   0.203  0.00  0.00    -0.096 F 
ATOM     11  F3  UNL d   1      -2.712   0.122   1.194  0.00  0.00    -0.097 F 
ATOM     12  F4  UNL d   1      -1.954   2.689   1.717  0.00  0.00    -0.092 F 
ENDROOT
TORSDOF 0
ENDMDL
