MODEL 1
REMARK minimizedAffinity 16.8869381
REMARK minimizedRMSD -1
REMARK  0 active torsions:
REMARK  status: ('A' for Active; 'I' for Inactive)
ROOT
ATOM      1  C   UNL d   1      -1.798   2.482   2.367  0.00  0.00     0.124 A 
ATOM      2  C1  UNL d   1      -1.295   2.547   1.074  0.00  0.00     0.062 A 
ATOM      3  C2  UNL d   1      -1.274   1.409   0.273  0.00  0.00     0.162 A 
ATOM      4  C3  UNL d   1      -1.757   0.195   0.762  0.00  0.00    -0.034 A 
ATOM      5  C4  UNL d   1      -2.260   0.137   2.063  0.00  0.00     0.162 A 
ATOM      6  C5  UNL d   1      -2.279   1.277   2.860  0.00  0.00     0.062 A 
ATOM      7  F   UNL d   1      -2.765   1.212   4.108  0.00  0.00    -0.097 F 
ATOM      8  F1  UNL d   1      -2.732  -1.014   2.565  0.00  0.00    -0.096 F 
ATOM      9  I   UNL d   1      -1.727  -1.509  -0.432  0.00  0.00    -0.060 I 
ATOM     10  F2  UNL d   1      -0.783   1.501  -0.971  0.00  0.00    -0.096 F 
ATOM     11  F3  UNL d   1      -0.829   3.709   0.596  0.00  0.00    -0.097 F 
ATOM     12  F4  UNL d   1      -1.816   3.578   3.135  0.00  0.00    -0.092 F 
ENDROOT
TORSDOF 0
ENDMDL
