MODEL 1
REMARK minimizedAffinity 5.66960764
REMARK minimizedRMSD -1
REMARK  0 active torsions:
REMARK  status: ('A' for Active; 'I' for Inactive)
ROOT
ATOM      1  C   UNL d   1      -1.365   1.038   0.607  0.00  0.00     0.124 A 
ATOM      2  C1  UNL d   1      -0.349   0.094   0.678  0.00  0.00     0.062 A 
ATOM      3  C2  UNL d   1       0.939   0.478   1.039  0.00  0.00     0.162 A 
ATOM      4  C3  UNL d   1       1.220   1.812   1.333  0.00  0.00    -0.034 A 
ATOM      5  C4  UNL d   1       0.194   2.756   1.259  0.00  0.00     0.162 A 
ATOM      6  C5  UNL d   1      -1.092   2.367   0.897  0.00  0.00     0.062 A 
ATOM      7  F   UNL d   1      -2.072   3.280   0.829  0.00  0.00    -0.097 F 
ATOM      8  F1  UNL d   1       0.429   4.047   1.535  0.00  0.00    -0.096 F 
ATOM      9  I   UNL d   1       3.145   2.390   1.874  0.00  0.00    -0.060 I 
ATOM     10  F2  UNL d   1       1.901  -0.456   1.100  0.00  0.00    -0.096 F 
ATOM     11  F3  UNL d   1      -0.609  -1.191   0.397  0.00  0.00    -0.097 F 
ATOM     12  F4  UNL d   1      -2.603   0.666   0.258  0.00  0.00    -0.092 F 
ENDROOT
TORSDOF 0
ENDMDL
