MODEL 1
REMARK minimizedAffinity 8.5508709
REMARK minimizedRMSD -1
REMARK  0 active torsions:
REMARK  status: ('A' for Active; 'I' for Inactive)
ROOT
ATOM      1  C   UNL d   1       1.101   1.241   1.254  0.00  0.00     0.124 A 
ATOM      2  C1  UNL d   1       0.491  -0.004   1.189  0.00  0.00     0.062 A 
ATOM      3  C2  UNL d   1      -0.842  -0.111   0.801  0.00  0.00     0.162 A 
ATOM      4  C3  UNL d   1      -1.573   1.030   0.475  0.00  0.00    -0.034 A 
ATOM      5  C4  UNL d   1      -0.953   2.279   0.544  0.00  0.00     0.162 A 
ATOM      6  C5  UNL d   1       0.379   2.381   0.932  0.00  0.00     0.062 A 
ATOM      7  F   UNL d   1       0.967   3.585   0.994  0.00  0.00    -0.097 F 
ATOM      8  F1  UNL d   1      -1.627   3.397   0.237  0.00  0.00    -0.096 F 
ATOM      9  I   UNL d   1      -3.566   0.875  -0.105  0.00  0.00    -0.060 I 
ATOM     10  F2  UNL d   1      -1.406  -1.327   0.747  0.00  0.00    -0.096 F 
ATOM     11  F3  UNL d   1       1.186  -1.107   1.501  0.00  0.00    -0.097 F 
ATOM     12  F4  UNL d   1       2.383   1.341   1.629  0.00  0.00    -0.092 F 
ENDROOT
TORSDOF 0
ENDMDL
