MODEL 1
REMARK minimizedAffinity 11.1800747
REMARK minimizedRMSD -1
REMARK  0 active torsions:
REMARK  status: ('A' for Active; 'I' for Inactive)
ROOT
ATOM      1  C   UNL d   1      -0.308   2.220   1.023  0.00  0.00     0.124 A 
ATOM      2  C1  UNL d   1      -1.645   2.040   0.698  0.00  0.00     0.062 A 
ATOM      3  C2  UNL d   1      -2.118   0.776   0.354  0.00  0.00     0.162 A 
ATOM      4  C3  UNL d   1      -1.253  -0.318   0.336  0.00  0.00    -0.034 A 
ATOM      5  C4  UNL d   1       0.091  -0.129   0.664  0.00  0.00     0.162 A 
ATOM      6  C5  UNL d   1       0.559   1.136   1.006  0.00  0.00     0.062 A 
ATOM      7  F   UNL d   1       1.851   1.308   1.321  0.00  0.00    -0.097 F 
ATOM      8  F1  UNL d   1       0.950  -1.159   0.656  0.00  0.00    -0.096 F 
ATOM      9  I   UNL d   1      -1.956  -2.208  -0.177  0.00  0.00    -0.060 I 
ATOM     10  F2  UNL d   1      -3.414   0.632   0.044  0.00  0.00    -0.096 F 
ATOM     11  F3  UNL d   1      -2.484   3.085   0.713  0.00  0.00    -0.097 F 
ATOM     12  F4  UNL d   1       0.145   3.437   1.353  0.00  0.00    -0.092 F 
ENDROOT
TORSDOF 0
ENDMDL
