MODEL 1
REMARK minimizedAffinity 14.5894861
REMARK minimizedRMSD -1
REMARK  0 active torsions:
REMARK  status: ('A' for Active; 'I' for Inactive)
ROOT
ATOM      1  C   UNL d   1       0.075   2.254   1.551  0.00  0.00     0.124 A 
ATOM      2  C1  UNL d   1      -1.291   2.126   1.345  0.00  0.00     0.062 A 
ATOM      3  C2  UNL d   1      -1.807   0.965   0.776  0.00  0.00     0.162 A 
ATOM      4  C3  UNL d   1      -0.956  -0.077   0.409  0.00  0.00    -0.034 A 
ATOM      5  C4  UNL d   1       0.417   0.060   0.618  0.00  0.00     0.162 A 
ATOM      6  C5  UNL d   1       0.928   1.222   1.187  0.00  0.00     0.062 A 
ATOM      7  F   UNL d   1       2.249   1.344   1.385  0.00  0.00    -0.097 F 
ATOM      8  F1  UNL d   1       1.264  -0.923   0.277  0.00  0.00    -0.096 F 
ATOM      9  I   UNL d   1      -1.724  -1.814  -0.443  0.00  0.00    -0.060 I 
ATOM     10  F2  UNL d   1      -3.132   0.868   0.589  0.00  0.00    -0.096 F 
ATOM     11  F3  UNL d   1      -2.117   3.122   1.695  0.00  0.00    -0.097 F 
ATOM     12  F4  UNL d   1       0.569   3.373   2.098  0.00  0.00    -0.092 F 
ENDROOT
TORSDOF 0
ENDMDL
