MODEL 1
REMARK minimizedAffinity 5.79692841
REMARK minimizedRMSD -1
REMARK  0 active torsions:
REMARK  status: ('A' for Active; 'I' for Inactive)
ROOT
ATOM      1  C   UNL d   1       3.299   3.194   2.188  0.00  0.00     0.124 A 
ATOM      2  C1  UNL d   1       4.434   2.946   1.429  0.00  0.00     0.062 A 
ATOM      3  C2  UNL d   1       4.361   2.124   0.308  0.00  0.00     0.162 A 
ATOM      4  C3  UNL d   1       3.147   1.545  -0.063  0.00  0.00    -0.034 A 
ATOM      5  C4  UNL d   1       2.010   1.799   0.706  0.00  0.00     0.162 A 
ATOM      6  C5  UNL d   1       2.088   2.621   1.826  0.00  0.00     0.062 A 
ATOM      7  F   UNL d   1       0.990   2.859   2.557  0.00  0.00    -0.097 F 
ATOM      8  F1  UNL d   1       0.827   1.259   0.378  0.00  0.00    -0.096 F 
ATOM      9  I   UNL d   1       3.034   0.317  -1.738  0.00  0.00    -0.060 I 
ATOM     10  F2  UNL d   1       5.474   1.902  -0.406  0.00  0.00    -0.096 F 
ATOM     11  F3  UNL d   1       5.605   3.498   1.778  0.00  0.00    -0.097 F 
ATOM     12  F4  UNL d   1       3.372   3.984   3.267  0.00  0.00    -0.092 F 
ENDROOT
TORSDOF 0
ENDMDL
