MODEL 1
REMARK minimizedAffinity 14.9312372
REMARK minimizedRMSD -1
REMARK  0 active torsions:
REMARK  status: ('A' for Active; 'I' for Inactive)
ROOT
ATOM      1  C   UNL d   1      -0.983  -0.088  -0.172  0.00  0.00     0.124 A 
ATOM      2  C1  UNL d   1      -1.764   0.865   0.468  0.00  0.00     0.062 A 
ATOM      3  C2  UNL d   1      -1.168   1.972   1.066  0.00  0.00     0.162 A 
ATOM      4  C3  UNL d   1       0.218   2.132   1.026  0.00  0.00    -0.034 A 
ATOM      5  C4  UNL d   1       0.996   1.168   0.382  0.00  0.00     0.162 A 
ATOM      6  C5  UNL d   1       0.395   0.064  -0.214  0.00  0.00     0.062 A 
ATOM      7  F   UNL d   1       1.151  -0.856  -0.831  0.00  0.00    -0.097 F 
ATOM      8  F1  UNL d   1       2.330   1.291   0.325  0.00  0.00    -0.096 F 
ATOM      9  I   UNL d   1       1.113   3.785   1.919  0.00  0.00    -0.060 I 
ATOM     10  F2  UNL d   1      -1.946   2.877   1.676  0.00  0.00    -0.096 F 
ATOM     11  F3  UNL d   1      -3.096   0.720   0.511  0.00  0.00    -0.097 F 
ATOM     12  F4  UNL d   1      -1.560  -1.152  -0.745  0.00  0.00    -0.092 F 
ENDROOT
TORSDOF 0
ENDMDL
