MODEL 1
REMARK minimizedAffinity 5.45217848
REMARK minimizedRMSD -1
REMARK  0 active torsions:
REMARK  status: ('A' for Active; 'I' for Inactive)
ROOT
ATOM      1  C   UNL d   1      -1.699   0.849   0.841  0.00  0.00     0.124 A 
ATOM      2  C1  UNL d   1      -1.412   2.199   0.995  0.00  0.00     0.062 A 
ATOM      3  C2  UNL d   1      -0.095   2.620   1.156  0.00  0.00     0.162 A 
ATOM      4  C3  UNL d   1       0.945   1.690   1.164  0.00  0.00    -0.034 A 
ATOM      5  C4  UNL d   1       0.648   0.335   1.010  0.00  0.00     0.162 A 
ATOM      6  C5  UNL d   1      -0.670  -0.081   0.849  0.00  0.00     0.062 A 
ATOM      7  F   UNL d   1      -0.946  -1.385   0.702  0.00  0.00    -0.097 F 
ATOM      8  F1  UNL d   1       1.624  -0.585   1.013  0.00  0.00    -0.096 F 
ATOM      9  I   UNL d   1       2.916   2.316   1.405  0.00  0.00    -0.060 I 
ATOM     10  F2  UNL d   1       0.154   3.930   1.302  0.00  0.00    -0.096 F 
ATOM     11  F3  UNL d   1      -2.405   3.099   0.988  0.00  0.00    -0.097 F 
ATOM     12  F4  UNL d   1      -2.967   0.447   0.687  0.00  0.00    -0.092 F 
ENDROOT
TORSDOF 0
ENDMDL
