MODEL 1
REMARK minimizedAffinity 15.1902962
REMARK minimizedRMSD -1
REMARK  0 active torsions:
REMARK  status: ('A' for Active; 'I' for Inactive)
ROOT
ATOM      1  C   UNL d   1      -3.223   1.320  -1.616  0.00  0.00     0.023 A 
ATOM      2  C1  UNL d   1      -1.898   0.937  -1.406  0.00  0.00     0.003 A 
ATOM      3  C2  UNL d   1      -0.884   1.457  -2.213  0.00  0.00     0.048 A 
ATOM      4  C3  UNL d   1      -1.201   2.360  -3.227  0.00  0.00     0.023 A 
ATOM      5  C4  UNL d   1      -2.526   2.746  -3.440  0.00  0.00     0.048 A 
ATOM      6  C5  UNL d   1      -3.536   2.223  -2.631  0.00  0.00     0.003 A 
ATOM      7  I   UNL d   1       0.306   3.135  -4.429  0.00  0.00    -0.146 I 
ENDROOT
TORSDOF 0
ENDMDL
