MODEL 1
REMARK minimizedAffinity 14.4598455
REMARK minimizedRMSD -1
REMARK  0 active torsions:
REMARK  status: ('A' for Active; 'I' for Inactive)
ROOT
ATOM      1  C   UNL d   1      -3.139  -0.858  -0.395  0.00  0.00     0.023 A 
ATOM      2  C1  UNL d   1      -3.385   0.496  -0.164  0.00  0.00     0.003 A 
ATOM      3  C2  UNL d   1      -2.925   1.455  -1.068  0.00  0.00     0.048 A 
ATOM      4  C3  UNL d   1      -2.221   1.054  -2.203  0.00  0.00     0.023 A 
ATOM      5  C4  UNL d   1      -1.973  -0.299  -2.439  0.00  0.00     0.048 A 
ATOM      6  C5  UNL d   1      -2.434  -1.255  -1.532  0.00  0.00     0.003 A 
ATOM      7  I   UNL d   1      -1.535   2.480  -3.551  0.00  0.00    -0.146 I 
ENDROOT
TORSDOF 0
ENDMDL
