MODEL 1
REMARK minimizedAffinity 0.853447855
REMARK minimizedRMSD -1
REMARK  0 active torsions:
REMARK  status: ('A' for Active; 'I' for Inactive)
ROOT
ATOM      1  C   UNL d   1      -1.342   5.590   4.292  0.00  0.00     0.023 A 
ATOM      2  C1  UNL d   1      -0.331   5.303   3.374  0.00  0.00     0.003 A 
ATOM      3  C2  UNL d   1       1.007   5.364   3.766  0.00  0.00     0.048 A 
ATOM      4  C3  UNL d   1       1.328   5.712   5.078  0.00  0.00     0.023 A 
ATOM      5  C4  UNL d   1       0.320   5.999   6.000  0.00  0.00     0.048 A 
ATOM      6  C5  UNL d   1      -1.017   5.938   5.603  0.00  0.00     0.003 A 
ATOM      7  I   UNL d   1       3.320   5.803   5.664  0.00  0.00    -0.146 I 
ENDROOT
TORSDOF 0
ENDMDL
