MODEL 1
REMARK minimizedAffinity 11.2171307
REMARK minimizedRMSD -1
REMARK  0 active torsions:
REMARK  status: ('A' for Active; 'I' for Inactive)
ROOT
ATOM      1  C   UNL d   1       1.125  -3.229   0.799  0.00  0.00     0.023 A 
ATOM      2  C1  UNL d   1       1.637  -2.067   1.377  0.00  0.00     0.003 A 
ATOM      3  C2  UNL d   1       2.967  -1.704   1.155  0.00  0.00     0.048 A 
ATOM      4  C3  UNL d   1       3.779  -2.506   0.354  0.00  0.00     0.023 A 
ATOM      5  C4  UNL d   1       3.270  -3.669  -0.226  0.00  0.00     0.048 A 
ATOM      6  C5  UNL d   1       1.940  -4.029  -0.001  0.00  0.00     0.003 A 
ATOM      7  I   UNL d   1       5.758  -1.967   0.023  0.00  0.00    -0.146 I 
ENDROOT
TORSDOF 0
ENDMDL
