MODEL 1
REMARK minimizedAffinity 7.44752073
REMARK minimizedRMSD -1
REMARK  0 active torsions:
REMARK  status: ('A' for Active; 'I' for Inactive)
ROOT
ATOM      1  C   UNL d   1       1.324  -2.915   0.518  0.00  0.00     0.023 A 
ATOM      2  C1  UNL d   1       2.128  -3.666  -0.339  0.00  0.00     0.003 A 
ATOM      3  C2  UNL d   1       3.437  -3.258  -0.607  0.00  0.00     0.048 A 
ATOM      4  C3  UNL d   1       3.934  -2.098  -0.014  0.00  0.00     0.023 A 
ATOM      5  C4  UNL d   1       3.133  -1.344   0.845  0.00  0.00     0.048 A 
ATOM      6  C5  UNL d   1       1.826  -1.756   1.110  0.00  0.00     0.003 A 
ATOM      7  I   UNL d   1       5.881  -1.489  -0.412  0.00  0.00    -0.146 I 
ENDROOT
TORSDOF 0
ENDMDL
