MODEL 1
REMARK minimizedAffinity 7.1616559
REMARK minimizedRMSD -1
REMARK  0 active torsions:
REMARK  status: ('A' for Active; 'I' for Inactive)
ROOT
ATOM      1  C   UNL d   1      -5.196   1.022   5.926  0.00  0.00     0.023 A 
ATOM      2  C1  UNL d   1      -5.688   2.326   5.886  0.00  0.00     0.003 A 
ATOM      3  C2  UNL d   1      -4.805   3.408   5.903  0.00  0.00     0.048 A 
ATOM      4  C3  UNL d   1      -3.430   3.177   5.959  0.00  0.00     0.023 A 
ATOM      5  C4  UNL d   1      -2.934   1.873   5.999  0.00  0.00     0.048 A 
ATOM      6  C5  UNL d   1      -3.821   0.795   5.982  0.00  0.00     0.003 A 
ATOM      7  I   UNL d   1      -2.114   4.785   5.985  0.00  0.00    -0.146 I 
ENDROOT
TORSDOF 0
ENDMDL
