MODEL 1
REMARK minimizedAffinity 12.2528162
REMARK minimizedRMSD -1
REMARK  0 active torsions:
REMARK  status: ('A' for Active; 'I' for Inactive)
ROOT
ATOM      1  C   UNL d   1      -3.374  -0.385  -1.441  0.00  0.00     0.023 A 
ATOM      2  C1  UNL d   1      -2.053  -0.748  -1.703  0.00  0.00     0.003 A 
ATOM      3  C2  UNL d   1      -1.176   0.173  -2.279  0.00  0.00     0.048 A 
ATOM      4  C3  UNL d   1      -1.626   1.456  -2.590  0.00  0.00     0.023 A 
ATOM      5  C4  UNL d   1      -2.947   1.823  -2.329  0.00  0.00     0.048 A 
ATOM      6  C5  UNL d   1      -3.821   0.899  -1.754  0.00  0.00     0.003 A 
ATOM      7  I   UNL d   1      -0.323   2.829  -3.447  0.00  0.00    -0.146 I 
ENDROOT
TORSDOF 0
ENDMDL
