MODEL 1
REMARK minimizedAffinity 10.3577042
REMARK minimizedRMSD -1
REMARK  0 active torsions:
REMARK  status: ('A' for Active; 'I' for Inactive)
ROOT
ATOM      1  C   UNL d   1       4.671  -1.095  -4.107  0.00  0.00     0.023 A 
ATOM      2  C1  UNL d   1       5.768  -0.389  -3.613  0.00  0.00     0.003 A 
ATOM      3  C2  UNL d   1       6.000   0.924  -4.027  0.00  0.00     0.048 A 
ATOM      4  C3  UNL d   1       5.129   1.526  -4.934  0.00  0.00     0.023 A 
ATOM      5  C4  UNL d   1       4.030   0.825  -5.431  0.00  0.00     0.048 A 
ATOM      6  C5  UNL d   1       3.803  -0.488  -5.015  0.00  0.00     0.003 A 
ATOM      7  I   UNL d   1       5.472   3.481  -5.552  0.00  0.00    -0.146 I 
ENDROOT
TORSDOF 0
ENDMDL
