MODEL 1
REMARK minimizedAffinity 11.9832087
REMARK minimizedRMSD -1
REMARK  0 active torsions:
REMARK  status: ('A' for Active; 'I' for Inactive)
ROOT
ATOM      1  C   UNL d   1       0.483  -1.799   1.683  0.00  0.00     0.023 A 
ATOM      2  C1  UNL d   1       0.977  -2.542   0.611  0.00  0.00     0.003 A 
ATOM      3  C2  UNL d   1       2.297  -2.368   0.189  0.00  0.00     0.048 A 
ATOM      4  C3  UNL d   1       3.117  -1.450   0.844  0.00  0.00     0.023 A 
ATOM      5  C4  UNL d   1       2.627  -0.704   1.917  0.00  0.00     0.048 A 
ATOM      6  C5  UNL d   1       1.306  -0.881   2.335  0.00  0.00     0.003 A 
ATOM      7  I   UNL d   1       5.082  -1.189   0.218  0.00  0.00    -0.146 I 
ENDROOT
TORSDOF 0
ENDMDL
