MODEL 1
REMARK minimizedAffinity 13.8370266
REMARK minimizedRMSD -1
REMARK  0 active torsions:
REMARK  status: ('A' for Active; 'I' for Inactive)
ROOT
ATOM      1  C   UNL d   1      -5.502  -1.835  -4.056  0.00  0.00     0.023 A 
ATOM      2  C1  UNL d   1      -5.617  -0.723  -3.222  0.00  0.00     0.003 A 
ATOM      3  C2  UNL d   1      -5.760   0.552  -3.773  0.00  0.00     0.048 A 
ATOM      4  C3  UNL d   1      -5.787   0.708  -5.158  0.00  0.00     0.023 A 
ATOM      5  C4  UNL d   1      -5.673  -0.402  -5.996  0.00  0.00     0.048 A 
ATOM      6  C5  UNL d   1      -5.530  -1.675  -5.441  0.00  0.00     0.003 A 
ATOM      7  I   UNL d   1      -5.999   2.605  -5.980  0.00  0.00    -0.146 I 
ENDROOT
TORSDOF 0
ENDMDL
