MODEL 1
REMARK minimizedAffinity 2.95454431
REMARK minimizedRMSD -1
REMARK  0 active torsions:
REMARK  status: ('A' for Active; 'I' for Inactive)
ROOT
ATOM      1  C   UNL d   1      -2.616   1.452  -4.840  0.00  0.00     0.023 A 
ATOM      2  C1  UNL d   1      -2.491   2.235  -3.693  0.00  0.00     0.003 A 
ATOM      3  C2  UNL d   1      -2.986   3.541  -3.679  0.00  0.00     0.048 A 
ATOM      4  C3  UNL d   1      -3.606   4.057  -4.816  0.00  0.00     0.023 A 
ATOM      5  C4  UNL d   1      -3.736   3.277  -5.966  0.00  0.00     0.048 A 
ATOM      6  C5  UNL d   1      -3.238   1.972  -5.976  0.00  0.00     0.003 A 
ATOM      7  I   UNL d   1      -4.344   6.000  -4.798  0.00  0.00    -0.146 I 
ENDROOT
TORSDOF 0
ENDMDL
