MODEL 1
REMARK minimizedAffinity 7.75860596
REMARK minimizedRMSD -1
REMARK  0 active torsions:
REMARK  status: ('A' for Active; 'I' for Inactive)
ROOT
ATOM      1  C   UNL d   1      -3.719   1.691  -4.220  0.00  0.00     0.023 A 
ATOM      2  C1  UNL d   1      -3.058   1.841  -3.001  0.00  0.00     0.003 A 
ATOM      3  C2  UNL d   1      -1.713   2.214  -2.976  0.00  0.00     0.048 A 
ATOM      4  C3  UNL d   1      -1.035   2.437  -4.174  0.00  0.00     0.023 A 
ATOM      5  C4  UNL d   1      -1.692   2.290  -5.396  0.00  0.00     0.048 A 
ATOM      6  C5  UNL d   1      -3.037   1.915  -5.416  0.00  0.00     0.003 A 
ATOM      7  I   UNL d   1       0.968   2.993  -4.139  0.00  0.00    -0.146 I 
ENDROOT
TORSDOF 0
ENDMDL
