MODEL 1
REMARK minimizedAffinity -5.27921438
REMARK minimizedRMSD -1
REMARK  3 active torsions:
REMARK  status: ('A' for Active; 'I' for Inactive)
REMARK    1  A    between atoms: C3'_2  and  C2'_3 
REMARK    2  A    between atoms: C2'_3  and  C1'_4 
REMARK    3  A    between atoms: C1'_4  and  C1_5 
ROOT
ATOM      1  C1  N4B d   1      -0.765  -0.802   0.625  0.00  0.00    -0.075 A 
ATOM      2  C2  N4B d   1      -0.073   0.155  -0.148  0.00  0.00     0.002 A 
ATOM      3  C3  N4B d   1      -0.343   1.492   0.011  0.00  0.00     0.002 A 
ATOM      4  C4  N4B d   1      -1.311   1.892   0.921  0.00  0.00    -0.004 A 
ATOM      5  C5  N4B d   1      -1.957   0.963   1.682  0.00  0.00     0.002 A 
ATOM      6  C6  N4B d   1      -1.692  -0.384   1.535  0.00  0.00     0.002 A 
ENDROOT
BRANCH   1   7
ATOM      7  C1' N4B d   1      -0.565  -2.280   0.425  0.00  0.00     0.057 C 
BRANCH   7   8
ATOM      8  C2' N4B d   1       0.559  -2.501  -0.583  0.00  0.00     0.009 C 
BRANCH   8   9
ATOM      9  C3' N4B d   1       0.049  -3.103  -1.881  0.00  0.00     0.004 C 
ATOM     10  C4' N4B d   1       0.060  -2.126  -3.018  0.00  0.00     0.003 C 
ENDBRANCH   8   9
ENDBRANCH   7   8
ENDBRANCH   1   7
TORSDOF 3
ENDMDL
