MODEL 1
REMARK minimizedAffinity -5.86112261
REMARK minimizedRMSD -1
REMARK  3 active torsions:
REMARK  status: ('A' for Active; 'I' for Inactive)
REMARK    1  A    between atoms: C3'_2  and  C2'_3 
REMARK    2  A    between atoms: C2'_3  and  C1'_4 
REMARK    3  A    between atoms: C1'_4  and  C1_5 
ROOT
ATOM      1  C1  N4B d   1      -0.188   0.291  -0.059  0.00  0.00    -0.075 A 
ATOM      2  C2  N4B d   1      -1.030   1.282  -0.611  0.00  0.00     0.002 A 
ATOM      3  C3  N4B d   1      -2.041   1.822   0.145  0.00  0.00     0.002 A 
ATOM      4  C4  N4B d   1      -2.241   1.376   1.442  0.00  0.00    -0.004 A 
ATOM      5  C5  N4B d   1      -1.408   0.437   1.977  0.00  0.00     0.002 A 
ATOM      6  C6  N4B d   1      -0.385  -0.111   1.230  0.00  0.00     0.002 A 
ENDROOT
BRANCH   1   7
ATOM      7  C1' N4B d   1       0.877  -0.390  -0.874  0.00  0.00     0.057 C 
BRANCH   7   8
ATOM      8  C2' N4B d   1       0.603  -1.891  -0.901  0.00  0.00     0.009 C 
BRANCH   8   9
ATOM      9  C3' N4B d   1       0.076  -2.349  -2.250  0.00  0.00     0.004 C 
ATOM     10  C4' N4B d   1      -0.228  -3.817  -2.287  0.00  0.00     0.003 C 
ENDBRANCH   8   9
ENDBRANCH   7   8
ENDBRANCH   1   7
TORSDOF 3
ENDMDL
