MODEL 1
REMARK minimizedAffinity -4.6415
REMARK minimizedRMSD -1
REMARK  3 active torsions:
REMARK  status: ('A' for Active; 'I' for Inactive)
REMARK    1  A    between atoms: C3'_2  and  C2'_3 
REMARK    2  A    between atoms: C2'_3  and  C1'_4 
REMARK    3  A    between atoms: C1'_4  and  C1_5 
ROOT
ATOM      1  C1  N4B d   1      -0.499   0.241   0.164  0.00  0.00    -0.075 A 
ATOM      2  C2  N4B d   1      -1.561   0.803  -0.577  0.00  0.00     0.002 A 
ATOM      3  C3  N4B d   1      -2.400   1.719   0.010  0.00  0.00     0.002 A 
ATOM      4  C4  N4B d   1      -2.208   2.072   1.337  0.00  0.00    -0.004 A 
ATOM      5  C5  N4B d   1      -1.164   1.543   2.039  0.00  0.00     0.002 A 
ATOM      6  C6  N4B d   1      -0.311   0.625   1.461  0.00  0.00     0.002 A 
ENDROOT
BRANCH   1   7
ATOM      7  C1' N4B d   1       0.391  -0.828  -0.408  0.00  0.00     0.057 C 
BRANCH   7   8
ATOM      8  C2' N4B d   1       0.668  -0.516  -1.876  0.00  0.00     0.009 C 
BRANCH   8   9
ATOM      9  C3' N4B d   1       0.216  -1.640  -2.791  0.00  0.00     0.004 C 
ATOM     10  C4' N4B d   1       0.726  -2.983  -2.359  0.00  0.00     0.003 C 
ENDBRANCH   8   9
ENDBRANCH   7   8
ENDBRANCH   1   7
TORSDOF 3
ENDMDL
