MODEL 1
REMARK minimizedAffinity -5.41735172
REMARK minimizedRMSD -1
REMARK  3 active torsions:
REMARK  status: ('A' for Active; 'I' for Inactive)
REMARK    1  A    between atoms: C3'_2  and  C2'_3 
REMARK    2  A    between atoms: C2'_3  and  C1'_4 
REMARK    3  A    between atoms: C1'_4  and  C1_5 
ROOT
ATOM      1  C1  N4B d   1      -0.771  -0.121   0.371  0.00  0.00    -0.075 A 
ATOM      2  C2  N4B d   1      -0.508   0.435   1.643  0.00  0.00     0.002 A 
ATOM      3  C3  N4B d   1      -1.150   1.584   2.036  0.00  0.00     0.002 A 
ATOM      4  C4  N4B d   1      -2.039   2.203   1.171  0.00  0.00    -0.004 A 
ATOM      5  C5  N4B d   1      -2.306   1.646  -0.046  0.00  0.00     0.002 A 
ATOM      6  C6  N4B d   1      -1.672   0.489  -0.452  0.00  0.00     0.002 A 
ENDROOT
BRANCH   1   7
ATOM      7  C1' N4B d   1      -0.030  -1.328  -0.136  0.00  0.00     0.057 C 
BRANCH   7   8
ATOM      8  C2' N4B d   1       0.676  -0.970  -1.441  0.00  0.00     0.009 C 
BRANCH   8   9
ATOM      9  C3' N4B d   1       0.171  -1.804  -2.606  0.00  0.00     0.004 C 
ATOM     10  C4' N4B d   1       0.041  -3.258  -2.267  0.00  0.00     0.003 C 
ENDBRANCH   8   9
ENDBRANCH   7   8
ENDBRANCH   1   7
TORSDOF 3
ENDMDL
