MODEL 1
REMARK minimizedAffinity -4.77475071
REMARK minimizedRMSD -1
REMARK  3 active torsions:
REMARK  status: ('A' for Active; 'I' for Inactive)
REMARK    1  A    between atoms: C3'_2  and  C2'_3 
REMARK    2  A    between atoms: C2'_3  and  C1'_4 
REMARK    3  A    between atoms: C1'_4  and  C1_5 
ROOT
ATOM      1  C1  N4B d   1       0.076  -0.195  -0.019  0.00  0.00    -0.075 A 
ATOM      2  C2  N4B d   1       0.450   1.100  -0.439  0.00  0.00     0.002 A 
ATOM      3  C3  N4B d   1       0.099   2.194   0.314  0.00  0.00     0.002 A 
ATOM      4  C4  N4B d   1      -0.638   2.019   1.476  0.00  0.00    -0.004 A 
ATOM      5  C5  N4B d   1      -0.974   0.763   1.888  0.00  0.00     0.002 A 
ATOM      6  C6  N4B d   1      -0.625  -0.346   1.143  0.00  0.00     0.002 A 
ENDROOT
BRANCH   1   7
ATOM      7  C1' N4B d   1       0.362  -1.414  -0.853  0.00  0.00     0.057 C 
BRANCH   7   8
ATOM      8  C2' N4B d   1       1.532  -1.118  -1.787  0.00  0.00     0.009 C 
BRANCH   8   9
ATOM      9  C3' N4B d   1       1.428  -1.892  -3.090  0.00  0.00     0.004 C 
ATOM     10  C4' N4B d   1       0.133  -2.636  -3.222  0.00  0.00     0.003 C 
ENDBRANCH   8   9
ENDBRANCH   7   8
ENDBRANCH   1   7
TORSDOF 3
ENDMDL
