MODEL 1
REMARK minimizedAffinity -5.16191912
REMARK minimizedRMSD -1
REMARK  3 active torsions:
REMARK  status: ('A' for Active; 'I' for Inactive)
REMARK    1  A    between atoms: C3'_2  and  C2'_3 
REMARK    2  A    between atoms: C2'_3  and  C1'_4 
REMARK    3  A    between atoms: C1'_4  and  C1_5 
ROOT
ATOM      1  C1  N4B d   1      -0.024   0.107   0.008  0.00  0.00    -0.075 A 
ATOM      2  C2  N4B d   1      -0.147  -0.483   1.285  0.00  0.00     0.002 A 
ATOM      3  C3  N4B d   1      -0.975   0.080   2.225  0.00  0.00     0.002 A 
ATOM      4  C4  N4B d   1      -1.672   1.239   1.919  0.00  0.00    -0.004 A 
ATOM      5  C5  N4B d   1      -1.568   1.789   0.675  0.00  0.00     0.002 A 
ATOM      6  C6  N4B d   1      -0.743   1.231  -0.281  0.00  0.00     0.002 A 
ENDROOT
BRANCH   1   7
ATOM      7  C1' N4B d   1       0.933  -0.423  -1.023  0.00  0.00     0.057 C 
BRANCH   7   8
ATOM      8  C2' N4B d   1       0.814  -1.943  -1.083  0.00  0.00     0.009 C 
BRANCH   8   9
ATOM      9  C3' N4B d   1       0.487  -2.433  -2.483  0.00  0.00     0.004 C 
ATOM     10  C4' N4B d   1      -0.518  -3.546  -2.489  0.00  0.00     0.003 C 
ENDBRANCH   8   9
ENDBRANCH   7   8
ENDBRANCH   1   7
TORSDOF 3
ENDMDL
