MODEL 1
REMARK minimizedAffinity -4.28328943
REMARK minimizedRMSD -1
REMARK  3 active torsions:
REMARK  status: ('A' for Active; 'I' for Inactive)
REMARK    1  A    between atoms: C3'_2  and  C2'_3 
REMARK    2  A    between atoms: C2'_3  and  C1'_4 
REMARK    3  A    between atoms: C1'_4  and  C1_5 
ROOT
ATOM      1  C1  N4B d   1       0.158   0.315  -0.187  0.00  0.00    -0.075 A 
ATOM      2  C2  N4B d   1      -0.778   1.238  -0.703  0.00  0.00     0.002 A 
ATOM      3  C3  N4B d   1      -1.708   1.811   0.129  0.00  0.00     0.002 A 
ATOM      4  C4  N4B d   1      -1.733   1.464   1.472  0.00  0.00    -0.004 A 
ATOM      5  C5  N4B d   1      -0.809   0.591   1.967  0.00  0.00     0.002 A 
ATOM      6  C6  N4B d   1       0.133   0.010   1.143  0.00  0.00     0.002 A 
ENDROOT
BRANCH   1   7
ATOM      7  C1' N4B d   1       1.138  -0.402  -1.075  0.00  0.00     0.057 C 
BRANCH   7   8
ATOM      8  C2' N4B d   1       1.161  -1.882  -0.702  0.00  0.00     0.009 C 
BRANCH   8   9
ATOM      9  C3' N4B d   1       0.743  -2.767  -1.863  0.00  0.00     0.004 C 
ATOM     10  C4' N4B d   1       0.197  -4.091  -1.417  0.00  0.00     0.003 C 
ENDBRANCH   8   9
ENDBRANCH   7   8
ENDBRANCH   1   7
TORSDOF 3
ENDMDL
