MODEL 1
REMARK minimizedAffinity -0.737301648
REMARK minimizedRMSD -1
REMARK  0 active torsions:
REMARK  status: ('A' for Active; 'I' for Inactive)
ROOT
ATOM      1  C2' OXE d   1       2.642   0.884   0.730  0.00  0.00     0.078 C 
ATOM      2  C1' OXE d   1       5.282  -0.071   0.749  0.00  0.00     0.078 C 
ATOM      3  C1  OXE d   1       4.170  -1.072   0.941  0.00  0.00    -0.078 A 
ATOM      4  C2  OXE d   1       2.884  -0.590   0.977  0.00  0.00    -0.078 A 
ATOM      5  C3  OXE d   1       1.818  -1.477   1.096  0.00  0.00     0.003 A 
ATOM      6  C4  OXE d   1       2.051  -2.837   1.334  0.00  0.00    -0.002 A 
ATOM      7  C5  OXE d   1       3.355  -3.343   1.341  0.00  0.00    -0.002 A 
ATOM      8  C6  OXE d   1       4.422  -2.483   1.104  0.00  0.00     0.003 A 
ENDROOT
TORSDOF 0
ENDMDL
