MODEL 1
REMARK minimizedAffinity 0.0492565855
REMARK minimizedRMSD -1
REMARK  0 active torsions:
REMARK  status: ('A' for Active; 'I' for Inactive)
ROOT
ATOM      1  C2' OXE d   1       5.951   1.538  -4.210  0.00  0.00     0.078 C 
ATOM      2  C1' OXE d   1       5.957  -1.258  -4.464  0.00  0.00     0.078 C 
ATOM      3  C1  OXE d   1       5.954  -0.678  -3.072  0.00  0.00    -0.078 A 
ATOM      4  C2  OXE d   1       5.998   0.691  -2.957  0.00  0.00    -0.078 A 
ATOM      5  C3  OXE d   1       5.942   1.279  -1.697  0.00  0.00     0.003 A 
ATOM      6  C4  OXE d   1       5.997   0.489  -0.542  0.00  0.00    -0.002 A 
ATOM      7  C5  OXE d   1       5.992  -0.907  -0.637  0.00  0.00    -0.002 A 
ATOM      8  C6  OXE d   1       5.928  -1.505  -1.891  0.00  0.00     0.003 A 
ENDROOT
TORSDOF 0
ENDMDL
