MODEL 1
REMARK minimizedAffinity 1.10428834
REMARK minimizedRMSD -1
REMARK  0 active torsions:
REMARK  status: ('A' for Active; 'I' for Inactive)
ROOT
ATOM      1  O1  BZF d   1      -0.852  -2.273  -3.353  0.00  0.00    -0.204 OA
ATOM      2  C2  BZF d   1      -1.095  -3.090  -2.265  0.00  0.00     0.174 A 
ATOM      3  C3  BZF d   1      -0.992  -2.396  -1.113  0.00  0.00    -0.012 A 
ATOM      4  C3A BZF d   1      -0.755  -1.042  -1.510  0.00  0.00    -0.107 A 
ATOM      5  C4  BZF d   1      -0.580   0.123  -0.817  0.00  0.00     0.055 A 
ATOM      6  C5  BZF d   1      -0.296   1.262  -1.501  0.00  0.00    -0.016 A 
ATOM      7  C6  BZF d   1      -0.174   1.272  -2.875  0.00  0.00     0.022 A 
ATOM      8  C7  BZF d   1      -0.343   0.143  -3.606  0.00  0.00     0.029 A 
ATOM      9  C7A BZF d   1      -0.663  -1.003  -2.920  0.00  0.00     0.058 A 
ENDROOT
TORSDOF 0
ENDMDL
