MODEL 1
REMARK minimizedAffinity 6.78173494
REMARK minimizedRMSD -1
REMARK  0 active torsions:
REMARK  status: ('A' for Active; 'I' for Inactive)
ROOT
ATOM      1  O1  BZF d   1       2.970  -2.738  -0.323  0.00  0.00    -0.204 OA
ATOM      2  C2  BZF d   1       3.074  -1.402  -0.659  0.00  0.00     0.174 A 
ATOM      3  C3  BZF d   1       1.958  -0.979  -1.287  0.00  0.00    -0.012 A 
ATOM      4  C3A BZF d   1       1.066  -2.098  -1.265  0.00  0.00    -0.107 A 
ATOM      5  C4  BZF d   1      -0.206  -2.293  -1.720  0.00  0.00     0.055 A 
ATOM      6  C5  BZF d   1      -0.766  -3.526  -1.606  0.00  0.00    -0.016 A 
ATOM      7  C6  BZF d   1      -0.082  -4.586  -1.049  0.00  0.00     0.022 A 
ATOM      8  C7  BZF d   1       1.181  -4.439  -0.578  0.00  0.00     0.029 A 
ATOM      9  C7A BZF d   1       1.737  -3.186  -0.662  0.00  0.00     0.058 A 
ENDROOT
TORSDOF 0
ENDMDL
