MODEL 1
REMARK minimizedAffinity 0.602202773
REMARK minimizedRMSD -1
REMARK  0 active torsions:
REMARK  status: ('A' for Active; 'I' for Inactive)
ROOT
ATOM      1  O1  BZF d   1      -6.000   0.351  -4.934  0.00  0.00    -0.204 OA
ATOM      2  C2  BZF d   1      -5.142   0.159  -6.000  0.00  0.00     0.174 A 
ATOM      3  C3  BZF d   1      -4.098   1.011  -5.933  0.00  0.00    -0.012 A 
ATOM      4  C3A BZF d   1      -4.269   1.719  -4.702  0.00  0.00    -0.107 A 
ATOM      5  C4  BZF d   1      -3.545   2.689  -4.068  0.00  0.00     0.055 A 
ATOM      6  C5  BZF d   1      -4.024   3.222  -2.914  0.00  0.00    -0.016 A 
ATOM      7  C6  BZF d   1      -5.223   2.814  -2.368  0.00  0.00     0.022 A 
ATOM      8  C7  BZF d   1      -5.974   1.851  -2.957  0.00  0.00     0.029 A 
ATOM      9  C7A BZF d   1      -5.477   1.287  -4.106  0.00  0.00     0.058 A 
ENDROOT
TORSDOF 0
ENDMDL
