MODEL 1
REMARK minimizedAffinity 1.40095592
REMARK minimizedRMSD -1
REMARK  0 active torsions:
REMARK  status: ('A' for Active; 'I' for Inactive)
ROOT
ATOM      1  O1  BZF d   1       0.738   0.808   1.798  0.00  0.00    -0.204 OA
ATOM      2  C2  BZF d   1       0.636   1.363   3.059  0.00  0.00     0.174 A 
ATOM      3  C3  BZF d   1       0.297   2.666   2.982  0.00  0.00    -0.012 A 
ATOM      4  C3A BZF d   1       0.091   2.919   1.589  0.00  0.00    -0.107 A 
ATOM      5  C4  BZF d   1      -0.278   4.027   0.881  0.00  0.00     0.055 A 
ATOM      6  C5  BZF d   1      -0.317   3.961  -0.476  0.00  0.00    -0.016 A 
ATOM      7  C6  BZF d   1       0.011   2.807  -1.156  0.00  0.00     0.022 A 
ATOM      8  C7  BZF d   1       0.377   1.681  -0.497  0.00  0.00     0.029 A 
ATOM      9  C7A BZF d   1       0.386   1.735   0.875  0.00  0.00     0.058 A 
ENDROOT
TORSDOF 0
ENDMDL
