MODEL 1
REMARK minimizedAffinity 7.5016017
REMARK minimizedRMSD -1
REMARK  0 active torsions:
REMARK  status: ('A' for Active; 'I' for Inactive)
ROOT
ATOM      1  O1  BZF d   1       2.086   4.539  -0.300  0.00  0.00    -0.204 OA
ATOM      2  C2  BZF d   1       1.397   5.077  -1.369  0.00  0.00     0.174 A 
ATOM      3  C3  BZF d   1       0.111   4.668  -1.364  0.00  0.00    -0.012 A 
ATOM      4  C3A BZF d   1      -0.033   3.896  -0.169  0.00  0.00    -0.107 A 
ATOM      5  C4  BZF d   1      -1.084   3.235   0.401  0.00  0.00     0.055 A 
ATOM      6  C5  BZF d   1      -0.875   2.515   1.535  0.00  0.00    -0.016 A 
ATOM      7  C6  BZF d   1       0.370   2.430   2.122  0.00  0.00     0.022 A 
ATOM      8  C7  BZF d   1       1.442   3.072   1.596  0.00  0.00     0.029 A 
ATOM      9  C7A BZF d   1       1.227   3.827   0.469  0.00  0.00     0.058 A 
ENDROOT
TORSDOF 0
ENDMDL
