MODEL 1
REMARK minimizedAffinity 6.2813468
REMARK minimizedRMSD -1
REMARK  0 active torsions:
REMARK  status: ('A' for Active; 'I' for Inactive)
ROOT
ATOM      1  O1  BZF d   1      -2.786   5.013  -0.728  0.00  0.00    -0.204 OA
ATOM      2  C2  BZF d   1      -3.409   4.300  -1.734  0.00  0.00     0.174 A 
ATOM      3  C3  BZF d   1      -2.676   3.222  -2.080  0.00  0.00    -0.012 A 
ATOM      4  C3A BZF d   1      -1.569   3.213  -1.174  0.00  0.00    -0.107 A 
ATOM      5  C4  BZF d   1      -0.500   2.379  -1.005  0.00  0.00     0.055 A 
ATOM      6  C5  BZF d   1       0.442   2.692  -0.077  0.00  0.00    -0.016 A 
ATOM      7  C6  BZF d   1       0.350   3.832   0.694  0.00  0.00     0.022 A 
ATOM      8  C7  BZF d   1      -0.694   4.687   0.566  0.00  0.00     0.029 A 
ATOM      9  C7A BZF d   1      -1.664   4.356  -0.348  0.00  0.00     0.058 A 
ENDROOT
TORSDOF 0
ENDMDL
