MODEL 1
REMARK minimizedAffinity -5.44067001
REMARK minimizedRMSD -1
REMARK  0 active torsions:
REMARK  status: ('A' for Active; 'I' for Inactive)
ROOT
ATOM      1  C   UNL d   1      -1.779  -0.478   3.017  0.00  0.00     0.020 A 
ATOM      2  C1  UNL d   1      -2.797  -0.287   2.084  0.00  0.00     0.020 A 
ATOM      3  C2  UNL d   1      -2.485   0.113   0.783  0.00  0.00     0.034 A 
ATOM      4  C3  UNL d   1      -1.152   0.323   0.411  0.00  0.00     0.017 A 
ATOM      5  C4  UNL d   1      -0.131   0.131   1.349  0.00  0.00     0.017 A 
ATOM      6  C5  UNL d   1      -0.449  -0.270   2.650  0.00  0.00     0.034 A 
ATOM      7 Cl   UNL d   1       1.537   0.370   0.965  0.00  0.00    -0.070 Cl
ATOM      8 Cl1  UNL d   1      -0.839   0.817  -1.215  0.00  0.00    -0.070 Cl
ENDROOT
TORSDOF 0
ENDMDL
