MODEL 1
REMARK minimizedAffinity -1.65872514
REMARK minimizedRMSD -1
REMARK  0 active torsions:
REMARK  status: ('A' for Active; 'I' for Inactive)
ROOT
ATOM      1  C   UNL d   1      -0.919  -0.797   1.164  0.00  0.00     0.020 A 
ATOM      2  C1  UNL d   1      -0.164  -0.264   2.208  0.00  0.00     0.020 A 
ATOM      3  C2  UNL d   1       1.085   0.304   1.949  0.00  0.00     0.034 A 
ATOM      4  C3  UNL d   1       1.584   0.339   0.641  0.00  0.00     0.017 A 
ATOM      5  C4  UNL d   1       0.826  -0.196  -0.406  0.00  0.00     0.017 A 
ATOM      6  C5  UNL d   1      -0.424  -0.763  -0.141  0.00  0.00     0.034 A 
ATOM      7 Cl   UNL d   1       1.375  -0.189  -2.045  0.00  0.00    -0.070 Cl
ATOM      8 Cl1  UNL d   1       3.136   1.057   0.393  0.00  0.00    -0.070 Cl
ENDROOT
TORSDOF 0
ENDMDL
