MODEL 1
REMARK minimizedAffinity -3.99818301
REMARK minimizedRMSD -1
REMARK  0 active torsions:
REMARK  status: ('A' for Active; 'I' for Inactive)
ROOT
ATOM      1  C   UNL d   1       1.415  -0.966   0.615  0.00  0.00     0.020 A 
ATOM      2  C1  UNL d   1       0.162  -0.556   1.069  0.00  0.00     0.020 A 
ATOM      3  C2  UNL d   1      -0.740   0.041   0.186  0.00  0.00     0.034 A 
ATOM      4  C3  UNL d   1      -0.390   0.229  -1.156  0.00  0.00     0.017 A 
ATOM      5  C4  UNL d   1       0.868  -0.183  -1.611  0.00  0.00     0.017 A 
ATOM      6  C5  UNL d   1       1.767  -0.780  -0.722  0.00  0.00     0.034 A 
ATOM      7 Cl   UNL d   1       1.371   0.016  -3.253  0.00  0.00    -0.070 Cl
ATOM      8 Cl1  UNL d   1      -1.554   0.974  -2.193  0.00  0.00    -0.070 Cl
ENDROOT
TORSDOF 0
ENDMDL
