MODEL 1
REMARK minimizedAffinity -2.26779771
REMARK minimizedRMSD -1
REMARK  0 active torsions:
REMARK  status: ('A' for Active; 'I' for Inactive)
ROOT
ATOM      1  C   UNL d   1       0.026  -0.817   3.111  0.00  0.00     0.020 A 
ATOM      2  C1  UNL d   1       1.145  -0.736   2.283  0.00  0.00     0.020 A 
ATOM      3  C2  UNL d   1       1.002  -0.333   0.954  0.00  0.00     0.034 A 
ATOM      4  C3  UNL d   1      -0.262  -0.008   0.449  0.00  0.00     0.017 A 
ATOM      5  C4  UNL d   1      -1.385  -0.090   1.281  0.00  0.00     0.017 A 
ATOM      6  C5  UNL d   1      -1.236  -0.495   2.611  0.00  0.00     0.034 A 
ATOM      7 Cl   UNL d   1      -2.977   0.294   0.729  0.00  0.00    -0.070 Cl
ATOM      8 Cl1  UNL d   1      -0.365   0.483  -1.204  0.00  0.00    -0.070 Cl
ENDROOT
TORSDOF 0
ENDMDL
