MODEL 1
REMARK minimizedAffinity -4.21654606
REMARK minimizedRMSD -1
REMARK  0 active torsions:
REMARK  status: ('A' for Active; 'I' for Inactive)
ROOT
ATOM      1  C   UNL d   1       1.101  -2.837  -2.625  0.00  0.00     0.020 A 
ATOM      2  C1  UNL d   1       1.245  -1.767  -3.507  0.00  0.00     0.020 A 
ATOM      3  C2  UNL d   1       0.895  -0.477  -3.104  0.00  0.00     0.034 A 
ATOM      4  C3  UNL d   1       0.399  -0.253  -1.814  0.00  0.00     0.017 A 
ATOM      5  C4  UNL d   1       0.255  -1.327  -0.929  0.00  0.00     0.017 A 
ATOM      6  C5  UNL d   1       0.607  -2.617  -1.338  0.00  0.00     0.034 A 
ATOM      7 Cl   UNL d   1      -0.350  -1.129   0.678  0.00  0.00    -0.070 Cl
ATOM      8 Cl1  UNL d   1      -0.013   1.369  -1.382  0.00  0.00    -0.070 Cl
ENDROOT
TORSDOF 0
ENDMDL
