MODEL 1
REMARK minimizedAffinity -0.980099916
REMARK minimizedRMSD -1
REMARK  0 active torsions:
REMARK  status: ('A' for Active; 'I' for Inactive)
ROOT
ATOM      1  C   UNL d   1       0.281   0.167   2.827  0.00  0.00     0.020 A 
ATOM      2  C1  UNL d   1       1.469   0.029   2.111  0.00  0.00     0.020 A 
ATOM      3  C2  UNL d   1       1.442  -0.016   0.715  0.00  0.00     0.034 A 
ATOM      4  C3  UNL d   1       0.224   0.077   0.031  0.00  0.00     0.017 A 
ATOM      5  C4  UNL d   1      -0.968   0.216   0.751  0.00  0.00     0.017 A 
ATOM      6  C5  UNL d   1      -0.935   0.261   2.148  0.00  0.00     0.034 A 
ATOM      7 Cl   UNL d   1      -2.509   0.338  -0.022  0.00  0.00    -0.070 Cl
ATOM      8 Cl1  UNL d   1       0.265   0.015  -1.695  0.00  0.00    -0.070 Cl
ENDROOT
TORSDOF 0
ENDMDL
