MODEL 1
REMARK minimizedAffinity -2.84356284
REMARK minimizedRMSD -1
REMARK  0 active torsions:
REMARK  status: ('A' for Active; 'I' for Inactive)
ROOT
ATOM      1  C   UNL d   1       1.437  -0.228   1.754  0.00  0.00     0.020 A 
ATOM      2  C1  UNL d   1       0.273   0.013   2.482  0.00  0.00     0.020 A 
ATOM      3  C2  UNL d   1      -0.924   0.282   1.815  0.00  0.00     0.034 A 
ATOM      4  C3  UNL d   1      -0.959   0.311   0.416  0.00  0.00     0.017 A 
ATOM      5  C4  UNL d   1       0.210   0.070  -0.314  0.00  0.00     0.017 A 
ATOM      6  C5  UNL d   1       1.406  -0.200   0.359  0.00  0.00     0.034 A 
ATOM      7 Cl   UNL d   1       0.245   0.089  -2.042  0.00  0.00    -0.070 Cl
ATOM      8 Cl1  UNL d   1      -2.474   0.651  -0.343  0.00  0.00    -0.070 Cl
ENDROOT
TORSDOF 0
ENDMDL
