MODEL 1
REMARK minimizedAffinity -2.27283096
REMARK minimizedRMSD -1
REMARK  0 active torsions:
REMARK  status: ('A' for Active; 'I' for Inactive)
ROOT
ATOM      1  C   UNL d   1       0.615  -3.070  -3.121  0.00  0.00     0.020 A 
ATOM      2  C1  UNL d   1       1.629  -2.848  -4.051  0.00  0.00     0.020 A 
ATOM      3  C2  UNL d   1       2.157  -1.565  -4.214  0.00  0.00     0.034 A 
ATOM      4  C3  UNL d   1       1.671  -0.501  -3.447  0.00  0.00     0.017 A 
ATOM      5  C4  UNL d   1       0.652  -0.725  -2.514  0.00  0.00     0.017 A 
ATOM      6  C5  UNL d   1       0.127  -2.011  -2.354  0.00  0.00     0.034 A 
ATOM      7 Cl   UNL d   1       0.001   0.539  -1.531  0.00  0.00    -0.070 Cl
ATOM      8 Cl1  UNL d   1       2.370   1.059  -3.702  0.00  0.00    -0.070 Cl
ENDROOT
TORSDOF 0
ENDMDL
