MODEL 1
REMARK minimizedAffinity -2.85741591
REMARK minimizedRMSD -1
REMARK  0 active torsions:
REMARK  status: ('A' for Active; 'I' for Inactive)
ROOT
ATOM      1  C   UNL d   1      -0.439   0.393  -1.373  0.00  0.00     0.020 A 
ATOM      2  C1  UNL d   1      -1.563   0.110  -0.598  0.00  0.00     0.020 A 
ATOM      3  C2  UNL d   1      -1.437  -0.054   0.783  0.00  0.00     0.034 A 
ATOM      4  C3  UNL d   1      -0.183   0.065   1.394  0.00  0.00     0.017 A 
ATOM      5  C4  UNL d   1       0.945   0.350   0.616  0.00  0.00     0.017 A 
ATOM      6  C5  UNL d   1       0.813   0.513  -0.767  0.00  0.00     0.034 A 
ATOM      7 Cl   UNL d   1       2.525   0.511   1.298  0.00  0.00    -0.070 Cl
ATOM      8 Cl1  UNL d   1      -0.101  -0.150   3.106  0.00  0.00    -0.070 Cl
ENDROOT
TORSDOF 0
ENDMDL
