MODEL 1
REMARK minimizedAffinity -0.682299733
REMARK minimizedRMSD -1
REMARK  0 active torsions:
REMARK  status: ('A' for Active; 'I' for Inactive)
ROOT
ATOM      1  C   UNL d   1       2.116  -0.112  -3.936  0.00  0.00     0.020 A 
ATOM      2  C1  UNL d   1       2.026  -1.433  -4.372  0.00  0.00     0.020 A 
ATOM      3  C2  UNL d   1       1.058  -2.283  -3.832  0.00  0.00     0.034 A 
ATOM      4  C3  UNL d   1       0.176  -1.812  -2.852  0.00  0.00     0.017 A 
ATOM      5  C4  UNL d   1       0.267  -0.486  -2.415  0.00  0.00     0.017 A 
ATOM      6  C5  UNL d   1       1.238   0.360  -2.959  0.00  0.00     0.034 A 
ATOM      7 Cl   UNL d   1      -0.785   0.167  -1.209  0.00  0.00    -0.070 Cl
ATOM      8 Cl1  UNL d   1      -0.996  -2.917  -2.228  0.00  0.00    -0.070 Cl
ENDROOT
TORSDOF 0
ENDMDL
