MODEL 1
REMARK minimizedAffinity -2.2226882
REMARK minimizedRMSD -1
REMARK  0 active torsions:
REMARK  status: ('A' for Active; 'I' for Inactive)
ROOT
ATOM      1  C   UNL d   1       3.985   0.973  -4.033  0.00  0.00     0.020 A 
ATOM      2  C1  UNL d   1       4.440  -0.227  -4.579  0.00  0.00     0.020 A 
ATOM      3  C2  UNL d   1       3.662  -1.382  -4.471  0.00  0.00     0.034 A 
ATOM      4  C3  UNL d   1       2.426  -1.339  -3.817  0.00  0.00     0.017 A 
ATOM      5  C4  UNL d   1       1.970  -0.134  -3.269  0.00  0.00     0.017 A 
ATOM      6  C5  UNL d   1       2.753   1.019  -3.380  0.00  0.00     0.034 A 
ATOM      7 Cl   UNL d   1       0.456  -0.004  -2.447  0.00  0.00    -0.070 Cl
ATOM      8 Cl1  UNL d   1       1.516  -2.805  -3.721  0.00  0.00    -0.070 Cl
ENDROOT
TORSDOF 0
ENDMDL
