MODEL 1
REMARK minimizedAffinity -5.350739
REMARK minimizedRMSD -1
REMARK  0 active torsions:
REMARK  status: ('A' for Active; 'I' for Inactive)
ROOT
ATOM      1  C   UNL d   1      -1.649  -1.156   2.189  0.00  0.00     0.020 A 
ATOM      2  C1  UNL d   1      -0.949  -0.441   3.159  0.00  0.00     0.020 A 
ATOM      3  C2  UNL d   1       0.180   0.299   2.802  0.00  0.00     0.034 A 
ATOM      4  C3  UNL d   1       0.612   0.325   1.471  0.00  0.00     0.017 A 
ATOM      5  C4  UNL d   1      -0.092  -0.393   0.497  0.00  0.00     0.017 A 
ATOM      6  C5  UNL d   1      -1.222  -1.132   0.861  0.00  0.00     0.034 A 
ATOM      7 Cl   UNL d   1       0.381  -0.409  -1.165  0.00  0.00    -0.070 Cl
ATOM      8 Cl1  UNL d   1       2.017   1.261   1.100  0.00  0.00    -0.070 Cl
ENDROOT
TORSDOF 0
ENDMDL
