MODEL 1
REMARK minimizedAffinity -2.97409916
REMARK minimizedRMSD -1
REMARK  0 active torsions:
REMARK  status: ('A' for Active; 'I' for Inactive)
ROOT
ATOM      1  C   UNL d   1       0.097   0.445   0.002  0.00  0.00     0.020 A 
ATOM      2  C1  UNL d   1       0.677  -0.777   0.340  0.00  0.00     0.020 A 
ATOM      3  C2  UNL d   1       1.200  -1.602  -0.658  0.00  0.00     0.034 A 
ATOM      4  C3  UNL d   1       1.143  -1.207  -1.999  0.00  0.00     0.017 A 
ATOM      5  C4  UNL d   1       0.561   0.020  -2.338  0.00  0.00     0.017 A 
ATOM      6  C5  UNL d   1       0.039   0.843  -1.335  0.00  0.00     0.034 A 
ATOM      7 Cl   UNL d   1       0.454   0.576  -3.971  0.00  0.00    -0.070 Cl
ATOM      8 Cl1  UNL d   1       1.809  -2.277  -3.181  0.00  0.00    -0.070 Cl
ENDROOT
TORSDOF 0
ENDMDL
