MODEL 1
REMARK minimizedAffinity -1.23295045
REMARK minimizedRMSD -1
REMARK  0 active torsions:
REMARK  status: ('A' for Active; 'I' for Inactive)
ROOT
ATOM      1  C   UNL d   1       0.567   0.198  -1.099  0.00  0.00     0.020 A 
ATOM      2  C1  UNL d   1       1.449   0.054  -0.029  0.00  0.00     0.020 A 
ATOM      3  C2  UNL d   1       0.965   0.062   1.281  0.00  0.00     0.034 A 
ATOM      4  C3  UNL d   1      -0.405   0.215   1.524  0.00  0.00     0.017 A 
ATOM      5  C4  UNL d   1      -1.289   0.361   0.449  0.00  0.00     0.017 A 
ATOM      6  C5  UNL d   1      -0.799   0.352  -0.861  0.00  0.00     0.034 A 
ATOM      7 Cl   UNL d   1      -2.993   0.554   0.669  0.00  0.00    -0.070 Cl
ATOM      8 Cl1  UNL d   1      -0.934   0.216   3.169  0.00  0.00    -0.070 Cl
ENDROOT
TORSDOF 0
ENDMDL
