MODEL 1
REMARK minimizedAffinity -3.55365658
REMARK minimizedRMSD -1
REMARK  0 active torsions:
REMARK  status: ('A' for Active; 'I' for Inactive)
ROOT
ATOM      1  C   UNL d   1      -0.134  -0.127   2.813  0.00  0.00     0.020 A 
ATOM      2  C1  UNL d   1      -1.065   0.303   1.869  0.00  0.00     0.020 A 
ATOM      3  C2  UNL d   1      -0.826   0.097   0.508  0.00  0.00     0.034 A 
ATOM      4  C3  UNL d   1       0.347  -0.539   0.088  0.00  0.00     0.017 A 
ATOM      5  C4  UNL d   1       1.282  -0.970   1.037  0.00  0.00     0.017 A 
ATOM      6  C5  UNL d   1       1.038  -0.762   2.398  0.00  0.00     0.034 A 
ATOM      7 Cl   UNL d   1       2.753  -1.763   0.595  0.00  0.00    -0.070 Cl
ATOM      8 Cl1  UNL d   1       0.578  -0.760  -1.610  0.00  0.00    -0.070 Cl
ENDROOT
TORSDOF 0
ENDMDL
