MODEL 1
REMARK minimizedAffinity -3.28343868
REMARK minimizedRMSD -1
REMARK  1 active torsions:
REMARK  status: ('A' for Active; 'I' for Inactive)
REMARK    1  A    between atoms: C1_2  and  C2_3 
ROOT
ATOM      1  C2  UNL d   1       1.136   0.515   1.209  0.00  0.00    -0.073 A 
ATOM      2  C3  UNL d   1       0.893   1.880   1.022  0.00  0.00    -0.002 A 
ATOM      3  C4  UNL d   1      -0.387   2.401   1.213  0.00  0.00     0.004 A 
ATOM      4  C5  UNL d   1      -1.435   1.565   1.599  0.00  0.00    -0.004 A 
ATOM      5  C6  UNL d   1      -1.209   0.199   1.802  0.00  0.00    -0.075 A 
ATOM      6  C7  UNL d   1      -2.326  -0.714   2.215  0.00  0.00     0.076 C 
ATOM      7  C8  UNL d   1       0.079  -0.316   1.606  0.00  0.00     0.001 A 
ENDROOT
BRANCH   1   8
ATOM      8  C1  UNL d   1       2.519  -0.051   1.010  0.00  0.00     0.053 C 
ATOM      9  C   UNL d   1       2.580  -1.006  -0.171  0.00  0.00     0.018 C 
ENDBRANCH   1   8
TORSDOF 1
ENDMDL
