MODEL 1
REMARK minimizedAffinity -0.601113975
REMARK minimizedRMSD -1
REMARK  1 active torsions:
REMARK  status: ('A' for Active; 'I' for Inactive)
REMARK    1  A    between atoms: C1_2  and  C2_3 
ROOT
ATOM      1  C2  UNL d   1      -0.133   1.754   1.398  0.00  0.00    -0.073 A 
ATOM      2  C3  UNL d   1      -0.875   2.891   1.739  0.00  0.00    -0.002 A 
ATOM      3  C4  UNL d   1      -2.086   2.764   2.421  0.00  0.00     0.004 A 
ATOM      4  C5  UNL d   1      -2.564   1.502   2.774  0.00  0.00    -0.004 A 
ATOM      5  C6  UNL d   1      -1.831   0.355   2.452  0.00  0.00    -0.075 A 
ATOM      6  C7  UNL d   1      -2.332  -1.010   2.823  0.00  0.00     0.076 C 
ATOM      7  C8  UNL d   1      -0.617   0.490   1.765  0.00  0.00     0.001 A 
ENDROOT
BRANCH   1   8
ATOM      8  C1  UNL d   1       1.178   1.887   0.667  0.00  0.00     0.053 C 
ATOM      9  C   UNL d   1       1.662   3.327   0.622  0.00  0.00     0.018 C 
ENDBRANCH   1   8
TORSDOF 1
ENDMDL
