MODEL 1
REMARK minimizedAffinity 7.74805546
REMARK minimizedRMSD -1
REMARK  1 active torsions:
REMARK  status: ('A' for Active; 'I' for Inactive)
REMARK    1  A    between atoms: C1_2  and  C2_3 
ROOT
ATOM      1  C2  UNL d   1      -1.942   1.307   2.132  0.00  0.00    -0.073 A 
ATOM      2  C3  UNL d   1      -0.567   1.051   2.109  0.00  0.00    -0.002 A 
ATOM      3  C4  UNL d   1       0.263   1.740   1.224  0.00  0.00     0.004 A 
ATOM      4  C5  UNL d   1      -0.271   2.695   0.359  0.00  0.00    -0.004 A 
ATOM      5  C6  UNL d   1      -1.642   2.973   0.375  0.00  0.00    -0.075 A 
ATOM      6  C7  UNL d   1      -2.233   3.995  -0.550  0.00  0.00     0.076 C 
ATOM      7  C8  UNL d   1      -2.469   2.275   1.265  0.00  0.00     0.001 A 
ENDROOT
BRANCH   1   8
ATOM      8  C1  UNL d   1      -2.842   0.570   3.091  0.00  0.00     0.053 C 
ATOM      9  C   UNL d   1      -4.045   1.405   3.500  0.00  0.00     0.018 C 
ENDBRANCH   1   8
TORSDOF 1
ENDMDL
