MODEL 1
REMARK minimizedAffinity -2.24149847
REMARK minimizedRMSD -1
REMARK  1 active torsions:
REMARK  status: ('A' for Active; 'I' for Inactive)
REMARK    1  A    between atoms: C1_2  and  C2_3 
ROOT
ATOM      1  C2  UNL d   1      -1.998   1.518   2.686  0.00  0.00    -0.073 A 
ATOM      2  C3  UNL d   1      -2.306   0.165   2.504  0.00  0.00    -0.002 A 
ATOM      3  C4  UNL d   1      -1.428  -0.671   1.812  0.00  0.00     0.004 A 
ATOM      4  C5  UNL d   1      -0.232  -0.165   1.302  0.00  0.00    -0.004 A 
ATOM      5  C6  UNL d   1       0.099   1.182   1.484  0.00  0.00    -0.075 A 
ATOM      6  C7  UNL d   1       1.380   1.742   0.940  0.00  0.00     0.076 C 
ATOM      7  C8  UNL d   1      -0.789   2.015   2.177  0.00  0.00     0.001 A 
ENDROOT
BRANCH   1   8
ATOM      8  C1  UNL d   1      -2.939   2.423   3.438  0.00  0.00     0.053 C 
ATOM      9  C   UNL d   1      -4.182   1.685   3.910  0.00  0.00     0.018 C 
ENDBRANCH   1   8
TORSDOF 1
ENDMDL
