MODEL 1
REMARK minimizedAffinity 3.58380222
REMARK minimizedRMSD -1
REMARK  1 active torsions:
REMARK  status: ('A' for Active; 'I' for Inactive)
REMARK    1  A    between atoms: C1_2  and  C2_3 
ROOT
ATOM      1  C2  UNL d   1      -1.644   1.613   1.790  0.00  0.00    -0.073 A 
ATOM      2  C3  UNL d   1      -1.828   0.234   1.634  0.00  0.00    -0.002 A 
ATOM      3  C4  UNL d   1      -0.780  -0.570   1.185  0.00  0.00     0.004 A 
ATOM      4  C5  UNL d   1       0.462  -0.008   0.895  0.00  0.00    -0.004 A 
ATOM      5  C6  UNL d   1       0.670   1.366   1.056  0.00  0.00    -0.075 A 
ATOM      6  C7  UNL d   1       2.000   1.987   0.746  0.00  0.00     0.076 C 
ATOM      7  C8  UNL d   1      -0.388   2.168   1.505  0.00  0.00     0.001 A 
ENDROOT
BRANCH   1   8
ATOM      8  C1  UNL d   1      -2.771   2.485   2.281  0.00  0.00     0.053 C 
ATOM      9  C   UNL d   1      -3.650   1.765   3.291  0.00  0.00     0.018 C 
ENDBRANCH   1   8
TORSDOF 1
ENDMDL
