MODEL 1
REMARK minimizedAffinity 5.67173147
REMARK minimizedRMSD -1
REMARK  1 active torsions:
REMARK  status: ('A' for Active; 'I' for Inactive)
REMARK    1  A    between atoms: C1_2  and  C2_3 
ROOT
ATOM      1  C2  UNL d   1      -3.364  -2.060  -3.658  0.00  0.00    -0.073 A 
ATOM      2  C3  UNL d   1      -3.701  -2.985  -2.664  0.00  0.00    -0.002 A 
ATOM      3  C4  UNL d   1      -4.228  -2.551  -1.447  0.00  0.00     0.004 A 
ATOM      4  C5  UNL d   1      -4.430  -1.190  -1.215  0.00  0.00    -0.004 A 
ATOM      5  C6  UNL d   1      -4.111  -0.251  -2.201  0.00  0.00    -0.075 A 
ATOM      6  C7  UNL d   1      -4.320   1.216  -1.967  0.00  0.00     0.076 C 
ATOM      7  C8  UNL d   1      -3.579  -0.695  -3.420  0.00  0.00     0.001 A 
ENDROOT
BRANCH   1   8
ATOM      8  C1  UNL d   1      -2.800  -2.525  -4.976  0.00  0.00     0.053 C 
ATOM      9  C   UNL d   1      -3.894  -2.854  -5.980  0.00  0.00     0.018 C 
ENDBRANCH   1   8
TORSDOF 1
ENDMDL
