MODEL 1
REMARK minimizedAffinity 0.863207579
REMARK minimizedRMSD -1
REMARK  1 active torsions:
REMARK  status: ('A' for Active; 'I' for Inactive)
REMARK    1  A    between atoms: C1_2  and  C2_3 
ROOT
ATOM      1  C2  UNL d   1       0.313   0.655   1.734  0.00  0.00    -0.073 A 
ATOM      2  C3  UNL d   1       0.214   2.048   1.649  0.00  0.00    -0.002 A 
ATOM      3  C4  UNL d   1      -1.019   2.679   1.815  0.00  0.00     0.004 A 
ATOM      4  C5  UNL d   1      -2.164   1.925   2.074  0.00  0.00    -0.004 A 
ATOM      5  C6  UNL d   1      -2.084   0.532   2.174  0.00  0.00    -0.075 A 
ATOM      6  C7  UNL d   1      -3.306  -0.293   2.450  0.00  0.00     0.076 C 
ATOM      7  C8  UNL d   1      -0.842  -0.094   2.004  0.00  0.00     0.001 A 
ENDROOT
BRANCH   1   8
ATOM      8  C1  UNL d   1       1.644  -0.030   1.563  0.00  0.00     0.053 C 
ATOM      9  C   UNL d   1       2.273  -0.397   2.898  0.00  0.00     0.018 C 
ENDBRANCH   1   8
TORSDOF 1
ENDMDL
