MODEL 1
REMARK minimizedAffinity 8.37115097
REMARK minimizedRMSD -1
REMARK  1 active torsions:
REMARK  status: ('A' for Active; 'I' for Inactive)
REMARK    1  A    between atoms: C1_2  and  C2_3 
ROOT
ATOM      1  C2  UNL d   1      -2.927   2.004   2.644  0.00  0.00    -0.073 A 
ATOM      2  C3  UNL d   1      -2.777   0.613   2.611  0.00  0.00    -0.002 A 
ATOM      3  C4  UNL d   1      -3.559  -0.199   3.433  0.00  0.00     0.004 A 
ATOM      4  C5  UNL d   1      -4.502   0.369   4.290  0.00  0.00    -0.004 A 
ATOM      5  C6  UNL d   1      -4.674   1.756   4.329  0.00  0.00    -0.075 A 
ATOM      6  C7  UNL d   1      -5.682   2.383   5.247  0.00  0.00     0.076 C 
ATOM      7  C8  UNL d   1      -3.883   2.566   3.503  0.00  0.00     0.001 A 
ENDROOT
BRANCH   1   8
ATOM      8  C1  UNL d   1      -2.089   2.886   1.754  0.00  0.00     0.053 C 
ATOM      9  C   UNL d   1      -2.936   3.880   0.976  0.00  0.00     0.018 C 
ENDBRANCH   1   8
TORSDOF 1
ENDMDL
