MODEL 1
REMARK minimizedAffinity 0.905307472
REMARK minimizedRMSD -1
REMARK  1 active torsions:
REMARK  status: ('A' for Active; 'I' for Inactive)
REMARK    1  A    between atoms: C1_2  and  C2_3 
ROOT
ATOM      1  C2  UNL d   1       1.357   0.364   1.407  0.00  0.00    -0.073 A 
ATOM      2  C3  UNL d   1       1.102   1.740   1.403  0.00  0.00    -0.002 A 
ATOM      3  C4  UNL d   1      -0.206   2.215   1.298  0.00  0.00     0.004 A 
ATOM      4  C5  UNL d   1      -1.272   1.321   1.202  0.00  0.00    -0.004 A 
ATOM      5  C6  UNL d   1      -1.039  -0.058   1.217  0.00  0.00    -0.075 A 
ATOM      6  C7  UNL d   1      -2.174  -1.034   1.113  0.00  0.00     0.076 C 
ATOM      7  C8  UNL d   1       0.278  -0.527   1.320  0.00  0.00     0.001 A 
ENDROOT
BRANCH   1   8
ATOM      8  C1  UNL d   1       2.767  -0.153   1.527  0.00  0.00     0.053 C 
ATOM      9  C   UNL d   1       3.119  -0.520   2.960  0.00  0.00     0.018 C 
ENDBRANCH   1   8
TORSDOF 1
ENDMDL
