MODEL 1
REMARK minimizedAffinity 6.05134201
REMARK minimizedRMSD -1
REMARK  1 active torsions:
REMARK  status: ('A' for Active; 'I' for Inactive)
REMARK    1  A    between atoms: C1_2  and  C2_3 
ROOT
ATOM      1  C2  UNL d   1      -1.762   1.618   2.042  0.00  0.00    -0.073 A 
ATOM      2  C3  UNL d   1      -1.965   0.263   2.326  0.00  0.00    -0.002 A 
ATOM      3  C4  UNL d   1      -0.943  -0.663   2.113  0.00  0.00     0.004 A 
ATOM      4  C5  UNL d   1       0.293  -0.243   1.620  0.00  0.00    -0.004 A 
ATOM      5  C6  UNL d   1       0.519   1.108   1.342  0.00  0.00    -0.075 A 
ATOM      6  C7  UNL d   1       1.842   1.576   0.810  0.00  0.00     0.076 C 
ATOM      7  C8  UNL d   1      -0.513   2.032   1.556  0.00  0.00     0.001 A 
ENDROOT
BRANCH   1   8
ATOM      8  C1  UNL d   1      -2.860   2.622   2.277  0.00  0.00     0.053 C 
ATOM      9  C   UNL d   1      -3.859   2.142   3.317  0.00  0.00     0.018 C 
ENDBRANCH   1   8
TORSDOF 1
ENDMDL
