MODEL 1
REMARK minimizedAffinity 6.53104639
REMARK minimizedRMSD -1
REMARK  1 active torsions:
REMARK  status: ('A' for Active; 'I' for Inactive)
REMARK    1  A    between atoms: C1_2  and  C2_3 
ROOT
ATOM      1  C2  UNL d   1      -0.769   1.846   1.467  0.00  0.00    -0.073 A 
ATOM      2  C3  UNL d   1       0.425   2.260   0.865  0.00  0.00    -0.002 A 
ATOM      3  C4  UNL d   1       1.517   1.395   0.796  0.00  0.00     0.004 A 
ATOM      4  C5  UNL d   1       1.426   0.106   1.321  0.00  0.00    -0.004 A 
ATOM      5  C6  UNL d   1       0.239  -0.331   1.916  0.00  0.00    -0.075 A 
ATOM      6  C7  UNL d   1       0.125  -1.714   2.487  0.00  0.00     0.076 C 
ATOM      7  C8  UNL d   1      -0.853   0.545   1.984  0.00  0.00     0.001 A 
ENDROOT
BRANCH   1   8
ATOM      8  C1  UNL d   1      -1.953   2.774   1.538  0.00  0.00     0.053 C 
ATOM      9  C   UNL d   1      -2.898   2.406   2.671  0.00  0.00     0.018 C 
ENDBRANCH   1   8
TORSDOF 1
ENDMDL
