MODEL 1
REMARK minimizedAffinity 0.249389276
REMARK minimizedRMSD -1
REMARK  1 active torsions:
REMARK  status: ('A' for Active; 'I' for Inactive)
REMARK    1  A    between atoms: C1_2  and  C2_3 
ROOT
ATOM      1  C2  UNL d   1      -2.540   1.872   3.234  0.00  0.00    -0.073 A 
ATOM      2  C3  UNL d   1      -1.178   1.572   3.358  0.00  0.00    -0.002 A 
ATOM      3  C4  UNL d   1      -0.243   2.185   2.524  0.00  0.00     0.004 A 
ATOM      4  C5  UNL d   1      -0.656   3.108   1.564  0.00  0.00    -0.004 A 
ATOM      5  C6  UNL d   1      -2.011   3.431   1.433  0.00  0.00    -0.075 A 
ATOM      6  C7  UNL d   1      -2.473   4.421   0.404  0.00  0.00     0.076 C 
ATOM      7  C8  UNL d   1      -2.945   2.809   2.273  0.00  0.00     0.001 A 
ENDROOT
BRANCH   1   8
ATOM      8  C1  UNL d   1      -3.553   1.218   4.137  0.00  0.00     0.053 C 
ATOM      9  C   UNL d   1      -4.217   2.219   5.070  0.00  0.00     0.018 C 
ENDBRANCH   1   8
TORSDOF 1
ENDMDL
