MODEL 1
REMARK minimizedAffinity -1.96828759
REMARK minimizedRMSD -1
REMARK  0 active torsions:
REMARK  status: ('A' for Active; 'I' for Inactive)
ROOT
ATOM      1  C   UNL d   1       2.036   1.388   0.502  0.00  0.00     0.172 C 
ATOM      2  N   UNL d   1       2.040   0.407   1.562  0.00  0.00    -0.070 N 
ATOM      3  C1  UNL d   1       1.131  -0.606   1.715  0.00  0.00    -0.004 A 
ATOM      4  C2  UNL d   1       1.480  -1.319   2.841  0.00  0.00    -0.047 A 
ATOM      5  C3  UNL d   1       2.638  -0.713   3.385  0.00  0.00    -0.047 A 
ATOM      6  C4  UNL d   1       2.962   0.353   2.573  0.00  0.00    -0.004 A 
ENDROOT
TORSDOF 0
ENDMDL
