MODEL 1
REMARK minimizedAffinity -4.0816927
REMARK minimizedRMSD -1
REMARK  0 active torsions:
REMARK  status: ('A' for Active; 'I' for Inactive)
ROOT
ATOM      1  C   UNL d   1       0.071  -2.358   1.394  0.00  0.00     0.172 C 
ATOM      2  N   UNL d   1       0.869  -1.180   1.151  0.00  0.00    -0.070 N 
ATOM      3  C1  UNL d   1       0.461  -0.067   0.464  0.00  0.00    -0.004 A 
ATOM      4  C2  UNL d   1       1.508   0.829   0.453  0.00  0.00    -0.047 A 
ATOM      5  C3  UNL d   1       2.582   0.235   1.156  0.00  0.00    -0.047 A 
ATOM      6  C4  UNL d   1       2.159  -1.008   1.577  0.00  0.00    -0.004 A 
ENDROOT
TORSDOF 0
ENDMDL
