MODEL 1
REMARK minimizedAffinity -1.06289816
REMARK minimizedRMSD -1
REMARK  0 active torsions:
REMARK  status: ('A' for Active; 'I' for Inactive)
ROOT
ATOM      1  C   UNL d   1       1.927  -1.749   3.410  0.00  0.00     0.172 C 
ATOM      2  N   UNL d   1       2.187  -0.362   3.106  0.00  0.00    -0.070 N 
ATOM      3  C1  UNL d   1       2.497   0.140   1.870  0.00  0.00    -0.004 A 
ATOM      4  C2  UNL d   1       2.670   1.501   1.998  0.00  0.00    -0.047 A 
ATOM      5  C3  UNL d   1       2.457   1.829   3.358  0.00  0.00    -0.047 A 
ATOM      6  C4  UNL d   1       2.159   0.657   4.021  0.00  0.00    -0.004 A 
ENDROOT
TORSDOF 0
ENDMDL
