MODEL 1
REMARK minimizedAffinity -1.77283633
REMARK minimizedRMSD -1
REMARK  0 active torsions:
REMARK  status: ('A' for Active; 'I' for Inactive)
ROOT
ATOM      1  C   UNL d   1      -5.966  -2.273  -4.682  0.00  0.00     0.172 C 
ATOM      2  N   UNL d   1      -5.975  -3.711  -4.810  0.00  0.00    -0.070 N 
ATOM      3  C1  UNL d   1      -5.963  -4.605  -3.772  0.00  0.00    -0.004 A 
ATOM      4  C2  UNL d   1      -5.979  -5.874  -4.308  0.00  0.00    -0.047 A 
ATOM      5  C3  UNL d   1      -6.000  -5.739  -5.717  0.00  0.00    -0.047 A 
ATOM      6  C4  UNL d   1      -5.997  -4.389  -6.000  0.00  0.00    -0.004 A 
ENDROOT
TORSDOF 0
ENDMDL
