MODEL 1
REMARK minimizedAffinity 4.02946234
REMARK minimizedRMSD -1
REMARK  0 active torsions:
REMARK  status: ('A' for Active; 'I' for Inactive)
ROOT
ATOM      1  C   UNL d   1       4.232  -1.090  -3.029  0.00  0.00     0.172 C 
ATOM      2  N   UNL d   1       4.732  -0.477  -4.237  0.00  0.00    -0.070 N 
ATOM      3  C1  UNL d   1       5.876  -0.833  -4.900  0.00  0.00    -0.004 A 
ATOM      4  C2  UNL d   1       6.000  -0.012  -6.000  0.00  0.00    -0.047 A 
ATOM      5  C3  UNL d   1       4.892   0.868  -5.998  0.00  0.00    -0.047 A 
ATOM      6  C4  UNL d   1       4.123   0.559  -4.896  0.00  0.00    -0.004 A 
ENDROOT
TORSDOF 0
ENDMDL
