MODEL 1
REMARK minimizedAffinity 2.94900751
REMARK minimizedRMSD -1
REMARK  0 active torsions:
REMARK  status: ('A' for Active; 'I' for Inactive)
ROOT
ATOM      1  C   UNL d   1       4.437   5.590  -2.027  0.00  0.00     0.172 C 
ATOM      2  N   UNL d   1       4.744   5.722  -3.432  0.00  0.00    -0.070 N 
ATOM      3  C1  UNL d   1       3.837   5.665  -4.456  0.00  0.00    -0.004 A 
ATOM      4  C2  UNL d   1       4.524   5.835  -5.639  0.00  0.00    -0.047 A 
ATOM      5  C3  UNL d   1       5.891   5.999  -5.314  0.00  0.00    -0.047 A 
ATOM      6  C4  UNL d   1       5.999   5.925  -3.941  0.00  0.00    -0.004 A 
ENDROOT
TORSDOF 0
ENDMDL
