MODEL 1
REMARK minimizedAffinity 1.34731364
REMARK minimizedRMSD -1
REMARK  0 active torsions:
REMARK  status: ('A' for Active; 'I' for Inactive)
ROOT
ATOM      1  C   UNL d   1      -2.995  -1.251  -3.584  0.00  0.00     0.172 C 
ATOM      2  N   UNL d   1      -2.358  -2.327  -2.861  0.00  0.00    -0.070 N 
ATOM      3  C1  UNL d   1      -1.442  -3.204  -3.378  0.00  0.00    -0.004 A 
ATOM      4  C2  UNL d   1      -1.077  -4.074  -2.374  0.00  0.00    -0.047 A 
ATOM      5  C3  UNL d   1      -1.799  -3.709  -1.214  0.00  0.00    -0.047 A 
ATOM      6  C4  UNL d   1      -2.585  -2.624  -1.543  0.00  0.00    -0.004 A 
ENDROOT
TORSDOF 0
ENDMDL
