MODEL 1
REMARK minimizedAffinity -0.523491621
REMARK minimizedRMSD -1
REMARK  0 active torsions:
REMARK  status: ('A' for Active; 'I' for Inactive)
ROOT
ATOM      1  C   UNL d   1       4.273  -2.799  -5.973  0.00  0.00     0.172 C 
ATOM      2  N   UNL d   1       4.701  -1.420  -5.966  0.00  0.00    -0.070 N 
ATOM      3  C1  UNL d   1       6.000  -0.987  -6.000  0.00  0.00    -0.004 A 
ATOM      4  C2  UNL d   1       5.986   0.391  -5.980  0.00  0.00    -0.047 A 
ATOM      5  C3  UNL d   1       4.632   0.800  -5.931  0.00  0.00    -0.047 A 
ATOM      6  C4  UNL d   1       3.858  -0.341  -5.924  0.00  0.00    -0.004 A 
ENDROOT
TORSDOF 0
ENDMDL
