MODEL 1
REMARK minimizedAffinity -2.11276698
REMARK minimizedRMSD -1
REMARK  0 active torsions:
REMARK  status: ('A' for Active; 'I' for Inactive)
ROOT
ATOM      1  N1  IND d   1      -1.040  -1.190   3.293  0.00  0.00    -0.196 N 
ATOM      2  C2  IND d   1      -2.239  -0.542   3.410  0.00  0.00     0.054 A 
ATOM      3  C3  IND d   1      -2.480   0.204   2.308  0.00  0.00    -0.031 A 
ATOM      4  C4  IND d   1      -1.094   0.428   0.150  0.00  0.00     0.051 A 
ATOM      5  C5  IND d   1       0.095   0.056  -0.410  0.00  0.00    -0.031 A 
ATOM      6  C6  IND d   1       0.984  -0.770   0.248  0.00  0.00     0.015 A 
ATOM      7  C7  IND d   1       0.710  -1.265   1.491  0.00  0.00    -0.016 A 
ATOM      8  C8  IND d   1      -0.494  -0.883   2.066  0.00  0.00    -0.047 A 
ATOM      9  C9  IND d   1      -1.381  -0.011   1.421  0.00  0.00    -0.096 A 
ATOM     10  HN1 IND d   1      -0.687  -1.702   3.886  0.00  0.00     0.298 HD
ENDROOT
TORSDOF 0
ENDMDL
