MODEL 1
REMARK minimizedAffinity -2.45239449
REMARK minimizedRMSD -1
REMARK  0 active torsions:
REMARK  status: ('A' for Active; 'I' for Inactive)
ROOT
ATOM      1  N1  IND d   1      -1.266   0.388  -0.560  0.00  0.00    -0.196 N 
ATOM      2  C2  IND d   1      -1.682   0.368   0.742  0.00  0.00     0.054 A 
ATOM      3  C3  IND d   1      -0.788  -0.294   1.511  0.00  0.00    -0.031 A 
ATOM      4  C4  IND d   1       1.474  -1.336   0.860  0.00  0.00     0.051 A 
ATOM      5  C5  IND d   1       2.267  -1.600  -0.222  0.00  0.00    -0.031 A 
ATOM      6  C6  IND d   1       1.917  -1.205  -1.497  0.00  0.00     0.015 A 
ATOM      7  C7  IND d   1       0.761  -0.517  -1.737  0.00  0.00    -0.016 A 
ATOM      8  C8  IND d   1      -0.050  -0.253  -0.642  0.00  0.00    -0.047 A 
ATOM      9  C9  IND d   1       0.280  -0.689   0.648  0.00  0.00    -0.096 A 
ATOM     10  HN1 IND d   1      -1.692   0.742  -1.218  0.00  0.00     0.298 HD
ENDROOT
TORSDOF 0
ENDMDL
