MODEL 1
REMARK minimizedAffinity -3.03585148
REMARK minimizedRMSD -1
REMARK  0 active torsions:
REMARK  status: ('A' for Active; 'I' for Inactive)
ROOT
ATOM      1  N1  IND d   1      -1.257   0.954  -0.256  0.00  0.00    -0.196 N 
ATOM      2  C2  IND d   1      -1.822   0.744   0.970  0.00  0.00     0.054 A 
ATOM      3  C3  IND d   1      -1.133  -0.199   1.650  0.00  0.00    -0.031 A 
ATOM      4  C4  IND d   1       1.012  -1.457   0.983  0.00  0.00     0.051 A 
ATOM      5  C5  IND d   1       1.879  -1.629  -0.058  0.00  0.00    -0.031 A 
ATOM      6  C6  IND d   1       1.745  -0.933  -1.242  0.00  0.00     0.015 A 
ATOM      7  C7  IND d   1       0.740  -0.026  -1.425  0.00  0.00    -0.016 A 
ATOM      8  C8  IND d   1      -0.148   0.146  -0.372  0.00  0.00    -0.047 A 
ATOM      9  C9  IND d   1      -0.041  -0.588   0.816  0.00  0.00    -0.096 A 
ATOM     10  HN1 IND d   1      -1.546   1.500  -0.855  0.00  0.00     0.298 HD
ENDROOT
TORSDOF 0
ENDMDL
