MODEL 1
REMARK minimizedAffinity -4.77369595
REMARK minimizedRMSD -1
REMARK  0 active torsions:
REMARK  status: ('A' for Active; 'I' for Inactive)
ROOT
ATOM      1  N1  IND d   1       0.886   1.669  -2.210  0.00  0.00    -0.196 N 
ATOM      2  C2  IND d   1       1.968   1.305  -2.960  0.00  0.00     0.054 A 
ATOM      3  C3  IND d   1       2.428   0.095  -2.567  0.00  0.00    -0.031 A 
ATOM      4  C4  IND d   1       1.494  -1.507  -0.782  0.00  0.00     0.051 A 
ATOM      5  C5  IND d   1       0.539  -1.596   0.192  0.00  0.00    -0.031 A 
ATOM      6  C6  IND d   1      -0.370  -0.582   0.417  0.00  0.00     0.015 A 
ATOM      7  C7  IND d   1      -0.364   0.559  -0.333  0.00  0.00    -0.016 A 
ATOM      8  C8  IND d   1       0.609   0.656  -1.318  0.00  0.00    -0.047 A 
ATOM      9  C9  IND d   1       1.561  -0.351  -1.523  0.00  0.00    -0.096 A 
ATOM     10  HN1 IND d   1       0.451   2.408  -2.282  0.00  0.00     0.298 HD
ENDROOT
TORSDOF 0
ENDMDL
