MODEL 1
REMARK minimizedAffinity -0.894397557
REMARK minimizedRMSD -1
REMARK  0 active torsions:
REMARK  status: ('A' for Active; 'I' for Inactive)
ROOT
ATOM      1  N1  IND d   1      -1.463   0.445  -0.119  0.00  0.00    -0.196 N 
ATOM      2  C2  IND d   1      -0.128   0.620  -0.356  0.00  0.00     0.054 A 
ATOM      3  C3  IND d   1       0.544   0.752   0.809  0.00  0.00    -0.031 A 
ATOM      4  C4  IND d   1      -0.331   0.611   3.226  0.00  0.00     0.051 A 
ATOM      5  C5  IND d   1      -1.486   0.499   3.950  0.00  0.00    -0.031 A 
ATOM      6  C6  IND d   1      -2.716   0.359   3.341  0.00  0.00     0.015 A 
ATOM      7  C7  IND d   1      -2.837   0.312   1.981  0.00  0.00    -0.016 A 
ATOM      8  C8  IND d   1      -1.668   0.432   1.244  0.00  0.00    -0.047 A 
ATOM      9  C9  IND d   1      -0.421   0.618   1.855  0.00  0.00    -0.096 A 
ATOM     10  HN1 IND d   1      -2.073   0.358  -0.719  0.00  0.00     0.298 HD
ENDROOT
TORSDOF 0
ENDMDL
