MODEL 1
REMARK minimizedAffinity 0.635290265
REMARK minimizedRMSD -1
REMARK  0 active torsions:
REMARK  status: ('A' for Active; 'I' for Inactive)
ROOT
ATOM      1  N1  IND d   1      -0.552   1.178  -0.450  0.00  0.00    -0.196 N 
ATOM      2  C2  IND d   1      -1.605   0.821   0.346  0.00  0.00     0.054 A 
ATOM      3  C3  IND d   1      -1.498  -0.476   0.712  0.00  0.00    -0.031 A 
ATOM      4  C4  IND d   1       0.372  -2.171   0.205  0.00  0.00     0.051 A 
ATOM      5  C5  IND d   1       1.525  -2.320  -0.513  0.00  0.00    -0.031 A 
ATOM      6  C6  IND d   1       2.057  -1.288  -1.260  0.00  0.00     0.015 A 
ATOM      7  C7  IND d   1       1.459  -0.061  -1.307  0.00  0.00    -0.016 A 
ATOM      8  C8  IND d   1       0.284   0.092  -0.585  0.00  0.00    -0.047 A 
ATOM      9  C9  IND d   1      -0.283  -0.964   0.141  0.00  0.00    -0.096 A 
ATOM     10  HN1 IND d   1      -0.432   1.951  -0.806  0.00  0.00     0.298 HD
ENDROOT
TORSDOF 0
ENDMDL
