MODEL 1
REMARK minimizedAffinity -3.77105141
REMARK minimizedRMSD -1
REMARK  0 active torsions:
REMARK  status: ('A' for Active; 'I' for Inactive)
ROOT
ATOM      1  N1  IND d   1      -0.064   0.553   1.672  0.00  0.00    -0.196 N 
ATOM      2  C2  IND d   1      -1.273   0.775   1.075  0.00  0.00     0.054 A 
ATOM      3  C3  IND d   1      -1.360   0.087  -0.085  0.00  0.00    -0.031 A 
ATOM      4  C4  IND d   1       0.324  -1.546  -1.147  0.00  0.00     0.051 A 
ATOM      5  C5  IND d   1       1.587  -2.044  -0.990  0.00  0.00    -0.031 A 
ATOM      6  C6  IND d   1       2.380  -1.697   0.085  0.00  0.00     0.015 A 
ATOM      7  C7  IND d   1       1.932  -0.844   1.053  0.00  0.00    -0.016 A 
ATOM      8  C8  IND d   1       0.652  -0.331   0.894  0.00  0.00    -0.047 A 
ATOM      9  C9  IND d   1      -0.141  -0.646  -0.217  0.00  0.00    -0.096 A 
ATOM     10  HN1 IND d   1       0.205   0.905   2.408  0.00  0.00     0.298 HD
ENDROOT
TORSDOF 0
ENDMDL
