MODEL 1
REMARK minimizedAffinity 1.05976045
REMARK minimizedRMSD -1
REMARK  0 active torsions:
REMARK  status: ('A' for Active; 'I' for Inactive)
ROOT
ATOM      1  N1  IND d   1       0.758   1.817  -2.232  0.00  0.00    -0.196 N 
ATOM      2  C2  IND d   1       1.617   1.608  -3.274  0.00  0.00     0.054 A 
ATOM      3  C3  IND d   1       2.195   0.390  -3.170  0.00  0.00    -0.031 A 
ATOM      4  C4  IND d   1       1.800  -1.464  -1.428  0.00  0.00     0.051 A 
ATOM      5  C5  IND d   1       1.133  -1.724  -0.263  0.00  0.00    -0.031 A 
ATOM      6  C6  IND d   1       0.288  -0.799   0.315  0.00  0.00     0.015 A 
ATOM      7  C7  IND d   1       0.068   0.421  -0.259  0.00  0.00    -0.016 A 
ATOM      8  C8  IND d   1       0.749   0.691  -1.438  0.00  0.00    -0.047 A 
ATOM      9  C9  IND d   1       1.641  -0.227  -2.006  0.00  0.00    -0.096 A 
ATOM     10  HN1 IND d   1       0.299   2.531  -2.095  0.00  0.00     0.298 HD
ENDROOT
TORSDOF 0
ENDMDL
