MODEL 1
REMARK minimizedAffinity -4.36806297
REMARK minimizedRMSD -1
REMARK  0 active torsions:
REMARK  status: ('A' for Active; 'I' for Inactive)
ROOT
ATOM      1  N1  IND d   1       0.537   0.349   0.302  0.00  0.00    -0.196 N 
ATOM      2  C2  IND d   1       0.941  -0.922   0.605  0.00  0.00     0.054 A 
ATOM      3  C3  IND d   1       1.654  -1.445  -0.418  0.00  0.00    -0.031 A 
ATOM      4  C4  IND d   1       2.366  -0.358  -2.640  0.00  0.00     0.051 A 
ATOM      5  C5  IND d   1       2.204   0.777  -3.385  0.00  0.00    -0.031 A 
ATOM      6  C6  IND d   1       1.466   1.850  -2.928  0.00  0.00     0.015 A 
ATOM      7  C7  IND d   1       0.869   1.832  -1.699  0.00  0.00    -0.016 A 
ATOM      8  C8  IND d   1       1.025   0.679  -0.944  0.00  0.00    -0.047 A 
ATOM      9  C9  IND d   1       1.737  -0.430  -1.420  0.00  0.00    -0.096 A 
ATOM     10  HN1 IND d   1       0.059   0.856   0.805  0.00  0.00     0.298 HD
ENDROOT
TORSDOF 0
ENDMDL
