MODEL 1
REMARK minimizedAffinity -3.87606454
REMARK minimizedRMSD -1
REMARK  0 active torsions:
REMARK  status: ('A' for Active; 'I' for Inactive)
ROOT
ATOM      1  N1  IND d   1      -2.266   1.702   2.077  0.00  0.00    -0.196 N 
ATOM      2  C2  IND d   1      -1.961   1.632   3.408  0.00  0.00     0.054 A 
ATOM      3  C3  IND d   1      -0.972   0.734   3.618  0.00  0.00    -0.031 A 
ATOM      4  C4  IND d   1       0.362  -0.658   1.913  0.00  0.00     0.051 A 
ATOM      5  C5  IND d   1       0.422  -0.961   0.582  0.00  0.00    -0.031 A 
ATOM      6  C6  IND d   1      -0.426  -0.379  -0.338  0.00  0.00     0.015 A 
ATOM      7  C7  IND d   1      -1.362   0.541   0.040  0.00  0.00    -0.016 A 
ATOM      8  C8  IND d   1      -1.431   0.847   1.392  0.00  0.00    -0.047 A 
ATOM      9  C9  IND d   1      -0.601   0.227   2.335  0.00  0.00    -0.096 A 
ATOM     10  HN1 IND d   1      -2.876   2.196   1.728  0.00  0.00     0.298 HD
ENDROOT
TORSDOF 0
ENDMDL
