MODEL 1
REMARK minimizedAffinity -3.40527177
REMARK minimizedRMSD -1
REMARK  0 active torsions:
REMARK  status: ('A' for Active; 'I' for Inactive)
ROOT
ATOM      1  N1  IND d   1       0.333   1.719  -2.086  0.00  0.00    -0.196 N 
ATOM      2  C2  IND d   1       1.197   1.590  -3.137  0.00  0.00     0.054 A 
ATOM      3  C3  IND d   1       1.894   0.436  -3.034  0.00  0.00    -0.031 A 
ATOM      4  C4  IND d   1       1.706  -1.438  -1.279  0.00  0.00     0.051 A 
ATOM      5  C5  IND d   1       1.082  -1.755  -0.105  0.00  0.00    -0.031 A 
ATOM      6  C6  IND d   1       0.155  -0.915   0.479  0.00  0.00     0.015 A 
ATOM      7  C7  IND d   1      -0.191   0.274  -0.098  0.00  0.00    -0.016 A 
ATOM      8  C8  IND d   1       0.446   0.603  -1.286  0.00  0.00    -0.047 A 
ATOM      9  C9  IND d   1       1.418  -0.226  -1.861  0.00  0.00    -0.096 A 
ATOM     10  HN1 IND d   1      -0.192   2.385  -1.947  0.00  0.00     0.298 HD
ENDROOT
TORSDOF 0
ENDMDL
