MODEL 1
REMARK minimizedAffinity -3.0116334
REMARK minimizedRMSD -1
REMARK  0 active torsions:
REMARK  status: ('A' for Active; 'I' for Inactive)
ROOT
ATOM      1  N1  IND d   1       0.454   2.034  -2.176  0.00  0.00    -0.196 N 
ATOM      2  C2  IND d   1       1.329   1.793  -3.199  0.00  0.00     0.054 A 
ATOM      3  C3  IND d   1       1.928   0.592  -3.033  0.00  0.00    -0.031 A 
ATOM      4  C4  IND d   1       1.547  -1.187  -1.212  0.00  0.00     0.051 A 
ATOM      5  C5  IND d   1       0.872  -1.406  -0.044  0.00  0.00    -0.031 A 
ATOM      6  C6  IND d   1       0.004  -0.471   0.482  0.00  0.00     0.015 A 
ATOM      7  C7  IND d   1      -0.232   0.717  -0.149  0.00  0.00    -0.016 A 
ATOM      8  C8  IND d   1       0.457   0.946  -1.331  0.00  0.00    -0.047 A 
ATOM      9  C9  IND d   1       1.372   0.019  -1.848  0.00  0.00    -0.096 A 
ATOM     10  HN1 IND d   1      -0.018   2.745  -2.077  0.00  0.00     0.298 HD
ENDROOT
TORSDOF 0
ENDMDL
