MODEL 1
REMARK minimizedAffinity -2.43229032
REMARK minimizedRMSD -1
REMARK  0 active torsions:
REMARK  status: ('A' for Active; 'I' for Inactive)
ROOT
ATOM      1  N1  IND d   1      -3.135   0.794   2.229  0.00  0.00    -0.196 N 
ATOM      2  C2  IND d   1      -2.637   0.906   3.498  0.00  0.00     0.054 A 
ATOM      3  C3  IND d   1      -1.310   0.652   3.506  0.00  0.00    -0.031 A 
ATOM      4  C4  IND d   1       0.268   0.132   1.539  0.00  0.00     0.051 A 
ATOM      5  C5  IND d   1       0.269  -0.111   0.194  0.00  0.00    -0.031 A 
ATOM      6  C6  IND d   1      -0.887  -0.060  -0.557  0.00  0.00     0.015 A 
ATOM      7  C7  IND d   1      -2.092   0.247   0.010  0.00  0.00    -0.016 A 
ATOM      8  C8  IND d   1      -2.098   0.487   1.377  0.00  0.00    -0.047 A 
ATOM      9  C9  IND d   1      -0.934   0.396   2.151  0.00  0.00    -0.096 A 
ATOM     10  HN1 IND d   1      -3.958   0.899   2.002  0.00  0.00     0.298 HD
ENDROOT
TORSDOF 0
ENDMDL
