MODEL 1
REMARK minimizedAffinity -2.00128078
REMARK minimizedRMSD -1
REMARK  0 active torsions:
REMARK  status: ('A' for Active; 'I' for Inactive)
ROOT
ATOM      1  N1  IND d   1       0.574   1.523  -2.132  0.00  0.00    -0.196 N 
ATOM      2  C2  IND d   1       1.514   1.415  -3.118  0.00  0.00     0.054 A 
ATOM      3  C3  IND d   1       2.339   0.373  -2.869  0.00  0.00    -0.031 A 
ATOM      4  C4  IND d   1       2.267  -1.349  -0.957  0.00  0.00     0.051 A 
ATOM      5  C5  IND d   1       1.611  -1.641   0.206  0.00  0.00    -0.031 A 
ATOM      6  C6  IND d   1       0.553  -0.879   0.657  0.00  0.00     0.015 A 
ATOM      7  C7  IND d   1       0.102   0.202  -0.047  0.00  0.00    -0.016 A 
ATOM      8  C8  IND d   1       0.770   0.505  -1.225  0.00  0.00    -0.047 A 
ATOM      9  C9  IND d   1       1.872  -0.240  -1.666  0.00  0.00    -0.096 A 
ATOM     10  HN1 IND d   1      -0.037   2.126  -2.085  0.00  0.00     0.298 HD
ENDROOT
TORSDOF 0
ENDMDL
