MODEL 1
REMARK minimizedAffinity -1.26973569
REMARK minimizedRMSD -1
REMARK  0 active torsions:
REMARK  status: ('A' for Active; 'I' for Inactive)
ROOT
ATOM      1  N1  IND d   1       0.068   1.237   0.639  0.00  0.00    -0.196 N 
ATOM      2  C2  IND d   1      -0.222   0.453  -0.443  0.00  0.00     0.054 A 
ATOM      3  C3  IND d   1      -1.351  -0.256  -0.221  0.00  0.00    -0.031 A 
ATOM      4  C4  IND d   1      -2.941  -0.209   1.804  0.00  0.00     0.051 A 
ATOM      5  C5  IND d   1      -3.076   0.323   3.055  0.00  0.00    -0.031 A 
ATOM      6  C6  IND d   1      -2.153   1.208   3.574  0.00  0.00     0.015 A 
ATOM      7  C7  IND d   1      -1.061   1.603   2.854  0.00  0.00    -0.016 A 
ATOM      8  C8  IND d   1      -0.917   1.059   1.586  0.00  0.00    -0.047 A 
ATOM      9  C9  IND d   1      -1.828   0.128   1.070  0.00  0.00    -0.096 A 
ATOM     10  HN1 IND d   1       0.750   1.754   0.716  0.00  0.00     0.298 HD
ENDROOT
TORSDOF 0
ENDMDL
