MODEL 1
REMARK minimizedAffinity -2.21498632
REMARK minimizedRMSD -1
REMARK  0 active torsions:
REMARK  status: ('A' for Active; 'I' for Inactive)
ROOT
ATOM      1  N1  IND d   1      -0.668   1.176  -0.995  0.00  0.00    -0.196 N 
ATOM      2  C2  IND d   1      -1.345   1.235   0.191  0.00  0.00     0.054 A 
ATOM      3  C3  IND d   1      -1.072   0.145   0.943  0.00  0.00    -0.031 A 
ATOM      4  C4  IND d   1       0.536  -1.809   0.468  0.00  0.00     0.051 A 
ATOM      5  C5  IND d   1       1.351  -2.321  -0.502  0.00  0.00    -0.031 A 
ATOM      6  C6  IND d   1       1.541  -1.680  -1.709  0.00  0.00     0.015 A 
ATOM      7  C7  IND d   1       0.928  -0.491  -1.988  0.00  0.00    -0.016 A 
ATOM      8  C8  IND d   1       0.094   0.029  -1.008  0.00  0.00    -0.047 A 
ATOM      9  C9  IND d   1      -0.135  -0.639   0.202  0.00  0.00    -0.096 A 
ATOM     10  HN1 IND d   1      -0.711   1.758  -1.626  0.00  0.00     0.298 HD
ENDROOT
TORSDOF 0
ENDMDL
