MODEL 1
REMARK minimizedAffinity 6.78163815
REMARK minimizedRMSD -1
REMARK  0 active torsions:
REMARK  status: ('A' for Active; 'I' for Inactive)
ROOT
ATOM      1  N1  IND d   1       1.787  -3.668   1.382  0.00  0.00    -0.196 N 
ATOM      2  C2  IND d   1       0.542  -4.215   1.240  0.00  0.00     0.054 A 
ATOM      3  C3  IND d   1      -0.079  -3.695   0.158  0.00  0.00    -0.031 A 
ATOM      4  C4  IND d   1       0.798  -2.010  -1.579  0.00  0.00     0.051 A 
ATOM      5  C5  IND d   1       1.865  -1.201  -1.852  0.00  0.00    -0.031 A 
ATOM      6  C6  IND d   1       2.985  -1.175  -1.045  0.00  0.00     0.015 A 
ATOM      7  C7  IND d   1       3.084  -1.968   0.062  0.00  0.00    -0.016 A 
ATOM      8  C8  IND d   1       1.999  -2.786   0.346  0.00  0.00    -0.047 A 
ATOM      9  C9  IND d   1       0.842  -2.785  -0.445  0.00  0.00    -0.096 A 
ATOM     10  HN1 IND d   1       2.344  -3.846   2.013  0.00  0.00     0.298 HD
ENDROOT
TORSDOF 0
ENDMDL
