MODEL 1
REMARK minimizedAffinity -0.368754387
REMARK minimizedRMSD -1
REMARK  0 active torsions:
REMARK  status: ('A' for Active; 'I' for Inactive)
ROOT
ATOM      1  C   UNL d   1      -4.803   1.493   1.556  0.00  0.00     0.078 C 
ATOM      2  C1  UNL d   1      -4.791   1.500   3.055  0.00  0.00    -0.077 A 
ATOM      3  C2  UNL d   1      -3.584   1.493   3.766  0.00  0.00    -0.001 A 
ATOM      4  C3  UNL d   1      -3.588   1.489   5.162  0.00  0.00     0.003 A 
ATOM      5  C4  UNL d   1      -4.795   1.490   5.859  0.00  0.00    -0.005 A 
ATOM      6  C5  UNL d   1      -6.000   1.495   5.160  0.00  0.00     0.003 A 
ATOM      7  C6  UNL d   1      -5.999   1.499   3.764  0.00  0.00    -0.001 A 
ENDROOT
TORSDOF 0
ENDMDL
