MODEL 1
REMARK minimizedAffinity 3.55409789
REMARK minimizedRMSD -1
REMARK  0 active torsions:
REMARK  status: ('A' for Active; 'I' for Inactive)
ROOT
ATOM      1  C   UNL d   1       5.576  -5.602  -0.060  0.00  0.00     0.078 C 
ATOM      2  C1  UNL d   1       4.604  -4.503   0.248  0.00  0.00    -0.077 A 
ATOM      3  C2  UNL d   1       3.226  -4.694   0.091  0.00  0.00    -0.001 A 
ATOM      4  C3  UNL d   1       2.333  -3.659   0.372  0.00  0.00     0.003 A 
ATOM      5  C4  UNL d   1       2.808  -2.425   0.810  0.00  0.00    -0.005 A 
ATOM      6  C5  UNL d   1       4.178  -2.224   0.967  0.00  0.00     0.003 A 
ATOM      7  C6  UNL d   1       5.073  -3.258   0.687  0.00  0.00    -0.001 A 
ENDROOT
TORSDOF 0
ENDMDL
