MODEL 1
REMARK minimizedAffinity 8.54826164
REMARK minimizedRMSD -1
REMARK  0 active torsions:
REMARK  status: ('A' for Active; 'I' for Inactive)
ROOT
ATOM      1  C   UNL d   1       4.327  -5.991   5.118  0.00  0.00     0.078 C 
ATOM      2  C1  UNL d   1       4.250  -4.504   4.947  0.00  0.00    -0.077 A 
ATOM      3  C2  UNL d   1       4.577  -3.639   5.999  0.00  0.00    -0.001 A 
ATOM      4  C3  UNL d   1       4.491  -2.256   5.829  0.00  0.00     0.003 A 
ATOM      5  C4  UNL d   1       4.077  -1.726   4.609  0.00  0.00    -0.005 A 
ATOM      6  C5  UNL d   1       3.747  -2.578   3.557  0.00  0.00     0.003 A 
ATOM      7  C6  UNL d   1       3.833  -3.961   3.725  0.00  0.00    -0.001 A 
ENDROOT
TORSDOF 0
ENDMDL
