MODEL 1
REMARK minimizedAffinity 5.32945681
REMARK minimizedRMSD -1
REMARK  0 active torsions:
REMARK  status: ('A' for Active; 'I' for Inactive)
ROOT
ATOM      1  C   UNL d   1       2.095  -3.018   0.223  0.00  0.00     0.078 C 
ATOM      2  C1  UNL d   1       1.297  -2.246   1.230  0.00  0.00    -0.077 A 
ATOM      3  C2  UNL d   1       1.922  -1.383   2.138  0.00  0.00    -0.001 A 
ATOM      4  C3  UNL d   1       1.167  -0.678   3.077  0.00  0.00     0.003 A 
ATOM      5  C4  UNL d   1      -0.217  -0.830   3.118  0.00  0.00    -0.005 A 
ATOM      6  C5  UNL d   1      -0.848  -1.689   2.220  0.00  0.00     0.003 A 
ATOM      7  C6  UNL d   1      -0.095  -2.394   1.281  0.00  0.00    -0.001 A 
ENDROOT
TORSDOF 0
ENDMDL
