MODEL 1
REMARK minimizedAffinity 1.16520476
REMARK minimizedRMSD -1
REMARK  0 active torsions:
REMARK  status: ('A' for Active; 'I' for Inactive)
ROOT
ATOM      1  C   UNL d   1      -3.991   1.696  -1.830  0.00  0.00     0.078 C 
ATOM      2  C1  UNL d   1      -4.117   0.431  -2.626  0.00  0.00    -0.077 A 
ATOM      3  C2  UNL d   1      -5.059   0.318  -3.656  0.00  0.00    -0.001 A 
ATOM      4  C3  UNL d   1      -5.171  -0.869  -4.383  0.00  0.00     0.003 A 
ATOM      5  C4  UNL d   1      -4.346  -1.951  -4.087  0.00  0.00    -0.005 A 
ATOM      6  C5  UNL d   1      -3.407  -1.849  -3.062  0.00  0.00     0.003 A 
ATOM      7  C6  UNL d   1      -3.293  -0.663  -2.335  0.00  0.00    -0.001 A 
ENDROOT
TORSDOF 0
ENDMDL
