MODEL 1
REMARK minimizedAffinity 9.49060535
REMARK minimizedRMSD -1
REMARK  0 active torsions:
REMARK  status: ('A' for Active; 'I' for Inactive)
ROOT
ATOM      1  C   UNL d   1       2.387  -4.533  -0.029  0.00  0.00     0.078 C 
ATOM      2  C1  UNL d   1       1.784  -3.255   0.476  0.00  0.00    -0.077 A 
ATOM      3  C2  UNL d   1       2.587  -2.243   1.016  0.00  0.00    -0.001 A 
ATOM      4  C3  UNL d   1       2.011  -1.064   1.491  0.00  0.00     0.003 A 
ATOM      5  C4  UNL d   1       0.630  -0.885   1.430  0.00  0.00    -0.005 A 
ATOM      6  C5  UNL d   1      -0.177  -1.888   0.896  0.00  0.00     0.003 A 
ATOM      7  C6  UNL d   1       0.397  -3.068   0.421  0.00  0.00    -0.001 A 
ENDROOT
TORSDOF 0
ENDMDL
