MODEL 1
REMARK minimizedAffinity -4.90056038
REMARK minimizedRMSD -1
REMARK  0 active torsions:
REMARK  status: ('A' for Active; 'I' for Inactive)
ROOT
ATOM      1  C   UNL d   1       0.457  -0.567  -1.535  0.00  0.00     0.078 C 
ATOM      2  C1  UNL d   1       0.029  -0.060  -0.190  0.00  0.00    -0.077 A 
ATOM      3  C2  UNL d   1      -1.304  -0.164   0.228  0.00  0.00    -0.001 A 
ATOM      4  C3  UNL d   1      -1.691   0.320   1.478  0.00  0.00     0.003 A 
ATOM      5  C4  UNL d   1      -0.752   0.913   2.320  0.00  0.00    -0.005 A 
ATOM      6  C5  UNL d   1       0.576   1.023   1.912  0.00  0.00     0.003 A 
ATOM      7  C6  UNL d   1       0.965   0.539   0.662  0.00  0.00    -0.001 A 
ENDROOT
TORSDOF 0
ENDMDL
