MODEL 1
REMARK minimizedAffinity -5.37118578
REMARK minimizedRMSD -1
REMARK  0 active torsions:
REMARK  status: ('A' for Active; 'I' for Inactive)
ROOT
ATOM      1  C   UNL d   1      -0.475   0.840   3.664  0.00  0.00     0.078 C 
ATOM      2  C1  UNL d   1      -0.308   0.436   2.229  0.00  0.00    -0.077 A 
ATOM      3  C2  UNL d   1       0.947   0.076   1.722  0.00  0.00    -0.001 A 
ATOM      4  C3  UNL d   1       1.089  -0.289   0.383  0.00  0.00     0.003 A 
ATOM      5  C4  UNL d   1      -0.020  -0.295  -0.462  0.00  0.00    -0.005 A 
ATOM      6  C5  UNL d   1      -1.272   0.063   0.033  0.00  0.00     0.003 A 
ATOM      7  C6  UNL d   1      -1.416   0.428   1.372  0.00  0.00    -0.001 A 
ENDROOT
TORSDOF 0
ENDMDL
