MODEL 1
REMARK minimizedAffinity -5.45919275
REMARK minimizedRMSD -1
REMARK  0 active torsions:
REMARK  status: ('A' for Active; 'I' for Inactive)
ROOT
ATOM      1  C   UNL d   1       0.383  -0.385  -1.171  0.00  0.00     0.078 C 
ATOM      2  C1  UNL d   1      -0.204   0.236   0.061  0.00  0.00    -0.077 A 
ATOM      3  C2  UNL d   1       0.591   0.973   0.947  0.00  0.00    -0.001 A 
ATOM      4  C3  UNL d   1       0.033   1.537   2.095  0.00  0.00     0.003 A 
ATOM      5  C4  UNL d   1      -1.322   1.368   2.370  0.00  0.00    -0.005 A 
ATOM      6  C5  UNL d   1      -2.122   0.633   1.496  0.00  0.00     0.003 A 
ATOM      7  C6  UNL d   1      -1.565   0.069   0.347  0.00  0.00    -0.001 A 
ENDROOT
TORSDOF 0
ENDMDL
