MODEL 1
REMARK minimizedAffinity -4.99089575
REMARK minimizedRMSD -1
REMARK  0 active torsions:
REMARK  status: ('A' for Active; 'I' for Inactive)
ROOT
ATOM      1  C   UNL d   1       0.515  -0.076  -1.372  0.00  0.00     0.078 C 
ATOM      2  C1  UNL d   1      -0.134   0.370  -0.096  0.00  0.00    -0.077 A 
ATOM      3  C2  UNL d   1      -1.518   0.570  -0.022  0.00  0.00    -0.001 A 
ATOM      4  C3  UNL d   1      -2.107   0.994   1.170  0.00  0.00     0.003 A 
ATOM      5  C4  UNL d   1      -1.320   1.223   2.297  0.00  0.00    -0.005 A 
ATOM      6  C5  UNL d   1       0.058   1.028   2.233  0.00  0.00     0.003 A 
ATOM      7  C6  UNL d   1       0.649   0.604   1.042  0.00  0.00    -0.001 A 
ENDROOT
TORSDOF 0
ENDMDL
