MODEL 1
REMARK minimizedAffinity -4.3941884
REMARK minimizedRMSD -1
REMARK  0 active torsions:
REMARK  status: ('A' for Active; 'I' for Inactive)
ROOT
ATOM      1  C   UNL d   1      -1.066   1.721   2.799  0.00  0.00     0.078 C 
ATOM      2  C1  UNL d   1      -0.713   0.921   1.580  0.00  0.00    -0.077 A 
ATOM      3  C2  UNL d   1       0.615   0.571   1.307  0.00  0.00    -0.001 A 
ATOM      4  C3  UNL d   1       0.930  -0.165   0.164  0.00  0.00     0.003 A 
ATOM      5  C4  UNL d   1      -0.078  -0.557  -0.716  0.00  0.00    -0.005 A 
ATOM      6  C5  UNL d   1      -1.402  -0.213  -0.453  0.00  0.00     0.003 A 
ATOM      7  C6  UNL d   1      -1.719   0.524   0.690  0.00  0.00    -0.001 A 
ENDROOT
TORSDOF 0
ENDMDL
