MODEL 1
REMARK minimizedAffinity -4.41816473
REMARK minimizedRMSD -1
REMARK  0 active torsions:
REMARK  status: ('A' for Active; 'I' for Inactive)
ROOT
ATOM      1  C   UNL d   1      -1.060   1.500   2.740  0.00  0.00     0.078 C 
ATOM      2  C1  UNL d   1      -0.529   0.667   1.612  0.00  0.00    -0.077 A 
ATOM      3  C2  UNL d   1       0.810   0.258   1.585  0.00  0.00    -0.001 A 
ATOM      4  C3  UNL d   1       1.293  -0.509   0.524  0.00  0.00     0.003 A 
ATOM      5  C4  UNL d   1       0.444  -0.874  -0.518  0.00  0.00    -0.005 A 
ATOM      6  C5  UNL d   1      -0.890  -0.471  -0.502  0.00  0.00     0.003 A 
ATOM      7  C6  UNL d   1      -1.375   0.297   0.559  0.00  0.00    -0.001 A 
ENDROOT
TORSDOF 0
ENDMDL
