MODEL 1
REMARK minimizedAffinity -0.519441485
REMARK minimizedRMSD -1
REMARK  0 active torsions:
REMARK  status: ('A' for Active; 'I' for Inactive)
ROOT
ATOM      1  C   UNL d   1       1.156  -1.126  -0.765  0.00  0.00     0.078 C 
ATOM      2  C1  UNL d   1       1.222  -0.465  -2.109  0.00  0.00    -0.077 A 
ATOM      3  C2  UNL d   1       0.147  -0.540  -3.004  0.00  0.00    -0.001 A 
ATOM      4  C3  UNL d   1       0.226   0.072  -4.255  0.00  0.00     0.003 A 
ATOM      5  C4  UNL d   1       1.379   0.763  -4.625  0.00  0.00    -0.005 A 
ATOM      6  C5  UNL d   1       2.455   0.841  -3.743  0.00  0.00     0.003 A 
ATOM      7  C6  UNL d   1       2.378   0.229  -2.491  0.00  0.00    -0.001 A 
ENDROOT
TORSDOF 0
ENDMDL
