MODEL 1
REMARK minimizedAffinity -0.779546976
REMARK minimizedRMSD -1
REMARK  0 active torsions:
REMARK  status: ('A' for Active; 'I' for Inactive)
ROOT
ATOM      1  C   UNL d   1       1.218  -1.241  -0.740  0.00  0.00    -0.002 A 
ATOM      2  C1  UNL d   1       0.990  -1.130   0.625  0.00  0.00     0.010 A 
ATOM      3  C2  UNL d   1       0.143  -0.138   1.124  0.00  0.00     0.041 A 
ATOM      4  C3  UNL d   1      -0.478   0.747   0.221  0.00  0.00    -0.075 A 
ATOM      5  S   UNL d   1      -1.555   2.037   0.605  0.00  0.00     0.015 SA
ATOM      6  C4  UNL d   1      -1.738   2.471  -1.033  0.00  0.00     0.022 A 
ATOM      7  C5  UNL d   1      -1.002   1.661  -1.866  0.00  0.00     0.026 A 
ATOM      8  C6  UNL d   1      -0.264   0.654  -1.157  0.00  0.00    -0.082 A 
ATOM      9  C7  UNL d   1       0.600  -0.361  -1.633  0.00  0.00     0.045 A 
ENDROOT
TORSDOF 0
ENDMDL
