MODEL 1
REMARK minimizedAffinity 0.353747636
REMARK minimizedRMSD -1
REMARK  0 active torsions:
REMARK  status: ('A' for Active; 'I' for Inactive)
ROOT
ATOM      1  C   UNL d   1      -0.000   1.142   1.882  0.00  0.00    -0.002 A 
ATOM      2  C1  UNL d   1      -0.612   1.861   0.865  0.00  0.00     0.010 A 
ATOM      3  C2  UNL d   1      -0.741   1.314  -0.413  0.00  0.00     0.041 A 
ATOM      4  C3  UNL d   1      -0.241   0.019  -0.653  0.00  0.00    -0.075 A 
ATOM      5  S   UNL d   1      -0.287  -0.854  -2.140  0.00  0.00     0.015 SA
ATOM      6  C4  UNL d   1       0.503  -2.202  -1.459  0.00  0.00     0.022 A 
ATOM      7  C5  UNL d   1       0.803  -2.008  -0.131  0.00  0.00     0.026 A 
ATOM      8  C6  UNL d   1       0.378  -0.725   0.355  0.00  0.00    -0.082 A 
ATOM      9  C7  UNL d   1       0.494  -0.142   1.640  0.00  0.00     0.045 A 
ENDROOT
TORSDOF 0
ENDMDL
