MODEL 1
REMARK minimizedAffinity -2.35466814
REMARK minimizedRMSD -1
REMARK  0 active torsions:
REMARK  status: ('A' for Active; 'I' for Inactive)
ROOT
ATOM      1  C   UNL d   1       0.705   0.081  -1.955  0.00  0.00    -0.002 A 
ATOM      2  C1  UNL d   1      -0.037   1.237  -2.151  0.00  0.00     0.010 A 
ATOM      3  C2  UNL d   1      -0.659   1.873  -1.074  0.00  0.00     0.041 A 
ATOM      4  C3  UNL d   1      -0.520   1.322   0.215  0.00  0.00    -0.075 A 
ATOM      5  S   UNL d   1      -1.193   1.928   1.682  0.00  0.00     0.015 SA
ATOM      6  C4  UNL d   1      -0.510   0.667   2.603  0.00  0.00     0.022 A 
ATOM      7  C5  UNL d   1       0.215  -0.204   1.827  0.00  0.00     0.026 A 
ATOM      8  C6  UNL d   1       0.222   0.159   0.437  0.00  0.00    -0.082 A 
ATOM      9  C7  UNL d   1       0.840  -0.462  -0.675  0.00  0.00     0.045 A 
ENDROOT
TORSDOF 0
ENDMDL
