MODEL 1
REMARK minimizedAffinity -2.94938493
REMARK minimizedRMSD -1
REMARK  0 active torsions:
REMARK  status: ('A' for Active; 'I' for Inactive)
ROOT
ATOM      1  C   UNL d   1      -0.614   1.282   2.252  0.00  0.00    -0.002 A 
ATOM      2  C1  UNL d   1      -1.415   2.082   1.450  0.00  0.00     0.010 A 
ATOM      3  C2  UNL d   1      -1.352   1.983   0.058  0.00  0.00     0.041 A 
ATOM      4  C3  UNL d   1      -0.463   1.055  -0.519  0.00  0.00    -0.075 A 
ATOM      5  S   UNL d   1      -0.216   0.758  -2.199  0.00  0.00     0.015 SA
ATOM      6  C4  UNL d   1       0.958  -0.438  -1.892  0.00  0.00     0.022 A 
ATOM      7  C5  UNL d   1       1.169  -0.620  -0.546  0.00  0.00     0.026 A 
ATOM      8  C6  UNL d   1       0.354   0.238   0.268  0.00  0.00    -0.082 A 
ATOM      9  C7  UNL d   1       0.267   0.363   1.675  0.00  0.00     0.045 A 
ENDROOT
TORSDOF 0
ENDMDL
