MODEL 1
REMARK minimizedAffinity 11.4289064
REMARK minimizedRMSD -1
REMARK  0 active torsions:
REMARK  status: ('A' for Active; 'I' for Inactive)
ROOT
ATOM      1  C4' PXY d   1       1.228  -4.901  -5.999  0.00  0.00     0.077 C 
ATOM      2  C1' PXY d   1      -3.285  -3.074  -2.885  0.00  0.00     0.077 C 
ATOM      3  C1  PXY d   1      -2.107  -3.548  -3.712  0.00  0.00    -0.082 A 
ATOM      4  C2  PXY d   1      -1.376  -4.565  -3.286  0.00  0.00     0.003 A 
ATOM      5  C3  PXY d   1      -0.287  -4.986  -4.006  0.00  0.00     0.003 A 
ATOM      6  C4  PXY d   1       0.024  -4.394  -5.201  0.00  0.00    -0.082 A 
ATOM      7  C5  PXY d   1      -0.724  -3.363  -5.648  0.00  0.00     0.003 A 
ATOM      8  C6  PXY d   1      -1.800  -2.924  -4.882  0.00  0.00     0.003 A 
ENDROOT
TORSDOF 0
ENDMDL
