MODEL 1
REMARK minimizedAffinity 7.88297749
REMARK minimizedRMSD -1
REMARK  0 active torsions:
REMARK  status: ('A' for Active; 'I' for Inactive)
ROOT
ATOM      1  C4' PXY d   1       3.782  -0.097   1.161  0.00  0.00     0.077 C 
ATOM      2  C1' PXY d   1      -0.147   4.144   1.179  0.00  0.00     0.077 C 
ATOM      3  C1  PXY d   1       0.880   3.028   1.186  0.00  0.00    -0.082 A 
ATOM      4  C2  PXY d   1       1.962   3.130   0.432  0.00  0.00     0.003 A 
ATOM      5  C3  PXY d   1       2.885   2.116   0.402  0.00  0.00     0.003 A 
ATOM      6  C4  PXY d   1       2.724   1.009   1.192  0.00  0.00    -0.082 A 
ATOM      7  C5  PXY d   1       1.627   0.903   1.972  0.00  0.00     0.003 A 
ATOM      8  C6  PXY d   1       0.682   1.924   1.957  0.00  0.00     0.003 A 
ENDROOT
TORSDOF 0
ENDMDL
