MODEL 1
REMARK minimizedAffinity 12.1717701
REMARK minimizedRMSD -1
REMARK  0 active torsions:
REMARK  status: ('A' for Active; 'I' for Inactive)
ROOT
ATOM      1  C4' PXY d   1       1.173   0.758   1.972  0.00  0.00     0.077 C 
ATOM      2  C1' PXY d   1       4.085   1.296  -2.992  0.00  0.00     0.077 C 
ATOM      3  C1  PXY d   1       3.321   1.168  -1.689  0.00  0.00    -0.082 A 
ATOM      4  C2  PXY d   1       3.377   0.036  -1.007  0.00  0.00     0.003 A 
ATOM      5  C3  PXY d   1       2.667  -0.109   0.158  0.00  0.00     0.003 A 
ATOM      6  C4  PXY d   1       1.935   0.935   0.656  0.00  0.00    -0.082 A 
ATOM      7  C5  PXY d   1       1.881   2.097  -0.029  0.00  0.00     0.003 A 
ATOM      8  C6  PXY d   1       2.576   2.209  -1.229  0.00  0.00     0.003 A 
ENDROOT
TORSDOF 0
ENDMDL
