MODEL 1
REMARK minimizedAffinity 14.3966112
REMARK minimizedRMSD -1
REMARK  0 active torsions:
REMARK  status: ('A' for Active; 'I' for Inactive)
ROOT
ATOM      1  C4' PXY d   1      -0.178   3.405   1.912  0.00  0.00     0.077 C 
ATOM      2  C1' PXY d   1       3.958  -0.617   1.545  0.00  0.00     0.077 C 
ATOM      3  C1  PXY d   1       2.866   0.429   1.648  0.00  0.00    -0.082 A 
ATOM      4  C2  PXY d   1       2.808   1.405   0.756  0.00  0.00     0.003 A 
ATOM      5  C3  PXY d   1       1.847   2.377   0.852  0.00  0.00     0.003 A 
ATOM      6  C4  PXY d   1       0.902   2.321   1.842  0.00  0.00    -0.082 A 
ATOM      7  C5  PXY d   1       0.947   1.323   2.750  0.00  0.00     0.003 A 
ATOM      8  C6  PXY d   1       1.956   0.369   2.658  0.00  0.00     0.003 A 
ENDROOT
TORSDOF 0
ENDMDL
