MODEL 1
REMARK minimizedAffinity 8.8448019
REMARK minimizedRMSD -1
REMARK  0 active torsions:
REMARK  status: ('A' for Active; 'I' for Inactive)
ROOT
ATOM      1  C4' PXY d   1      -0.425  -1.879   0.051  0.00  0.00     0.077 C 
ATOM      2  C1' PXY d   1      -5.158  -3.566  -2.808  0.00  0.00     0.077 C 
ATOM      3  C1  PXY d   1      -3.909  -3.129  -2.068  0.00  0.00    -0.082 A 
ATOM      4  C2  PXY d   1      -3.958  -2.938  -0.759  0.00  0.00     0.003 A 
ATOM      5  C3  PXY d   1      -2.846  -2.511  -0.079  0.00  0.00     0.003 A 
ATOM      6  C4  PXY d   1      -1.659  -2.330  -0.736  0.00  0.00    -0.082 A 
ATOM      7  C5  PXY d   1      -1.598  -2.533  -2.069  0.00  0.00     0.003 A 
ATOM      8  C6  PXY d   1      -2.748  -2.926  -2.748  0.00  0.00     0.003 A 
ENDROOT
TORSDOF 0
ENDMDL
