MODEL 1
REMARK minimizedAffinity 14.217412
REMARK minimizedRMSD -1
REMARK  0 active torsions:
REMARK  status: ('A' for Active; 'I' for Inactive)
ROOT
ATOM      1  C4' PXY d   1       2.832   1.480  -5.918  0.00  0.00     0.077 C 
ATOM      2  C1' PXY d   1       6.000  -3.355  -5.890  0.00  0.00     0.077 C 
ATOM      3  C1  PXY d   1       5.179  -2.081  -5.893  0.00  0.00    -0.082 A 
ATOM      4  C2  PXY d   1       3.861  -2.151  -5.801  0.00  0.00     0.003 A 
ATOM      5  C3  PXY d   1       3.102  -1.009  -5.835  0.00  0.00     0.003 A 
ATOM      6  C4  PXY d   1       3.701   0.219  -5.909  0.00  0.00    -0.082 A 
ATOM      7  C5  PXY d   1       5.046   0.300  -5.993  0.00  0.00     0.003 A 
ATOM      8  C6  PXY d   1       5.796  -0.873  -5.999  0.00  0.00     0.003 A 
ENDROOT
TORSDOF 0
ENDMDL
