MODEL 1
REMARK minimizedAffinity 4.5174942
REMARK minimizedRMSD -1
REMARK  0 active torsions:
REMARK  status: ('A' for Active; 'I' for Inactive)
ROOT
ATOM      1  C4' PXY d   1      -5.178  -3.401  -2.488  0.00  0.00     0.077 C 
ATOM      2  C1' PXY d   1      -0.646  -2.160   0.879  0.00  0.00     0.077 C 
ATOM      3  C1  PXY d   1      -1.830  -2.477  -0.013  0.00  0.00    -0.082 A 
ATOM      4  C2  PXY d   1      -2.964  -2.891   0.528  0.00  0.00     0.003 A 
ATOM      5  C3  PXY d   1      -4.035  -3.213  -0.267  0.00  0.00     0.003 A 
ATOM      6  C4  PXY d   1      -3.960  -3.060  -1.625  0.00  0.00    -0.082 A 
ATOM      7  C5  PXY d   1      -2.809  -2.628  -2.184  0.00  0.00     0.003 A 
ATOM      8  C6  PXY d   1      -1.721  -2.345  -1.363  0.00  0.00     0.003 A 
ENDROOT
TORSDOF 0
ENDMDL
