MODEL 1
REMARK minimizedAffinity -1.10071039
REMARK minimizedRMSD -1
REMARK  0 active torsions:
REMARK  status: ('A' for Active; 'I' for Inactive)
ROOT
ATOM      1  C4' PXY d   1       1.262   0.189   1.868  0.00  0.00     0.077 C 
ATOM      2  C1' PXY d   1       6.000   2.606  -0.396  0.00  0.00     0.077 C 
ATOM      3  C1  PXY d   1       4.763   1.960   0.196  0.00  0.00    -0.082 A 
ATOM      4  C2  PXY d   1       3.614   2.617   0.186  0.00  0.00     0.003 A 
ATOM      5  C3  PXY d   1       2.492   2.061   0.746  0.00  0.00     0.003 A 
ATOM      6  C4  PXY d   1       2.535   0.798   1.273  0.00  0.00    -0.082 A 
ATOM      7  C5  PXY d   1       3.700   0.118   1.278  0.00  0.00     0.003 A 
ATOM      8  C6  PXY d   1       4.837   0.716   0.741  0.00  0.00     0.003 A 
ENDROOT
TORSDOF 0
ENDMDL
