MODEL 1
REMARK minimizedAffinity 5.01650763
REMARK minimizedRMSD -1
REMARK  0 active torsions:
REMARK  status: ('A' for Active; 'I' for Inactive)
ROOT
ATOM      1  C4' PXY d   1       1.514   5.997  -5.645  0.00  0.00     0.077 C 
ATOM      2  C1' PXY d   1       4.684   2.194  -2.661  0.00  0.00     0.077 C 
ATOM      3  C1  PXY d   1       3.860   3.201  -3.440  0.00  0.00    -0.082 A 
ATOM      4  C2  PXY d   1       2.603   2.922  -3.744  0.00  0.00     0.003 A 
ATOM      5  C3  PXY d   1       1.854   3.808  -4.475  0.00  0.00     0.003 A 
ATOM      6  C4  PXY d   1       2.380   5.014  -4.852  0.00  0.00    -0.082 A 
ATOM      7  C5  PXY d   1       3.659   5.311  -4.536  0.00  0.00     0.003 A 
ATOM      8  C6  PXY d   1       4.415   4.381  -3.829  0.00  0.00     0.003 A 
ENDROOT
TORSDOF 0
ENDMDL
