MODEL 1
REMARK minimizedAffinity 2.32822204
REMARK minimizedRMSD -1
REMARK  0 active torsions:
REMARK  status: ('A' for Active; 'I' for Inactive)
ROOT
ATOM      1  C4' PXY d   1       5.869   5.995   5.997  0.00  0.00     0.077 C 
ATOM      2  C1' PXY d   1       3.991   3.702   1.034  0.00  0.00     0.077 C 
ATOM      3  C1  PXY d   1       4.488   4.292   2.340  0.00  0.00    -0.082 A 
ATOM      4  C2  PXY d   1       3.982   5.434   2.776  0.00  0.00     0.003 A 
ATOM      5  C3  PXY d   1       4.442   5.997   3.938  0.00  0.00     0.003 A 
ATOM      6  C4  PXY d   1       5.392   5.358   4.689  0.00  0.00    -0.082 A 
ATOM      7  C5  PXY d   1       5.905   4.187   4.257  0.00  0.00     0.003 A 
ATOM      8  C6  PXY d   1       5.454   3.652   3.053  0.00  0.00     0.003 A 
ENDROOT
TORSDOF 0
ENDMDL
