MODEL 1
REMARK minimizedAffinity 13.7193489
REMARK minimizedRMSD -1
REMARK  0 active torsions:
REMARK  status: ('A' for Active; 'I' for Inactive)
ROOT
ATOM      1  C4' PXY d   1       4.797   1.692  -1.043  0.00  0.00     0.077 C 
ATOM      2  C1' PXY d   1       0.531  -0.074   2.436  0.00  0.00     0.077 C 
ATOM      3  C1  PXY d   1       1.658   0.380   1.528  0.00  0.00    -0.082 A 
ATOM      4  C2  PXY d   1       1.670   1.622   1.071  0.00  0.00     0.003 A 
ATOM      5  C3  PXY d   1       2.663   2.039   0.224  0.00  0.00     0.003 A 
ATOM      6  C4  PXY d   1       3.684   1.193  -0.117  0.00  0.00    -0.082 A 
ATOM      7  C5  PXY d   1       3.685  -0.072   0.354  0.00  0.00     0.003 A 
ATOM      8  C6  PXY d   1       2.645  -0.489   1.179  0.00  0.00     0.003 A 
ENDROOT
TORSDOF 0
ENDMDL
