MODEL 1
REMARK minimizedAffinity 16.5886421
REMARK minimizedRMSD -1
REMARK  0 active torsions:
REMARK  status: ('A' for Active; 'I' for Inactive)
ROOT
ATOM      1  C4' PXY d   1       0.373   0.348   2.862  0.00  0.00     0.077 C 
ATOM      2  C1' PXY d   1       4.607   1.840  -0.780  0.00  0.00     0.077 C 
ATOM      3  C1  PXY d   1       3.495   1.462   0.178  0.00  0.00    -0.082 A 
ATOM      4  C2  PXY d   1       3.478   0.253   0.716  0.00  0.00     0.003 A 
ATOM      5  C3  PXY d   1       2.462  -0.117   1.559  0.00  0.00     0.003 A 
ATOM      6  C4  PXY d   1       1.482   0.777   1.897  0.00  0.00    -0.082 A 
ATOM      7  C5  PXY d   1       1.498   2.016   1.362  0.00  0.00     0.003 A 
ATOM      8  C6  PXY d   1       2.515   2.358   0.475  0.00  0.00     0.003 A 
ENDROOT
TORSDOF 0
ENDMDL
