MODEL 1
REMARK minimizedAffinity 13.5830507
REMARK minimizedRMSD -1
REMARK  0 active torsions:
REMARK  status: ('A' for Active; 'I' for Inactive)
ROOT
ATOM      1  C4' PXY d   1      -5.999  -6.000  -2.611  0.00  0.00     0.077 C 
ATOM      2  C1' PXY d   1      -2.152  -1.689  -2.439  0.00  0.00     0.077 C 
ATOM      3  C1  PXY d   1      -3.152  -2.828  -2.485  0.00  0.00    -0.082 A 
ATOM      4  C2  PXY d   1      -4.382  -2.602  -2.914  0.00  0.00     0.003 A 
ATOM      5  C3  PXY d   1      -5.308  -3.613  -2.932  0.00  0.00     0.003 A 
ATOM      6  C4  PXY d   1      -4.955  -4.882  -2.557  0.00  0.00    -0.082 A 
ATOM      7  C5  PXY d   1      -3.698  -5.123  -2.127  0.00  0.00     0.003 A 
ATOM      8  C6  PXY d   1      -2.785  -4.074  -2.077  0.00  0.00     0.003 A 
ENDROOT
TORSDOF 0
ENDMDL
