MODEL 1
REMARK minimizedAffinity 8.50233936
REMARK minimizedRMSD -1
REMARK  0 active torsions:
REMARK  status: ('A' for Active; 'I' for Inactive)
ROOT
ATOM      1  C4' PXY d   1      -5.034   0.288   3.715  0.00  0.00     0.077 C 
ATOM      2  C1' PXY d   1      -0.119   1.982   1.188  0.00  0.00     0.077 C 
ATOM      3  C1  PXY d   1      -1.408   1.549   1.857  0.00  0.00    -0.082 A 
ATOM      4  C2  PXY d   1      -1.665   0.261   2.010  0.00  0.00     0.003 A 
ATOM      5  C3  PXY d   1      -2.841  -0.149   2.584  0.00  0.00     0.003 A 
ATOM      6  C4  PXY d   1      -3.740   0.771   3.054  0.00  0.00    -0.082 A 
ATOM      7  C5  PXY d   1      -3.480   2.088   2.911  0.00  0.00     0.003 A 
ATOM      8  C6  PXY d   1      -2.300   2.483   2.288  0.00  0.00     0.003 A 
ENDROOT
TORSDOF 0
ENDMDL
