MODEL 1
REMARK minimizedAffinity 13.5687885
REMARK minimizedRMSD -1
REMARK  0 active torsions:
REMARK  status: ('A' for Active; 'I' for Inactive)
ROOT
ATOM      1  C4' PXY d   1      -1.364  -3.558  -6.000  0.00  0.00     0.077 C 
ATOM      2  C1' PXY d   1       2.737  -4.282  -1.991  0.00  0.00     0.077 C 
ATOM      3  C1  PXY d   1       1.667  -4.081  -3.046  0.00  0.00    -0.082 A 
ATOM      4  C2  PXY d   1       0.488  -4.663  -2.901  0.00  0.00     0.003 A 
ATOM      5  C3  PXY d   1      -0.480  -4.518  -3.861  0.00  0.00     0.003 A 
ATOM      6  C4  PXY d   1      -0.258  -3.726  -4.955  0.00  0.00    -0.082 A 
ATOM      7  C5  PXY d   1       0.939  -3.119  -5.105  0.00  0.00     0.003 A 
ATOM      8  C6  PXY d   1       1.923  -3.313  -4.140  0.00  0.00     0.003 A 
ENDROOT
TORSDOF 0
ENDMDL
