MODEL 1
REMARK minimizedAffinity 9.73470306
REMARK minimizedRMSD -1
REMARK  0 active torsions:
REMARK  status: ('A' for Active; 'I' for Inactive)
ROOT
ATOM      1  C4' PXY d   1      -1.749   1.855   2.068  0.00  0.00     0.077 C 
ATOM      2  C1' PXY d   1      -5.971   2.218   6.000  0.00  0.00     0.077 C 
ATOM      3  C1  PXY d   1      -4.866   2.110   4.968  0.00  0.00    -0.082 A 
ATOM      4  C2  PXY d   1      -3.901   3.015   4.945  0.00  0.00     0.003 A 
ATOM      5  C3  PXY d   1      -2.912   2.951   3.998  0.00  0.00     0.003 A 
ATOM      6  C4  PXY d   1      -2.880   1.919   3.099  0.00  0.00    -0.082 A 
ATOM      7  C5  PXY d   1      -3.854   0.986   3.122  0.00  0.00     0.003 A 
ATOM      8  C6  PXY d   1      -4.872   1.092   4.065  0.00  0.00     0.003 A 
ENDROOT
TORSDOF 0
ENDMDL
