MODEL 1
REMARK minimizedAffinity 8.88908577
REMARK minimizedRMSD -1
REMARK  0 active torsions:
REMARK  status: ('A' for Active; 'I' for Inactive)
ROOT
ATOM      1  C4' PXY d   1      -2.980  -5.940   0.557  0.00  0.00     0.077 C 
ATOM      2  C1' PXY d   1      -3.667  -1.005  -2.373  0.00  0.00     0.077 C 
ATOM      3  C1  PXY d   1      -3.491  -2.293  -1.594  0.00  0.00    -0.082 A 
ATOM      4  C2  PXY d   1      -2.651  -3.215  -2.036  0.00  0.00     0.003 A 
ATOM      5  C3  PXY d   1      -2.504  -4.399  -1.360  0.00  0.00     0.003 A 
ATOM      6  C4  PXY d   1      -3.183  -4.620  -0.192  0.00  0.00    -0.082 A 
ATOM      7  C5  PXY d   1      -4.034  -3.680   0.271  0.00  0.00     0.003 A 
ATOM      8  C6  PXY d   1      -4.200  -2.501  -0.451  0.00  0.00     0.003 A 
ENDROOT
TORSDOF 0
ENDMDL
