MODEL 1
REMARK minimizedAffinity -1.29122484
REMARK minimizedRMSD -1
REMARK  0 active torsions:
REMARK  status: ('A' for Active; 'I' for Inactive)
ROOT
ATOM      1  C4' PXY d   1      -4.009   0.622   3.178  0.00  0.00     0.077 C 
ATOM      2  C1' PXY d   1       1.536   1.162   1.638  0.00  0.00     0.077 C 
ATOM      3  C1  PXY d   1       0.081   1.010   2.034  0.00  0.00    -0.082 A 
ATOM      4  C2  PXY d   1      -0.587   2.059   2.487  0.00  0.00     0.003 A 
ATOM      5  C3  PXY d   1      -1.894   1.932   2.879  0.00  0.00     0.003 A 
ATOM      6  C4  PXY d   1      -2.541   0.731   2.758  0.00  0.00    -0.082 A 
ATOM      7  C5  PXY d   1      -1.869  -0.341   2.287  0.00  0.00     0.003 A 
ATOM      8  C6  PXY d   1      -0.531  -0.201   1.932  0.00  0.00     0.003 A 
ENDROOT
TORSDOF 0
ENDMDL
