MODEL 1
REMARK minimizedAffinity 2.40031505
REMARK minimizedRMSD -1
REMARK  0 active torsions:
REMARK  status: ('A' for Active; 'I' for Inactive)
ROOT
ATOM      1  C4' PXY d   1      -4.487  -3.752  -6.000  0.00  0.00     0.077 C 
ATOM      2  C1' PXY d   1      -4.026  -2.261  -0.434  0.00  0.00     0.077 C 
ATOM      3  C1  PXY d   1      -4.134  -2.649  -1.895  0.00  0.00    -0.082 A 
ATOM      4  C2  PXY d   1      -5.318  -2.650  -2.486  0.00  0.00     0.003 A 
ATOM      5  C3  PXY d   1      -5.439  -3.028  -3.798  0.00  0.00     0.003 A 
ATOM      6  C4  PXY d   1      -4.329  -3.358  -4.529  0.00  0.00    -0.082 A 
ATOM      7  C5  PXY d   1      -3.116  -3.350  -3.936  0.00  0.00     0.003 A 
ATOM      8  C6  PXY d   1      -3.020  -3.002  -2.592  0.00  0.00     0.003 A 
ENDROOT
TORSDOF 0
ENDMDL
