MODEL 1
REMARK minimizedAffinity 1.41447484
REMARK minimizedRMSD -1
REMARK  0 active torsions:
REMARK  status: ('A' for Active; 'I' for Inactive)
ROOT
ATOM      1  C4' PXY d   1      -3.322   0.172   2.644  0.00  0.00     0.077 C 
ATOM      2  C1' PXY d   1       2.161   1.861   1.934  0.00  0.00     0.077 C 
ATOM      3  C1  PXY d   1       0.726   1.406   2.117  0.00  0.00    -0.082 A 
ATOM      4  C2  PXY d   1      -0.256   2.288   2.028  0.00  0.00     0.003 A 
ATOM      5  C3  PXY d   1      -1.557   1.899   2.223  0.00  0.00     0.003 A 
ATOM      6  C4  PXY d   1      -1.859   0.585   2.458  0.00  0.00    -0.082 A 
ATOM      7  C5  PXY d   1      -0.864  -0.323   2.539  0.00  0.00     0.003 A 
ATOM      8  C6  PXY d   1       0.453   0.099   2.379  0.00  0.00     0.003 A 
ENDROOT
TORSDOF 0
ENDMDL
