MODEL 1
REMARK minimizedAffinity -4.11084509
REMARK minimizedRMSD -1
REMARK  1 active torsions:
REMARK  status: ('A' for Active; 'I' for Inactive)
REMARK    1  A    between atoms: C3_4  and  O_7 
ROOT
ATOM      1  C   UNL d   1       0.334  -0.096  -0.045  0.00  0.00    -0.033 A 
ATOM      2  C1  UNL d   1      -0.352   0.793  -0.874  0.00  0.00     0.039 A 
ATOM      3  C2  UNL d   1      -1.377   1.585  -0.355  0.00  0.00    -0.080 A 
ATOM      4  C3  UNL d   1      -1.705   1.481   0.994  0.00  0.00     0.150 A 
ATOM      5  C4  UNL d   1      -1.022   0.601   1.828  0.00  0.00    -0.007 A 
ATOM      6  C5  UNL d   1       0.001  -0.190   1.307  0.00  0.00     0.039 A 
ENDROOT
BRANCH   4   7
ATOM      7  O   UNL d   1      -2.701   2.231   1.546  0.00  0.00    -0.526 OA
ATOM      8  H5  UNL d   1      -3.103   2.772   0.846  0.00  0.00     0.418 HD
ENDBRANCH   4   7
TORSDOF 1
ENDMDL
