MODEL 1
REMARK minimizedAffinity -3.25021076
REMARK minimizedRMSD -1
REMARK  1 active torsions:
REMARK  status: ('A' for Active; 'I' for Inactive)
REMARK    1  A    between atoms: C3_4  and  O_7 
ROOT
ATOM      1  C   UNL d   1       0.692   0.139  -0.673  0.00  0.00    -0.033 A 
ATOM      2  C1  UNL d   1       0.242  -0.290   0.577  0.00  0.00     0.039 A 
ATOM      3  C2  UNL d   1      -0.879   0.305   1.159  0.00  0.00    -0.080 A 
ATOM      4  C3  UNL d   1      -1.539   1.327   0.482  0.00  0.00     0.150 A 
ATOM      5  C4  UNL d   1      -1.098   1.756  -0.766  0.00  0.00    -0.007 A 
ATOM      6  C5  UNL d   1       0.022   1.161  -1.345  0.00  0.00     0.039 A 
ENDROOT
BRANCH   4   7
ATOM      7  O   UNL d   1      -2.634   1.942   1.012  0.00  0.00    -0.526 OA
ATOM      8  H5  UNL d   1      -2.806   1.561   1.889  0.00  0.00     0.418 HD
ENDBRANCH   4   7
TORSDOF 1
ENDMDL
