MODEL 1
REMARK minimizedAffinity -4.61276245
REMARK minimizedRMSD -1
REMARK  1 active torsions:
REMARK  status: ('A' for Active; 'I' for Inactive)
REMARK    1  A    between atoms: C3_4  and  O_7 
ROOT
ATOM      1  C   UNL d   1       0.820  -0.011  -0.806  0.00  0.00    -0.033 A 
ATOM      2  C1  UNL d   1       0.254  -0.509   0.369  0.00  0.00     0.039 A 
ATOM      3  C2  UNL d   1      -0.736   0.218   1.032  0.00  0.00    -0.080 A 
ATOM      4  C3  UNL d   1      -1.152   1.439   0.510  0.00  0.00     0.150 A 
ATOM      5  C4  UNL d   1      -0.596   1.940  -0.662  0.00  0.00    -0.007 A 
ATOM      6  C5  UNL d   1       0.394   1.214  -1.323  0.00  0.00     0.039 A 
ENDROOT
BRANCH   4   7
ATOM      7  O   UNL d   1      -2.112   2.187   1.125  0.00  0.00    -0.526 OA
ATOM      8  H5  UNL d   1      -2.384   1.730   1.938  0.00  0.00     0.418 HD
ENDBRANCH   4   7
TORSDOF 1
ENDMDL
