MODEL 1
REMARK minimizedAffinity -4.16022491
REMARK minimizedRMSD -1
REMARK  1 active torsions:
REMARK  status: ('A' for Active; 'I' for Inactive)
REMARK    1  A    between atoms: C3_4  and  O_7 
ROOT
ATOM      1  C   UNL d   1      -1.443   2.231   1.777  0.00  0.00    -0.033 A 
ATOM      2  C1  UNL d   1      -0.770   1.238   2.491  0.00  0.00     0.039 A 
ATOM      3  C2  UNL d   1      -0.208   0.151   1.818  0.00  0.00    -0.080 A 
ATOM      4  C3  UNL d   1      -0.325   0.070   0.434  0.00  0.00     0.150 A 
ATOM      5  C4  UNL d   1      -0.990   1.058  -0.285  0.00  0.00    -0.007 A 
ATOM      6  C5  UNL d   1      -1.552   2.142   0.389  0.00  0.00     0.039 A 
ENDROOT
BRANCH   4   7
ATOM      7  O   UNL d   1       0.203  -0.974  -0.266  0.00  0.00    -0.526 OA
ATOM      8  H5  UNL d   1       0.608  -1.594   0.364  0.00  0.00     0.418 HD
ENDBRANCH   4   7
TORSDOF 1
ENDMDL
