MODEL 1
REMARK minimizedAffinity 2.74600124
REMARK minimizedRMSD -1
REMARK  1 active torsions:
REMARK  status: ('A' for Active; 'I' for Inactive)
REMARK    1  A    between atoms: C3_4  and  O_7 
ROOT
ATOM      1  C   UNL d   1      -1.662   2.223  -1.490  0.00  0.00    -0.033 A 
ATOM      2  C1  UNL d   1      -1.920   0.864  -1.299  0.00  0.00     0.039 A 
ATOM      3  C2  UNL d   1      -0.959   0.047  -0.699  0.00  0.00    -0.080 A 
ATOM      4  C3  UNL d   1       0.253   0.601  -0.295  0.00  0.00     0.150 A 
ATOM      5  C4  UNL d   1       0.514   1.955  -0.479  0.00  0.00    -0.007 A 
ATOM      6  C5  UNL d   1      -0.446   2.769  -1.078  0.00  0.00     0.039 A 
ENDROOT
BRANCH   4   7
ATOM      7  O   UNL d   1       1.223  -0.157   0.291  0.00  0.00    -0.526 OA
ATOM      8  H5  UNL d   1       0.914  -1.077   0.327  0.00  0.00     0.418 HD
ENDBRANCH   4   7
TORSDOF 1
ENDMDL
