MODEL 1
REMARK minimizedAffinity -4.7017808
REMARK minimizedRMSD -1
REMARK  1 active torsions:
REMARK  status: ('A' for Active; 'I' for Inactive)
REMARK    1  A    between atoms: C3_4  and  O_7 
ROOT
ATOM      1  C   UNL d   1       0.436  -0.533   0.023  0.00  0.00    -0.033 A 
ATOM      2  C1  UNL d   1      -0.029   0.595  -0.656  0.00  0.00     0.039 A 
ATOM      3  C2  UNL d   1      -1.035   1.385  -0.095  0.00  0.00    -0.080 A 
ATOM      4  C3  UNL d   1      -1.567   1.036   1.143  0.00  0.00     0.150 A 
ATOM      5  C4  UNL d   1      -1.106  -0.084   1.827  0.00  0.00    -0.007 A 
ATOM      6  C5  UNL d   1      -0.102  -0.872   1.265  0.00  0.00     0.039 A 
ENDROOT
BRANCH   4   7
ATOM      7  O   UNL d   1      -2.553   1.773   1.728  0.00  0.00    -0.526 OA
ATOM      8  H5  UNL d   1      -2.791   2.500   1.128  0.00  0.00     0.418 HD
ENDBRANCH   4   7
TORSDOF 1
ENDMDL
