MODEL 1
REMARK minimizedAffinity -4.5328598
REMARK minimizedRMSD -1
REMARK  1 active torsions:
REMARK  status: ('A' for Active; 'I' for Inactive)
REMARK    1  A    between atoms: C3_4  and  O_7 
ROOT
ATOM      1  C   UNL d   1       0.498  -0.255   0.639  0.00  0.00    -0.033 A 
ATOM      2  C1  UNL d   1      -0.178  -0.322   1.859  0.00  0.00     0.039 A 
ATOM      3  C2  UNL d   1      -1.272   0.513   2.099  0.00  0.00    -0.080 A 
ATOM      4  C3  UNL d   1      -1.678   1.407   1.112  0.00  0.00     0.150 A 
ATOM      5  C4  UNL d   1      -1.011   1.476  -0.106  0.00  0.00    -0.007 A 
ATOM      6  C5  UNL d   1       0.081   0.642  -0.344  0.00  0.00     0.039 A 
ENDROOT
BRANCH   4   7
ATOM      7  O   UNL d   1      -2.737   2.245   1.303  0.00  0.00    -0.526 OA
ATOM      8  H5  UNL d   1      -3.081   2.106   2.200  0.00  0.00     0.418 HD
ENDBRANCH   4   7
TORSDOF 1
ENDMDL
