MODEL 1
REMARK minimizedAffinity -3.77833319
REMARK minimizedRMSD -1
REMARK  1 active torsions:
REMARK  status: ('A' for Active; 'I' for Inactive)
REMARK    1  A    between atoms: C3_4  and  O_7 
ROOT
ATOM      1  C   UNL d   1       0.753  -0.393  -0.484  0.00  0.00    -0.033 A 
ATOM      2  C1  UNL d   1       0.474  -0.802   0.821  0.00  0.00     0.039 A 
ATOM      3  C2  UNL d   1      -0.441  -0.089   1.598  0.00  0.00    -0.080 A 
ATOM      4  C3  UNL d   1      -1.071   1.029   1.058  0.00  0.00     0.150 A 
ATOM      5  C4  UNL d   1      -0.801   1.440  -0.244  0.00  0.00    -0.007 A 
ATOM      6  C5  UNL d   1       0.114   0.727  -1.017  0.00  0.00     0.039 A 
ENDROOT
BRANCH   4   7
ATOM      7  O   UNL d   1      -1.967   1.760   1.779  0.00  0.00    -0.526 OA
ATOM      8  H5  UNL d   1      -2.032   1.376   2.669  0.00  0.00     0.418 HD
ENDBRANCH   4   7
TORSDOF 1
ENDMDL
