MODEL 1
REMARK minimizedAffinity -3.60902548
REMARK minimizedRMSD -1
REMARK  1 active torsions:
REMARK  status: ('A' for Active; 'I' for Inactive)
REMARK    1  A    between atoms: C3_4  and  O_7 
ROOT
ATOM      1  C   UNL d   1       1.052  -0.769  -0.467  0.00  0.00    -0.033 A 
ATOM      2  C1  UNL d   1       0.603   0.403  -1.080  0.00  0.00     0.039 A 
ATOM      3  C2  UNL d   1      -0.302   1.235  -0.419  0.00  0.00    -0.080 A 
ATOM      4  C3  UNL d   1      -0.749   0.887   0.852  0.00  0.00     0.150 A 
ATOM      5  C4  UNL d   1      -0.303  -0.277   1.470  0.00  0.00    -0.007 A 
ATOM      6  C5  UNL d   1       0.600  -1.108   0.809  0.00  0.00     0.039 A 
ENDROOT
BRANCH   4   7
ATOM      7  O   UNL d   1      -1.637   1.665   1.534  0.00  0.00    -0.526 OA
ATOM      8  H5  UNL d   1      -1.878   2.420   0.972  0.00  0.00     0.418 HD
ENDBRANCH   4   7
TORSDOF 1
ENDMDL
