MODEL 1
REMARK minimizedAffinity -5.59934521
REMARK minimizedRMSD -1
REMARK  1 active torsions:
REMARK  status: ('A' for Active; 'I' for Inactive)
REMARK    1  A    between atoms: C3_4  and  O_7 
ROOT
ATOM      1  C   UNL d   1       0.368   0.948  -0.629  0.00  0.00    -0.033 A 
ATOM      2  C1  UNL d   1      -0.234   0.101   0.303  0.00  0.00     0.039 A 
ATOM      3  C2  UNL d   1      -1.283   0.568   1.098  0.00  0.00    -0.080 A 
ATOM      4  C3  UNL d   1      -1.720   1.881   0.950  0.00  0.00     0.150 A 
ATOM      5  C4  UNL d   1      -1.128   2.729   0.021  0.00  0.00    -0.007 A 
ATOM      6  C5  UNL d   1      -0.080   2.262  -0.772  0.00  0.00     0.039 A 
ENDROOT
BRANCH   4   7
ATOM      7  O   UNL d   1      -2.737   2.383   1.707  0.00  0.00    -0.526 OA
ATOM      8  H5  UNL d   1      -3.030   1.693   2.325  0.00  0.00     0.418 HD
ENDBRANCH   4   7
TORSDOF 1
ENDMDL
