MODEL 1
REMARK minimizedAffinity -2.27493453
REMARK minimizedRMSD -1
REMARK  1 active torsions:
REMARK  status: ('A' for Active; 'I' for Inactive)
REMARK    1  A    between atoms: C3_4  and  O_7 
ROOT
ATOM      1  C   UNL d   1      -0.681  -0.315   0.469  0.00  0.00    -0.033 A 
ATOM      2  C1  UNL d   1       0.550  -0.563  -0.141  0.00  0.00     0.039 A 
ATOM      3  C2  UNL d   1       1.201   0.454  -0.842  0.00  0.00    -0.080 A 
ATOM      4  C3  UNL d   1       0.612   1.712  -0.924  0.00  0.00     0.150 A 
ATOM      5  C4  UNL d   1      -0.612   1.968  -0.315  0.00  0.00    -0.007 A 
ATOM      6  C5  UNL d   1      -1.261   0.951   0.384  0.00  0.00     0.039 A 
ENDROOT
BRANCH   4   7
ATOM      7  O   UNL d   1       1.208   2.735  -1.601  0.00  0.00    -0.526 OA
ATOM      8  H5  UNL d   1       2.033   2.404  -1.994  0.00  0.00     0.418 HD
ENDBRANCH   4   7
TORSDOF 1
ENDMDL
