MODEL 1
REMARK minimizedAffinity -4.4796257
REMARK minimizedRMSD -1
REMARK  1 active torsions:
REMARK  status: ('A' for Active; 'I' for Inactive)
REMARK    1  A    between atoms: C3_4  and  O_7 
ROOT
ATOM      1  C   UNL d   1       0.663   0.252  -0.391  0.00  0.00    -0.033 A 
ATOM      2  C1  UNL d   1       0.160  -0.272   0.802  0.00  0.00     0.039 A 
ATOM      3  C2  UNL d   1      -0.823   0.420   1.511  0.00  0.00    -0.080 A 
ATOM      4  C3  UNL d   1      -1.295   1.633   1.018  0.00  0.00     0.150 A 
ATOM      5  C4  UNL d   1      -0.802   2.159  -0.172  0.00  0.00    -0.007 A 
ATOM      6  C5  UNL d   1       0.180   1.467  -0.878  0.00  0.00     0.039 A 
ENDROOT
BRANCH   4   7
ATOM      7  O   UNL d   1      -2.251   2.347   1.678  0.00  0.00    -0.526 OA
ATOM      8  H5  UNL d   1      -2.476   1.875   2.497  0.00  0.00     0.418 HD
ENDBRANCH   4   7
TORSDOF 1
ENDMDL
