MODEL 1
REMARK minimizedAffinity -5.21600342
REMARK minimizedRMSD -1
REMARK  1 active torsions:
REMARK  status: ('A' for Active; 'I' for Inactive)
REMARK    1  A    between atoms: C3_4  and  O_7 
ROOT
ATOM      1  C   UNL d   1       0.113  -0.763   0.338  0.00  0.00    -0.033 A 
ATOM      2  C1  UNL d   1       0.034  -0.276   1.644  0.00  0.00     0.039 A 
ATOM      3  C2  UNL d   1      -0.893   0.718   1.965  0.00  0.00    -0.080 A 
ATOM      4  C3  UNL d   1      -1.733   1.215   0.973  0.00  0.00     0.150 A 
ATOM      5  C4  UNL d   1      -1.662   0.731  -0.329  0.00  0.00    -0.007 A 
ATOM      6  C5  UNL d   1      -0.736  -0.261  -0.648  0.00  0.00     0.039 A 
ENDROOT
BRANCH   4   7
ATOM      7  O   UNL d   1      -2.650   2.189   1.237  0.00  0.00    -0.526 OA
ATOM      8  H5  UNL d   1      -2.566   2.446   2.170  0.00  0.00     0.418 HD
ENDBRANCH   4   7
TORSDOF 1
ENDMDL
