MODEL 1
REMARK minimizedAffinity 6.11838436
REMARK minimizedRMSD -1
REMARK  1 active torsions:
REMARK  status: ('A' for Active; 'I' for Inactive)
REMARK    1  A    between atoms: C1_2  and  C2_3 
ROOT
ATOM      1  C2  UNL d   1      -0.130  -0.216   0.532  0.00  0.00    -0.081 A 
ATOM      2  C3  UNL d   1      -0.502  -0.359  -0.811  0.00  0.00     0.006 A 
ATOM      3  C4  UNL d   1      -0.786  -1.621  -1.336  0.00  0.00     0.002 A 
ATOM      4  C5  UNL d   1      -0.711  -2.760  -0.527  0.00  0.00    -0.080 A 
ATOM      5  C6  UNL d   1      -1.042  -4.118  -1.071  0.00  0.00     0.076 C 
ATOM      6  C7  UNL d   1      -0.322  -2.620   0.809  0.00  0.00     0.002 A 
ATOM      7  C8  UNL d   1      -0.037  -1.358   1.335  0.00  0.00     0.006 A 
ENDROOT
BRANCH   1   8
ATOM      8  C1  UNL d   1       0.114   1.151   1.118  0.00  0.00     0.054 C 
ATOM      9  C   UNL d   1      -0.084   2.243   0.076  0.00  0.00     0.018 C 
ENDBRANCH   1   8
TORSDOF 1
ENDMDL
