MODEL 1
REMARK minimizedAffinity 4.27379465
REMARK minimizedRMSD -1
REMARK  1 active torsions:
REMARK  status: ('A' for Active; 'I' for Inactive)
REMARK    1  A    between atoms: C1_2  and  C2_3 
ROOT
ATOM      1  C2  UNL d   1       0.351  -1.489  -0.071  0.00  0.00    -0.081 A 
ATOM      2  C3  UNL d   1       1.459  -1.537  -0.925  0.00  0.00     0.006 A 
ATOM      3  C4  UNL d   1       1.423  -2.307  -2.091  0.00  0.00     0.002 A 
ATOM      4  C5  UNL d   1       0.276  -3.034  -2.425  0.00  0.00    -0.080 A 
ATOM      5  C6  UNL d   1       0.212  -3.840  -3.689  0.00  0.00     0.076 C 
ATOM      6  C7  UNL d   1      -0.826  -3.000  -1.563  0.00  0.00     0.002 A 
ATOM      7  C8  UNL d   1      -0.789  -2.232  -0.397  0.00  0.00     0.006 A 
ENDROOT
BRANCH   1   8
ATOM      8  C1  UNL d   1       0.364  -0.610   1.153  0.00  0.00     0.054 C 
ATOM      9  C   UNL d   1       0.034   0.834   0.800  0.00  0.00     0.018 C 
ENDBRANCH   1   8
TORSDOF 1
ENDMDL
