MODEL 1
REMARK minimizedAffinity 2.25222874
REMARK minimizedRMSD -1
REMARK  1 active torsions:
REMARK  status: ('A' for Active; 'I' for Inactive)
REMARK    1  A    between atoms: C1_2  and  C2_3 
ROOT
ATOM      1  C2  UNL d   1       0.703   2.171   0.736  0.00  0.00    -0.081 A 
ATOM      2  C3  UNL d   1       1.174   2.761  -0.443  0.00  0.00     0.006 A 
ATOM      3  C4  UNL d   1       2.352   3.512  -0.437  0.00  0.00     0.002 A 
ATOM      4  C5  UNL d   1       3.081   3.679   0.745  0.00  0.00    -0.080 A 
ATOM      5  C6  UNL d   1       4.363   4.458   0.758  0.00  0.00     0.076 C 
ATOM      6  C7  UNL d   1       2.601   3.104   1.926  0.00  0.00     0.002 A 
ATOM      7  C8  UNL d   1       1.423   2.354   1.921  0.00  0.00     0.006 A 
ENDROOT
BRANCH   1   8
ATOM      8  C1  UNL d   1      -0.532   1.306   0.720  0.00  0.00     0.054 C 
ATOM      9  C   UNL d   1      -1.654   1.929   1.538  0.00  0.00     0.018 C 
ENDBRANCH   1   8
TORSDOF 1
ENDMDL
