MODEL 1
REMARK minimizedAffinity 6.35641766
REMARK minimizedRMSD -1
REMARK  1 active torsions:
REMARK  status: ('A' for Active; 'I' for Inactive)
REMARK    1  A    between atoms: C1_2  and  C2_3 
ROOT
ATOM      1  C2  UNL d   1       1.386   2.211   0.385  0.00  0.00    -0.081 A 
ATOM      2  C3  UNL d   1       0.527   1.731   1.382  0.00  0.00     0.006 A 
ATOM      3  C4  UNL d   1      -0.435   0.764   1.082  0.00  0.00     0.002 A 
ATOM      4  C5  UNL d   1      -0.549   0.254  -0.216  0.00  0.00    -0.080 A 
ATOM      5  C6  UNL d   1      -1.558  -0.806  -0.544  0.00  0.00     0.076 C 
ATOM      6  C7  UNL d   1       0.297   0.746  -1.215  0.00  0.00     0.002 A 
ATOM      7  C8  UNL d   1       1.259   1.714  -0.917  0.00  0.00     0.006 A 
ENDROOT
BRANCH   1   8
ATOM      8  C1  UNL d   1       2.467   3.207   0.719  0.00  0.00     0.054 C 
ATOM      9  C   UNL d   1       3.036   2.960   2.109  0.00  0.00     0.018 C 
ENDBRANCH   1   8
TORSDOF 1
ENDMDL
