MODEL 1
REMARK minimizedAffinity 9.17609215
REMARK minimizedRMSD -1
REMARK  1 active torsions:
REMARK  status: ('A' for Active; 'I' for Inactive)
REMARK    1  A    between atoms: C1_2  and  C2_3 
ROOT
ATOM      1  C2  UNL d   1       0.459   3.805  -5.932  0.00  0.00    -0.081 A 
ATOM      2  C3  UNL d   1      -0.761   3.119  -5.903  0.00  0.00     0.006 A 
ATOM      3  C4  UNL d   1      -1.968   3.821  -5.912  0.00  0.00     0.002 A 
ATOM      4  C5  UNL d   1      -1.976   5.219  -5.958  0.00  0.00    -0.080 A 
ATOM      5  C6  UNL d   1      -3.265   5.984  -5.999  0.00  0.00     0.076 C 
ATOM      6  C7  UNL d   1      -0.757   5.905  -5.969  0.00  0.00     0.002 A 
ATOM      7  C8  UNL d   1       0.451   5.204  -5.959  0.00  0.00     0.006 A 
ENDROOT
BRANCH   1   8
ATOM      8  C1  UNL d   1       1.762   3.049  -5.987  0.00  0.00     0.054 C 
ATOM      9  C   UNL d   1       2.954   3.994  -5.917  0.00  0.00     0.018 C 
ENDBRANCH   1   8
TORSDOF 1
ENDMDL
