MODEL 1
REMARK minimizedAffinity 5.09741116
REMARK minimizedRMSD -1
REMARK  1 active torsions:
REMARK  status: ('A' for Active; 'I' for Inactive)
REMARK    1  A    between atoms: C1_2  and  C2_3 
ROOT
ATOM      1  C2  UNL d   1       0.751   2.327   1.270  0.00  0.00    -0.081 A 
ATOM      2  C3  UNL d   1       1.667   2.728   2.250  0.00  0.00     0.006 A 
ATOM      3  C4  UNL d   1       2.758   3.533   1.913  0.00  0.00     0.002 A 
ATOM      4  C5  UNL d   1       2.946   3.957   0.593  0.00  0.00    -0.080 A 
ATOM      5  C6  UNL d   1       4.095   4.847   0.223  0.00  0.00     0.076 C 
ATOM      6  C7  UNL d   1       2.040   3.542  -0.389  0.00  0.00     0.002 A 
ATOM      7  C8  UNL d   1       0.950   2.736  -0.053  0.00  0.00     0.006 A 
ENDROOT
BRANCH   1   8
ATOM      8  C1  UNL d   1      -0.461   1.512   1.642  0.00  0.00     0.054 C 
ATOM      9  C   UNL d   1      -0.437   0.146   0.971  0.00  0.00     0.018 C 
ENDBRANCH   1   8
TORSDOF 1
ENDMDL
