MODEL 1
REMARK minimizedAffinity 3.68187475
REMARK minimizedRMSD -1
REMARK  1 active torsions:
REMARK  status: ('A' for Active; 'I' for Inactive)
REMARK    1  A    between atoms: C1_2  and  C2_3 
ROOT
ATOM      1  C2  UNL d   1      -0.006   1.329   0.772  0.00  0.00    -0.081 A 
ATOM      2  C3  UNL d   1       0.425   1.659  -0.519  0.00  0.00     0.006 A 
ATOM      3  C4  UNL d   1       1.402   2.638  -0.710  0.00  0.00     0.002 A 
ATOM      4  C5  UNL d   1       1.970   3.298   0.385  0.00  0.00    -0.080 A 
ATOM      5  C6  UNL d   1       3.042   4.330   0.196  0.00  0.00     0.076 C 
ATOM      6  C7  UNL d   1       1.527   2.981   1.674  0.00  0.00     0.002 A 
ATOM      7  C8  UNL d   1       0.549   2.002   1.866  0.00  0.00     0.006 A 
ENDROOT
BRANCH   1   8
ATOM      8  C1  UNL d   1      -1.013   0.227   0.985  0.00  0.00     0.054 C 
ATOM      9  C   UNL d   1      -2.259   0.746   1.690  0.00  0.00     0.018 C 
ENDBRANCH   1   8
TORSDOF 1
ENDMDL
