MODEL 1
REMARK minimizedAffinity 6.96579123
REMARK minimizedRMSD -1
REMARK  1 active torsions:
REMARK  status: ('A' for Active; 'I' for Inactive)
REMARK    1  A    between atoms: C1_2  and  C2_3 
ROOT
ATOM      1  C2  UNL d   1      -1.691   3.536  -5.922  0.00  0.00    -0.081 A 
ATOM      2  C3  UNL d   1      -1.482   2.152  -5.961  0.00  0.00     0.006 A 
ATOM      3  C4  UNL d   1      -0.186   1.632  -5.998  0.00  0.00     0.002 A 
ATOM      4  C5  UNL d   1       0.922   2.486  -5.988  0.00  0.00    -0.080 A 
ATOM      5  C6  UNL d   1       2.319   1.941  -5.997  0.00  0.00     0.076 C 
ATOM      6  C7  UNL d   1       0.713   3.870  -5.966  0.00  0.00     0.002 A 
ATOM      7  C8  UNL d   1      -0.583   4.390  -5.930  0.00  0.00     0.006 A 
ENDROOT
BRANCH   1   8
ATOM      8  C1  UNL d   1      -3.086   4.097  -5.817  0.00  0.00     0.054 C 
ATOM      9  C   UNL d   1      -4.135   3.009  -5.996  0.00  0.00     0.018 C 
ENDBRANCH   1   8
TORSDOF 1
ENDMDL
