MODEL 1
REMARK minimizedAffinity 0.297181249
REMARK minimizedRMSD -1
REMARK  1 active torsions:
REMARK  status: ('A' for Active; 'I' for Inactive)
REMARK    1  A    between atoms: C1_2  and  C2_3 
ROOT
ATOM      1  C2  UNL d   1      -1.904   3.672  -5.466  0.00  0.00    -0.081 A 
ATOM      2  C3  UNL d   1      -1.862   5.070  -5.408  0.00  0.00     0.006 A 
ATOM      3  C4  UNL d   1      -3.025   5.821  -5.593  0.00  0.00     0.002 A 
ATOM      4  C5  UNL d   1      -4.249   5.188  -5.830  0.00  0.00    -0.080 A 
ATOM      5  C6  UNL d   1      -5.511   5.981  -5.999  0.00  0.00     0.076 C 
ATOM      6  C7  UNL d   1      -4.288   3.791  -5.905  0.00  0.00     0.002 A 
ATOM      7  C8  UNL d   1      -3.125   3.039  -5.722  0.00  0.00     0.006 A 
ENDROOT
BRANCH   1   8
ATOM      8  C1  UNL d   1      -0.663   2.856  -5.204  0.00  0.00     0.054 C 
ATOM      9  C   UNL d   1       0.523   3.381  -6.000  0.00  0.00     0.018 C 
ENDBRANCH   1   8
TORSDOF 1
ENDMDL
