MODEL 1
REMARK minimizedAffinity -2.3358252
REMARK minimizedRMSD -1
REMARK  1 active torsions:
REMARK  status: ('A' for Active; 'I' for Inactive)
REMARK    1  A    between atoms: C1_2  and  C2_3 
ROOT
ATOM      1  C2  UNL d   1      -2.326   3.491  -5.925  0.00  0.00    -0.081 A 
ATOM      2  C3  UNL d   1      -2.221   4.888  -5.944  0.00  0.00     0.006 A 
ATOM      3  C4  UNL d   1      -3.369   5.683  -5.981  0.00  0.00     0.002 A 
ATOM      4  C5  UNL d   1      -4.639   5.097  -5.991  0.00  0.00    -0.080 A 
ATOM      5  C6  UNL d   1      -5.879   5.940  -6.000  0.00  0.00     0.076 C 
ATOM      6  C7  UNL d   1      -4.743   3.702  -5.989  0.00  0.00     0.002 A 
ATOM      7  C8  UNL d   1      -3.596   2.906  -5.953  0.00  0.00     0.006 A 
ENDROOT
BRANCH   1   8
ATOM      8  C1  UNL d   1      -1.092   2.632  -5.819  0.00  0.00     0.054 C 
ATOM      9  C   UNL d   1       0.174   3.457  -5.996  0.00  0.00     0.018 C 
ENDBRANCH   1   8
TORSDOF 1
ENDMDL
