MODEL 1
REMARK minimizedAffinity 5.33891916
REMARK minimizedRMSD -1
REMARK  1 active torsions:
REMARK  status: ('A' for Active; 'I' for Inactive)
REMARK    1  A    between atoms: C1_2  and  C2_3 
ROOT
ATOM      1  C2  UNL d   1       3.629   3.064  -5.940  0.00  0.00    -0.081 A 
ATOM      2  C3  UNL d   1       2.827   1.918  -5.882  0.00  0.00     0.006 A 
ATOM      3  C4  UNL d   1       1.435   2.026  -5.888  0.00  0.00     0.002 A 
ATOM      4  C5  UNL d   1       0.821   3.281  -5.959  0.00  0.00    -0.080 A 
ATOM      5  C6  UNL d   1      -0.673   3.410  -5.997  0.00  0.00     0.076 C 
ATOM      6  C7  UNL d   1       1.621   4.428  -6.000  0.00  0.00     0.002 A 
ATOM      7  C8  UNL d   1       3.014   4.320  -5.993  0.00  0.00     0.006 A 
ENDROOT
BRANCH   1   8
ATOM      8  C1  UNL d   1       5.131   2.948  -6.000  0.00  0.00     0.054 C 
ATOM      9  C   UNL d   1       5.794   4.317  -5.963  0.00  0.00     0.018 C 
ENDBRANCH   1   8
TORSDOF 1
ENDMDL
