MODEL 1
REMARK minimizedAffinity 6.97088909
REMARK minimizedRMSD -1
REMARK  1 active torsions:
REMARK  status: ('A' for Active; 'I' for Inactive)
REMARK    1  A    between atoms: C1_2  and  C2_3 
ROOT
ATOM      1  C2  UNL d   1       0.733   2.194   1.012  0.00  0.00    -0.081 A 
ATOM      2  C3  UNL d   1       0.953   2.776  -0.242  0.00  0.00     0.006 A 
ATOM      3  C4  UNL d   1       2.030   3.643  -0.441  0.00  0.00     0.002 A 
ATOM      4  C5  UNL d   1       2.908   3.937   0.608  0.00  0.00    -0.080 A 
ATOM      5  C6  UNL d   1       4.086   4.842   0.400  0.00  0.00     0.076 C 
ATOM      6  C7  UNL d   1       2.678   3.369   1.866  0.00  0.00     0.002 A 
ATOM      7  C8  UNL d   1       1.601   2.502   2.065  0.00  0.00     0.006 A 
ENDROOT
BRANCH   1   8
ATOM      8  C1  UNL d   1      -0.390   1.208   1.213  0.00  0.00     0.054 C 
ATOM      9  C   UNL d   1      -0.097  -0.113   0.515  0.00  0.00     0.018 C 
ENDBRANCH   1   8
TORSDOF 1
ENDMDL
