MODEL 1
REMARK minimizedAffinity 5.96631384
REMARK minimizedRMSD -1
REMARK  1 active torsions:
REMARK  status: ('A' for Active; 'I' for Inactive)
REMARK    1  A    between atoms: C1_2  and  C2_3 
ROOT
ATOM      1  C2  UNL d   1      -0.118   1.357   0.966  0.00  0.00    -0.081 A 
ATOM      2  C3  UNL d   1      -0.617   0.116   0.552  0.00  0.00     0.006 A 
ATOM      3  C4  UNL d   1      -1.933  -0.251   0.841  0.00  0.00     0.002 A 
ATOM      4  C5  UNL d   1      -2.775   0.620   1.540  0.00  0.00    -0.080 A 
ATOM      5  C6  UNL d   1      -4.200   0.251   1.830  0.00  0.00     0.076 C 
ATOM      6  C7  UNL d   1      -2.273   1.853   1.969  0.00  0.00     0.002 A 
ATOM      7  C8  UNL d   1      -0.956   2.220   1.681  0.00  0.00     0.006 A 
ENDROOT
BRANCH   1   8
ATOM      8  C1  UNL d   1       1.281   1.782   0.600  0.00  0.00     0.054 C 
ATOM      9  C   UNL d   1       1.810   2.833   1.565  0.00  0.00     0.018 C 
ENDBRANCH   1   8
TORSDOF 1
ENDMDL
