MODEL 1
REMARK minimizedAffinity -1.86577845
REMARK minimizedRMSD -1
REMARK  0 active torsions:
REMARK  status: ('A' for Active; 'I' for Inactive)
ROOT
ATOM      1  O1  BZF d   1      -0.313   0.002  -1.070  0.00  0.00    -0.204 OA
ATOM      2  C2  BZF d   1       0.438  -0.927  -0.377  0.00  0.00     0.174 A 
ATOM      3  C3  BZF d   1       0.534  -0.589   0.925  0.00  0.00    -0.012 A 
ATOM      4  C3A BZF d   1      -0.281   0.578   1.072  0.00  0.00    -0.107 A 
ATOM      5  C4  BZF d   1      -0.600   1.372   2.136  0.00  0.00     0.055 A 
ATOM      6  C5  BZF d   1      -1.363   2.478   1.929  0.00  0.00    -0.016 A 
ATOM      7  C6  BZF d   1      -1.817   2.822   0.673  0.00  0.00     0.022 A 
ATOM      8  C7  BZF d   1      -1.531   2.063  -0.412  0.00  0.00     0.029 A 
ATOM      9  C7A BZF d   1      -0.788   0.927  -0.201  0.00  0.00     0.058 A 
ENDROOT
TORSDOF 0
ENDMDL
