MODEL 1
REMARK minimizedAffinity -5.70910358
REMARK minimizedRMSD -1
REMARK  0 active torsions:
REMARK  status: ('A' for Active; 'I' for Inactive)
ROOT
ATOM      1  O1  BZF d   1       0.288   2.312  -0.905  0.00  0.00    -0.204 OA
ATOM      2  C2  BZF d   1      -0.159   3.610  -0.745  0.00  0.00     0.174 A 
ATOM      3  C3  BZF d   1      -0.988   3.703   0.314  0.00  0.00    -0.012 A 
ATOM      4  C3A BZF d   1      -0.993   2.400   0.905  0.00  0.00    -0.107 A 
ATOM      5  C4  BZF d   1      -1.615   1.866   1.996  0.00  0.00     0.055 A 
ATOM      6  C5  BZF d   1      -1.468   0.541   2.259  0.00  0.00    -0.016 A 
ATOM      7  C6  BZF d   1      -0.710  -0.279   1.449  0.00  0.00     0.022 A 
ATOM      8  C7  BZF d   1      -0.069   0.206   0.358  0.00  0.00     0.029 A 
ATOM      9  C7A BZF d   1      -0.190   1.551   0.109  0.00  0.00     0.058 A 
ENDROOT
TORSDOF 0
ENDMDL
