MODEL 1
REMARK minimizedAffinity -3.55929756
REMARK minimizedRMSD -1
REMARK  0 active torsions:
REMARK  status: ('A' for Active; 'I' for Inactive)
ROOT
ATOM      1  O1  BZF d   1       1.515   1.976  -1.924  0.00  0.00    -0.204 OA
ATOM      2  C2  BZF d   1       0.959   3.236  -1.815  0.00  0.00     0.174 A 
ATOM      3  C3  BZF d   1       0.093   3.289  -0.783  0.00  0.00    -0.012 A 
ATOM      4  C3A BZF d   1       0.177   2.007  -0.154  0.00  0.00    -0.107 A 
ATOM      5  C4  BZF d   1      -0.433   1.453   0.935  0.00  0.00     0.055 A 
ATOM      6  C5  BZF d   1      -0.186   0.152   1.240  0.00  0.00    -0.016 A 
ATOM      7  C6  BZF d   1       0.660  -0.625   0.476  0.00  0.00     0.022 A 
ATOM      8  C7  BZF d   1       1.293  -0.118  -0.610  0.00  0.00     0.029 A 
ATOM      9  C7A BZF d   1       1.070   1.206  -0.902  0.00  0.00     0.058 A 
ENDROOT
TORSDOF 0
ENDMDL
