MODEL 1
REMARK minimizedAffinity -6.69699907
REMARK minimizedRMSD -1
REMARK  0 active torsions:
REMARK  status: ('A' for Active; 'I' for Inactive)
ROOT
ATOM      1  O1  BZF d   1       0.662  -0.070   0.277  0.00  0.00    -0.204 OA
ATOM      2  C2  BZF d   1       1.467   0.068  -0.837  0.00  0.00     0.174 A 
ATOM      3  C3  BZF d   1       1.112   1.155  -1.552  0.00  0.00    -0.012 A 
ATOM      4  C3A BZF d   1       0.077   1.784  -0.791  0.00  0.00    -0.107 A 
ATOM      5  C4  BZF d   1      -0.667   2.915  -0.973  0.00  0.00     0.055 A 
ATOM      6  C5  BZF d   1      -1.648   3.211  -0.081  0.00  0.00    -0.016 A 
ATOM      7  C6  BZF d   1      -1.915   2.397   1.001  0.00  0.00     0.022 A 
ATOM      8  C7  BZF d   1      -1.200   1.268   1.226  0.00  0.00     0.029 A 
ATOM      9  C7A BZF d   1      -0.187   0.984   0.344  0.00  0.00     0.058 A 
ENDROOT
TORSDOF 0
ENDMDL
