MODEL 1
REMARK minimizedAffinity -2.67863274
REMARK minimizedRMSD -1
REMARK  0 active torsions:
REMARK  status: ('A' for Active; 'I' for Inactive)
ROOT
ATOM      1  O1  BZF d   1      -0.214  -0.569  -1.613  0.00  0.00    -0.204 OA
ATOM      2  C2  BZF d   1       0.465  -1.711  -1.234  0.00  0.00     0.174 A 
ATOM      3  C3  BZF d   1       0.623  -1.752   0.105  0.00  0.00    -0.012 A 
ATOM      4  C3A BZF d   1      -0.077  -0.607   0.601  0.00  0.00    -0.107 A 
ATOM      5  C4  BZF d   1      -0.296  -0.111   1.855  0.00  0.00     0.055 A 
ATOM      6  C5  BZF d   1      -0.957   1.068   1.992  0.00  0.00    -0.016 A 
ATOM      7  C6  BZF d   1      -1.408   1.779   0.900  0.00  0.00     0.022 A 
ATOM      8  C7  BZF d   1      -1.219   1.325  -0.363  0.00  0.00     0.029 A 
ATOM      9  C7A BZF d   1      -0.580   0.118  -0.504  0.00  0.00     0.058 A 
ENDROOT
TORSDOF 0
ENDMDL
