MODEL 1
REMARK minimizedAffinity -6.15316486
REMARK minimizedRMSD -1
REMARK  0 active torsions:
REMARK  status: ('A' for Active; 'I' for Inactive)
ROOT
ATOM      1  O1  BZF d   1       0.285   0.057  -0.904  0.00  0.00    -0.204 OA
ATOM      2  C2  BZF d   1       0.298  -0.987   0.001  0.00  0.00     0.174 A 
ATOM      3  C3  BZF d   1      -0.158  -0.583   1.204  0.00  0.00    -0.012 A 
ATOM      4  C3A BZF d   1      -0.562   0.776   1.017  0.00  0.00    -0.107 A 
ATOM      5  C4  BZF d   1      -1.112   1.714   1.842  0.00  0.00     0.055 A 
ATOM      6  C5  BZF d   1      -1.320   2.971   1.369  0.00  0.00    -0.016 A 
ATOM      7  C6  BZF d   1      -0.985   3.325   0.078  0.00  0.00     0.022 A 
ATOM      8  C7  BZF d   1      -0.441   2.427  -0.780  0.00  0.00     0.029 A 
ATOM      9  C7A BZF d   1      -0.261   1.148  -0.314  0.00  0.00     0.058 A 
ENDROOT
TORSDOF 0
ENDMDL
