MODEL 1
REMARK minimizedAffinity -5.33146048
REMARK minimizedRMSD -1
REMARK  0 active torsions:
REMARK  status: ('A' for Active; 'I' for Inactive)
ROOT
ATOM      1  O1  BZF d   1       0.665   0.149  -0.499  0.00  0.00    -0.204 OA
ATOM      2  C2  BZF d   1       0.483  -0.977   0.280  0.00  0.00     0.174 A 
ATOM      3  C3  BZF d   1      -0.342  -0.715   1.314  0.00  0.00    -0.012 A 
ATOM      4  C3A BZF d   1      -0.772   0.636   1.119  0.00  0.00    -0.107 A 
ATOM      5  C4  BZF d   1      -1.613   1.462   1.808  0.00  0.00     0.055 A 
ATOM      6  C5  BZF d   1      -1.762   2.748   1.394  0.00  0.00    -0.016 A 
ATOM      7  C6  BZF d   1      -1.082   3.241   0.300  0.00  0.00     0.022 A 
ATOM      8  C7  BZF d   1      -0.240   2.458  -0.418  0.00  0.00     0.029 A 
ATOM      9  C7A BZF d   1      -0.113   1.149  -0.022  0.00  0.00     0.058 A 
ENDROOT
TORSDOF 0
ENDMDL
