MODEL 1
REMARK minimizedAffinity -4.32778692
REMARK minimizedRMSD -1
REMARK  0 active torsions:
REMARK  status: ('A' for Active; 'I' for Inactive)
ROOT
ATOM      1  O1  BZF d   1      -1.438   1.495   2.465  0.00  0.00    -0.204 OA
ATOM      2  C2  BZF d   1      -2.182   2.379   1.707  0.00  0.00     0.174 A 
ATOM      3  C3  BZF d   1      -1.909   2.231   0.394  0.00  0.00    -0.012 A 
ATOM      4  C3A BZF d   1      -1.002   1.126   0.321  0.00  0.00    -0.107 A 
ATOM      5  C4  BZF d   1      -0.382   0.488  -0.715  0.00  0.00     0.055 A 
ATOM      6  C5  BZF d   1       0.500  -0.509  -0.443  0.00  0.00    -0.016 A 
ATOM      7  C6  BZF d   1       0.789  -0.890   0.851  0.00  0.00     0.022 A 
ATOM      8  C7  BZF d   1       0.195  -0.290   1.911  0.00  0.00     0.029 A 
ATOM      9  C7A BZF d   1      -0.721   0.696   1.638  0.00  0.00     0.058 A 
ENDROOT
TORSDOF 0
ENDMDL
