MODEL 1
REMARK minimizedAffinity -5.13969135
REMARK minimizedRMSD -1
REMARK  0 active torsions:
REMARK  status: ('A' for Active; 'I' for Inactive)
ROOT
ATOM      1  O1  BZF d   1       0.794   1.011  -0.631  0.00  0.00    -0.204 OA
ATOM      2  C2  BZF d   1       1.024  -0.350  -0.699  0.00  0.00     0.174 A 
ATOM      3  C3  BZF d   1       0.129  -1.024   0.052  0.00  0.00    -0.012 A 
ATOM      4  C3A BZF d   1      -0.769  -0.029   0.551  0.00  0.00    -0.107 A 
ATOM      5  C4  BZF d   1      -1.879  -0.080   1.345  0.00  0.00     0.055 A 
ATOM      6  C5  BZF d   1      -2.486   1.081   1.707  0.00  0.00    -0.016 A 
ATOM      7  C6  BZF d   1      -2.007   2.309   1.299  0.00  0.00     0.022 A 
ATOM      8  C7  BZF d   1      -0.912   2.409   0.506  0.00  0.00     0.029 A 
ATOM      9  C7A BZF d   1      -0.316   1.236   0.112  0.00  0.00     0.058 A 
ENDROOT
TORSDOF 0
ENDMDL
