MODEL 1
REMARK minimizedAffinity -4.49089813
REMARK minimizedRMSD -1
REMARK  0 active torsions:
REMARK  status: ('A' for Active; 'I' for Inactive)
ROOT
ATOM      1  O1  BZF d   1       1.059   1.615  -1.003  0.00  0.00    -0.204 OA
ATOM      2  C2  BZF d   1       1.381   0.271  -0.995  0.00  0.00     0.174 A 
ATOM      3  C3  BZF d   1       0.636  -0.394  -0.088  0.00  0.00    -0.012 A 
ATOM      4  C3A BZF d   1      -0.269   0.580   0.443  0.00  0.00    -0.107 A 
ATOM      5  C4  BZF d   1      -1.269   0.525   1.371  0.00  0.00     0.055 A 
ATOM      6  C5  BZF d   1      -1.913   1.670   1.716  0.00  0.00    -0.016 A 
ATOM      7  C6  BZF d   1      -1.581   2.887   1.158  0.00  0.00     0.022 A 
ATOM      8  C7  BZF d   1      -0.599   2.991   0.229  0.00  0.00     0.029 A 
ATOM      9  C7A BZF d   1       0.032   1.830  -0.146  0.00  0.00     0.058 A 
ENDROOT
TORSDOF 0
ENDMDL
