MODEL 1
REMARK minimizedAffinity -4.07037354
REMARK minimizedRMSD -1
REMARK  0 active torsions:
REMARK  status: ('A' for Active; 'I' for Inactive)
ROOT
ATOM      1  O1  BZF d   1      -1.149   2.636   0.129  0.00  0.00    -0.204 OA
ATOM      2  C2  BZF d   1      -1.749   2.709   1.372  0.00  0.00     0.174 A 
ATOM      3  C3  BZF d   1      -1.534   1.578   2.074  0.00  0.00    -0.012 A 
ATOM      4  C3A BZF d   1      -0.674   0.783   1.253  0.00  0.00    -0.107 A 
ATOM      5  C4  BZF d   1      -0.097  -0.445   1.412  0.00  0.00     0.055 A 
ATOM      6  C5  BZF d   1       0.630  -0.970   0.390  0.00  0.00    -0.016 A 
ATOM      7  C6  BZF d   1       0.795  -0.298  -0.803  0.00  0.00     0.022 A 
ATOM      8  C7  BZF d   1       0.246   0.925  -1.005  0.00  0.00     0.029 A 
ATOM      9  C7A BZF d   1      -0.461   1.472   0.037  0.00  0.00     0.058 A 
ENDROOT
TORSDOF 0
ENDMDL
