MODEL 1
REMARK minimizedAffinity -3.06435323
REMARK minimizedRMSD -1
REMARK  0 active torsions:
REMARK  status: ('A' for Active; 'I' for Inactive)
ROOT
ATOM      1  O1  BZF d   1       0.689   1.478  -1.054  0.00  0.00    -0.204 OA
ATOM      2  C2  BZF d   1       1.445   0.323  -0.987  0.00  0.00     0.174 A 
ATOM      3  C3  BZF d   1       1.044  -0.452   0.041  0.00  0.00    -0.012 A 
ATOM      4  C3A BZF d   1      -0.090   0.219   0.599  0.00  0.00    -0.107 A 
ATOM      5  C4  BZF d   1      -0.934  -0.065   1.634  0.00  0.00     0.055 A 
ATOM      6  C5  BZF d   1      -1.897   0.834   1.967  0.00  0.00    -0.016 A 
ATOM      7  C6  BZF d   1      -2.041   2.028   1.291  0.00  0.00     0.022 A 
ATOM      8  C7  BZF d   1      -1.230   2.352   0.254  0.00  0.00     0.029 A 
ATOM      9  C7A BZF d   1      -0.277   1.431  -0.106  0.00  0.00     0.058 A 
ENDROOT
TORSDOF 0
ENDMDL
