MODEL 1
REMARK minimizedAffinity -5.37721729
REMARK minimizedRMSD -1
REMARK  0 active torsions:
REMARK  status: ('A' for Active; 'I' for Inactive)
ROOT
ATOM      1  O1  BZF d   1       1.335   0.863  -0.906  0.00  0.00    -0.204 OA
ATOM      2  C2  BZF d   1       1.227   2.094  -1.523  0.00  0.00     0.174 A 
ATOM      3  C3  BZF d   1       0.182   2.788  -1.029  0.00  0.00    -0.012 A 
ATOM      4  C3A BZF d   1      -0.346   1.975   0.023  0.00  0.00    -0.107 A 
ATOM      5  C4  BZF d   1      -1.380   2.131   0.901  0.00  0.00     0.055 A 
ATOM      6  C5  BZF d   1      -1.678   1.118   1.757  0.00  0.00    -0.016 A 
ATOM      7  C6  BZF d   1      -0.967  -0.064   1.758  0.00  0.00     0.022 A 
ATOM      8  C7  BZF d   1       0.071  -0.263   0.909  0.00  0.00     0.029 A 
ATOM      9  C7A BZF d   1       0.395   0.771   0.066  0.00  0.00     0.058 A 
ENDROOT
TORSDOF 0
ENDMDL
