MODEL 1
REMARK minimizedAffinity -5.46320629
REMARK minimizedRMSD -1
REMARK  0 active torsions:
REMARK  status: ('A' for Active; 'I' for Inactive)
ROOT
ATOM      1  O1  BZF d   1       0.936   0.447  -0.777  0.00  0.00    -0.204 OA
ATOM      2  C2  BZF d   1       1.562  -0.584  -0.104  0.00  0.00     0.174 A 
ATOM      3  C3  BZF d   1       1.092  -0.688   1.156  0.00  0.00    -0.012 A 
ATOM      4  C3A BZF d   1       0.045   0.282   1.249  0.00  0.00    -0.107 A 
ATOM      5  C4  BZF d   1      -0.812   0.646   2.248  0.00  0.00     0.055 A 
ATOM      6  C5  BZF d   1      -1.667   1.681   2.039  0.00  0.00    -0.016 A 
ATOM      7  C6  BZF d   1      -1.689   2.377   0.848  0.00  0.00     0.022 A 
ATOM      8  C7  BZF d   1      -0.861   2.049  -0.174  0.00  0.00     0.029 A 
ATOM      9  C7A BZF d   1      -0.019   0.983   0.022  0.00  0.00     0.058 A 
ENDROOT
TORSDOF 0
ENDMDL
