MODEL 1
REMARK minimizedAffinity -1.84488893
REMARK minimizedRMSD -1
REMARK  0 active torsions:
REMARK  status: ('A' for Active; 'I' for Inactive)
ROOT
ATOM      1  O1  BZF d   1      -0.093   2.631  -0.450  0.00  0.00    -0.204 OA
ATOM      2  C2  BZF d   1       0.689   2.364  -1.557  0.00  0.00     0.174 A 
ATOM      3  C3  BZF d   1       1.164   1.102  -1.514  0.00  0.00    -0.012 A 
ATOM      4  C3A BZF d   1       0.571   0.516  -0.351  0.00  0.00    -0.107 A 
ATOM      5  C4  BZF d   1       0.644  -0.723   0.217  0.00  0.00     0.055 A 
ATOM      6  C5  BZF d   1       0.001  -0.950   1.392  0.00  0.00    -0.016 A 
ATOM      7  C6  BZF d   1      -0.720   0.039   2.029  0.00  0.00     0.022 A 
ATOM      8  C7  BZF d   1      -0.825   1.283   1.501  0.00  0.00     0.029 A 
ATOM      9  C7A BZF d   1      -0.203   1.507   0.297  0.00  0.00     0.058 A 
ENDROOT
TORSDOF 0
ENDMDL
