MODEL 1
REMARK minimizedAffinity 0.0152970608
REMARK minimizedRMSD -1
REMARK  0 active torsions:
REMARK  status: ('A' for Active; 'I' for Inactive)
ROOT
ATOM      1  C2' OXE d   1       5.997  -4.842  -0.623  0.00  0.00     0.078 C 
ATOM      2  C1' OXE d   1       5.752  -2.299  -1.786  0.00  0.00     0.078 C 
ATOM      3  C1  OXE d   1       5.818  -3.490  -2.708  0.00  0.00    -0.078 A 
ATOM      4  C2  OXE d   1       5.985  -4.727  -2.132  0.00  0.00    -0.078 A 
ATOM      5  C3  OXE d   1       5.998  -5.865  -2.934  0.00  0.00     0.003 A 
ATOM      6  C4  OXE d   1       5.996  -5.749  -4.329  0.00  0.00    -0.002 A 
ATOM      7  C5  OXE d   1       5.867  -4.495  -4.937  0.00  0.00    -0.002 A 
ATOM      8  C6  OXE d   1       5.734  -3.363  -4.142  0.00  0.00     0.003 A 
ENDROOT
TORSDOF 0
ENDMDL
