MODEL 1
REMARK minimizedAffinity -0.939151466
REMARK minimizedRMSD -1
REMARK  0 active torsions:
REMARK  status: ('A' for Active; 'I' for Inactive)
ROOT
ATOM      1  C2' OXE d   1       6.000  -4.395   1.964  0.00  0.00     0.078 C 
ATOM      2  C1' OXE d   1       5.998  -1.607   2.293  0.00  0.00     0.078 C 
ATOM      3  C1  OXE d   1       5.986  -2.462   3.536  0.00  0.00    -0.078 A 
ATOM      4  C2  OXE d   1       5.939  -3.825   3.365  0.00  0.00    -0.078 A 
ATOM      5  C3  OXE d   1       5.981  -4.660   4.477  0.00  0.00     0.003 A 
ATOM      6  C4  OXE d   1       5.914  -4.125   5.769  0.00  0.00    -0.002 A 
ATOM      7  C5  OXE d   1       5.921  -2.740   5.965  0.00  0.00    -0.002 A 
ATOM      8  C6  OXE d   1       5.999  -1.896   4.862  0.00  0.00     0.003 A 
ENDROOT
TORSDOF 0
ENDMDL
