MODEL 1
REMARK minimizedAffinity -0.786577344
REMARK minimizedRMSD -1
REMARK  0 active torsions:
REMARK  status: ('A' for Active; 'I' for Inactive)
ROOT
ATOM      1  C2' OXE d   1       5.996  -3.340  -1.823  0.00  0.00     0.078 C 
ATOM      2  C1' OXE d   1       5.976  -1.003  -0.267  0.00  0.00     0.078 C 
ATOM      3  C1  OXE d   1       5.980  -2.328   0.454  0.00  0.00    -0.078 A 
ATOM      4  C2  OXE d   1       5.943  -3.466  -0.316  0.00  0.00    -0.078 A 
ATOM      5  C3  OXE d   1       6.000  -4.715   0.297  0.00  0.00     0.003 A 
ATOM      6  C4  OXE d   1       5.940  -4.824   1.692  0.00  0.00    -0.002 A 
ATOM      7  C5  OXE d   1       5.937  -3.677   2.494  0.00  0.00    -0.002 A 
ATOM      8  C6  OXE d   1       6.000  -2.425   1.893  0.00  0.00     0.003 A 
ENDROOT
TORSDOF 0
ENDMDL
