MODEL 1
REMARK minimizedAffinity -0.520738482
REMARK minimizedRMSD -1
REMARK  0 active torsions:
REMARK  status: ('A' for Active; 'I' for Inactive)
ROOT
ATOM      1  C2' OXE d   1       4.819  -3.759  -1.596  0.00  0.00     0.078 C 
ATOM      2  C1' OXE d   1       2.390  -3.767  -3.003  0.00  0.00     0.078 C 
ATOM      3  C1  OXE d   1       3.636  -4.174  -3.749  0.00  0.00    -0.078 A 
ATOM      4  C2  OXE d   1       4.827  -4.122  -3.065  0.00  0.00    -0.078 A 
ATOM      5  C3  OXE d   1       5.999  -4.539  -3.690  0.00  0.00     0.003 A 
ATOM      6  C4  OXE d   1       6.000  -4.863  -5.052  0.00  0.00    -0.002 A 
ATOM      7  C5  OXE d   1       4.804  -4.884  -5.777  0.00  0.00    -0.002 A 
ATOM      8  C6  OXE d   1       3.610  -4.584  -5.131  0.00  0.00     0.003 A 
ENDROOT
TORSDOF 0
ENDMDL
