MODEL 1
REMARK minimizedAffinity -3.1019237
REMARK minimizedRMSD -1
REMARK  0 active torsions:
REMARK  status: ('A' for Active; 'I' for Inactive)
ROOT
ATOM      1  C2' OXE d   1       5.848  -5.522   3.008  0.00  0.00     0.078 C 
ATOM      2  C1' OXE d   1       5.119  -5.777   5.707  0.00  0.00     0.078 C 
ATOM      3  C1  OXE d   1       5.387  -4.390   5.178  0.00  0.00    -0.078 A 
ATOM      4  C2  OXE d   1       5.788  -4.279   3.869  0.00  0.00    -0.078 A 
ATOM      5  C3  OXE d   1       5.995  -3.018   3.316  0.00  0.00     0.003 A 
ATOM      6  C4  OXE d   1       5.947  -1.874   4.122  0.00  0.00    -0.002 A 
ATOM      7  C5  OXE d   1       5.579  -1.969   5.468  0.00  0.00    -0.002 A 
ATOM      8  C6  OXE d   1       5.255  -3.212   6.000  0.00  0.00     0.003 A 
ENDROOT
TORSDOF 0
ENDMDL
