MODEL 1
REMARK minimizedAffinity 0.124374196
REMARK minimizedRMSD -1
REMARK  0 active torsions:
REMARK  status: ('A' for Active; 'I' for Inactive)
ROOT
ATOM      1  C2' OXE d   1       5.287  -4.516   2.454  0.00  0.00     0.078 C 
ATOM      2  C1' OXE d   1       3.619  -5.258   4.586  0.00  0.00     0.078 C 
ATOM      3  C1  OXE d   1       4.425  -3.992   4.731  0.00  0.00    -0.078 A 
ATOM      4  C2  OXE d   1       5.274  -3.661   3.702  0.00  0.00    -0.078 A 
ATOM      5  C3  OXE d   1       6.000  -2.475   3.761  0.00  0.00     0.003 A 
ATOM      6  C4  OXE d   1       5.989  -1.695   4.924  0.00  0.00    -0.002 A 
ATOM      7  C5  OXE d   1       5.162  -2.035   6.000  0.00  0.00    -0.002 A 
ATOM      8  C6  OXE d   1       4.344  -3.154   5.903  0.00  0.00     0.003 A 
ENDROOT
TORSDOF 0
ENDMDL
