MODEL 1
REMARK minimizedAffinity -1.81383121
REMARK minimizedRMSD -1
REMARK  0 active torsions:
REMARK  status: ('A' for Active; 'I' for Inactive)
ROOT
ATOM      1  C2' OXE d   1       5.333  -4.866   2.604  0.00  0.00     0.078 C 
ATOM      2  C1' OXE d   1       3.790  -5.545   4.848  0.00  0.00     0.078 C 
ATOM      3  C1  OXE d   1       4.540  -4.237   4.880  0.00  0.00    -0.078 A 
ATOM      4  C2  OXE d   1       5.330  -3.935   3.797  0.00  0.00    -0.078 A 
ATOM      5  C3  OXE d   1       6.000  -2.716   3.751  0.00  0.00     0.003 A 
ATOM      6  C4  OXE d   1       6.000  -1.864   4.863  0.00  0.00    -0.002 A 
ATOM      7  C5  OXE d   1       5.234  -2.172   5.992  0.00  0.00    -0.002 A 
ATOM      8  C6  OXE d   1       4.466  -3.332   6.000  0.00  0.00     0.003 A 
ENDROOT
TORSDOF 0
ENDMDL
