MODEL 1
REMARK minimizedAffinity -2.29021692
REMARK minimizedRMSD -1
REMARK  0 active torsions:
REMARK  status: ('A' for Active; 'I' for Inactive)
ROOT
ATOM      1  C2' OXE d   1       5.379  -2.347  -1.116  0.00  0.00     0.078 C 
ATOM      2  C1' OXE d   1       5.958  -4.760   0.196  0.00  0.00     0.078 C 
ATOM      3  C1  OXE d   1       5.820  -4.792  -1.305  0.00  0.00    -0.078 A 
ATOM      4  C2  OXE d   1       5.490  -3.616  -1.935  0.00  0.00    -0.078 A 
ATOM      5  C3  OXE d   1       5.404  -3.578  -3.323  0.00  0.00     0.003 A 
ATOM      6  C4  OXE d   1       5.498  -4.757  -4.072  0.00  0.00    -0.002 A 
ATOM      7  C5  OXE d   1       5.794  -5.973  -3.447  0.00  0.00    -0.002 A 
ATOM      8  C6  OXE d   1       6.000  -6.000  -2.072  0.00  0.00     0.003 A 
ENDROOT
TORSDOF 0
ENDMDL
