MODEL 1
REMARK minimizedAffinity -2.58653116
REMARK minimizedRMSD -1
REMARK  0 active torsions:
REMARK  status: ('A' for Active; 'I' for Inactive)
ROOT
ATOM      1  C2' OXE d   1       4.625  -5.203   5.960  0.00  0.00     0.078 C 
ATOM      2  C1' OXE d   1       5.606  -2.573   5.993  0.00  0.00     0.078 C 
ATOM      3  C1  OXE d   1       5.572  -3.294   4.669  0.00  0.00    -0.078 A 
ATOM      4  C2  OXE d   1       5.134  -4.597   4.670  0.00  0.00    -0.078 A 
ATOM      5  C3  OXE d   1       5.031  -5.290   3.467  0.00  0.00     0.003 A 
ATOM      6  C4  OXE d   1       5.513  -4.725   2.280  0.00  0.00    -0.002 A 
ATOM      7  C5  OXE d   1       6.000  -3.414   2.264  0.00  0.00    -0.002 A 
ATOM      8  C6  OXE d   1       5.996  -2.671   3.440  0.00  0.00     0.003 A 
ENDROOT
TORSDOF 0
ENDMDL
