MODEL 1
REMARK minimizedAffinity -2.09135938
REMARK minimizedRMSD -1
REMARK  0 active torsions:
REMARK  status: ('A' for Active; 'I' for Inactive)
ROOT
ATOM      1  C2' OXE d   1       4.897  -4.688   5.987  0.00  0.00     0.078 C 
ATOM      2  C1' OXE d   1       5.711  -2.004   5.856  0.00  0.00     0.078 C 
ATOM      3  C1  OXE d   1       5.666  -2.790   4.569  0.00  0.00    -0.078 A 
ATOM      4  C2  OXE d   1       5.312  -4.115   4.649  0.00  0.00    -0.078 A 
ATOM      5  C3  OXE d   1       5.202  -4.871   3.485  0.00  0.00     0.003 A 
ATOM      6  C4  OXE d   1       5.597  -4.337   2.253  0.00  0.00    -0.002 A 
ATOM      7  C5  OXE d   1       5.999  -3.000   2.155  0.00  0.00    -0.002 A 
ATOM      8  C6  OXE d   1       5.999  -2.203   3.294  0.00  0.00     0.003 A 
ENDROOT
TORSDOF 0
ENDMDL
