MODEL 1
REMARK minimizedAffinity -0.701636374
REMARK minimizedRMSD -1
REMARK  0 active torsions:
REMARK  status: ('A' for Active; 'I' for Inactive)
ROOT
ATOM      1  C2' OXE d   1       4.918  -3.239  -6.000  0.00  0.00     0.078 C 
ATOM      2  C1' OXE d   1       5.644  -5.945  -5.825  0.00  0.00     0.078 C 
ATOM      3  C1  OXE d   1       5.637  -5.134  -4.553  0.00  0.00    -0.078 A 
ATOM      4  C2  OXE d   1       5.325  -3.800  -4.655  0.00  0.00    -0.078 A 
ATOM      5  C3  OXE d   1       5.251  -3.019  -3.505  0.00  0.00     0.003 A 
ATOM      6  C4  OXE d   1       5.640  -3.543  -2.266  0.00  0.00    -0.002 A 
ATOM      7  C5  OXE d   1       5.999  -4.890  -2.146  0.00  0.00    -0.002 A 
ATOM      8  C6  OXE d   1       5.961  -5.708  -3.270  0.00  0.00     0.003 A 
ENDROOT
TORSDOF 0
ENDMDL
