MODEL 1
REMARK minimizedAffinity -3.66317725
REMARK minimizedRMSD -1
REMARK  0 active torsions:
REMARK  status: ('A' for Active; 'I' for Inactive)
ROOT
ATOM      1  C2' OXE d   1       5.838  -2.185   3.965  0.00  0.00     0.078 C 
ATOM      2  C1' OXE d   1       5.627  -4.874   4.741  0.00  0.00     0.078 C 
ATOM      3  C1  OXE d   1       5.763  -4.576   3.269  0.00  0.00    -0.078 A 
ATOM      4  C2  OXE d   1       5.819  -3.254   2.894  0.00  0.00    -0.078 A 
ATOM      5  C3  OXE d   1       6.000  -2.925   1.554  0.00  0.00     0.003 A 
ATOM      6  C4  OXE d   1       5.971  -3.920   0.569  0.00  0.00    -0.002 A 
ATOM      7  C5  OXE d   1       5.876  -5.269   0.926  0.00  0.00    -0.002 A 
ATOM      8  C6  OXE d   1       5.814  -5.616   2.271  0.00  0.00     0.003 A 
ENDROOT
TORSDOF 0
ENDMDL
