MODEL 1
REMARK minimizedAffinity -3.7110908
REMARK minimizedRMSD -1
REMARK  0 active torsions:
REMARK  status: ('A' for Active; 'I' for Inactive)
ROOT
ATOM      1  C2' OXE d   1       5.545  -5.043   4.848  0.00  0.00     0.078 C 
ATOM      2  C1' OXE d   1       5.957  -2.268   4.769  0.00  0.00     0.078 C 
ATOM      3  C1  OXE d   1       5.888  -3.006   3.456  0.00  0.00    -0.078 A 
ATOM      4  C2  OXE d   1       5.733  -4.371   3.506  0.00  0.00    -0.078 A 
ATOM      5  C3  OXE d   1       5.608  -5.094   2.323  0.00  0.00     0.003 A 
ATOM      6  C4  OXE d   1       5.793  -4.466   1.085  0.00  0.00    -0.002 A 
ATOM      7  C5  OXE d   1       5.992  -3.083   1.014  0.00  0.00    -0.002 A 
ATOM      8  C6  OXE d   1       6.000  -2.334   2.185  0.00  0.00     0.003 A 
ENDROOT
TORSDOF 0
ENDMDL
