MODEL 1
REMARK minimizedAffinity 5.76570272
REMARK minimizedRMSD -1
REMARK  0 active torsions:
REMARK  status: ('A' for Active; 'I' for Inactive)
ROOT
ATOM      1  C2' OXE d   1       5.790  -5.781  -4.537  0.00  0.00     0.078 C 
ATOM      2  C1' OXE d   1       5.605  -2.985  -4.710  0.00  0.00     0.078 C 
ATOM      3  C1  OXE d   1       5.759  -3.596  -3.340  0.00  0.00    -0.078 A 
ATOM      4  C2  OXE d   1       5.802  -4.968  -3.261  0.00  0.00    -0.078 A 
ATOM      5  C3  OXE d   1       5.999  -5.581  -2.027  0.00  0.00     0.003 A 
ATOM      6  C4  OXE d   1       6.000  -4.822  -0.850  0.00  0.00    -0.002 A 
ATOM      7  C5  OXE d   1       5.917  -3.426  -0.905  0.00  0.00    -0.002 A 
ATOM      8  C6  OXE d   1       5.840  -2.797  -2.143  0.00  0.00     0.003 A 
ENDROOT
TORSDOF 0
ENDMDL
