MODEL 1
REMARK minimizedAffinity 5.58429766
REMARK minimizedRMSD -1
REMARK  0 active torsions:
REMARK  status: ('A' for Active; 'I' for Inactive)
ROOT
ATOM      1  C2' OXE d   1       3.042  -5.208   6.000  0.00  0.00     0.078 C 
ATOM      2  C1' OXE d   1       5.839  -5.440   5.950  0.00  0.00     0.078 C 
ATOM      3  C1  OXE d   1       5.213  -4.308   5.175  0.00  0.00    -0.078 A 
ATOM      4  C2  OXE d   1       3.841  -4.230   5.167  0.00  0.00    -0.078 A 
ATOM      5  C3  OXE d   1       3.215  -3.173   4.513  0.00  0.00     0.003 A 
ATOM      6  C4  OXE d   1       3.961  -2.278   3.736  0.00  0.00    -0.002 A 
ATOM      7  C5  OXE d   1       5.357  -2.363   3.698  0.00  0.00    -0.002 A 
ATOM      8  C6  OXE d   1       6.000  -3.345   4.445  0.00  0.00     0.003 A 
ENDROOT
TORSDOF 0
ENDMDL
