MODEL 1
REMARK minimizedAffinity 0.948892474
REMARK minimizedRMSD -1
REMARK  0 active torsions:
REMARK  status: ('A' for Active; 'I' for Inactive)
ROOT
ATOM      1  C2' OXE d   1       5.999  -4.540   2.294  0.00  0.00     0.078 C 
ATOM      2  C1' OXE d   1       5.822  -5.878   4.755  0.00  0.00     0.078 C 
ATOM      3  C1  OXE d   1       5.866  -4.370   4.775  0.00  0.00    -0.078 A 
ATOM      4  C2  OXE d   1       5.999  -3.726   3.569  0.00  0.00    -0.078 A 
ATOM      5  C3  OXE d   1       5.989  -2.335   3.526  0.00  0.00     0.003 A 
ATOM      6  C4  OXE d   1       6.000  -1.589   4.711  0.00  0.00    -0.002 A 
ATOM      7  C5  OXE d   1       5.904  -2.227   5.952  0.00  0.00    -0.002 A 
ATOM      8  C6  OXE d   1       5.794  -3.612   6.000  0.00  0.00     0.003 A 
ENDROOT
TORSDOF 0
ENDMDL
