MODEL 1
REMARK minimizedAffinity -3.54427004
REMARK minimizedRMSD -1
REMARK  0 active torsions:
REMARK  status: ('A' for Active; 'I' for Inactive)
ROOT
ATOM      1  C2' OXE d   1       5.861  -2.639   5.818  0.00  0.00     0.078 C 
ATOM      2  C1' OXE d   1       5.842  -5.395   5.286  0.00  0.00     0.078 C 
ATOM      3  C1  OXE d   1       5.915  -4.452   4.111  0.00  0.00    -0.078 A 
ATOM      4  C2  OXE d   1       5.877  -3.105   4.378  0.00  0.00    -0.078 A 
ATOM      5  C3  OXE d   1       5.996  -2.191   3.335  0.00  0.00     0.003 A 
ATOM      6  C4  OXE d   1       6.000  -2.630   2.006  0.00  0.00    -0.002 A 
ATOM      7  C5  OXE d   1       5.999  -3.997   1.709  0.00  0.00    -0.002 A 
ATOM      8  C6  OXE d   1       6.000  -4.920   2.750  0.00  0.00     0.003 A 
ENDROOT
TORSDOF 0
ENDMDL
