MODEL 1
REMARK minimizedAffinity -4.09456587
REMARK minimizedRMSD -1
REMARK  0 active torsions:
REMARK  status: ('A' for Active; 'I' for Inactive)
ROOT
ATOM      1  C   UNL d   1      -1.458   2.505   0.920  0.00  0.00     0.124 A 
ATOM      2  C1  UNL d   1      -0.718   2.789  -0.219  0.00  0.00     0.062 A 
ATOM      3  C2  UNL d   1       0.023   1.788  -0.840  0.00  0.00     0.162 A 
ATOM      4  C3  UNL d   1       0.027   0.493  -0.324  0.00  0.00    -0.034 A 
ATOM      5  C4  UNL d   1      -0.719   0.215   0.823  0.00  0.00     0.162 A 
ATOM      6  C5  UNL d   1      -1.458   1.219   1.440  0.00  0.00     0.062 A 
ATOM      7  F   UNL d   1      -2.172   0.942   2.541  0.00  0.00    -0.097 F 
ATOM      8  F1  UNL d   1      -0.737  -1.020   1.346  0.00  0.00    -0.096 F 
ATOM      9  I   UNL d   1       1.134  -1.007  -1.249  0.00  0.00    -0.060 I 
ATOM     10  F2  UNL d   1       0.729   2.091  -1.940  0.00  0.00    -0.096 F 
ATOM     11  F3  UNL d   1      -0.716   4.032  -0.723  0.00  0.00    -0.097 F 
ATOM     12  F4  UNL d   1      -2.170   3.471   1.516  0.00  0.00    -0.092 F 
ENDROOT
TORSDOF 0
ENDMDL
