MODEL 1
REMARK minimizedAffinity -2.17421603
REMARK minimizedRMSD -1
REMARK  0 active torsions:
REMARK  status: ('A' for Active; 'I' for Inactive)
ROOT
ATOM      1  C   UNL d   1      -1.190   2.995   0.486  0.00  0.00     0.124 A 
ATOM      2  C1  UNL d   1      -1.556   1.755   0.991  0.00  0.00     0.062 A 
ATOM      3  C2  UNL d   1      -0.947   0.597   0.514  0.00  0.00     0.162 A 
ATOM      4  C3  UNL d   1       0.036   0.675  -0.472  0.00  0.00    -0.034 A 
ATOM      5  C4  UNL d   1       0.399   1.925  -0.975  0.00  0.00     0.162 A 
ATOM      6  C5  UNL d   1      -0.213   3.079  -0.496  0.00  0.00     0.062 A 
ATOM      7  F   UNL d   1       0.142   4.276  -0.984  0.00  0.00    -0.097 F 
ATOM      8  F1  UNL d   1       1.340   2.036  -1.924  0.00  0.00    -0.096 F 
ATOM      9  I   UNL d   1       0.949  -1.053  -1.187  0.00  0.00    -0.060 I 
ATOM     10  F2  UNL d   1      -1.321  -0.588   1.020  0.00  0.00    -0.096 F 
ATOM     11  F3  UNL d   1      -2.500   1.670   1.939  0.00  0.00    -0.097 F 
ATOM     12  F4  UNL d   1      -1.778   4.106   0.946  0.00  0.00    -0.092 F 
ENDROOT
TORSDOF 0
ENDMDL
