MODEL 1
REMARK minimizedAffinity -3.01312709
REMARK minimizedRMSD -1
REMARK  0 active torsions:
REMARK  status: ('A' for Active; 'I' for Inactive)
ROOT
ATOM      1  C   UNL d   1      -2.266   2.673   0.939  0.00  0.00     0.124 A 
ATOM      2  C1  UNL d   1      -2.553   1.359   1.281  0.00  0.00     0.062 A 
ATOM      3  C2  UNL d   1      -1.633   0.349   1.011  0.00  0.00     0.162 A 
ATOM      4  C3  UNL d   1      -0.418   0.649   0.397  0.00  0.00    -0.034 A 
ATOM      5  C4  UNL d   1      -0.137   1.973   0.055  0.00  0.00     0.162 A 
ATOM      6  C5  UNL d   1      -1.059   2.979   0.326  0.00  0.00     0.062 A 
ATOM      7  F   UNL d   1      -0.780   4.248  -0.005  0.00  0.00    -0.097 F 
ATOM      8  F1  UNL d   1       1.022   2.297  -0.537  0.00  0.00    -0.096 F 
ATOM      9  I   UNL d   1       0.959  -0.858  -0.008  0.00  0.00    -0.060 I 
ATOM     10  F2  UNL d   1      -1.937  -0.912   1.353  0.00  0.00    -0.096 F 
ATOM     11  F3  UNL d   1      -3.719   1.060   1.872  0.00  0.00    -0.097 F 
ATOM     12  F4  UNL d   1      -3.153   3.643   1.198  0.00  0.00    -0.092 F 
ENDROOT
TORSDOF 0
ENDMDL
