MODEL 1
REMARK minimizedAffinity -3.74505424
REMARK minimizedRMSD -1
REMARK  0 active torsions:
REMARK  status: ('A' for Active; 'I' for Inactive)
ROOT
ATOM      1  C   UNL d   1      -0.650   2.583   0.708  0.00  0.00     0.124 A 
ATOM      2  C1  UNL d   1      -1.106   1.420   1.311  0.00  0.00     0.062 A 
ATOM      3  C2  UNL d   1      -0.575   0.187   0.944  0.00  0.00     0.162 A 
ATOM      4  C3  UNL d   1       0.419   0.111  -0.032  0.00  0.00    -0.034 A 
ATOM      5  C4  UNL d   1       0.872   1.285  -0.635  0.00  0.00     0.162 A 
ATOM      6  C5  UNL d   1       0.338   2.515  -0.264  0.00  0.00     0.062 A 
ATOM      7  F   UNL d   1       0.780   3.639  -0.848  0.00  0.00    -0.097 F 
ATOM      8  F1  UNL d   1       1.827   1.249  -1.576  0.00  0.00    -0.096 F 
ATOM      9  I   UNL d   1       1.216  -1.731  -0.583  0.00  0.00    -0.060 I 
ATOM     10  F2  UNL d   1      -1.035  -0.922   1.544  0.00  0.00    -0.096 F 
ATOM     11  F3  UNL d   1      -2.062   1.483   2.250  0.00  0.00    -0.097 F 
ATOM     12  F4  UNL d   1      -1.164   3.769   1.062  0.00  0.00    -0.092 F 
ENDROOT
TORSDOF 0
ENDMDL
