MODEL 1
REMARK minimizedAffinity -6.33673716
REMARK minimizedRMSD -1
REMARK  0 active torsions:
REMARK  status: ('A' for Active; 'I' for Inactive)
ROOT
ATOM      1  C   UNL d   1      -1.209   2.671   1.050  0.00  0.00     0.124 A 
ATOM      2  C1  UNL d   1      -1.092   1.425   1.652  0.00  0.00     0.062 A 
ATOM      3  C2  UNL d   1      -0.402   0.400   1.010  0.00  0.00     0.162 A 
ATOM      4  C3  UNL d   1       0.177   0.617  -0.240  0.00  0.00    -0.034 A 
ATOM      5  C4  UNL d   1       0.054   1.872  -0.839  0.00  0.00     0.162 A 
ATOM      6  C5  UNL d   1      -0.636   2.893  -0.194  0.00  0.00     0.062 A 
ATOM      7  F   UNL d   1      -0.749   4.095  -0.777  0.00  0.00    -0.097 F 
ATOM      8  F1  UNL d   1       0.599   2.115  -2.040  0.00  0.00    -0.096 F 
ATOM      9  I   UNL d   1       1.210  -0.912  -1.202  0.00  0.00    -0.060 I 
ATOM     10  F2  UNL d   1      -0.304  -0.793   1.615  0.00  0.00    -0.096 F 
ATOM     11  F3  UNL d   1      -1.646   1.208   2.853  0.00  0.00    -0.097 F 
ATOM     12  F4  UNL d   1      -1.875   3.654   1.669  0.00  0.00    -0.092 F 
ENDROOT
TORSDOF 0
ENDMDL
