MODEL 1
REMARK minimizedAffinity -2.3855834
REMARK minimizedRMSD -1
REMARK  0 active torsions:
REMARK  status: ('A' for Active; 'I' for Inactive)
ROOT
ATOM      1  C   UNL d   1      -1.115  -0.266   1.534  0.00  0.00     0.124 A 
ATOM      2  C1  UNL d   1      -1.728   0.946   1.817  0.00  0.00     0.062 A 
ATOM      3  C2  UNL d   1      -1.430   2.076   1.061  0.00  0.00     0.162 A 
ATOM      4  C3  UNL d   1      -0.514   1.998   0.012  0.00  0.00    -0.034 A 
ATOM      5  C4  UNL d   1       0.100   0.775  -0.267  0.00  0.00     0.162 A 
ATOM      6  C5  UNL d   1      -0.202  -0.351   0.492  0.00  0.00     0.062 A 
ATOM      7  F   UNL d   1       0.391  -1.522   0.217  0.00  0.00    -0.097 F 
ATOM      8  F1  UNL d   1       0.985   0.664  -1.268  0.00  0.00    -0.096 F 
ATOM      9  I   UNL d   1      -0.064   3.684  -1.123  0.00  0.00    -0.060 I 
ATOM     10  F2  UNL d   1      -2.037   3.234   1.357  0.00  0.00    -0.096 F 
ATOM     11  F3  UNL d   1      -2.610   1.031   2.824  0.00  0.00    -0.097 F 
ATOM     12  F4  UNL d   1      -1.404  -1.351   2.264  0.00  0.00    -0.092 F 
ENDROOT
TORSDOF 0
ENDMDL
