MODEL 1
REMARK minimizedAffinity -4.81361246
REMARK minimizedRMSD -1
REMARK  0 active torsions:
REMARK  status: ('A' for Active; 'I' for Inactive)
ROOT
ATOM      1  C   UNL d   1      -1.873   2.622   0.958  0.00  0.00     0.124 A 
ATOM      2  C1  UNL d   1      -1.823   1.379   1.575  0.00  0.00     0.062 A 
ATOM      3  C2  UNL d   1      -0.969   0.392   1.093  0.00  0.00     0.162 A 
ATOM      4  C3  UNL d   1      -0.156   0.643  -0.013  0.00  0.00    -0.034 A 
ATOM      5  C4  UNL d   1      -0.212   1.894  -0.629  0.00  0.00     0.162 A 
ATOM      6  C5  UNL d   1      -1.068   2.878  -0.143  0.00  0.00     0.062 A 
ATOM      7  F   UNL d   1      -1.114   4.077  -0.740  0.00  0.00    -0.097 F 
ATOM      8  F1  UNL d   1       0.556   2.169  -1.693  0.00  0.00    -0.096 F 
ATOM      9  I   UNL d   1       1.122  -0.831  -0.737  0.00  0.00    -0.060 I 
ATOM     10  F2  UNL d   1      -0.942  -0.799   1.709  0.00  0.00    -0.096 F 
ATOM     11  F3  UNL d   1      -2.601   1.129   2.638  0.00  0.00    -0.097 F 
ATOM     12  F4  UNL d   1      -2.696   3.570   1.423  0.00  0.00    -0.092 F 
ENDROOT
TORSDOF 0
ENDMDL
