MODEL 1
REMARK minimizedAffinity -4.63227081
REMARK minimizedRMSD -1
REMARK  0 active torsions:
REMARK  status: ('A' for Active; 'I' for Inactive)
ROOT
ATOM      1  C   UNL d   1      -1.361   2.767   0.950  0.00  0.00     0.124 A 
ATOM      2  C1  UNL d   1      -1.246   1.511   1.530  0.00  0.00     0.062 A 
ATOM      3  C2  UNL d   1      -0.518   0.510   0.892  0.00  0.00     0.162 A 
ATOM      4  C3  UNL d   1       0.102   0.762  -0.332  0.00  0.00    -0.034 A 
ATOM      5  C4  UNL d   1      -0.020   2.027  -0.909  0.00  0.00     0.162 A 
ATOM      6  C5  UNL d   1      -0.749   3.024  -0.268  0.00  0.00     0.062 A 
ATOM      7  F   UNL d   1      -0.860   4.237  -0.829  0.00  0.00    -0.097 F 
ATOM      8  F1  UNL d   1       0.562   2.303  -2.085  0.00  0.00    -0.096 F 
ATOM      9  I   UNL d   1       1.191  -0.731  -1.288  0.00  0.00    -0.060 I 
ATOM     10  F2  UNL d   1      -0.422  -0.694   1.475  0.00  0.00    -0.096 F 
ATOM     11  F3  UNL d   1      -1.837   1.260   2.706  0.00  0.00    -0.097 F 
ATOM     12  F4  UNL d   1      -2.063   3.727   1.565  0.00  0.00    -0.092 F 
ENDROOT
TORSDOF 0
ENDMDL
