MODEL 1
REMARK minimizedAffinity -2.07288933
REMARK minimizedRMSD -1
REMARK  0 active torsions:
REMARK  status: ('A' for Active; 'I' for Inactive)
ROOT
ATOM      1  C   UNL d   1      -1.311   2.818   0.796  0.00  0.00     0.124 A 
ATOM      2  C1  UNL d   1      -1.525   1.525   1.252  0.00  0.00     0.062 A 
ATOM      3  C2  UNL d   1      -0.831   0.459   0.686  0.00  0.00     0.162 A 
ATOM      4  C3  UNL d   1       0.083   0.682  -0.344  0.00  0.00    -0.034 A 
ATOM      5  C4  UNL d   1       0.292   1.985  -0.798  0.00  0.00     0.162 A 
ATOM      6  C5  UNL d   1      -0.403   3.047  -0.228  0.00  0.00     0.062 A 
ATOM      7  F   UNL d   1      -0.195   4.296  -0.670  0.00  0.00    -0.097 F 
ATOM      8  F1  UNL d   1       1.164   2.236  -1.786  0.00  0.00    -0.096 F 
ATOM      9  I   UNL d   1       1.122  -0.909  -1.194  0.00  0.00    -0.060 I 
ATOM     10  F2  UNL d   1      -1.058  -0.780   1.146  0.00  0.00    -0.096 F 
ATOM     11  F3  UNL d   1      -2.402   1.301   2.241  0.00  0.00    -0.097 F 
ATOM     12  F4  UNL d   1      -1.980   3.842   1.342  0.00  0.00    -0.092 F 
ENDROOT
TORSDOF 0
ENDMDL
