MODEL 1
REMARK minimizedAffinity -5.10705328
REMARK minimizedRMSD -1
REMARK  0 active torsions:
REMARK  status: ('A' for Active; 'I' for Inactive)
ROOT
ATOM      1  C   UNL d   1      -0.871   2.919  -0.354  0.00  0.00     0.124 A 
ATOM      2  C1  UNL d   1       0.161   2.140  -0.859  0.00  0.00     0.062 A 
ATOM      3  C2  UNL d   1       0.476   0.923  -0.261  0.00  0.00     0.162 A 
ATOM      4  C3  UNL d   1      -0.243   0.476   0.848  0.00  0.00    -0.034 A 
ATOM      5  C4  UNL d   1      -1.279   1.266   1.350  0.00  0.00     0.162 A 
ATOM      6  C5  UNL d   1      -1.590   2.481   0.750  0.00  0.00     0.062 A 
ATOM      7  F   UNL d   1      -2.587   3.233   1.239  0.00  0.00    -0.097 F 
ATOM      8  F1  UNL d   1      -1.990   0.867   2.415  0.00  0.00    -0.096 F 
ATOM      9  I   UNL d   1       0.225  -1.343   1.744  0.00  0.00    -0.060 I 
ATOM     10  F2  UNL d   1       1.478   0.191  -0.770  0.00  0.00    -0.096 F 
ATOM     11  F3  UNL d   1       0.857   2.561  -1.925  0.00  0.00    -0.097 F 
ATOM     12  F4  UNL d   1      -1.172   4.090  -0.930  0.00  0.00    -0.092 F 
ENDROOT
TORSDOF 0
ENDMDL
