MODEL 1
REMARK minimizedAffinity -4.64785814
REMARK minimizedRMSD -1
REMARK  0 active torsions:
REMARK  status: ('A' for Active; 'I' for Inactive)
ROOT
ATOM      1  C   UNL d   1      -1.774   2.646   0.805  0.00  0.00     0.124 A 
ATOM      2  C1  UNL d   1      -0.869   2.929  -0.209  0.00  0.00     0.062 A 
ATOM      3  C2  UNL d   1       0.004   1.945  -0.663  0.00  0.00     0.162 A 
ATOM      4  C3  UNL d   1      -0.023   0.667  -0.104  0.00  0.00    -0.034 A 
ATOM      5  C4  UNL d   1      -0.936   0.390   0.916  0.00  0.00     0.162 A 
ATOM      6  C5  UNL d   1      -1.806   1.378   1.366  0.00  0.00     0.062 A 
ATOM      7  F   UNL d   1      -2.680   1.102   2.346  0.00  0.00    -0.097 F 
ATOM      8  F1  UNL d   1      -0.989  -0.827   1.476  0.00  0.00    -0.096 F 
ATOM      9  I   UNL d   1       1.281  -0.807  -0.780  0.00  0.00    -0.060 I 
ATOM     10  F2  UNL d   1       0.868   2.247  -1.644  0.00  0.00    -0.096 F 
ATOM     11  F3  UNL d   1      -0.835   4.155  -0.752  0.00  0.00    -0.097 F 
ATOM     12  F4  UNL d   1      -2.612   3.595   1.240  0.00  0.00    -0.092 F 
ENDROOT
TORSDOF 0
ENDMDL
