MODEL 1
REMARK minimizedAffinity -4.49351454
REMARK minimizedRMSD -1
REMARK  0 active torsions:
REMARK  status: ('A' for Active; 'I' for Inactive)
ROOT
ATOM      1  C   UNL d   1      -1.753   2.807   0.534  0.00  0.00     0.124 A 
ATOM      2  C1  UNL d   1      -1.884   1.529   1.059  0.00  0.00     0.062 A 
ATOM      3  C2  UNL d   1      -1.015   0.516   0.663  0.00  0.00     0.162 A 
ATOM      4  C3  UNL d   1      -0.006   0.778  -0.264  0.00  0.00    -0.034 A 
ATOM      5  C4  UNL d   1       0.119   2.066  -0.788  0.00  0.00     0.162 A 
ATOM      6  C5  UNL d   1      -0.752   3.074  -0.389  0.00  0.00     0.062 A 
ATOM      7  F   UNL d   1      -0.624   4.308  -0.898  0.00  0.00    -0.097 F 
ATOM      8  F1  UNL d   1       1.078   2.352  -1.681  0.00  0.00    -0.096 F 
ATOM      9  I   UNL d   1       1.296  -0.733  -0.859  0.00  0.00    -0.060 I 
ATOM     10  F2  UNL d   1      -1.165  -0.709   1.187  0.00  0.00    -0.096 F 
ATOM     11  F3  UNL d   1      -2.851   1.268   1.950  0.00  0.00    -0.097 F 
ATOM     12  F4  UNL d   1      -2.592   3.779   0.916  0.00  0.00    -0.092 F 
ENDROOT
TORSDOF 0
ENDMDL
