MODEL 1
REMARK minimizedAffinity -4.65731478
REMARK minimizedRMSD -1
REMARK  0 active torsions:
REMARK  status: ('A' for Active; 'I' for Inactive)
ROOT
ATOM      1  C   UNL d   1      -0.730   2.803   0.696  0.00  0.00     0.124 A 
ATOM      2  C1  UNL d   1       0.288   2.871  -0.245  0.00  0.00     0.062 A 
ATOM      3  C2  UNL d   1       0.848   1.704  -0.757  0.00  0.00     0.162 A 
ATOM      4  C3  UNL d   1       0.390   0.458  -0.330  0.00  0.00    -0.034 A 
ATOM      5  C4  UNL d   1      -0.633   0.397   0.618  0.00  0.00     0.162 A 
ATOM      6  C5  UNL d   1      -1.189   1.566   1.127  0.00  0.00     0.062 A 
ATOM      7  F   UNL d   1      -2.172   1.498   2.036  0.00  0.00    -0.097 F 
ATOM      8  F1  UNL d   1      -1.097  -0.785   1.051  0.00  0.00    -0.096 F 
ATOM      9  I   UNL d   1       1.225  -1.289  -1.093  0.00  0.00    -0.060 I 
ATOM     10  F2  UNL d   1       1.830   1.801  -1.666  0.00  0.00    -0.096 F 
ATOM     11  F3  UNL d   1       0.734   4.065  -0.662  0.00  0.00    -0.097 F 
ATOM     12  F4  UNL d   1      -1.266   3.927   1.188  0.00  0.00    -0.092 F 
ENDROOT
TORSDOF 0
ENDMDL
