MODEL 1
REMARK minimizedAffinity -0.922937036
REMARK minimizedRMSD -1
REMARK  0 active torsions:
REMARK  status: ('A' for Active; 'I' for Inactive)
ROOT
ATOM      1  C   UNL d   1       0.977  -2.334  -1.987  0.00  0.00     0.124 A 
ATOM      2  C1  UNL d   1       1.333  -2.233  -0.650  0.00  0.00     0.062 A 
ATOM      3  C2  UNL d   1       0.745  -1.265   0.160  0.00  0.00     0.162 A 
ATOM      4  C3  UNL d   1      -0.206  -0.391  -0.366  0.00  0.00    -0.034 A 
ATOM      5  C4  UNL d   1      -0.559  -0.499  -1.712  0.00  0.00     0.162 A 
ATOM      6  C5  UNL d   1       0.031  -1.468  -2.517  0.00  0.00     0.062 A 
ATOM      7  F   UNL d   1      -0.314  -1.564  -3.809  0.00  0.00    -0.097 F 
ATOM      8  F1  UNL d   1      -1.470   0.325  -2.250  0.00  0.00    -0.096 F 
ATOM      9  I   UNL d   1      -1.088   1.057   0.841  0.00  0.00    -0.060 I 
ATOM     10  F2  UNL d   1       1.109  -1.190   1.449  0.00  0.00    -0.096 F 
ATOM     11  F3  UNL d   1       2.247  -3.069  -0.136  0.00  0.00    -0.097 F 
ATOM     12  F4  UNL d   1       1.545  -3.266  -2.764  0.00  0.00    -0.092 F 
ENDROOT
TORSDOF 0
ENDMDL
