MODEL 1
REMARK minimizedAffinity -3.71562028
REMARK minimizedRMSD -1
REMARK  0 active torsions:
REMARK  status: ('A' for Active; 'I' for Inactive)
ROOT
ATOM      1  C   UNL d   1      -0.749  -0.036   1.119  0.00  0.00     0.124 A 
ATOM      2  C1  UNL d   1      -1.503   1.097   1.392  0.00  0.00     0.062 A 
ATOM      3  C2  UNL d   1      -1.370   2.233   0.600  0.00  0.00     0.162 A 
ATOM      4  C3  UNL d   1      -0.480   2.243  -0.474  0.00  0.00    -0.034 A 
ATOM      5  C4  UNL d   1       0.275   1.100  -0.742  0.00  0.00     0.162 A 
ATOM      6  C5  UNL d   1       0.139  -0.034   0.052  0.00  0.00     0.062 A 
ATOM      7  F   UNL d   1       0.867  -1.128  -0.213  0.00  0.00    -0.097 F 
ATOM      8  F1  UNL d   1       1.140   1.074  -1.767  0.00  0.00    -0.096 F 
ATOM      9  I   UNL d   1      -0.279   3.941  -1.661  0.00  0.00    -0.060 I 
ATOM     10  F2  UNL d   1      -2.111   3.314   0.888  0.00  0.00    -0.096 F 
ATOM     11  F3  UNL d   1      -2.360   1.097   2.423  0.00  0.00    -0.097 F 
ATOM     12  F4  UNL d   1      -0.878  -1.129   1.883  0.00  0.00    -0.092 F 
ENDROOT
TORSDOF 0
ENDMDL
