MODEL 1
REMARK minimizedAffinity -3.60613298
REMARK minimizedRMSD -1
REMARK  0 active torsions:
REMARK  status: ('A' for Active; 'I' for Inactive)
ROOT
ATOM      1  C   UNL d   1      -1.101   2.740   0.835  0.00  0.00     0.124 A 
ATOM      2  C1  UNL d   1      -1.316   1.488   1.395  0.00  0.00     0.062 A 
ATOM      3  C2  UNL d   1      -0.633   0.377   0.911  0.00  0.00     0.162 A 
ATOM      4  C3  UNL d   1       0.275   0.512  -0.140  0.00  0.00    -0.034 A 
ATOM      5  C4  UNL d   1       0.486   1.774  -0.699  0.00  0.00     0.162 A 
ATOM      6  C5  UNL d   1      -0.200   2.881  -0.211  0.00  0.00     0.062 A 
ATOM      7  F   UNL d   1       0.009   4.090  -0.754  0.00  0.00    -0.097 F 
ATOM      8  F1  UNL d   1       1.351   1.940  -1.710  0.00  0.00    -0.096 F 
ATOM      9  I   UNL d   1       1.300  -1.147  -0.868  0.00  0.00    -0.060 I 
ATOM     10  F2  UNL d   1      -0.861  -0.820   1.471  0.00  0.00    -0.096 F 
ATOM     11  F3  UNL d   1      -2.187   1.348   2.406  0.00  0.00    -0.097 F 
ATOM     12  F4  UNL d   1      -1.761   3.807   1.303  0.00  0.00    -0.092 F 
ENDROOT
TORSDOF 0
ENDMDL
