MODEL 1
REMARK minimizedAffinity -4.93376923
REMARK minimizedRMSD -1
REMARK  0 active torsions:
REMARK  status: ('A' for Active; 'I' for Inactive)
ROOT
ATOM      1  C   UNL d   1       3.123  -0.380   0.380  0.00  0.00     0.078 C 
ATOM      2  C1  UNL d   1       1.657  -0.074   0.447  0.00  0.00    -0.077 A 
ATOM      3  C2  UNL d   1       0.703  -1.098   0.394  0.00  0.00    -0.001 A 
ATOM      4  C3  UNL d   1      -0.659  -0.797   0.447  0.00  0.00     0.003 A 
ATOM      5  C4  UNL d   1      -1.080   0.527   0.552  0.00  0.00    -0.005 A 
ATOM      6  C5  UNL d   1      -0.138   1.553   0.603  0.00  0.00     0.003 A 
ATOM      7  C6  UNL d   1       1.224   1.254   0.550  0.00  0.00    -0.001 A 
ENDROOT
TORSDOF 0
ENDMDL
