MODEL 1
REMARK minimizedAffinity -4.81514025
REMARK minimizedRMSD -1
REMARK  0 active torsions:
REMARK  status: ('A' for Active; 'I' for Inactive)
ROOT
ATOM      1  C   UNL d   1       3.326  -0.755   1.129  0.00  0.00     0.078 C 
ATOM      2  C1  UNL d   1       2.027  -0.141   0.699  0.00  0.00    -0.077 A 
ATOM      3  C2  UNL d   1       1.866   1.250   0.659  0.00  0.00    -0.001 A 
ATOM      4  C3  UNL d   1       0.649   1.808   0.266  0.00  0.00     0.003 A 
ATOM      5  C4  UNL d   1      -0.417   0.984  -0.089  0.00  0.00    -0.005 A 
ATOM      6  C5  UNL d   1      -0.266  -0.401  -0.051  0.00  0.00     0.003 A 
ATOM      7  C6  UNL d   1       0.950  -0.961   0.342  0.00  0.00    -0.001 A 
ENDROOT
TORSDOF 0
ENDMDL
