MODEL 1
REMARK minimizedAffinity -5.41581106
REMARK minimizedRMSD -1
REMARK  0 active torsions:
REMARK  status: ('A' for Active; 'I' for Inactive)
ROOT
ATOM      1  C   UNL d   1      -0.633   0.376  -0.226  0.00  0.00     0.078 C 
ATOM      2  C1  UNL d   1       0.660  -0.145   0.326  0.00  0.00    -0.077 A 
ATOM      3  C2  UNL d   1       0.703  -1.334   1.064  0.00  0.00    -0.001 A 
ATOM      4  C3  UNL d   1       1.912  -1.802   1.580  0.00  0.00     0.003 A 
ATOM      5  C4  UNL d   1       3.088  -1.087   1.364  0.00  0.00    -0.005 A 
ATOM      6  C5  UNL d   1       3.056   0.099   0.633  0.00  0.00     0.003 A 
ATOM      7  C6  UNL d   1       1.847   0.568   0.116  0.00  0.00    -0.001 A 
ENDROOT
TORSDOF 0
ENDMDL
