MODEL 1
REMARK minimizedAffinity -5.86730099
REMARK minimizedRMSD -1
REMARK  0 active torsions:
REMARK  status: ('A' for Active; 'I' for Inactive)
ROOT
ATOM      1  C   UNL d   1      -0.974  -0.028  -0.335  0.00  0.00     0.078 C 
ATOM      2  C1  UNL d   1       0.300  -0.407   0.359  0.00  0.00    -0.077 A 
ATOM      3  C2  UNL d   1       0.411  -1.618   1.053  0.00  0.00    -0.001 A 
ATOM      4  C3  UNL d   1       1.599  -1.953   1.703  0.00  0.00     0.003 A 
ATOM      5  C4  UNL d   1       2.687  -1.083   1.666  0.00  0.00    -0.005 A 
ATOM      6  C5  UNL d   1       2.586   0.125   0.980  0.00  0.00     0.003 A 
ATOM      7  C6  UNL d   1       1.398   0.463   0.329  0.00  0.00    -0.001 A 
ENDROOT
TORSDOF 0
ENDMDL
