MODEL 1
REMARK minimizedAffinity -2.99945593
REMARK minimizedRMSD -1
REMARK  0 active torsions:
REMARK  status: ('A' for Active; 'I' for Inactive)
ROOT
ATOM      1  C   UNL d   1       1.120  -2.192   2.566  0.00  0.00     0.078 C 
ATOM      2  C1  UNL d   1       1.001  -0.970   1.705  0.00  0.00    -0.077 A 
ATOM      3  C2  UNL d   1      -0.182  -0.692   1.008  0.00  0.00    -0.001 A 
ATOM      4  C3  UNL d   1      -0.275   0.444   0.203  0.00  0.00     0.003 A 
ATOM      5  C4  UNL d   1       0.810   1.310   0.085  0.00  0.00    -0.005 A 
ATOM      6  C5  UNL d   1       1.992   1.040   0.772  0.00  0.00     0.003 A 
ATOM      7  C6  UNL d   1       2.087  -0.096   1.578  0.00  0.00    -0.001 A 
ENDROOT
TORSDOF 0
ENDMDL
