MODEL 1
REMARK minimizedAffinity -2.0182476
REMARK minimizedRMSD -1
REMARK  0 active torsions:
REMARK  status: ('A' for Active; 'I' for Inactive)
ROOT
ATOM      1  C   UNL d   1       2.269  -1.140   4.846  0.00  0.00     0.078 C 
ATOM      2  C1  UNL d   1       1.920  -0.397   3.591  0.00  0.00    -0.077 A 
ATOM      3  C2  UNL d   1       2.722   0.653   3.128  0.00  0.00    -0.001 A 
ATOM      4  C3  UNL d   1       2.380   1.341   1.963  0.00  0.00     0.003 A 
ATOM      5  C4  UNL d   1       1.235   0.988   1.252  0.00  0.00    -0.005 A 
ATOM      6  C5  UNL d   1       0.430  -0.055   1.706  0.00  0.00     0.003 A 
ATOM      7  C6  UNL d   1       0.770  -0.744   2.871  0.00  0.00    -0.001 A 
ENDROOT
TORSDOF 0
ENDMDL
