MODEL 1
REMARK minimizedAffinity -0.80115509
REMARK minimizedRMSD -1
REMARK  0 active torsions:
REMARK  status: ('A' for Active; 'I' for Inactive)
ROOT
ATOM      1  C   UNL d   1       1.913  -1.446   3.967  0.00  0.00     0.078 C 
ATOM      2  C1  UNL d   1       1.371  -0.640   2.825  0.00  0.00    -0.077 A 
ATOM      3  C2  UNL d   1       2.029   0.513   2.379  0.00  0.00    -0.001 A 
ATOM      4  C3  UNL d   1       1.509   1.259   1.321  0.00  0.00     0.003 A 
ATOM      5  C4  UNL d   1       0.327   0.860   0.699  0.00  0.00    -0.005 A 
ATOM      6  C5  UNL d   1      -0.337  -0.284   1.137  0.00  0.00     0.003 A 
ATOM      7  C6  UNL d   1       0.183  -1.031   2.195  0.00  0.00    -0.001 A 
ENDROOT
TORSDOF 0
ENDMDL
