MODEL 1
REMARK minimizedAffinity -2.6175878
REMARK minimizedRMSD -1
REMARK  0 active torsions:
REMARK  status: ('A' for Active; 'I' for Inactive)
ROOT
ATOM      1  C   UNL d   1       0.376   0.942   0.087  0.00  0.00     0.078 C 
ATOM      2  C1  UNL d   1       1.117  -0.008   0.980  0.00  0.00    -0.077 A 
ATOM      3  C2  UNL d   1       0.533  -1.210   1.396  0.00  0.00    -0.001 A 
ATOM      4  C3  UNL d   1       1.230  -2.081   2.235  0.00  0.00     0.003 A 
ATOM      5  C4  UNL d   1       2.516  -1.758   2.665  0.00  0.00    -0.005 A 
ATOM      6  C5  UNL d   1       3.105  -0.563   2.258  0.00  0.00     0.003 A 
ATOM      7  C6  UNL d   1       2.409   0.309   1.419  0.00  0.00    -0.001 A 
ENDROOT
TORSDOF 0
ENDMDL
