MODEL 1
REMARK minimizedAffinity -3.91009498
REMARK minimizedRMSD -1
REMARK  0 active torsions:
REMARK  status: ('A' for Active; 'I' for Inactive)
ROOT
ATOM      1  C   UNL d   1       2.578  -0.783   0.177  0.00  0.00     0.078 C 
ATOM      2  C1  UNL d   1       1.092  -0.710   0.360  0.00  0.00    -0.077 A 
ATOM      3  C2  UNL d   1       0.403  -1.700   1.071  0.00  0.00    -0.001 A 
ATOM      4  C3  UNL d   1      -0.982  -1.624   1.226  0.00  0.00     0.003 A 
ATOM      5  C4  UNL d   1      -1.691  -0.560   0.671  0.00  0.00    -0.005 A 
ATOM      6  C5  UNL d   1      -1.014   0.429  -0.040  0.00  0.00     0.003 A 
ATOM      7  C6  UNL d   1       0.371   0.355  -0.196  0.00  0.00    -0.001 A 
ENDROOT
TORSDOF 0
ENDMDL
