MODEL 1
REMARK minimizedAffinity -5.13814735
REMARK minimizedRMSD -1
REMARK  1 active torsions:
REMARK  status: ('A' for Active; 'I' for Inactive)
REMARK    1  A    between atoms: C1_2  and  C2_3 
ROOT
ATOM      1  C2  UNL d   1       0.709   0.288  -0.029  0.00  0.00    -0.076 A 
ATOM      2  C3  UNL d   1       0.398  -1.032  -0.400  0.00  0.00     0.004 A 
ATOM      3  C4  UNL d   1       1.236  -2.091  -0.051  0.00  0.00    -0.003 A 
ATOM      4  C5  UNL d   1       2.397  -1.846   0.674  0.00  0.00     0.000 A 
ATOM      5  C6  UNL d   1       2.711  -0.545   1.066  0.00  0.00     0.000 A 
ATOM      6  C7  UNL d   1       1.869   0.531   0.737  0.00  0.00    -0.073 A 
ATOM      7  C8  UNL d   1       2.260   1.914   1.179  0.00  0.00     0.078 C 
ENDROOT
BRANCH   1   8
ATOM      8  C1  UNL d   1      -0.223   1.399  -0.458  0.00  0.00     0.053 C 
ATOM      9  C   UNL d   1      -1.685   0.983  -0.415  0.00  0.00     0.018 C 
ENDBRANCH   1   8
TORSDOF 1
ENDMDL
