MODEL 1
REMARK minimizedAffinity -2.8798883
REMARK minimizedRMSD -1
REMARK  1 active torsions:
REMARK  status: ('A' for Active; 'I' for Inactive)
REMARK    1  A    between atoms: C1_2  and  C2_3 
ROOT
ATOM      1  C2  UNL d   1       0.094   0.361   0.286  0.00  0.00    -0.076 A 
ATOM      2  C3  UNL d   1      -0.243  -0.815  -0.406  0.00  0.00     0.004 A 
ATOM      3  C4  UNL d   1       0.637  -1.895  -0.456  0.00  0.00    -0.003 A 
ATOM      4  C5  UNL d   1       1.869  -1.816   0.185  0.00  0.00     0.000 A 
ATOM      5  C6  UNL d   1       2.212  -0.663   0.890  0.00  0.00     0.000 A 
ATOM      6  C7  UNL d   1       1.330   0.428   0.965  0.00  0.00    -0.073 A 
ATOM      7  C8  UNL d   1       1.754   1.648   1.735  0.00  0.00     0.078 C 
ENDROOT
BRANCH   1   8
ATOM      8  C1  UNL d   1      -0.889   1.509   0.284  0.00  0.00     0.053 C 
ATOM      9  C   UNL d   1      -2.289   1.078   0.693  0.00  0.00     0.018 C 
ENDBRANCH   1   8
TORSDOF 1
ENDMDL
