MODEL 1
REMARK minimizedAffinity -2.28931379
REMARK minimizedRMSD -1
REMARK  1 active torsions:
REMARK  status: ('A' for Active; 'I' for Inactive)
REMARK    1  A    between atoms: C1_2  and  C2_3 
ROOT
ATOM      1  C2  UNL d   1       0.549  -1.562  -0.643  0.00  0.00    -0.076 A 
ATOM      2  C3  UNL d   1      -0.074  -0.969   0.469  0.00  0.00     0.004 A 
ATOM      3  C4  UNL d   1       0.640  -0.711   1.638  0.00  0.00    -0.003 A 
ATOM      4  C5  UNL d   1       1.988  -1.041   1.714  0.00  0.00     0.000 A 
ATOM      5  C6  UNL d   1       2.627  -1.614   0.615  0.00  0.00     0.000 A 
ATOM      6  C7  UNL d   1       1.926  -1.866  -0.577  0.00  0.00    -0.073 A 
ATOM      7  C8  UNL d   1       2.663  -2.491  -1.730  0.00  0.00     0.078 C 
ENDROOT
BRANCH   1   8
ATOM      8  C1  UNL d   1      -0.282  -1.843  -1.874  0.00  0.00     0.053 C 
ATOM      9  C   UNL d   1      -1.275  -0.731  -2.173  0.00  0.00     0.018 C 
ENDBRANCH   1   8
TORSDOF 1
ENDMDL
