MODEL 1
REMARK minimizedAffinity -4.42968941
REMARK minimizedRMSD -1
REMARK  1 active torsions:
REMARK  status: ('A' for Active; 'I' for Inactive)
REMARK    1  A    between atoms: C1_2  and  C2_3 
ROOT
ATOM      1  C2  UNL d   1      -0.634   0.143  -0.234  0.00  0.00    -0.076 A 
ATOM      2  C3  UNL d   1       0.100   0.728   0.812  0.00  0.00     0.004 A 
ATOM      3  C4  UNL d   1       1.349   0.229   1.178  0.00  0.00    -0.003 A 
ATOM      4  C5  UNL d   1       1.884  -0.863   0.503  0.00  0.00     0.000 A 
ATOM      5  C6  UNL d   1       1.177  -1.445  -0.548  0.00  0.00     0.000 A 
ATOM      6  C7  UNL d   1      -0.076  -0.944  -0.941  0.00  0.00    -0.073 A 
ATOM      7  C8  UNL d   1      -0.797  -1.613  -2.078  0.00  0.00     0.078 C 
ENDROOT
BRANCH   1   8
ATOM      8  C1  UNL d   1      -1.995   0.710  -0.569  0.00  0.00     0.053 C 
ATOM      9  C   UNL d   1      -2.996   0.529   0.562  0.00  0.00     0.018 C 
ENDBRANCH   1   8
TORSDOF 1
ENDMDL
