MODEL 1
REMARK minimizedAffinity -4.47049522
REMARK minimizedRMSD -1
REMARK  1 active torsions:
REMARK  status: ('A' for Active; 'I' for Inactive)
REMARK    1  A    between atoms: C1_2  and  C2_3 
ROOT
ATOM      1  C2  UNL d   1       0.263  -0.107  -0.185  0.00  0.00    -0.076 A 
ATOM      2  C3  UNL d   1       1.109   0.320   0.854  0.00  0.00     0.004 A 
ATOM      3  C4  UNL d   1       2.267  -0.388   1.172  0.00  0.00    -0.003 A 
ATOM      4  C5  UNL d   1       2.599  -1.533   0.455  0.00  0.00     0.000 A 
ATOM      5  C6  UNL d   1       1.780  -1.960  -0.590  0.00  0.00     0.000 A 
ATOM      6  C7  UNL d   1       0.617  -1.249  -0.934  0.00  0.00    -0.073 A 
ATOM      7  C8  UNL d   1      -0.232  -1.759  -2.066  0.00  0.00     0.078 C 
ENDROOT
BRANCH   1   8
ATOM      8  C1  UNL d   1      -0.994   0.686  -0.466  0.00  0.00     0.053 C 
ATOM      9  C   UNL d   1      -1.983   0.639   0.689  0.00  0.00     0.018 C 
ENDBRANCH   1   8
TORSDOF 1
ENDMDL
