MODEL 1
REMARK minimizedAffinity -4.02684116
REMARK minimizedRMSD -1
REMARK  1 active torsions:
REMARK  status: ('A' for Active; 'I' for Inactive)
REMARK    1  A    between atoms: C1_2  and  C2_3 
ROOT
ATOM      1  C2  UNL d   1      -0.373   0.256  -0.046  0.00  0.00    -0.076 A 
ATOM      2  C3  UNL d   1      -0.646  -0.959  -0.698  0.00  0.00     0.004 A 
ATOM      3  C4  UNL d   1       0.253  -2.022  -0.641  0.00  0.00    -0.003 A 
ATOM      4  C5  UNL d   1       1.440  -1.888   0.070  0.00  0.00     0.000 A 
ATOM      5  C6  UNL d   1       1.720  -0.696   0.738  0.00  0.00     0.000 A 
ATOM      6  C7  UNL d   1       0.816   0.380   0.704  0.00  0.00    -0.073 A 
ATOM      7  C8  UNL d   1       1.172   1.644   1.437  0.00  0.00     0.078 C 
ENDROOT
BRANCH   1   8
ATOM      8  C1  UNL d   1      -1.373   1.384  -0.166  0.00  0.00     0.053 C 
ATOM      9  C   UNL d   1      -2.760   0.986   0.312  0.00  0.00     0.018 C 
ENDBRANCH   1   8
TORSDOF 1
ENDMDL
