MODEL 1
REMARK minimizedAffinity -5.85162354
REMARK minimizedRMSD -1
REMARK  2 active torsions:
REMARK  status: ('A' for Active; 'I' for Inactive)
REMARK    1  A    between atoms: C2'_3  and  C1'_4 
REMARK    2  A    between atoms: C1'_4  and  C1_5 
ROOT
ATOM      1  C1  I4B d   1       0.866  -0.712   0.238  0.00  0.00    -0.075 A 
ATOM      2  C2  I4B d   1       1.569  -1.784  -0.253  0.00  0.00     0.003 A 
ATOM      3  C3  I4B d   1       2.978  -1.831  -0.128  0.00  0.00     0.002 A 
ATOM      4  C4  I4B d   1       3.645  -0.768   0.447  0.00  0.00    -0.004 A 
ATOM      5  C5  I4B d   1       2.929   0.308   0.965  0.00  0.00     0.002 A 
ATOM      6  C6  I4B d   1       1.530   0.330   0.871  0.00  0.00     0.003 A 
ENDROOT
BRANCH   1   7
ATOM      7  C1' I4B d   1      -0.619  -0.680   0.059  0.00  0.00     0.060 C 
BRANCH   7   8
ATOM      8  C2' I4B d   1      -1.095   0.725   0.363  0.00  0.00    -0.013 C 
ATOM      9  C4' I4B d   1      -0.631   1.698  -0.689  0.00  0.00     0.013 C 
ATOM     10  C3' I4B d   1      -2.592   0.698   0.452  0.00  0.00     0.013 C 
ENDBRANCH   7   8
ENDBRANCH   1   7
TORSDOF 2
ENDMDL
