MODEL 1
REMARK minimizedAffinity -5.09539652
REMARK minimizedRMSD -1
REMARK  2 active torsions:
REMARK  status: ('A' for Active; 'I' for Inactive)
REMARK    1  A    between atoms: C2'_3  and  C1'_4 
REMARK    2  A    between atoms: C1'_4  and  C1_5 
ROOT
ATOM      1  C1  I4B d   1       1.151  -0.383   0.744  0.00  0.00    -0.075 A 
ATOM      2  C2  I4B d   1       1.721   0.780   1.197  0.00  0.00     0.003 A 
ATOM      3  C3  I4B d   1       3.129   0.930   1.200  0.00  0.00     0.002 A 
ATOM      4  C4  I4B d   1       3.925  -0.121   0.791  0.00  0.00    -0.004 A 
ATOM      5  C5  I4B d   1       3.344  -1.291   0.310  0.00  0.00     0.002 A 
ATOM      6  C6  I4B d   1       1.948  -1.419   0.275  0.00  0.00     0.003 A 
ENDROOT
BRANCH   1   7
ATOM      7  C1' I4B d   1      -0.338  -0.520   0.786  0.00  0.00     0.060 C 
BRANCH   7   8
ATOM      8  C2' I4B d   1      -0.940   0.781   0.296  0.00  0.00    -0.013 C 
ATOM      9  C4' I4B d   1      -1.216   0.731  -1.184  0.00  0.00     0.013 C 
ATOM     10  C3' I4B d   1      -2.199   1.031   1.073  0.00  0.00     0.013 C 
ENDBRANCH   7   8
ENDBRANCH   1   7
TORSDOF 2
ENDMDL
