MODEL 1
REMARK minimizedAffinity -0.620650291
REMARK minimizedRMSD -1
REMARK  2 active torsions:
REMARK  status: ('A' for Active; 'I' for Inactive)
REMARK    1  A    between atoms: C2'_3  and  C1'_4 
REMARK    2  A    between atoms: C1'_4  and  C1_5 
ROOT
ATOM      1  C1  I4B d   1      -1.638   0.085  -0.471  0.00  0.00    -0.075 A 
ATOM      2  C2  I4B d   1      -0.730   0.687   0.364  0.00  0.00     0.003 A 
ATOM      3  C3  I4B d   1       0.563   0.133   0.528  0.00  0.00     0.002 A 
ATOM      4  C4  I4B d   1       0.886  -1.043  -0.117  0.00  0.00    -0.004 A 
ATOM      5  C5  I4B d   1      -0.029  -1.639  -0.981  0.00  0.00     0.002 A 
ATOM      6  C6  I4B d   1      -1.294  -1.065  -1.169  0.00  0.00     0.003 A 
ENDROOT
BRANCH   1   7
ATOM      7  C1' I4B d   1      -3.006   0.678  -0.596  0.00  0.00     0.060 C 
BRANCH   7   8
ATOM      8  C2' I4B d   1      -3.898   0.016   0.433  0.00  0.00    -0.013 C 
ATOM      9  C4' I4B d   1      -4.061   0.884   1.653  0.00  0.00     0.013 C 
ATOM     10  C3' I4B d   1      -5.222  -0.265  -0.213  0.00  0.00     0.013 C 
ENDBRANCH   7   8
ENDBRANCH   1   7
TORSDOF 2
ENDMDL
