MODEL 1
REMARK minimizedAffinity -4.83276939
REMARK minimizedRMSD -1
REMARK  2 active torsions:
REMARK  status: ('A' for Active; 'I' for Inactive)
REMARK    1  A    between atoms: C2'_3  and  C1'_4 
REMARK    2  A    between atoms: C1'_4  and  C1_5 
ROOT
ATOM      1  C1  I4B d   1      -0.073   0.553   0.049  0.00  0.00    -0.075 A 
ATOM      2  C2  I4B d   1      -0.030  -0.801  -0.172  0.00  0.00     0.003 A 
ATOM      3  C3  I4B d   1       1.175  -1.518   0.026  0.00  0.00     0.002 A 
ATOM      4  C4  I4B d   1       2.318  -0.837   0.394  0.00  0.00    -0.004 A 
ATOM      5  C5  I4B d   1       2.267   0.532   0.640  0.00  0.00     0.002 A 
ATOM      6  C6  I4B d   1       1.061   1.230   0.479  0.00  0.00     0.003 A 
ENDROOT
BRANCH   1   7
ATOM      7  C1' I4B d   1      -1.354   1.284  -0.202  0.00  0.00     0.060 C 
BRANCH   7   8
ATOM      8  C2' I4B d   1      -2.452   0.579   0.569  0.00  0.00    -0.013 C 
ATOM      9  C4' I4B d   1      -2.867   1.376   1.778  0.00  0.00     0.013 C 
ATOM     10  C3' I4B d   1      -3.608   0.366  -0.362  0.00  0.00     0.013 C 
ENDBRANCH   7   8
ENDBRANCH   1   7
TORSDOF 2
ENDMDL
