MODEL 1
REMARK minimizedAffinity -3.38048244
REMARK minimizedRMSD -1
REMARK  2 active torsions:
REMARK  status: ('A' for Active; 'I' for Inactive)
REMARK    1  A    between atoms: C2'_3  and  C1'_4 
REMARK    2  A    between atoms: C1'_4  and  C1_5 
ROOT
ATOM      1  C1  I4B d   1       1.126   0.077   0.435  0.00  0.00    -0.075 A 
ATOM      2  C2  I4B d   1      -0.022   0.408  -0.243  0.00  0.00     0.003 A 
ATOM      3  C3  I4B d   1      -0.218   1.730  -0.710  0.00  0.00     0.002 A 
ATOM      4  C4  I4B d   1       0.729   2.695  -0.435  0.00  0.00    -0.004 A 
ATOM      5  C5  I4B d   1       1.902   2.353   0.232  0.00  0.00     0.002 A 
ATOM      6  C6  I4B d   1       2.108   1.033   0.659  0.00  0.00     0.003 A 
ENDROOT
BRANCH   1   7
ATOM      7  C1' I4B d   1       1.285  -1.320   0.943  0.00  0.00     0.060 C 
BRANCH   7   8
ATOM      8  C2' I4B d   1       2.575  -1.879   0.376  0.00  0.00    -0.013 C 
ATOM      9  C4' I4B d   1       2.680  -1.613  -1.103  0.00  0.00     0.013 C 
ATOM     10  C3' I4B d   1       3.717  -1.255   1.121  0.00  0.00     0.013 C 
ENDBRANCH   7   8
ENDBRANCH   1   7
TORSDOF 2
ENDMDL
