MODEL 1
REMARK minimizedAffinity -5.36228037
REMARK minimizedRMSD -1
REMARK  2 active torsions:
REMARK  status: ('A' for Active; 'I' for Inactive)
REMARK    1  A    between atoms: C2'_3  and  C1'_4 
REMARK    2  A    between atoms: C1'_4  and  C1_5 
ROOT
ATOM      1  C1  I4B d   1      -0.176   0.104   0.144  0.00  0.00    -0.075 A 
ATOM      2  C2  I4B d   1       1.093   0.451   0.535  0.00  0.00     0.003 A 
ATOM      3  C3  I4B d   1       2.109  -0.532   0.612  0.00  0.00     0.002 A 
ATOM      4  C4  I4B d   1       1.801  -1.850   0.341  0.00  0.00    -0.004 A 
ATOM      5  C5  I4B d   1       0.520  -2.196  -0.077  0.00  0.00     0.002 A 
ATOM      6  C6  I4B d   1      -0.472  -1.211  -0.188  0.00  0.00     0.003 A 
ENDROOT
BRANCH   1   7
ATOM      7  C1' I4B d   1      -1.232   1.163   0.104  0.00  0.00     0.060 C 
BRANCH   7   8
ATOM      8  C2' I4B d   1      -2.533   0.542   0.572  0.00  0.00    -0.013 C 
ATOM      9  C4' I4B d   1      -2.926   1.059   1.931  0.00  0.00     0.013 C 
ATOM     10  C3' I4B d   1      -3.587   0.849  -0.449  0.00  0.00     0.013 C 
ENDBRANCH   7   8
ENDBRANCH   1   7
TORSDOF 2
ENDMDL
