MODEL 1
REMARK minimizedAffinity -5.10027313
REMARK minimizedRMSD -1
REMARK  2 active torsions:
REMARK  status: ('A' for Active; 'I' for Inactive)
REMARK    1  A    between atoms: C2'_3  and  C1'_4 
REMARK    2  A    between atoms: C1'_4  and  C1_5 
ROOT
ATOM      1  C1  I4B d   1      -2.277   0.149  -0.015  0.00  0.00    -0.075 A 
ATOM      2  C2  I4B d   1      -3.140  -0.906  -0.179  0.00  0.00     0.003 A 
ATOM      3  C3  I4B d   1      -4.370  -0.936   0.521  0.00  0.00     0.002 A 
ATOM      4  C4  I4B d   1      -4.673   0.078   1.407  0.00  0.00    -0.004 A 
ATOM      5  C5  I4B d   1      -3.808   1.158   1.555  0.00  0.00     0.002 A 
ATOM      6  C6  I4B d   1      -2.608   1.200   0.831  0.00  0.00     0.003 A 
ENDROOT
BRANCH   1   7
ATOM      7  C1' I4B d   1      -0.971   0.132  -0.744  0.00  0.00     0.060 C 
BRANCH   7   8
ATOM      8  C2' I4B d   1       0.080   0.731   0.167  0.00  0.00    -0.013 C 
ATOM      9  C4' I4B d   1       1.105  -0.298   0.567  0.00  0.00     0.013 C 
ATOM     10  C3' I4B d   1       0.720   1.879  -0.555  0.00  0.00     0.013 C 
ENDBRANCH   7   8
ENDBRANCH   1   7
TORSDOF 2
ENDMDL
