MODEL 1
REMARK minimizedAffinity -3.25532961
REMARK minimizedRMSD -1
REMARK  2 active torsions:
REMARK  status: ('A' for Active; 'I' for Inactive)
REMARK    1  A    between atoms: C2'_3  and  C1'_4 
REMARK    2  A    between atoms: C1'_4  and  C1_5 
ROOT
ATOM      1  C1  I4B d   1       1.281   0.339   0.373  0.00  0.00    -0.075 A 
ATOM      2  C2  I4B d   1       1.274  -0.926   0.905  0.00  0.00     0.003 A 
ATOM      3  C3  I4B d   1       2.484  -1.530   1.326  0.00  0.00     0.002 A 
ATOM      4  C4  I4B d   1       3.676  -0.856   1.151  0.00  0.00    -0.004 A 
ATOM      5  C5  I4B d   1       3.679   0.436   0.634  0.00  0.00     0.002 A 
ATOM      6  C6  I4B d   1       2.473   1.043   0.253  0.00  0.00     0.003 A 
ENDROOT
BRANCH   1   7
ATOM      7  C1' I4B d   1      -0.011   0.933  -0.091  0.00  0.00     0.060 C 
BRANCH   7   8
ATOM      8  C2' I4B d   1      -0.951  -0.204  -0.434  0.00  0.00    -0.013 C 
ATOM      9  C4' I4B d   1      -2.377   0.273  -0.513  0.00  0.00     0.013 C 
ATOM     10  C3' I4B d   1      -0.505  -0.797  -1.737  0.00  0.00     0.013 C 
ENDBRANCH   7   8
ENDBRANCH   1   7
TORSDOF 2
ENDMDL
