MODEL 1
REMARK minimizedAffinity -4.62091541
REMARK minimizedRMSD -1
REMARK  2 active torsions:
REMARK  status: ('A' for Active; 'I' for Inactive)
REMARK    1  A    between atoms: C2'_3  and  C1'_4 
REMARK    2  A    between atoms: C1'_4  and  C1_5 
ROOT
ATOM      1  C1  I4B d   1      -0.046  -0.015  -0.307  0.00  0.00    -0.075 A 
ATOM      2  C2  I4B d   1       0.864   0.862   0.228  0.00  0.00     0.003 A 
ATOM      3  C3  I4B d   1       2.236   0.518   0.287  0.00  0.00     0.002 A 
ATOM      4  C4  I4B d   1       2.644  -0.726  -0.150  0.00  0.00    -0.004 A 
ATOM      5  C5  I4B d   1       1.723  -1.605  -0.713  0.00  0.00     0.002 A 
ATOM      6  C6  I4B d   1       0.371  -1.243  -0.803  0.00  0.00     0.003 A 
ENDROOT
BRANCH   1   7
ATOM      7  C1' I4B d   1      -1.492   0.368  -0.324  0.00  0.00     0.060 C 
BRANCH   7   8
ATOM      8  C2' I4B d   1      -2.060   0.107   1.056  0.00  0.00    -0.013 C 
ATOM      9  C4' I4B d   1      -3.064   1.162   1.441  0.00  0.00     0.013 C 
ATOM     10  C3' I4B d   1      -2.684  -1.256   1.051  0.00  0.00     0.013 C 
ENDBRANCH   7   8
ENDBRANCH   1   7
TORSDOF 2
ENDMDL
