MODEL 1
REMARK minimizedAffinity -4.36086321
REMARK minimizedRMSD -1
REMARK  2 active torsions:
REMARK  status: ('A' for Active; 'I' for Inactive)
REMARK    1  A    between atoms: C2'_3  and  C1'_4 
REMARK    2  A    between atoms: C1'_4  and  C1_5 
ROOT
ATOM      1  C1  I4B d   1      -0.693  -0.538  -0.118  0.00  0.00    -0.075 A 
ATOM      2  C2  I4B d   1      -0.642  -1.910  -0.136  0.00  0.00     0.003 A 
ATOM      3  C3  I4B d   1       0.606  -2.577  -0.165  0.00  0.00     0.002 A 
ATOM      4  C4  I4B d   1       1.770  -1.838  -0.227  0.00  0.00    -0.004 A 
ATOM      5  C5  I4B d   1       1.718  -0.448  -0.186  0.00  0.00     0.002 A 
ATOM      6  C6  I4B d   1       0.480   0.207  -0.118  0.00  0.00     0.003 A 
ENDROOT
BRANCH   1   7
ATOM      7  C1' I4B d   1      -2.029   0.134  -0.120  0.00  0.00     0.060 C 
BRANCH   7   8
ATOM      8  C2' I4B d   1      -2.541   0.160   1.305  0.00  0.00    -0.013 C 
ATOM      9  C4' I4B d   1      -1.913   1.282   2.090  0.00  0.00     0.013 C 
ATOM     10  C3' I4B d   1      -4.033   0.300   1.259  0.00  0.00     0.013 C 
ENDBRANCH   7   8
ENDBRANCH   1   7
TORSDOF 2
ENDMDL
