MODEL 1
REMARK minimizedAffinity 5.2302084
REMARK minimizedRMSD -1
REMARK  2 active torsions:
REMARK  status: ('A' for Active; 'I' for Inactive)
REMARK    1  A    between atoms: C2'_3  and  C1'_4 
REMARK    2  A    between atoms: C1'_4  and  C1_5 
ROOT
ATOM      1  C1  I4B d   1       1.094  -2.112  -0.215  0.00  0.00    -0.075 A 
ATOM      2  C2  I4B d   1       0.706  -0.798  -0.140  0.00  0.00     0.003 A 
ATOM      3  C3  I4B d   1      -0.651  -0.468   0.100  0.00  0.00     0.002 A 
ATOM      4  C4  I4B d   1      -1.586  -1.477   0.207  0.00  0.00    -0.004 A 
ATOM      5  C5  I4B d   1      -1.187  -2.809   0.153  0.00  0.00     0.002 A 
ATOM      6  C6  I4B d   1       0.164  -3.130  -0.046  0.00  0.00     0.003 A 
ENDROOT
BRANCH   1   7
ATOM      7  C1' I4B d   1       2.529  -2.425  -0.501  0.00  0.00     0.060 C 
BRANCH   7   8
ATOM      8  C2' I4B d   1       2.872  -1.839  -1.856  0.00  0.00    -0.013 C 
ATOM      9  C4' I4B d   1       3.967  -0.811  -1.744  0.00  0.00     0.013 C 
ATOM     10  C3' I4B d   1       3.278  -2.967  -2.758  0.00  0.00     0.013 C 
ENDBRANCH   7   8
ENDBRANCH   1   7
TORSDOF 2
ENDMDL
