MODEL 1
REMARK minimizedAffinity 1.2202704
REMARK minimizedRMSD -1
REMARK  2 active torsions:
REMARK  status: ('A' for Active; 'I' for Inactive)
REMARK    1  A    between atoms: C2'_3  and  C1'_4 
REMARK    2  A    between atoms: C1'_4  and  C1_5 
ROOT
ATOM      1  C1  I4B d   1       3.295   0.243  -0.866  0.00  0.00    -0.075 A 
ATOM      2  C2  I4B d   1       2.113   0.743  -0.381  0.00  0.00     0.003 A 
ATOM      3  C3  I4B d   1       1.078  -0.137   0.020  0.00  0.00     0.002 A 
ATOM      4  C4  I4B d   1       1.249  -1.499  -0.128  0.00  0.00    -0.004 A 
ATOM      5  C5  I4B d   1       2.457  -2.004  -0.599  0.00  0.00     0.002 A 
ATOM      6  C6  I4B d   1       3.492  -1.129  -0.959  0.00  0.00     0.003 A 
ENDROOT
BRANCH   1   7
ATOM      7  C1' I4B d   1       4.354   1.201  -1.311  0.00  0.00     0.060 C 
BRANCH   7   8
ATOM      8  C2' I4B d   1       4.610   2.174  -0.178  0.00  0.00    -0.013 C 
ATOM      9  C4' I4B d   1       5.999   2.009   0.379  0.00  0.00     0.013 C 
ATOM     10  C3' I4B d   1       4.397   3.563  -0.702  0.00  0.00     0.013 C 
ENDBRANCH   7   8
ENDBRANCH   1   7
TORSDOF 2
ENDMDL
