MODEL 1
REMARK minimizedAffinity 3.21213365
REMARK minimizedRMSD -1
REMARK  3 active torsions:
REMARK  status: ('A' for Active; 'I' for Inactive)
REMARK    1  A    between atoms: C3'_2  and  C2'_3 
REMARK    2  A    between atoms: C2'_3  and  C1'_4 
REMARK    3  A    between atoms: C1'_4  and  C1_5 
ROOT
ATOM      1  C1  N4B d   1       2.242  -1.085  -0.591  0.00  0.00    -0.075 A 
ATOM      2  C2  N4B d   1       1.525  -1.889   0.323  0.00  0.00     0.002 A 
ATOM      3  C3  N4B d   1       0.602  -1.316   1.164  0.00  0.00     0.002 A 
ATOM      4  C4  N4B d   1       0.395   0.054   1.123  0.00  0.00    -0.004 A 
ATOM      5  C5  N4B d   1       1.073   0.820   0.220  0.00  0.00     0.002 A 
ATOM      6  C6  N4B d   1       2.000   0.258  -0.634  0.00  0.00     0.002 A 
ENDROOT
BRANCH   1   7
ATOM      7  C1' N4B d   1       3.322  -1.653  -1.470  0.00  0.00     0.057 C 
BRANCH   7   8
ATOM      8  C2' N4B d   1       4.492  -0.675  -1.522  0.00  0.00     0.009 C 
BRANCH   8   9
ATOM      9  C3' N4B d   1       5.479  -1.028  -2.621  0.00  0.00     0.004 C 
ATOM     10  C4' N4B d   1       6.000   0.178  -3.344  0.00  0.00     0.003 C 
ENDBRANCH   8   9
ENDBRANCH   7   8
ENDBRANCH   1   7
TORSDOF 3
ENDMDL
