MODEL 1
REMARK minimizedAffinity 1.71595466
REMARK minimizedRMSD -1
REMARK  3 active torsions:
REMARK  status: ('A' for Active; 'I' for Inactive)
REMARK    1  A    between atoms: C3'_2  and  C2'_3 
REMARK    2  A    between atoms: C2'_3  and  C1'_4 
REMARK    3  A    between atoms: C1'_4  and  C1_5 
ROOT
ATOM      1  C1  N4B d   1       1.774  -0.487  -0.406  0.00  0.00    -0.075 A 
ATOM      2  C2  N4B d   1       2.100   0.672  -1.144  0.00  0.00     0.002 A 
ATOM      3  C3  N4B d   1       3.290   0.739  -1.826  0.00  0.00     0.002 A 
ATOM      4  C4  N4B d   1       4.174  -0.328  -1.770  0.00  0.00    -0.004 A 
ATOM      5  C5  N4B d   1       3.840  -1.454  -1.075  0.00  0.00     0.002 A 
ATOM      6  C6  N4B d   1       2.646  -1.536  -0.388  0.00  0.00     0.002 A 
ENDROOT
BRANCH   1   7
ATOM      7  C1' N4B d   1       0.523  -0.572   0.426  0.00  0.00     0.057 C 
BRANCH   7   8
ATOM      8  C2' N4B d   1       0.427   0.664   1.316  0.00  0.00     0.009 C 
BRANCH   8   9
ATOM      9  C3' N4B d   1       1.797   1.170   1.734  0.00  0.00     0.004 C 
ATOM     10  C4' N4B d   1       2.013   1.103   3.217  0.00  0.00     0.003 C 
ENDBRANCH   8   9
ENDBRANCH   7   8
ENDBRANCH   1   7
TORSDOF 3
ENDMDL
