MODEL 1
REMARK minimizedAffinity -0.356365323
REMARK minimizedRMSD -1
REMARK  3 active torsions:
REMARK  status: ('A' for Active; 'I' for Inactive)
REMARK    1  A    between atoms: C3'_2  and  C2'_3 
REMARK    2  A    between atoms: C2'_3  and  C1'_4 
REMARK    3  A    between atoms: C1'_4  and  C1_5 
ROOT
ATOM      1  C1  N4B d   1       2.272  -1.059  -0.198  0.00  0.00    -0.075 A 
ATOM      2  C2  N4B d   1       1.189  -1.571   0.550  0.00  0.00     0.002 A 
ATOM      3  C3  N4B d   1       0.264  -0.714   1.094  0.00  0.00     0.002 A 
ATOM      4  C4  N4B d   1       0.411   0.654   0.919  0.00  0.00    -0.004 A 
ATOM      5  C5  N4B d   1       1.445   1.139   0.174  0.00  0.00     0.002 A 
ATOM      6  C6  N4B d   1       2.380   0.289  -0.382  0.00  0.00     0.002 A 
ENDROOT
BRANCH   1   7
ATOM      7  C1' N4B d   1       3.355  -1.951  -0.740  0.00  0.00     0.057 C 
BRANCH   7   8
ATOM      8  C2' N4B d   1       4.656  -1.158  -0.835  0.00  0.00     0.009 C 
BRANCH   8   9
ATOM      9  C3' N4B d   1       5.328  -1.330  -2.187  0.00  0.00     0.004 C 
ATOM     10  C4' N4B d   1       5.998  -0.077  -2.666  0.00  0.00     0.003 C 
ENDBRANCH   8   9
ENDBRANCH   7   8
ENDBRANCH   1   7
TORSDOF 3
ENDMDL
