MODEL 1
REMARK minimizedAffinity 6.0924511
REMARK minimizedRMSD -1
REMARK  3 active torsions:
REMARK  status: ('A' for Active; 'I' for Inactive)
REMARK    1  A    between atoms: C3'_2  and  C2'_3 
REMARK    2  A    between atoms: C2'_3  and  C1'_4 
REMARK    3  A    between atoms: C1'_4  and  C1_5 
ROOT
ATOM      1  C1  N4B d   1       1.391   0.207   0.531  0.00  0.00    -0.075 A 
ATOM      2  C2  N4B d   1       2.063   0.682  -0.617  0.00  0.00     0.002 A 
ATOM      3  C3  N4B d   1       2.631  -0.206  -1.497  0.00  0.00     0.002 A 
ATOM      4  C4  N4B d   1       2.558  -1.567  -1.241  0.00  0.00    -0.004 A 
ATOM      5  C5  N4B d   1       1.886  -2.019  -0.144  0.00  0.00     0.002 A 
ATOM      6  C6  N4B d   1       1.306  -1.138   0.747  0.00  0.00     0.002 A 
ENDROOT
BRANCH   1   7
ATOM      7  C1' N4B d   1       0.828   1.142   1.566  0.00  0.00     0.057 C 
BRANCH   7   8
ATOM      8  C2' N4B d   1       1.974   1.889   2.241  0.00  0.00     0.009 C 
BRANCH   8   9
ATOM      9  C3' N4B d   1       2.572   1.095   3.389  0.00  0.00     0.004 C 
ATOM     10  C4' N4B d   1       1.571   0.778   4.460  0.00  0.00     0.003 C 
ENDBRANCH   8   9
ENDBRANCH   7   8
ENDBRANCH   1   7
TORSDOF 3
ENDMDL
