MODEL 1
REMARK minimizedAffinity -1.42702878
REMARK minimizedRMSD -1
REMARK  3 active torsions:
REMARK  status: ('A' for Active; 'I' for Inactive)
REMARK    1  A    between atoms: C3'_2  and  C2'_3 
REMARK    2  A    between atoms: C2'_3  and  C1'_4 
REMARK    3  A    between atoms: C1'_4  and  C1_5 
ROOT
ATOM      1  C1  N4B d   1       1.758  -0.280  -0.197  0.00  0.00    -0.075 A 
ATOM      2  C2  N4B d   1       2.303   0.786  -0.946  0.00  0.00     0.002 A 
ATOM      3  C3  N4B d   1       3.423   0.583  -1.713  0.00  0.00     0.002 A 
ATOM      4  C4  N4B d   1       4.025  -0.666  -1.732  0.00  0.00    -0.004 A 
ATOM      5  C5  N4B d   1       3.478  -1.697  -1.026  0.00  0.00     0.002 A 
ATOM      6  C6  N4B d   1       2.349  -1.509  -0.253  0.00  0.00     0.002 A 
ENDROOT
BRANCH   1   7
ATOM      7  C1' N4B d   1       0.584  -0.085   0.724  0.00  0.00     0.057 C 
BRANCH   7   8
ATOM      8  C2' N4B d   1       0.940  -0.619   2.108  0.00  0.00     0.009 C 
BRANCH   8   9
ATOM      9  C3' N4B d   1       1.810   0.353   2.886  0.00  0.00     0.004 C 
ATOM     10  C4' N4B d   1       1.558   0.306   4.363  0.00  0.00     0.003 C 
ENDBRANCH   8   9
ENDBRANCH   7   8
ENDBRANCH   1   7
TORSDOF 3
ENDMDL
