MODEL 1
REMARK minimizedAffinity -4.76343298
REMARK minimizedRMSD -1
REMARK  3 active torsions:
REMARK  status: ('A' for Active; 'I' for Inactive)
REMARK    1  A    between atoms: C3'_2  and  C2'_3 
REMARK    2  A    between atoms: C2'_3  and  C1'_4 
REMARK    3  A    between atoms: C1'_4  and  C1_5 
ROOT
ATOM      1  C1  N4B d   1       2.426   0.119  -0.793  0.00  0.00    -0.075 A 
ATOM      2  C2  N4B d   1       2.002  -1.224  -0.686  0.00  0.00     0.002 A 
ATOM      3  C3  N4B d   1       0.959  -1.550   0.145  0.00  0.00     0.002 A 
ATOM      4  C4  N4B d   1       0.339  -0.558   0.890  0.00  0.00    -0.004 A 
ATOM      5  C5  N4B d   1       0.737   0.740   0.761  0.00  0.00     0.002 A 
ATOM      6  C6  N4B d   1       1.782   1.083  -0.073  0.00  0.00     0.002 A 
ENDROOT
BRANCH   1   7
ATOM      7  C1' N4B d   1       3.617   0.512  -1.623  0.00  0.00     0.057 C 
BRANCH   7   8
ATOM      8  C2' N4B d   1       4.491  -0.716  -1.859  0.00  0.00     0.009 C 
BRANCH   8   9
ATOM      9  C3' N4B d   1       5.902  -0.339  -2.275  0.00  0.00     0.004 C 
ATOM     10  C4' N4B d   1       6.000   0.036  -3.724  0.00  0.00     0.003 C 
ENDBRANCH   8   9
ENDBRANCH   7   8
ENDBRANCH   1   7
TORSDOF 3
ENDMDL
