MODEL 1
REMARK minimizedAffinity 0.174556181
REMARK minimizedRMSD -1
REMARK  3 active torsions:
REMARK  status: ('A' for Active; 'I' for Inactive)
REMARK    1  A    between atoms: C3'_2  and  C2'_3 
REMARK    2  A    between atoms: C2'_3  and  C1'_4 
REMARK    3  A    between atoms: C1'_4  and  C1_5 
ROOT
ATOM      1  C1  N4B d   1       2.119  -0.725  -0.354  0.00  0.00    -0.075 A 
ATOM      2  C2  N4B d   1       0.895  -1.221   0.146  0.00  0.00     0.002 A 
ATOM      3  C3  N4B d   1       0.180  -0.487   1.060  0.00  0.00     0.002 A 
ATOM      4  C4  N4B d   1       0.675   0.732   1.500  0.00  0.00    -0.004 A 
ATOM      5  C5  N4B d   1       1.845   1.215   0.992  0.00  0.00     0.002 A 
ATOM      6  C6  N4B d   1       2.573   0.490   0.070  0.00  0.00     0.002 A 
ENDROOT
BRANCH   1   7
ATOM      7  C1' N4B d   1       2.979  -1.531  -1.289  0.00  0.00     0.057 C 
BRANCH   7   8
ATOM      8  C2' N4B d   1       4.433  -1.095  -1.133  0.00  0.00     0.009 C 
BRANCH   8   9
ATOM      9  C3' N4B d   1       4.868  -0.156  -2.245  0.00  0.00     0.004 C 
ATOM     10  C4' N4B d   1       5.999  -0.707  -3.061  0.00  0.00     0.003 C 
ENDBRANCH   8   9
ENDBRANCH   7   8
ENDBRANCH   1   7
TORSDOF 3
ENDMDL
