MODEL 1
REMARK minimizedAffinity 1.62584555
REMARK minimizedRMSD -1
REMARK  3 active torsions:
REMARK  status: ('A' for Active; 'I' for Inactive)
REMARK    1  A    between atoms: C3'_2  and  C2'_3 
REMARK    2  A    between atoms: C2'_3  and  C1'_4 
REMARK    3  A    between atoms: C1'_4  and  C1_5 
ROOT
ATOM      1  C1  N4B d   1       1.154   0.178   0.880  0.00  0.00    -0.075 A 
ATOM      2  C2  N4B d   1       1.895   1.064   0.067  0.00  0.00     0.002 A 
ATOM      3  C3  N4B d   1       2.544   0.592  -1.048  0.00  0.00     0.002 A 
ATOM      4  C4  N4B d   1       2.483  -0.758  -1.357  0.00  0.00    -0.004 A 
ATOM      5  C5  N4B d   1       1.744  -1.603  -0.582  0.00  0.00     0.002 A 
ATOM      6  C6  N4B d   1       1.083  -1.142   0.539  0.00  0.00     0.002 A 
ENDROOT
BRANCH   1   7
ATOM      7  C1' N4B d   1       0.498   0.631   2.155  0.00  0.00     0.057 C 
BRANCH   7   8
ATOM      8  C2' N4B d   1       1.576   1.034   3.157  0.00  0.00     0.009 C 
BRANCH   8   9
ATOM      9  C3' N4B d   1       1.191   0.674   4.582  0.00  0.00     0.004 C 
ATOM     10  C4' N4B d   1      -0.212   0.156   4.691  0.00  0.00     0.003 C 
ENDBRANCH   8   9
ENDBRANCH   7   8
ENDBRANCH   1   7
TORSDOF 3
ENDMDL
