MODEL 1
REMARK minimizedAffinity -3.73169374
REMARK minimizedRMSD -1
REMARK  0 active torsions:
REMARK  status: ('A' for Active; 'I' for Inactive)
ROOT
ATOM      1  C1  BNZ d   1       0.580  -0.802   2.153  0.00  0.00     0.000 A 
ATOM      2  C2  BNZ d   1       1.244  -0.268   1.081  0.00  0.00     0.000 A 
ATOM      3  C3  BNZ d   1       0.570   0.088  -0.054  0.00  0.00     0.000 A 
ATOM      4  C4  BNZ d   1      -0.759  -0.127  -0.130  0.00  0.00     0.000 A 
ATOM      5  C5  BNZ d   1      -1.442  -0.673   0.938  0.00  0.00     0.000 A 
ATOM      6  C6  BNZ d   1      -0.766  -0.994   2.093  0.00  0.00     0.000 A 
ENDROOT
TORSDOF 0
ENDMDL
