MODEL 1
REMARK minimizedAffinity -0.942559063
REMARK minimizedRMSD -1
REMARK  0 active torsions:
REMARK  status: ('A' for Active; 'I' for Inactive)
ROOT
ATOM      1  C1  BNZ d   1       1.024  -0.252   0.525  0.00  0.00     0.000 A 
ATOM      2  C2  BNZ d   1       0.952   1.032   0.053  0.00  0.00     0.000 A 
ATOM      3  C3  BNZ d   1      -0.153   1.469  -0.621  0.00  0.00     0.000 A 
ATOM      4  C4  BNZ d   1      -1.167   0.611  -0.859  0.00  0.00     0.000 A 
ATOM      5  C5  BNZ d   1      -1.105  -0.689  -0.399  0.00  0.00     0.000 A 
ATOM      6  C6  BNZ d   1      -0.007  -1.114   0.314  0.00  0.00     0.000 A 
ENDROOT
TORSDOF 0
ENDMDL
