MODEL 1
REMARK minimizedAffinity -3.67718363
REMARK minimizedRMSD -1
REMARK  0 active torsions:
REMARK  status: ('A' for Active; 'I' for Inactive)
ROOT
ATOM      1  C1  BNZ d   1      -0.059  -0.124   0.100  0.00  0.00     0.000 A 
ATOM      2  C2  BNZ d   1       1.062  -0.889  -0.084  0.00  0.00     0.000 A 
ATOM      3  C3  BNZ d   1       1.609  -1.590   0.955  0.00  0.00     0.000 A 
ATOM      4  C4  BNZ d   1       1.059  -1.493   2.182  0.00  0.00     0.000 A 
ATOM      5  C5  BNZ d   1      -0.066  -0.718   2.385  0.00  0.00     0.000 A 
ATOM      6  C6  BNZ d   1      -0.636  -0.046   1.330  0.00  0.00     0.000 A 
ENDROOT
TORSDOF 0
ENDMDL
