MODEL 1
REMARK minimizedAffinity -5.29303217
REMARK minimizedRMSD -1
REMARK  0 active torsions:
REMARK  status: ('A' for Active; 'I' for Inactive)
ROOT
ATOM      1  C1  BNZ d   1      -0.532  -0.504   1.299  0.00  0.00     0.000 A 
ATOM      2  C2  BNZ d   1       0.082  -0.872   2.466  0.00  0.00     0.000 A 
ATOM      3  C3  BNZ d   1       1.415  -1.175   2.490  0.00  0.00     0.000 A 
ATOM      4  C4  BNZ d   1       2.122  -1.149   1.341  0.00  0.00     0.000 A 
ATOM      5  C5  BNZ d   1       1.514  -0.789   0.155  0.00  0.00     0.000 A 
ATOM      6  C6  BNZ d   1       0.181  -0.447   0.141  0.00  0.00     0.000 A 
ENDROOT
TORSDOF 0
ENDMDL
