MODEL 1
REMARK minimizedAffinity -4.87089014
REMARK minimizedRMSD -1
REMARK  0 active torsions:
REMARK  status: ('A' for Active; 'I' for Inactive)
ROOT
ATOM      1  C1  BNZ d   1       1.104  -0.853   2.856  0.00  0.00     0.000 A 
ATOM      2  C2  BNZ d   1       2.015  -1.852   2.635  0.00  0.00     0.000 A 
ATOM      3  C3  BNZ d   1       2.575  -2.029   1.401  0.00  0.00     0.000 A 
ATOM      4  C4  BNZ d   1       2.193  -1.235   0.380  0.00  0.00     0.000 A 
ATOM      5  C5  BNZ d   1       1.268  -0.230   0.584  0.00  0.00     0.000 A 
ATOM      6  C6  BNZ d   1       0.737  -0.029   1.837  0.00  0.00     0.000 A 
ENDROOT
TORSDOF 0
ENDMDL
