MODEL 1
REMARK minimizedAffinity -1.75635171
REMARK minimizedRMSD -1
REMARK  0 active torsions:
REMARK  status: ('A' for Active; 'I' for Inactive)
ROOT
ATOM      1  C1  BNZ d   1      -0.714   1.788  -3.045  0.00  0.00     0.000 A 
ATOM      2  C2  BNZ d   1      -1.976   2.246  -2.775  0.00  0.00     0.000 A 
ATOM      3  C3  BNZ d   1      -2.179   3.526  -2.342  0.00  0.00     0.000 A 
ATOM      4  C4  BNZ d   1      -1.118   4.334  -2.141  0.00  0.00     0.000 A 
ATOM      5  C5  BNZ d   1       0.162   3.885  -2.400  0.00  0.00     0.000 A 
ATOM      6  C6  BNZ d   1       0.359   2.607  -2.873  0.00  0.00     0.000 A 
ENDROOT
TORSDOF 0
ENDMDL
