MODEL 1
REMARK minimizedAffinity -5.32898951
REMARK minimizedRMSD -1
REMARK  0 active torsions:
REMARK  status: ('A' for Active; 'I' for Inactive)
ROOT
ATOM      1  C1  BNZ d   1       0.468  -0.595   0.500  0.00  0.00     0.000 A 
ATOM      2  C2  BNZ d   1       1.697  -1.197   0.450  0.00  0.00     0.000 A 
ATOM      3  C3  BNZ d   1       2.295  -1.662   1.588  0.00  0.00     0.000 A 
ATOM      4  C4  BNZ d   1       1.684  -1.487   2.778  0.00  0.00     0.000 A 
ATOM      5  C5  BNZ d   1       0.449  -0.873   2.845  0.00  0.00     0.000 A 
ATOM      6  C6  BNZ d   1      -0.168  -0.442   1.693  0.00  0.00     0.000 A 
ENDROOT
TORSDOF 0
ENDMDL
