MODEL 1
REMARK minimizedAffinity -1.58928263
REMARK minimizedRMSD -1
REMARK  0 active torsions:
REMARK  status: ('A' for Active; 'I' for Inactive)
ROOT
ATOM      1  C1  BNZ d   1      -0.788  -0.086   2.718  0.00  0.00     0.000 A 
ATOM      2  C2  BNZ d   1      -0.984   0.584   1.540  0.00  0.00     0.000 A 
ATOM      3  C3  BNZ d   1      -0.686  -0.004   0.342  0.00  0.00     0.000 A 
ATOM      4  C4  BNZ d   1      -0.154  -1.244   0.327  0.00  0.00     0.000 A 
ATOM      5  C5  BNZ d   1       0.058  -1.928   1.507  0.00  0.00     0.000 A 
ATOM      6  C6  BNZ d   1      -0.280  -1.349   2.708  0.00  0.00     0.000 A 
ENDROOT
TORSDOF 0
ENDMDL
