MODEL 1
REMARK minimizedAffinity 5.42276859
REMARK minimizedRMSD -1
REMARK  3 active torsions:
REMARK  status: ('A' for Active; 'I' for Inactive)
REMARK    1  A    between atoms: C3'_2  and  C2'_3 
REMARK    2  A    between atoms: C2'_3  and  C1'_4 
REMARK    3  A    between atoms: C1'_4  and  C1_5 
ROOT
ATOM      1  C1  N4B d   1      -3.441   5.549   3.402  0.00  0.00    -0.075 A 
ATOM      2  C2  N4B d   1      -4.820   5.710   3.661  0.00  0.00     0.002 A 
ATOM      3  C3  N4B d   1      -5.255   5.943   4.942  0.00  0.00     0.002 A 
ATOM      4  C4  N4B d   1      -4.336   6.000   5.979  0.00  0.00    -0.004 A 
ATOM      5  C5  N4B d   1      -3.003   5.869   5.717  0.00  0.00     0.002 A 
ATOM      6  C6  N4B d   1      -2.551   5.638   4.433  0.00  0.00     0.002 A 
ENDROOT
BRANCH   1   7
ATOM      7  C1' N4B d   1      -2.925   5.207   2.031  0.00  0.00     0.057 C 
BRANCH   7   8
ATOM      8  C2' N4B d   1      -3.123   3.716   1.779  0.00  0.00     0.009 C 
BRANCH   8   9
ATOM      9  C3' N4B d   1      -2.726   2.878   2.983  0.00  0.00     0.004 C 
ATOM     10  C4' N4B d   1      -2.782   1.405   2.709  0.00  0.00     0.003 C 
ENDBRANCH   8   9
ENDBRANCH   7   8
ENDBRANCH   1   7
TORSDOF 3
ENDMDL
