MODEL 1
REMARK minimizedAffinity 5.64808321
REMARK minimizedRMSD -1
REMARK  3 active torsions:
REMARK  status: ('A' for Active; 'I' for Inactive)
REMARK    1  A    between atoms: C3'_2  and  C2'_3 
REMARK    2  A    between atoms: C2'_3  and  C1'_4 
REMARK    3  A    between atoms: C1'_4  and  C1_5 
ROOT
ATOM      1  C1  N4B d   1       2.509   1.951  -3.767  0.00  0.00    -0.075 A 
ATOM      2  C2  N4B d   1       2.023   2.653  -4.891  0.00  0.00     0.002 A 
ATOM      3  C3  N4B d   1       2.818   2.809  -6.000  0.00  0.00     0.002 A 
ATOM      4  C4  N4B d   1       4.104   2.288  -6.000  0.00  0.00    -0.004 A 
ATOM      5  C5  N4B d   1       4.556   1.589  -4.920  0.00  0.00     0.002 A 
ATOM      6  C6  N4B d   1       3.766   1.422  -3.800  0.00  0.00     0.002 A 
ENDROOT
BRANCH   1   7
ATOM      7  C1' N4B d   1       1.708   1.829  -2.499  0.00  0.00     0.057 C 
BRANCH   7   8
ATOM      8  C2' N4B d   1       1.422   3.224  -1.952  0.00  0.00     0.009 C 
BRANCH   8   9
ATOM      9  C3' N4B d   1       2.667   3.874  -1.373  0.00  0.00     0.004 C 
ATOM     10  C4' N4B d   1       2.857   3.570   0.083  0.00  0.00     0.003 C 
ENDBRANCH   8   9
ENDBRANCH   7   8
ENDBRANCH   1   7
TORSDOF 3
ENDMDL
