MODEL 1
REMARK minimizedAffinity 1.94217217
REMARK minimizedRMSD -1
REMARK  3 active torsions:
REMARK  status: ('A' for Active; 'I' for Inactive)
REMARK    1  A    between atoms: C3'_2  and  C2'_3 
REMARK    2  A    between atoms: C2'_3  and  C1'_4 
REMARK    3  A    between atoms: C1'_4  and  C1_5 
ROOT
ATOM      1  C1  N4B d   1       2.315   2.389  -4.021  0.00  0.00    -0.075 A 
ATOM      2  C2  N4B d   1       3.374   1.454  -3.999  0.00  0.00     0.002 A 
ATOM      3  C3  N4B d   1       4.334   1.482  -4.980  0.00  0.00     0.002 A 
ATOM      4  C4  N4B d   1       4.247   2.418  -6.000  0.00  0.00    -0.004 A 
ATOM      5  C5  N4B d   1       3.236   3.334  -5.999  0.00  0.00     0.002 A 
ATOM      6  C6  N4B d   1       2.266   3.321  -5.017  0.00  0.00     0.002 A 
ENDROOT
BRANCH   1   7
ATOM      7  C1' N4B d   1       1.195   2.344  -3.018  0.00  0.00     0.057 C 
BRANCH   7   8
ATOM      8  C2' N4B d   1       1.515   1.295  -1.957  0.00  0.00     0.009 C 
BRANCH   8   9
ATOM      9  C3' N4B d   1       1.517  -0.112  -2.531  0.00  0.00     0.004 C 
ATOM     10  C4' N4B d   1       2.261  -1.089  -1.671  0.00  0.00     0.003 C 
ENDBRANCH   8   9
ENDBRANCH   7   8
ENDBRANCH   1   7
TORSDOF 3
ENDMDL
