MODEL 1
REMARK minimizedAffinity 5.80205011
REMARK minimizedRMSD -1
REMARK  3 active torsions:
REMARK  status: ('A' for Active; 'I' for Inactive)
REMARK    1  A    between atoms: C3'_2  and  C2'_3 
REMARK    2  A    between atoms: C2'_3  and  C1'_4 
REMARK    3  A    between atoms: C1'_4  and  C1_5 
ROOT
ATOM      1  C1  N4B d   1      -4.226   5.961   4.491  0.00  0.00    -0.075 A 
ATOM      2  C2  N4B d   1      -3.698   5.906   5.800  0.00  0.00     0.002 A 
ATOM      3  C3  N4B d   1      -2.340   5.831   5.990  0.00  0.00     0.002 A 
ATOM      4  C4  N4B d   1      -1.495   5.791   4.891  0.00  0.00    -0.004 A 
ATOM      5  C5  N4B d   1      -2.011   5.870   3.631  0.00  0.00     0.002 A 
ATOM      6  C6  N4B d   1      -3.374   5.950   3.425  0.00  0.00     0.002 A 
ENDROOT
BRANCH   1   7
ATOM      7  C1' N4B d   1      -5.708   5.956   4.231  0.00  0.00     0.057 C 
BRANCH   7   8
ATOM      8  C2' N4B d   1      -5.952   5.999   2.726  0.00  0.00     0.009 C 
BRANCH   8   9
ATOM      9  C3' N4B d   1      -5.994   4.608   2.117  0.00  0.00     0.004 C 
ATOM     10  C4' N4B d   1      -4.730   3.834   2.350  0.00  0.00     0.003 C 
ENDBRANCH   8   9
ENDBRANCH   7   8
ENDBRANCH   1   7
TORSDOF 3
ENDMDL
