MODEL 1
REMARK minimizedAffinity 2.92015147
REMARK minimizedRMSD -1
REMARK  3 active torsions:
REMARK  status: ('A' for Active; 'I' for Inactive)
REMARK    1  A    between atoms: C3'_2  and  C2'_3 
REMARK    2  A    between atoms: C2'_3  and  C1'_4 
REMARK    3  A    between atoms: C1'_4  and  C1_5 
ROOT
ATOM      1  C1  N4B d   1       4.635  -3.114   5.676  0.00  0.00    -0.075 A 
ATOM      2  C2  N4B d   1       5.894  -3.735   5.836  0.00  0.00     0.002 A 
ATOM      3  C3  N4B d   1       5.977  -5.103   5.929  0.00  0.00     0.002 A 
ATOM      4  C4  N4B d   1       4.820  -5.865   5.885  0.00  0.00    -0.004 A 
ATOM      5  C5  N4B d   1       3.611  -5.259   5.705  0.00  0.00     0.002 A 
ATOM      6  C6  N4B d   1       3.512  -3.886   5.605  0.00  0.00     0.002 A 
ENDROOT
BRANCH   1   7
ATOM      7  C1' N4B d   1       4.486  -1.617   5.655  0.00  0.00     0.057 C 
BRANCH   7   8
ATOM      8  C2' N4B d   1       5.799  -0.989   5.200  0.00  0.00     0.009 C 
BRANCH   8   9
ATOM      9  C3' N4B d   1       5.929  -0.978   3.687  0.00  0.00     0.004 C 
ATOM     10  C4' N4B d   1       4.781  -0.292   3.010  0.00  0.00     0.003 C 
ENDBRANCH   8   9
ENDBRANCH   7   8
ENDBRANCH   1   7
TORSDOF 3
ENDMDL
