MODEL 1
REMARK minimizedAffinity 2.07604957
REMARK minimizedRMSD -1
REMARK  3 active torsions:
REMARK  status: ('A' for Active; 'I' for Inactive)
REMARK    1  A    between atoms: C3'_2  and  C2'_3 
REMARK    2  A    between atoms: C2'_3  and  C1'_4 
REMARK    3  A    between atoms: C1'_4  and  C1_5 
ROOT
ATOM      1  C1  N4B d   1       1.486   1.246  -2.894  0.00  0.00    -0.075 A 
ATOM      2  C2  N4B d   1       1.435   2.573  -2.413  0.00  0.00     0.002 A 
ATOM      3  C3  N4B d   1       1.579   3.625  -3.284  0.00  0.00     0.002 A 
ATOM      4  C4  N4B d   1       1.794   3.376  -4.631  0.00  0.00    -0.004 A 
ATOM      5  C5  N4B d   1       1.816   2.091  -5.092  0.00  0.00     0.002 A 
ATOM      6  C6  N4B d   1       1.668   1.025  -4.228  0.00  0.00     0.002 A 
ENDROOT
BRANCH   1   7
ATOM      7  C1' N4B d   1       1.418   0.063  -1.968  0.00  0.00     0.057 C 
BRANCH   7   8
ATOM      8  C2' N4B d   1       2.813  -0.540  -1.824  0.00  0.00     0.009 C 
BRANCH   8   9
ATOM      9  C3' N4B d   1       2.845  -1.656  -0.794  0.00  0.00     0.004 C 
ATOM     10  C4' N4B d   1       1.978  -2.820  -1.171  0.00  0.00     0.003 C 
ENDBRANCH   8   9
ENDBRANCH   7   8
ENDBRANCH   1   7
TORSDOF 3
ENDMDL
