MODEL 1
REMARK minimizedAffinity 0.164394394
REMARK minimizedRMSD -1
REMARK  0 active torsions:
REMARK  status: ('A' for Active; 'I' for Inactive)
ROOT
ATOM      1  C   UNL d   1       0.093   5.282   5.417  0.00  0.00    -0.002 A 
ATOM      2  C1  UNL d   1       0.497   6.000   4.300  0.00  0.00     0.010 A 
ATOM      3  C2  UNL d   1       1.762   5.797   3.744  0.00  0.00     0.041 A 
ATOM      4  C3  UNL d   1       2.622   4.851   4.335  0.00  0.00    -0.075 A 
ATOM      5  S   UNL d   1       4.216   4.435   3.827  0.00  0.00     0.015 SA
ATOM      6  C4  UNL d   1       4.398   3.294   5.080  0.00  0.00     0.022 A 
ATOM      7  C5  UNL d   1       3.280   3.220   5.876  0.00  0.00     0.026 A 
ATOM      8  C6  UNL d   1       2.238   4.115   5.460  0.00  0.00    -0.082 A 
ATOM      9  C7  UNL d   1       0.949   4.344   6.000  0.00  0.00     0.045 A 
ENDROOT
TORSDOF 0
ENDMDL
