MODEL 1
REMARK minimizedAffinity 15.5056772
REMARK minimizedRMSD -1
REMARK  0 active torsions:
REMARK  status: ('A' for Active; 'I' for Inactive)
ROOT
ATOM      1  C   UNL d   1       3.960   1.846   0.058  0.00  0.00    -0.002 A 
ATOM      2  C1  UNL d   1       3.003   0.842   0.080  0.00  0.00     0.010 A 
ATOM      3  C2  UNL d   1       2.343   0.515   1.266  0.00  0.00     0.041 A 
ATOM      4  C3  UNL d   1       2.664   1.222   2.442  0.00  0.00    -0.075 A 
ATOM      5  S   UNL d   1       1.985   0.995   4.010  0.00  0.00     0.015 SA
ATOM      6  C4  UNL d   1       2.949   2.226   4.688  0.00  0.00     0.022 A 
ATOM      7  C5  UNL d   1       3.776   2.806   3.755  0.00  0.00     0.026 A 
ATOM      8  C6  UNL d   1       3.624   2.238   2.445  0.00  0.00    -0.082 A 
ATOM      9  C7  UNL d   1       4.276   2.545   1.226  0.00  0.00     0.045 A 
ENDROOT
TORSDOF 0
ENDMDL
