MODEL 1
REMARK minimizedAffinity 13.603591
REMARK minimizedRMSD -1
REMARK  0 active torsions:
REMARK  status: ('A' for Active; 'I' for Inactive)
ROOT
ATOM      1  C   UNL d   1       2.483  -2.982  -1.772  0.00  0.00    -0.002 A 
ATOM      2  C1  UNL d   1       2.593  -2.931  -0.390  0.00  0.00     0.010 A 
ATOM      3  C2  UNL d   1       3.198  -1.838   0.234  0.00  0.00     0.041 A 
ATOM      4  C3  UNL d   1       3.693  -0.786  -0.562  0.00  0.00    -0.075 A 
ATOM      5  S   UNL d   1       4.471   0.653  -0.017  0.00  0.00     0.015 SA
ATOM      6  C4  UNL d   1       4.675   1.233  -1.607  0.00  0.00     0.022 A 
ATOM      7  C5  UNL d   1       4.168   0.363  -2.543  0.00  0.00     0.026 A 
ATOM      8  C6  UNL d   1       3.593  -0.815  -1.956  0.00  0.00    -0.082 A 
ATOM      9  C7  UNL d   1       2.976  -1.937  -2.559  0.00  0.00     0.045 A 
ENDROOT
TORSDOF 0
ENDMDL
