MODEL 1
REMARK minimizedAffinity 2.59884691
REMARK minimizedRMSD -1
REMARK  0 active torsions:
REMARK  status: ('A' for Active; 'I' for Inactive)
ROOT
ATOM      1  C   UNL d   1       3.587  -0.655   0.331  0.00  0.00    -0.002 A 
ATOM      2  C1  UNL d   1       3.130   0.372  -0.482  0.00  0.00     0.010 A 
ATOM      3  C2  UNL d   1       2.005   0.192  -1.289  0.00  0.00     0.041 A 
ATOM      4  C3  UNL d   1       1.339  -1.049  -1.264  0.00  0.00    -0.075 A 
ATOM      5  S   UNL d   1      -0.059  -1.497  -2.167  0.00  0.00     0.015 SA
ATOM      6  C4  UNL d   1      -0.084  -3.063  -1.493  0.00  0.00     0.022 A 
ATOM      7  C5  UNL d   1       0.943  -3.256  -0.600  0.00  0.00     0.026 A 
ATOM      8  C6  UNL d   1       1.780  -2.098  -0.452  0.00  0.00    -0.082 A 
ATOM      9  C7  UNL d   1       2.924  -1.885   0.354  0.00  0.00     0.045 A 
ENDROOT
TORSDOF 0
ENDMDL
