MODEL 1
REMARK minimizedAffinity 15.1484022
REMARK minimizedRMSD -1
REMARK  0 active torsions:
REMARK  status: ('A' for Active; 'I' for Inactive)
ROOT
ATOM      1  C   UNL d   1      -4.424   1.346  -5.422  0.00  0.00    -0.002 A 
ATOM      2  C1  UNL d   1      -5.389   0.689  -4.671  0.00  0.00     0.010 A 
ATOM      3  C2  UNL d   1      -5.024  -0.102  -3.580  0.00  0.00     0.041 A 
ATOM      4  C3  UNL d   1      -3.659  -0.222  -3.252  0.00  0.00    -0.075 A 
ATOM      5  S   UNL d   1      -2.977  -1.136  -1.959  0.00  0.00     0.015 SA
ATOM      6  C4  UNL d   1      -1.389  -0.675  -2.372  0.00  0.00     0.022 A 
ATOM      7  C5  UNL d   1      -1.361   0.155  -3.467  0.00  0.00     0.026 A 
ATOM      8  C6  UNL d   1      -2.669   0.430  -3.993  0.00  0.00    -0.082 A 
ATOM      9  C7  UNL d   1      -3.071   1.224  -5.093  0.00  0.00     0.045 A 
ENDROOT
TORSDOF 0
ENDMDL
