MODEL 1
REMARK minimizedAffinity 9.51407433
REMARK minimizedRMSD -1
REMARK  0 active torsions:
REMARK  status: ('A' for Active; 'I' for Inactive)
ROOT
ATOM      1  C   UNL d   1      -1.230   4.699   5.395  0.00  0.00    -0.002 A 
ATOM      2  C1  UNL d   1      -0.426   3.743   5.999  0.00  0.00     0.010 A 
ATOM      3  C2  UNL d   1       0.223   2.773   5.232  0.00  0.00     0.041 A 
ATOM      4  C3  UNL d   1       0.051   2.783   3.834  0.00  0.00    -0.075 A 
ATOM      5  S   UNL d   1       0.749   1.694   2.693  0.00  0.00     0.015 SA
ATOM      6  C4  UNL d   1      -0.002   2.474   1.377  0.00  0.00     0.022 A 
ATOM      7  C5  UNL d   1      -0.771   3.541   1.779  0.00  0.00     0.026 A 
ATOM      8  C6  UNL d   1      -0.752   3.737   3.202  0.00  0.00    -0.082 A 
ATOM      9  C7  UNL d   1      -1.398   4.705   4.007  0.00  0.00     0.045 A 
ENDROOT
TORSDOF 0
ENDMDL
