MODEL 1
REMARK minimizedAffinity 5.45211029
REMARK minimizedRMSD -1
REMARK  1 active torsions:
REMARK  status: ('A' for Active; 'I' for Inactive)
REMARK    1  A    between atoms: C1_2  and  C2_3 
ROOT
ATOM      1  C2  UNL d   1      -0.145   1.961   0.392  0.00  0.00    -0.076 A 
ATOM      2  C3  UNL d   1       0.357   3.198   0.832  0.00  0.00     0.004 A 
ATOM      3  C4  UNL d   1       0.268   4.335   0.031  0.00  0.00    -0.003 A 
ATOM      4  C5  UNL d   1      -0.326   4.253  -1.224  0.00  0.00     0.000 A 
ATOM      5  C6  UNL d   1      -0.845   3.038  -1.670  0.00  0.00     0.000 A 
ATOM      6  C7  UNL d   1      -0.777   1.886  -0.868  0.00  0.00    -0.073 A 
ATOM      7  C8  UNL d   1      -1.348   0.601  -1.401  0.00  0.00     0.078 C 
ENDROOT
BRANCH   1   8
ATOM      8  C1  UNL d   1       0.004   0.756   1.293  0.00  0.00     0.053 C 
ATOM      9  C   UNL d   1      -0.122   1.111   2.766  0.00  0.00     0.018 C 
ENDBRANCH   1   8
TORSDOF 1
ENDMDL
