MODEL 1
REMARK minimizedAffinity 8.95018387
REMARK minimizedRMSD -1
REMARK  1 active torsions:
REMARK  status: ('A' for Active; 'I' for Inactive)
REMARK    1  A    between atoms: C1_2  and  C2_3 
ROOT
ATOM      1  C2  UNL d   1      -0.224   1.767   1.840  0.00  0.00    -0.076 A 
ATOM      2  C3  UNL d   1      -1.423   1.368   2.457  0.00  0.00     0.004 A 
ATOM      3  C4  UNL d   1      -1.427   0.392   3.452  0.00  0.00    -0.003 A 
ATOM      4  C5  UNL d   1      -0.232  -0.200   3.847  0.00  0.00     0.000 A 
ATOM      5  C6  UNL d   1       0.968   0.196   3.258  0.00  0.00     0.000 A 
ATOM      6  C7  UNL d   1       0.992   1.190   2.265  0.00  0.00    -0.073 A 
ATOM      7  C8  UNL d   1       2.314   1.574   1.659  0.00  0.00     0.078 C 
ENDROOT
BRANCH   1   8
ATOM      8  C1  UNL d   1      -0.285   2.811   0.747  0.00  0.00     0.053 C 
ATOM      9  C   UNL d   1      -0.266   2.199  -0.645  0.00  0.00     0.018 C 
ENDBRANCH   1   8
TORSDOF 1
ENDMDL
