MODEL 1
REMARK minimizedAffinity 7.43203211
REMARK minimizedRMSD -1
REMARK  1 active torsions:
REMARK  status: ('A' for Active; 'I' for Inactive)
REMARK    1  A    between atoms: C1_2  and  C2_3 
ROOT
ATOM      1  C2  UNL d   1      -2.211   1.940  -1.664  0.00  0.00    -0.076 A 
ATOM      2  C3  UNL d   1      -2.524   0.623  -1.288  0.00  0.00     0.004 A 
ATOM      3  C4  UNL d   1      -3.849   0.211  -1.156  0.00  0.00    -0.003 A 
ATOM      4  C5  UNL d   1      -4.882   1.109  -1.399  0.00  0.00     0.000 A 
ATOM      5  C6  UNL d   1      -4.590   2.415  -1.791  0.00  0.00     0.000 A 
ATOM      6  C7  UNL d   1      -3.260   2.842  -1.944  0.00  0.00    -0.073 A 
ATOM      7  C8  UNL d   1      -3.002   4.264  -2.363  0.00  0.00     0.078 C 
ENDROOT
BRANCH   1   8
ATOM      8  C1  UNL d   1      -0.755   2.338  -1.765  0.00  0.00     0.053 C 
ATOM      9  C   UNL d   1       0.104   1.249  -2.388  0.00  0.00     0.018 C 
ENDBRANCH   1   8
TORSDOF 1
ENDMDL
