MODEL 1
REMARK minimizedAffinity 8.21149921
REMARK minimizedRMSD -1
REMARK  1 active torsions:
REMARK  status: ('A' for Active; 'I' for Inactive)
REMARK    1  A    between atoms: C1_2  and  C2_3 
ROOT
ATOM      1  C2  UNL d   1      -1.083  -1.626  -2.217  0.00  0.00    -0.076 A 
ATOM      2  C3  UNL d   1       0.229  -1.193  -2.477  0.00  0.00     0.004 A 
ATOM      3  C4  UNL d   1       0.587   0.145  -2.321  0.00  0.00    -0.003 A 
ATOM      4  C5  UNL d   1      -0.361   1.072  -1.901  0.00  0.00     0.000 A 
ATOM      5  C6  UNL d   1      -1.662   0.657  -1.621  0.00  0.00     0.000 A 
ATOM      6  C7  UNL d   1      -2.036  -0.691  -1.758  0.00  0.00    -0.073 A 
ATOM      7  C8  UNL d   1      -3.455  -1.082  -1.448  0.00  0.00     0.078 C 
ENDROOT
BRANCH   1   8
ATOM      8  C1  UNL d   1      -1.420  -3.084  -2.430  0.00  0.00     0.053 C 
ATOM      9  C   UNL d   1      -0.621  -4.006  -1.522  0.00  0.00     0.018 C 
ENDBRANCH   1   8
TORSDOF 1
ENDMDL
