MODEL 1
REMARK minimizedAffinity 2.0968349
REMARK minimizedRMSD -1
REMARK  1 active torsions:
REMARK  status: ('A' for Active; 'I' for Inactive)
REMARK    1  A    between atoms: C1_2  and  C2_3 
ROOT
ATOM      1  C2  UNL d   1       0.334   0.577   0.746  0.00  0.00    -0.076 A 
ATOM      2  C3  UNL d   1       0.023  -0.525   1.563  0.00  0.00     0.004 A 
ATOM      3  C4  UNL d   1       0.114  -0.437   2.951  0.00  0.00    -0.003 A 
ATOM      4  C5  UNL d   1       0.517   0.754   3.545  0.00  0.00     0.000 A 
ATOM      5  C6  UNL d   1       0.812   1.862   2.751  0.00  0.00     0.000 A 
ATOM      6  C7  UNL d   1       0.709   1.795   1.351  0.00  0.00    -0.073 A 
ATOM      7  C8  UNL d   1       1.045   3.019   0.543  0.00  0.00     0.078 C 
ENDROOT
BRANCH   1   8
ATOM      8  C1  UNL d   1       0.243   0.414  -0.754  0.00  0.00     0.053 C 
ATOM      9  C   UNL d   1      -1.194   0.410  -1.254  0.00  0.00     0.018 C 
ENDBRANCH   1   8
TORSDOF 1
ENDMDL
