MODEL 1
REMARK minimizedAffinity -6.10688686
REMARK minimizedRMSD -1
REMARK  0 active torsions:
REMARK  status: ('A' for Active; 'I' for Inactive)
ROOT
ATOM      1  N1  IND d   1       0.459   0.066  -0.789  0.00  0.00    -0.196 N 
ATOM      2  C2  IND d   1       0.336  -1.021   0.029  0.00  0.00     0.054 A 
ATOM      3  C3  IND d   1      -0.431  -0.720   1.101  0.00  0.00    -0.031 A 
ATOM      4  C4  IND d   1      -1.672   1.465   1.661  0.00  0.00     0.051 A 
ATOM      5  C5  IND d   1      -1.833   2.753   1.232  0.00  0.00    -0.031 A 
ATOM      6  C6  IND d   1      -1.228   3.219   0.082  0.00  0.00     0.015 A 
ATOM      7  C7  IND d   1      -0.446   2.409  -0.690  0.00  0.00    -0.016 A 
ATOM      8  C8  IND d   1      -0.274   1.103  -0.254  0.00  0.00    -0.047 A 
ATOM      9  C9  IND d   1      -0.851   0.636   0.934  0.00  0.00    -0.096 A 
ATOM     10  HN1 IND d   1       0.917   0.098  -1.516  0.00  0.00     0.298 HD
ENDROOT
TORSDOF 0
ENDMDL
