MODEL 1
REMARK minimizedAffinity -4.97963715
REMARK minimizedRMSD -1
REMARK  0 active torsions:
REMARK  status: ('A' for Active; 'I' for Inactive)
ROOT
ATOM      1  N1  IND d   1       0.809   0.996   0.378  0.00  0.00    -0.196 N 
ATOM      2  C2  IND d   1       0.738  -0.357   0.557  0.00  0.00     0.054 A 
ATOM      3  C3  IND d   1      -0.500  -0.713   0.966  0.00  0.00    -0.031 A 
ATOM      4  C4  IND d   1      -2.593   0.747   1.308  0.00  0.00     0.051 A 
ATOM      5  C5  IND d   1      -3.011   2.048   1.303  0.00  0.00    -0.031 A 
ATOM      6  C6  IND d   1      -2.160   3.086   0.980  0.00  0.00     0.015 A 
ATOM      7  C7  IND d   1      -0.857   2.859   0.638  0.00  0.00    -0.016 A 
ATOM      8  C8  IND d   1      -0.428   1.540   0.649  0.00  0.00    -0.047 A 
ATOM      9  C9  IND d   1      -1.275   0.486   1.016  0.00  0.00    -0.096 A 
ATOM     10  HN1 IND d   1       1.508   1.434   0.137  0.00  0.00     0.298 HD
ENDROOT
TORSDOF 0
ENDMDL
