MODEL 1
REMARK minimizedAffinity -4.51368761
REMARK minimizedRMSD -1
REMARK  0 active torsions:
REMARK  status: ('A' for Active; 'I' for Inactive)
ROOT
ATOM      1  N1  IND d   1       0.654   2.243  -0.868  0.00  0.00    -0.196 N 
ATOM      2  C2  IND d   1       0.130   3.467  -0.559  0.00  0.00     0.054 A 
ATOM      3  C3  IND d   1      -0.689   3.371   0.512  0.00  0.00    -0.031 A 
ATOM      4  C4  IND d   1      -1.237   1.325   1.975  0.00  0.00     0.051 A 
ATOM      5  C5  IND d   1      -1.027  -0.023   2.064  0.00  0.00    -0.031 A 
ATOM      6  C6  IND d   1      -0.228  -0.697   1.164  0.00  0.00     0.015 A 
ATOM      7  C7  IND d   1       0.403  -0.044   0.143  0.00  0.00    -0.016 A 
ATOM      8  C8  IND d   1       0.187   1.323   0.045  0.00  0.00    -0.047 A 
ATOM      9  C9  IND d   1      -0.657   2.006   0.930  0.00  0.00    -0.096 A 
ATOM     10  HN1 IND d   1       1.185   2.075  -1.523  0.00  0.00     0.298 HD
ENDROOT
TORSDOF 0
ENDMDL
