MODEL 1
REMARK minimizedAffinity -4.26359367
REMARK minimizedRMSD -1
REMARK  0 active torsions:
REMARK  status: ('A' for Active; 'I' for Inactive)
ROOT
ATOM      1  N1  IND d   1       0.012   2.623  -0.987  0.00  0.00    -0.196 N 
ATOM      2  C2  IND d   1      -0.480   3.821  -0.549  0.00  0.00     0.054 A 
ATOM      3  C3  IND d   1      -1.204   3.647   0.580  0.00  0.00    -0.031 A 
ATOM      4  C4  IND d   1      -1.625   1.501   1.938  0.00  0.00     0.051 A 
ATOM      5  C5  IND d   1      -1.411   0.151   1.914  0.00  0.00    -0.031 A 
ATOM      6  C6  IND d   1      -0.694  -0.455   0.903  0.00  0.00     0.015 A 
ATOM      7  C7  IND d   1      -0.153   0.270  -0.121  0.00  0.00    -0.016 A 
ATOM      8  C8  IND d   1      -0.375   1.640  -0.103  0.00  0.00    -0.047 A 
ATOM      9  C9  IND d   1      -1.138   2.255   0.898  0.00  0.00    -0.096 A 
ATOM     10  HN1 IND d   1       0.484   2.504  -1.696  0.00  0.00     0.298 HD
ENDROOT
TORSDOF 0
ENDMDL
