MODEL 1
REMARK minimizedAffinity -5.37515688
REMARK minimizedRMSD -1
REMARK  0 active torsions:
REMARK  status: ('A' for Active; 'I' for Inactive)
ROOT
ATOM      1  N1  IND d   1      -0.306   0.338  -0.916  0.00  0.00    -0.196 N 
ATOM      2  C2  IND d   1      -0.061  -0.678  -0.035  0.00  0.00     0.054 A 
ATOM      3  C3  IND d   1      -0.440  -0.320   1.213  0.00  0.00    -0.031 A 
ATOM      4  C4  IND d   1      -1.577   1.845   2.019  0.00  0.00     0.051 A 
ATOM      5  C5  IND d   1      -1.970   3.080   1.587  0.00  0.00    -0.031 A 
ATOM      6  C6  IND d   1      -1.829   3.472   0.271  0.00  0.00     0.015 A 
ATOM      7  C7  IND d   1      -1.296   2.635  -0.668  0.00  0.00    -0.016 A 
ATOM      8  C8  IND d   1      -0.889   1.382  -0.231  0.00  0.00    -0.047 A 
ATOM      9  C9  IND d   1      -0.992   0.994   1.111  0.00  0.00    -0.096 A 
ATOM     10  HN1 IND d   1      -0.126   0.328  -1.757  0.00  0.00     0.298 HD
ENDROOT
TORSDOF 0
ENDMDL
