MODEL 1
REMARK minimizedAffinity -5.3402133
REMARK minimizedRMSD -1
REMARK  0 active torsions:
REMARK  status: ('A' for Active; 'I' for Inactive)
ROOT
ATOM      1  N1  IND d   1       0.534   0.394  -0.751  0.00  0.00    -0.196 N 
ATOM      2  C2  IND d   1       0.597  -0.704   0.061  0.00  0.00     0.054 A 
ATOM      3  C3  IND d   1      -0.195  -0.534   1.143  0.00  0.00    -0.031 A 
ATOM      4  C4  IND d   1      -1.761   1.422   1.734  0.00  0.00     0.051 A 
ATOM      5  C5  IND d   1      -2.130   2.670   1.316  0.00  0.00    -0.031 A 
ATOM      6  C6  IND d   1      -1.623   3.233   0.163  0.00  0.00     0.015 A 
ATOM      7  C7  IND d   1      -0.731   2.562  -0.624  0.00  0.00    -0.016 A 
ATOM      8  C8  IND d   1      -0.348   1.297  -0.199  0.00  0.00    -0.047 A 
ATOM      9  C9  IND d   1      -0.827   0.738   0.992  0.00  0.00    -0.096 A 
ATOM     10  HN1 IND d   1       0.972   0.503  -1.483  0.00  0.00     0.298 HD
ENDROOT
TORSDOF 0
ENDMDL
