MODEL 1
REMARK minimizedAffinity -5.59115314
REMARK minimizedRMSD -1
REMARK  0 active torsions:
REMARK  status: ('A' for Active; 'I' for Inactive)
ROOT
ATOM      1  N1  IND d   1       0.338   0.460  -0.876  0.00  0.00    -0.196 N 
ATOM      2  C2  IND d   1       0.424  -0.606  -0.024  0.00  0.00     0.054 A 
ATOM      3  C3  IND d   1      -0.235  -0.342   1.126  0.00  0.00    -0.031 A 
ATOM      4  C4  IND d   1      -1.611   1.732   1.785  0.00  0.00     0.051 A 
ATOM      5  C5  IND d   1      -1.950   2.982   1.349  0.00  0.00    -0.031 A 
ATOM      6  C6  IND d   1      -1.538   3.464   0.124  0.00  0.00     0.015 A 
ATOM      7  C7  IND d   1      -0.777   2.706  -0.721  0.00  0.00    -0.016 A 
ATOM      8  C8  IND d   1      -0.425   1.439  -0.279  0.00  0.00    -0.047 A 
ATOM      9  C9  IND d   1      -0.805   0.960   0.982  0.00  0.00    -0.096 A 
ATOM     10  HN1 IND d   1       0.700   0.510  -1.655  0.00  0.00     0.298 HD
ENDROOT
TORSDOF 0
ENDMDL
