MODEL 1
REMARK minimizedAffinity -3.51313376
REMARK minimizedRMSD -1
REMARK  0 active torsions:
REMARK  status: ('A' for Active; 'I' for Inactive)
ROOT
ATOM      1  N1  IND d   1       0.710  -1.058   0.570  0.00  0.00    -0.196 N 
ATOM      2  C2  IND d   1       0.935  -0.943  -0.774  0.00  0.00     0.054 A 
ATOM      3  C3  IND d   1       0.367   0.187  -1.251  0.00  0.00    -0.031 A 
ATOM      4  C4  IND d   1      -0.894   2.043   0.011  0.00  0.00     0.051 A 
ATOM      5  C5  IND d   1      -1.382   2.365   1.246  0.00  0.00    -0.031 A 
ATOM      6  C6  IND d   1      -1.192   1.548   2.342  0.00  0.00     0.015 A 
ATOM      7  C7  IND d   1      -0.493   0.378   2.244  0.00  0.00    -0.016 A 
ATOM      8  C8  IND d   1      -0.002   0.044   0.990  0.00  0.00    -0.047 A 
ATOM      9  C9  IND d   1      -0.228   0.848  -0.134  0.00  0.00    -0.096 A 
ATOM     10  HN1 IND d   1       0.969  -1.709   1.068  0.00  0.00     0.298 HD
ENDROOT
TORSDOF 0
ENDMDL
