MODEL 1
REMARK minimizedAffinity -4.79618597
REMARK minimizedRMSD -1
REMARK  0 active torsions:
REMARK  status: ('A' for Active; 'I' for Inactive)
ROOT
ATOM      1  N1  IND d   1      -0.247  -0.407   0.585  0.00  0.00    -0.196 N 
ATOM      2  C2  IND d   1       0.718  -0.504  -0.378  0.00  0.00     0.054 A 
ATOM      3  C3  IND d   1       0.869   0.680  -1.013  0.00  0.00    -0.031 A 
ATOM      4  C4  IND d   1      -0.291   2.935  -0.568  0.00  0.00     0.051 A 
ATOM      5  C5  IND d   1      -1.275   3.509   0.187  0.00  0.00    -0.031 A 
ATOM      6  C6  IND d   1      -1.978   2.794   1.134  0.00  0.00     0.015 A 
ATOM      7  C7  IND d   1      -1.716   1.474   1.371  0.00  0.00    -0.016 A 
ATOM      8  C8  IND d   1      -0.722   0.886   0.601  0.00  0.00    -0.047 A 
ATOM      9  C9  IND d   1      -0.034   1.596  -0.392  0.00  0.00    -0.096 A 
ATOM     10  HN1 IND d   1      -0.513  -1.046   1.094  0.00  0.00     0.298 HD
ENDROOT
TORSDOF 0
ENDMDL
