MODEL 1
REMARK minimizedAffinity -5.74701834
REMARK minimizedRMSD -1
REMARK  0 active torsions:
REMARK  status: ('A' for Active; 'I' for Inactive)
ROOT
ATOM      1  N1  IND d   1       0.669   0.446  -0.646  0.00  0.00    -0.196 N 
ATOM      2  C2  IND d   1       0.473  -0.702   0.070  0.00  0.00     0.054 A 
ATOM      3  C3  IND d   1      -0.513  -0.527   0.978  0.00  0.00    -0.031 A 
ATOM      4  C4  IND d   1      -2.009   1.526   1.394  0.00  0.00     0.051 A 
ATOM      5  C5  IND d   1      -2.184   2.826   1.012  0.00  0.00    -0.031 A 
ATOM      6  C6  IND d   1      -1.403   3.411   0.037  0.00  0.00     0.015 A 
ATOM      7  C7  IND d   1      -0.421   2.710  -0.605  0.00  0.00    -0.016 A 
ATOM      8  C8  IND d   1      -0.236   1.391  -0.215  0.00  0.00    -0.047 A 
ATOM      9  C9  IND d   1      -0.997   0.805   0.805  0.00  0.00    -0.096 A 
ATOM     10  HN1 IND d   1       1.258   0.559  -1.263  0.00  0.00     0.298 HD
ENDROOT
TORSDOF 0
ENDMDL
