MODEL 1
REMARK minimizedAffinity -6.11989689
REMARK minimizedRMSD -1
REMARK  0 active torsions:
REMARK  status: ('A' for Active; 'I' for Inactive)
ROOT
ATOM      1  N1  IND d   1       0.902   0.521  -0.949  0.00  0.00    -0.196 N 
ATOM      2  C2  IND d   1       0.554  -0.698  -0.437  0.00  0.00     0.054 A 
ATOM      3  C3  IND d   1      -0.298  -0.546   0.603  0.00  0.00    -0.031 A 
ATOM      4  C4  IND d   1      -1.332   1.605   1.568  0.00  0.00     0.051 A 
ATOM      5  C5  IND d   1      -1.288   2.967   1.455  0.00  0.00    -0.031 A 
ATOM      6  C6  IND d   1      -0.497   3.595   0.514  0.00  0.00     0.015 A 
ATOM      7  C7  IND d   1       0.273   2.881  -0.360  0.00  0.00    -0.016 A 
ATOM      8  C8  IND d   1       0.236   1.499  -0.244  0.00  0.00    -0.047 A 
ATOM      9  C9  IND d   1      -0.532   0.857   0.737  0.00  0.00    -0.096 A 
ATOM     10  HN1 IND d   1       1.445   0.654  -1.602  0.00  0.00     0.298 HD
ENDROOT
TORSDOF 0
ENDMDL
