MODEL 1
REMARK minimizedAffinity -5.16328287
REMARK minimizedRMSD -1
REMARK  0 active torsions:
REMARK  status: ('A' for Active; 'I' for Inactive)
ROOT
ATOM      1  N1  IND d   1       0.326  -0.057  -0.724  0.00  0.00    -0.196 N 
ATOM      2  C2  IND d   1       0.437  -1.078   0.178  0.00  0.00     0.054 A 
ATOM      3  C3  IND d   1      -0.180  -0.752   1.336  0.00  0.00    -0.031 A 
ATOM      4  C4  IND d   1      -1.520   1.362   1.937  0.00  0.00     0.051 A 
ATOM      5  C5  IND d   1      -1.868   2.591   1.451  0.00  0.00    -0.031 A 
ATOM      6  C6  IND d   1      -1.497   3.008   0.188  0.00  0.00     0.015 A 
ATOM      7  C7  IND d   1      -0.771   2.203  -0.643  0.00  0.00    -0.016 A 
ATOM      8  C8  IND d   1      -0.410   0.957  -0.150  0.00  0.00    -0.047 A 
ATOM      9  C9  IND d   1      -0.747   0.545   1.146  0.00  0.00    -0.096 A 
ATOM     10  HN1 IND d   1       0.660  -0.049  -1.516  0.00  0.00     0.298 HD
ENDROOT
TORSDOF 0
ENDMDL
