MODEL 1
REMARK minimizedAffinity -4.42809343
REMARK minimizedRMSD -1
REMARK  0 active torsions:
REMARK  status: ('A' for Active; 'I' for Inactive)
ROOT
ATOM      1  N1  IND d   1      -1.933   2.817   1.465  0.00  0.00    -0.196 N 
ATOM      2  C2  IND d   1      -1.510   3.553   0.394  0.00  0.00     0.054 A 
ATOM      3  C3  IND d   1      -0.768   2.789  -0.439  0.00  0.00    -0.031 A 
ATOM      4  C4  IND d   1      -0.207   0.281  -0.293  0.00  0.00     0.051 A 
ATOM      5  C5  IND d   1      -0.340  -0.807   0.524  0.00  0.00    -0.031 A 
ATOM      6  C6  IND d   1      -1.027  -0.742   1.719  0.00  0.00     0.015 A 
ATOM      7  C7  IND d   1      -1.619   0.416   2.138  0.00  0.00    -0.016 A 
ATOM      8  C8  IND d   1      -1.480   1.524   1.315  0.00  0.00    -0.047 A 
ATOM      9  C9  IND d   1      -0.747   1.475   0.122  0.00  0.00    -0.096 A 
ATOM     10  HN1 IND d   1      -2.402   3.111   2.122  0.00  0.00     0.298 HD
ENDROOT
TORSDOF 0
ENDMDL
