MODEL 1
REMARK minimizedAffinity -5.41211128
REMARK minimizedRMSD -1
REMARK  0 active torsions:
REMARK  status: ('A' for Active; 'I' for Inactive)
ROOT
ATOM      1  N1  IND d   1       0.859   0.177  -0.383  0.00  0.00    -0.196 N 
ATOM      2  C2  IND d   1       0.544  -0.842   0.471  0.00  0.00     0.054 A 
ATOM      3  C3  IND d   1      -0.357  -0.426   1.389  0.00  0.00    -0.031 A 
ATOM      4  C4  IND d   1      -1.529   1.855   1.613  0.00  0.00     0.051 A 
ATOM      5  C5  IND d   1      -1.541   3.116   1.086  0.00  0.00    -0.031 A 
ATOM      6  C6  IND d   1      -0.740   3.468   0.019  0.00  0.00     0.015 A 
ATOM      7  C7  IND d   1       0.099   2.565  -0.570  0.00  0.00    -0.016 A 
ATOM      8  C8  IND d   1       0.119   1.286  -0.033  0.00  0.00    -0.047 A 
ATOM      9  C9  IND d   1      -0.660   0.934   1.076  0.00  0.00    -0.096 A 
ATOM     10  HN1 IND d   1       1.423   0.134  -1.030  0.00  0.00     0.298 HD
ENDROOT
TORSDOF 0
ENDMDL
