MODEL 1
REMARK minimizedAffinity 13.8447685
REMARK minimizedRMSD -1
REMARK  0 active torsions:
REMARK  status: ('A' for Active; 'I' for Inactive)
ROOT
ATOM      1  N1  IND d   1       5.257   1.497   2.393  0.00  0.00    -0.196 N 
ATOM      2  C2  IND d   1       4.816   0.570   1.489  0.00  0.00     0.054 A 
ATOM      3  C3  IND d   1       4.738  -0.649   2.068  0.00  0.00    -0.031 A 
ATOM      4  C4  IND d   1       5.184  -1.334   4.509  0.00  0.00     0.051 A 
ATOM      5  C5  IND d   1       5.642  -0.842   5.699  0.00  0.00    -0.031 A 
ATOM      6  C6  IND d   1       6.000   0.482   5.852  0.00  0.00     0.015 A 
ATOM      7  C7  IND d   1       5.901   1.370   4.818  0.00  0.00    -0.016 A 
ATOM      8  C8  IND d   1       5.443   0.873   3.606  0.00  0.00    -0.047 A 
ATOM      9  C9  IND d   1       5.119  -0.479   3.434  0.00  0.00    -0.096 A 
ATOM     10  HN1 IND d   1       5.394   2.330   2.230  0.00  0.00     0.298 HD
ENDROOT
TORSDOF 0
ENDMDL
