MODEL 1
REMARK minimizedAffinity 1.63933384
REMARK minimizedRMSD -1
REMARK  0 active torsions:
REMARK  status: ('A' for Active; 'I' for Inactive)
ROOT
ATOM      1  N1  IND d   1       6.000   5.039   4.707  0.00  0.00    -0.196 N 
ATOM      2  C2  IND d   1       5.995   5.999   3.734  0.00  0.00     0.054 A 
ATOM      3  C3  IND d   1       6.000   5.426   2.509  0.00  0.00    -0.031 A 
ATOM      4  C4  IND d   1       5.914   2.935   1.868  0.00  0.00     0.051 A 
ATOM      5  C5  IND d   1       5.943   1.681   2.411  0.00  0.00    -0.031 A 
ATOM      6  C6  IND d   1       5.991   1.478   3.775  0.00  0.00     0.015 A 
ATOM      7  C7  IND d   1       6.000   2.527   4.651  0.00  0.00    -0.016 A 
ATOM      8  C8  IND d   1       5.977   3.801   4.103  0.00  0.00    -0.047 A 
ATOM      9  C9  IND d   1       5.972   4.014   2.718  0.00  0.00    -0.096 A 
ATOM     10  HN1 IND d   1       6.014   5.184   5.555  0.00  0.00     0.298 HD
ENDROOT
TORSDOF 0
ENDMDL
