MODEL 1
REMARK minimizedAffinity 4.48774433
REMARK minimizedRMSD -1
REMARK  0 active torsions:
REMARK  status: ('A' for Active; 'I' for Inactive)
ROOT
ATOM      1  N1  IND d   1      -0.034   1.531   1.005  0.00  0.00    -0.196 N 
ATOM      2  C2  IND d   1       1.042   2.288   1.377  0.00  0.00     0.054 A 
ATOM      3  C3  IND d   1       2.169   1.821   0.795  0.00  0.00    -0.031 A 
ATOM      4  C4  IND d   1       2.466  -0.108  -0.883  0.00  0.00     0.051 A 
ATOM      5  C5  IND d   1       1.778  -1.117  -1.497  0.00  0.00    -0.031 A 
ATOM      6  C6  IND d   1       0.423  -1.296  -1.307  0.00  0.00     0.015 A 
ATOM      7  C7  IND d   1      -0.300  -0.463  -0.501  0.00  0.00    -0.016 A 
ATOM      8  C8  IND d   1       0.397   0.558   0.130  0.00  0.00    -0.047 A 
ATOM      9  C9  IND d   1       1.780   0.719  -0.026  0.00  0.00    -0.096 A 
ATOM     10  HN1 IND d   1      -0.843   1.643   1.272  0.00  0.00     0.298 HD
ENDROOT
TORSDOF 0
ENDMDL
