MODEL 1
REMARK minimizedAffinity 5.23205042
REMARK minimizedRMSD -1
REMARK  0 active torsions:
REMARK  status: ('A' for Active; 'I' for Inactive)
ROOT
ATOM      1  N1  IND d   1       5.996   4.766   2.359  0.00  0.00    -0.196 N 
ATOM      2  C2  IND d   1       5.976   6.000   2.948  0.00  0.00     0.054 A 
ATOM      3  C3  IND d   1       5.936   5.879   4.293  0.00  0.00    -0.031 A 
ATOM      4  C4  IND d   1       6.000   3.755   5.747  0.00  0.00     0.051 A 
ATOM      5  C5  IND d   1       5.983   2.391   5.662  0.00  0.00    -0.031 A 
ATOM      6  C6  IND d   1       5.973   1.736   4.448  0.00  0.00     0.015 A 
ATOM      7  C7  IND d   1       5.990   2.423   3.267  0.00  0.00    -0.016 A 
ATOM      8  C8  IND d   1       6.000   3.808   3.349  0.00  0.00    -0.047 A 
ATOM      9  C9  IND d   1       5.967   4.479   4.579  0.00  0.00    -0.096 A 
ATOM     10  HN1 IND d   1       6.005   4.614   1.513  0.00  0.00     0.298 HD
ENDROOT
TORSDOF 0
ENDMDL
