MODEL 1
REMARK minimizedAffinity 9.74180984
REMARK minimizedRMSD -1
REMARK  0 active torsions:
REMARK  status: ('A' for Active; 'I' for Inactive)
ROOT
ATOM      1  N1  IND d   1       5.827   3.897   1.657  0.00  0.00    -0.196 N 
ATOM      2  C2  IND d   1       5.808   5.245   1.431  0.00  0.00     0.054 A 
ATOM      3  C3  IND d   1       5.827   5.919   2.603  0.00  0.00    -0.031 A 
ATOM      4  C4  IND d   1       5.993   5.014   5.007  0.00  0.00     0.051 A 
ATOM      5  C5  IND d   1       5.999   3.849   5.721  0.00  0.00    -0.031 A 
ATOM      6  C6  IND d   1       5.949   2.615   5.105  0.00  0.00     0.015 A 
ATOM      7  C7  IND d   1       5.903   2.500   3.744  0.00  0.00    -0.016 A 
ATOM      8  C8  IND d   1       5.890   3.681   3.016  0.00  0.00    -0.047 A 
ATOM      9  C9  IND d   1       5.897   4.936   3.637  0.00  0.00    -0.096 A 
ATOM     10  HN1 IND d   1       5.803   3.286   1.052  0.00  0.00     0.298 HD
ENDROOT
TORSDOF 0
ENDMDL
