MODEL 1
REMARK minimizedAffinity 6.78682375
REMARK minimizedRMSD -1
REMARK  0 active torsions:
REMARK  status: ('A' for Active; 'I' for Inactive)
ROOT
ATOM      1  N1  IND d   1       0.732  -0.574  -2.606  0.00  0.00    -0.196 N 
ATOM      2  C2  IND d   1       1.795   0.078  -3.168  0.00  0.00     0.054 A 
ATOM      3  C3  IND d   1       2.348   0.930  -2.276  0.00  0.00    -0.031 A 
ATOM      4  C4  IND d   1       1.737   1.341   0.191  0.00  0.00     0.051 A 
ATOM      5  C5  IND d   1       0.815   1.006   1.142  0.00  0.00    -0.031 A 
ATOM      6  C6  IND d   1      -0.200   0.107   0.889  0.00  0.00     0.015 A 
ATOM      7  C7  IND d   1      -0.326  -0.502  -0.328  0.00  0.00    -0.016 A 
ATOM      8  C8  IND d   1       0.605  -0.159  -1.299  0.00  0.00    -0.047 A 
ATOM      9  C9  IND d   1       1.612   0.785  -1.060  0.00  0.00    -0.096 A 
ATOM     10  HN1 IND d   1       0.229  -1.147  -3.002  0.00  0.00     0.298 HD
ENDROOT
TORSDOF 0
ENDMDL
