MODEL 1
REMARK minimizedAffinity 10.1947374
REMARK minimizedRMSD -1
REMARK  0 active torsions:
REMARK  status: ('A' for Active; 'I' for Inactive)
ROOT
ATOM      1  N1  IND d   1       5.999   4.027   3.746  0.00  0.00    -0.196 N 
ATOM      2  C2  IND d   1       5.890   5.317   3.305  0.00  0.00     0.054 A 
ATOM      3  C3  IND d   1       4.600   5.611   3.025  0.00  0.00    -0.031 A 
ATOM      4  C4  IND d   1       2.492   4.161   3.314  0.00  0.00     0.051 A 
ATOM      5  C5  IND d   1       2.091   2.899   3.650  0.00  0.00    -0.031 A 
ATOM      6  C6  IND d   1       2.990   1.929   4.046  0.00  0.00     0.015 A 
ATOM      7  C7  IND d   1       4.328   2.191   4.131  0.00  0.00    -0.016 A 
ATOM      8  C8  IND d   1       4.740   3.469   3.784  0.00  0.00    -0.047 A 
ATOM      9  C9  IND d   1       3.837   4.445   3.341  0.00  0.00    -0.096 A 
ATOM     10  HN1 IND d   1       6.731   3.631   3.962  0.00  0.00     0.298 HD
ENDROOT
TORSDOF 0
ENDMDL
