MODEL 1
REMARK minimizedAffinity 16.8857899
REMARK minimizedRMSD -1
REMARK  0 active torsions:
REMARK  status: ('A' for Active; 'I' for Inactive)
ROOT
ATOM      1  N1  IND d   1       0.503   0.188   0.407  0.00  0.00    -0.196 N 
ATOM      2  C2  IND d   1      -0.749  -0.005   0.923  0.00  0.00     0.054 A 
ATOM      3  C3  IND d   1      -1.161   1.099   1.585  0.00  0.00    -0.031 A 
ATOM      4  C4  IND d   1       0.014   3.373   1.862  0.00  0.00     0.051 A 
ATOM      5  C5  IND d   1       1.190   4.017   1.598  0.00  0.00    -0.031 A 
ATOM      6  C6  IND d   1       2.217   3.407   0.907  0.00  0.00     0.015 A 
ATOM      7  C7  IND d   1       2.101   2.127   0.443  0.00  0.00    -0.016 A 
ATOM      8  C8  IND d   1       0.910   1.468   0.715  0.00  0.00    -0.047 A 
ATOM      9  C9  IND d   1      -0.119   2.067   1.452  0.00  0.00    -0.096 A 
ATOM     10  HN1 IND d   1       0.958  -0.391  -0.035  0.00  0.00     0.298 HD
ENDROOT
TORSDOF 0
ENDMDL
