MODEL 1
REMARK minimizedAffinity 7.34097528
REMARK minimizedRMSD -1
REMARK  0 active torsions:
REMARK  status: ('A' for Active; 'I' for Inactive)
ROOT
ATOM      1  N1  IND d   1       5.940   5.997   4.364  0.00  0.00    -0.196 N 
ATOM      2  C2  IND d   1       5.933   5.001   5.300  0.00  0.00     0.054 A 
ATOM      3  C3  IND d   1       5.915   3.790   4.700  0.00  0.00    -0.031 A 
ATOM      4  C4  IND d   1       5.997   3.207   2.194  0.00  0.00     0.051 A 
ATOM      5  C5  IND d   1       5.975   3.779   0.953  0.00  0.00    -0.031 A 
ATOM      6  C6  IND d   1       5.943   5.148   0.782  0.00  0.00     0.015 A 
ATOM      7  C7  IND d   1       5.942   6.000   1.851  0.00  0.00    -0.016 A 
ATOM      8  C8  IND d   1       5.957   5.421   3.112  0.00  0.00    -0.047 A 
ATOM      9  C9  IND d   1       5.947   4.032   3.292  0.00  0.00    -0.096 A 
ATOM     10  HN1 IND d   1       5.934   6.841   4.529  0.00  0.00     0.298 HD
ENDROOT
TORSDOF 0
ENDMDL
