MODEL 1
REMARK minimizedAffinity 8.63417435
REMARK minimizedRMSD -1
REMARK  0 active torsions:
REMARK  status: ('A' for Active; 'I' for Inactive)
ROOT
ATOM      1  N1  IND d   1       5.989   5.323   4.639  0.00  0.00    -0.196 N 
ATOM      2  C2  IND d   1       5.985   5.583   3.297  0.00  0.00     0.054 A 
ATOM      3  C3  IND d   1       5.999   4.428   2.595  0.00  0.00    -0.031 A 
ATOM      4  C4  IND d   1       5.926   1.998   3.441  0.00  0.00     0.051 A 
ATOM      5  C5  IND d   1       5.958   1.255   4.588  0.00  0.00    -0.031 A 
ATOM      6  C6  IND d   1       5.999   1.843   5.836  0.00  0.00     0.015 A 
ATOM      7  C7  IND d   1       5.999   3.201   5.984  0.00  0.00    -0.016 A 
ATOM      8  C8  IND d   1       5.974   3.958   4.822  0.00  0.00    -0.047 A 
ATOM      9  C9  IND d   1       5.975   3.367   3.551  0.00  0.00    -0.096 A 
ATOM     10  HN1 IND d   1       5.998   5.914   5.264  0.00  0.00     0.298 HD
ENDROOT
TORSDOF 0
ENDMDL
