MODEL 1
REMARK minimizedAffinity -2.46162963
REMARK minimizedRMSD -1
REMARK  0 active torsions:
REMARK  status: ('A' for Active; 'I' for Inactive)
ROOT
ATOM      1  N1  IND d   1      -1.000  -0.474  -0.813  0.00  0.00    -0.196 N 
ATOM      2  C2  IND d   1       0.367  -0.478  -0.802  0.00  0.00     0.054 A 
ATOM      3  C3  IND d   1       0.832  -1.716  -0.518  0.00  0.00    -0.031 A 
ATOM      4  C4  IND d   1      -0.471  -3.903  -0.136  0.00  0.00     0.051 A 
ATOM      5  C5  IND d   1      -1.740  -4.393  -0.011  0.00  0.00    -0.031 A 
ATOM      6  C6  IND d   1      -2.850  -3.586  -0.153  0.00  0.00     0.015 A 
ATOM      7  C7  IND d   1      -2.732  -2.255  -0.438  0.00  0.00    -0.016 A 
ATOM      8  C8  IND d   1      -1.444  -1.753  -0.558  0.00  0.00    -0.047 A 
ATOM      9  C9  IND d   1      -0.313  -2.558  -0.373  0.00  0.00    -0.096 A 
ATOM     10  HN1 IND d   1      -1.498   0.212  -0.956  0.00  0.00     0.298 HD
ENDROOT
TORSDOF 0
ENDMDL
