MODEL 1
REMARK minimizedAffinity 4.10983658
REMARK minimizedRMSD -1
REMARK  0 active torsions:
REMARK  status: ('A' for Active; 'I' for Inactive)
ROOT
ATOM      1  N1  IND d   1      -0.753  -2.115   0.118  0.00  0.00    -0.196 N 
ATOM      2  C2  IND d   1      -1.785  -1.328  -0.313  0.00  0.00     0.054 A 
ATOM      3  C3  IND d   1      -2.938  -2.034  -0.335  0.00  0.00    -0.031 A 
ATOM      4  C4  IND d   1      -3.381  -4.464   0.391  0.00  0.00     0.051 A 
ATOM      5  C5  IND d   1      -2.743  -5.593   0.820  0.00  0.00    -0.031 A 
ATOM      6  C6  IND d   1      -1.382  -5.621   1.045  0.00  0.00     0.015 A 
ATOM      7  C7  IND d   1      -0.606  -4.512   0.858  0.00  0.00    -0.016 A 
ATOM      8  C8  IND d   1      -1.250  -3.365   0.415  0.00  0.00    -0.047 A 
ATOM      9  C9  IND d   1      -2.624  -3.342   0.145  0.00  0.00    -0.096 A 
ATOM     10  HN1 IND d   1       0.068  -1.870   0.191  0.00  0.00     0.298 HD
ENDROOT
TORSDOF 0
ENDMDL
