MODEL 1
REMARK minimizedAffinity 3.92961407
REMARK minimizedRMSD -1
REMARK  0 active torsions:
REMARK  status: ('A' for Active; 'I' for Inactive)
ROOT
ATOM      1  N1  IND d   1       3.780   5.463   5.554  0.00  0.00    -0.196 N 
ATOM      2  C2  IND d   1       4.957   6.000   5.998  0.00  0.00     0.054 A 
ATOM      3  C3  IND d   1       5.999   5.479   5.313  0.00  0.00    -0.031 A 
ATOM      4  C4  IND d   1       5.999   3.810   3.354  0.00  0.00     0.051 A 
ATOM      5  C5  IND d   1       5.167   3.012   2.619  0.00  0.00    -0.031 A 
ATOM      6  C6  IND d   1       3.803   2.992   2.827  0.00  0.00     0.015 A 
ATOM      7  C7  IND d   1       3.216   3.781   3.775  0.00  0.00    -0.016 A 
ATOM      8  C8  IND d   1       4.058   4.588   4.528  0.00  0.00    -0.047 A 
ATOM      9  C9  IND d   1       5.447   4.581   4.350  0.00  0.00    -0.096 A 
ATOM     10  HN1 IND d   1       2.999   5.643   5.864  0.00  0.00     0.298 HD
ENDROOT
TORSDOF 0
ENDMDL
