MODEL 1
REMARK minimizedAffinity 5.22505522
REMARK minimizedRMSD -1
REMARK  0 active torsions:
REMARK  status: ('A' for Active; 'I' for Inactive)
ROOT
ATOM      1  N1  IND d   1       1.294  -4.447   0.407  0.00  0.00    -0.196 N 
ATOM      2  C2  IND d   1       0.999  -3.112   0.420  0.00  0.00     0.054 A 
ATOM      3  C3  IND d   1       1.369  -2.560   1.597  0.00  0.00    -0.031 A 
ATOM      4  C4  IND d   1       2.568  -3.639   3.604  0.00  0.00     0.051 A 
ATOM      5  C5  IND d   1       3.011  -4.843   4.074  0.00  0.00    -0.031 A 
ATOM      6  C6  IND d   1       2.905  -6.000   3.329  0.00  0.00     0.015 A 
ATOM      7  C7  IND d   1       2.359  -5.993   2.077  0.00  0.00    -0.016 A 
ATOM      8  C8  IND d   1       1.902  -4.773   1.599  0.00  0.00    -0.047 A 
ATOM      9  C9  IND d   1       1.968  -3.604   2.368  0.00  0.00    -0.096 A 
ATOM     10  HN1 IND d   1       1.127  -4.991  -0.237  0.00  0.00     0.298 HD
ENDROOT
TORSDOF 0
ENDMDL
