MODEL 1
REMARK minimizedAffinity 5.95364666
REMARK minimizedRMSD -1
REMARK  0 active torsions:
REMARK  status: ('A' for Active; 'I' for Inactive)
ROOT
ATOM      1  N1  IND d   1       3.964   1.766  -0.896  0.00  0.00    -0.196 N 
ATOM      2  C2  IND d   1       2.845   2.102  -0.186  0.00  0.00     0.054 A 
ATOM      3  C3  IND d   1       2.638   3.437  -0.239  0.00  0.00    -0.031 A 
ATOM      4  C4  IND d   1       3.950   5.246  -1.516  0.00  0.00     0.051 A 
ATOM      5  C5  IND d   1       5.071   5.429  -2.276  0.00  0.00    -0.031 A 
ATOM      6  C6  IND d   1       5.896   4.379  -2.624  0.00  0.00     0.015 A 
ATOM      7  C7  IND d   1       5.622   3.099  -2.233  0.00  0.00    -0.016 A 
ATOM      8  C8  IND d   1       4.488   2.910  -1.455  0.00  0.00    -0.047 A 
ATOM      9  C9  IND d   1       3.671   3.978  -1.063  0.00  0.00    -0.096 A 
ATOM     10  HN1 IND d   1       4.285   0.973  -0.979  0.00  0.00     0.298 HD
ENDROOT
TORSDOF 0
ENDMDL
