MODEL 1
REMARK minimizedAffinity 3.13037181
REMARK minimizedRMSD -1
REMARK  0 active torsions:
REMARK  status: ('A' for Active; 'I' for Inactive)
ROOT
ATOM      1  N1  IND d   1       0.280   1.505   1.368  0.00  0.00    -0.196 N 
ATOM      2  C2  IND d   1       1.065   2.618   1.480  0.00  0.00     0.054 A 
ATOM      3  C3  IND d   1       2.190   2.477   0.743  0.00  0.00    -0.031 A 
ATOM      4  C4  IND d   1       2.901   0.544  -0.802  0.00  0.00     0.051 A 
ATOM      5  C5  IND d   1       2.529  -0.709  -1.201  0.00  0.00    -0.031 A 
ATOM      6  C6  IND d   1       1.363  -1.299  -0.756  0.00  0.00     0.015 A 
ATOM      7  C7  IND d   1       0.517  -0.650   0.098  0.00  0.00    -0.016 A 
ATOM      8  C8  IND d   1       0.895   0.619   0.510  0.00  0.00    -0.047 A 
ATOM      9  C9  IND d   1       2.098   1.207   0.096  0.00  0.00    -0.096 A 
ATOM     10  HN1 IND d   1      -0.471   1.378   1.767  0.00  0.00     0.298 HD
ENDROOT
TORSDOF 0
ENDMDL
