MODEL 1
REMARK minimizedAffinity 16.4639568
REMARK minimizedRMSD -1
REMARK  0 active torsions:
REMARK  status: ('A' for Active; 'I' for Inactive)
ROOT
ATOM      1  N1  IND d   1       3.398  -5.896   3.778  0.00  0.00    -0.196 N 
ATOM      2  C2  IND d   1       4.761  -5.905   3.674  0.00  0.00     0.054 A 
ATOM      3  C3  IND d   1       5.133  -5.966   2.376  0.00  0.00    -0.031 A 
ATOM      4  C4  IND d   1       3.674  -5.957   0.254  0.00  0.00     0.051 A 
ATOM      5  C5  IND d   1       2.372  -5.994  -0.157  0.00  0.00    -0.031 A 
ATOM      6  C6  IND d   1       1.323  -5.997   0.740  0.00  0.00     0.015 A 
ATOM      7  C7  IND d   1       1.540  -5.952   2.088  0.00  0.00    -0.016 A 
ATOM      8  C8  IND d   1       2.861  -5.922   2.510  0.00  0.00    -0.047 A 
ATOM      9  C9  IND d   1       3.930  -5.961   1.605  0.00  0.00    -0.096 A 
ATOM     10  HN1 IND d   1       2.952  -5.877   4.513  0.00  0.00     0.298 HD
ENDROOT
TORSDOF 0
ENDMDL
