MODEL 1
REMARK minimizedAffinity 12.0682211
REMARK minimizedRMSD -1
REMARK  0 active torsions:
REMARK  status: ('A' for Active; 'I' for Inactive)
ROOT
ATOM      1  N1  IND d   1       5.398  -5.968   2.213  0.00  0.00    -0.196 N 
ATOM      2  C2  IND d   1       5.863  -5.999   3.498  0.00  0.00     0.054 A 
ATOM      3  C3  IND d   1       4.832  -5.980   4.372  0.00  0.00    -0.031 A 
ATOM      4  C4  IND d   1       2.299  -6.000   3.914  0.00  0.00     0.051 A 
ATOM      5  C5  IND d   1       1.388  -5.937   2.897  0.00  0.00    -0.031 A 
ATOM      6  C6  IND d   1       1.774  -5.882   1.574  0.00  0.00     0.015 A 
ATOM      7  C7  IND d   1       3.093  -5.901   1.215  0.00  0.00    -0.016 A 
ATOM      8  C8  IND d   1       4.021  -5.958   2.245  0.00  0.00    -0.047 A 
ATOM      9  C9  IND d   1       3.635  -5.970   3.592  0.00  0.00    -0.096 A 
ATOM     10  HN1 IND d   1       5.884  -5.957   1.504  0.00  0.00     0.298 HD
ENDROOT
TORSDOF 0
ENDMDL
