MODEL 1
REMARK minimizedAffinity -4.42250252
REMARK minimizedRMSD -1
REMARK  0 active torsions:
REMARK  status: ('A' for Active; 'I' for Inactive)
ROOT
ATOM      1  C   UNL d   1      -3.253  -1.360  -0.375  0.00  0.00    -0.002 A 
ATOM      2  C1  UNL d   1      -2.576  -1.929   0.694  0.00  0.00     0.010 A 
ATOM      3  C2  UNL d   1      -1.233  -1.627   0.927  0.00  0.00     0.041 A 
ATOM      4  C3  UNL d   1      -0.576  -0.732   0.059  0.00  0.00    -0.075 A 
ATOM      5  S   UNL d   1       1.066  -0.214   0.150  0.00  0.00     0.015 SA
ATOM      6  C4  UNL d   1       0.907   0.777  -1.228  0.00  0.00     0.022 A 
ATOM      7  C5  UNL d   1      -0.360   0.725  -1.757  0.00  0.00     0.026 A 
ATOM      8  C6  UNL d   1      -1.236  -0.145  -1.023  0.00  0.00    -0.082 A 
ATOM      9  C7  UNL d   1      -2.598  -0.473  -1.233  0.00  0.00     0.045 A 
ENDROOT
TORSDOF 0
ENDMDL
