MODEL 1
REMARK minimizedAffinity -3.57816505
REMARK minimizedRMSD -1
REMARK  0 active torsions:
REMARK  status: ('A' for Active; 'I' for Inactive)
ROOT
ATOM      1  C   UNL d   1      -3.243  -1.772   0.452  0.00  0.00    -0.002 A 
ATOM      2  C1  UNL d   1      -2.454  -2.194   1.513  0.00  0.00     0.010 A 
ATOM      3  C2  UNL d   1      -1.138  -1.747   1.641  0.00  0.00     0.041 A 
ATOM      4  C3  UNL d   1      -0.622  -0.860   0.676  0.00  0.00    -0.075 A 
ATOM      5  S   UNL d   1       0.962  -0.180   0.629  0.00  0.00     0.015 SA
ATOM      6  C4  UNL d   1       0.629   0.686  -0.800  0.00  0.00     0.022 A 
ATOM      7  C5  UNL d   1      -0.655   0.474  -1.245  0.00  0.00     0.026 A 
ATOM      8  C6  UNL d   1      -1.397  -0.420  -0.401  0.00  0.00    -0.082 A 
ATOM      9  C7  UNL d   1      -2.728  -0.891  -0.503  0.00  0.00     0.045 A 
ENDROOT
TORSDOF 0
ENDMDL
