MODEL 1
REMARK minimizedAffinity -3.1851685
REMARK minimizedRMSD -1
REMARK  0 active torsions:
REMARK  status: ('A' for Active; 'I' for Inactive)
ROOT
ATOM      1  C   UNL d   1      -2.192  -0.421  -1.437  0.00  0.00    -0.002 A 
ATOM      2  C1  UNL d   1      -2.273  -0.886  -0.132  0.00  0.00     0.010 A 
ATOM      3  C2  UNL d   1      -1.255  -0.614   0.784  0.00  0.00     0.041 A 
ATOM      4  C3  UNL d   1      -0.145   0.144   0.363  0.00  0.00    -0.075 A 
ATOM      5  S   UNL d   1       1.221   0.602   1.311  0.00  0.00     0.015 SA
ATOM      6  C4  UNL d   1       1.944   1.427   0.007  0.00  0.00     0.022 A 
ATOM      7  C5  UNL d   1       1.176   1.364  -1.132  0.00  0.00     0.026 A 
ATOM      8  C6  UNL d   1      -0.041   0.624  -0.945  0.00  0.00    -0.082 A 
ATOM      9  C7  UNL d   1      -1.088   0.330  -1.851  0.00  0.00     0.045 A 
ENDROOT
TORSDOF 0
ENDMDL
