MODEL 1
REMARK minimizedAffinity -5.32473516
REMARK minimizedRMSD -1
REMARK  0 active torsions:
REMARK  status: ('A' for Active; 'I' for Inactive)
ROOT
ATOM      1  C   UNL d   1      -2.660  -2.465   1.496  0.00  0.00    -0.002 A 
ATOM      2  C1  UNL d   1      -1.339  -2.638   1.885  0.00  0.00     0.010 A 
ATOM      3  C2  UNL d   1      -0.309  -1.978   1.212  0.00  0.00     0.041 A 
ATOM      4  C3  UNL d   1      -0.632  -1.131   0.133  0.00  0.00    -0.075 A 
ATOM      5  S   UNL d   1       0.463  -0.220  -0.837  0.00  0.00     0.015 SA
ATOM      6  C4  UNL d   1      -0.796   0.421  -1.790  0.00  0.00     0.022 A 
ATOM      7  C5  UNL d   1      -2.029  -0.039  -1.391  0.00  0.00     0.026 A 
ATOM      8  C6  UNL d   1      -1.955  -0.941  -0.276  0.00  0.00    -0.082 A 
ATOM      9  C7  UNL d   1      -2.977  -1.624   0.426  0.00  0.00     0.045 A 
ENDROOT
TORSDOF 0
ENDMDL
