MODEL 1
REMARK minimizedAffinity -3.67526126
REMARK minimizedRMSD -1
REMARK  0 active torsions:
REMARK  status: ('A' for Active; 'I' for Inactive)
ROOT
ATOM      1  C   UNL d   1      -2.838  -1.906   1.205  0.00  0.00    -0.002 A 
ATOM      2  C1  UNL d   1      -3.336  -1.437  -0.002  0.00  0.00     0.010 A 
ATOM      3  C2  UNL d   1      -2.504  -0.768  -0.903  0.00  0.00     0.041 A 
ATOM      4  C3  UNL d   1      -1.149  -0.580  -0.567  0.00  0.00    -0.075 A 
ATOM      5  S   UNL d   1       0.056   0.209  -1.515  0.00  0.00     0.015 SA
ATOM      6  C4  UNL d   1       1.262  -0.060  -0.340  0.00  0.00     0.022 A 
ATOM      7  C5  UNL d   1       0.774  -0.733   0.755  0.00  0.00     0.026 A 
ATOM      8  C6  UNL d   1      -0.624  -1.044   0.642  0.00  0.00    -0.082 A 
ATOM      9  C7  UNL d   1      -1.493  -1.717   1.534  0.00  0.00     0.045 A 
ENDROOT
TORSDOF 0
ENDMDL
