MODEL 1
REMARK minimizedAffinity -2.93725538
REMARK minimizedRMSD -1
REMARK  0 active torsions:
REMARK  status: ('A' for Active; 'I' for Inactive)
ROOT
ATOM      1  C   UNL d   1      -3.108  -1.476  -0.233  0.00  0.00    -0.002 A 
ATOM      2  C1  UNL d   1      -2.569  -2.156   0.850  0.00  0.00     0.010 A 
ATOM      3  C2  UNL d   1      -1.265  -1.896   1.274  0.00  0.00     0.041 A 
ATOM      4  C3  UNL d   1      -0.504  -0.930   0.587  0.00  0.00    -0.075 A 
ATOM      5  S   UNL d   1       1.115  -0.446   0.930  0.00  0.00     0.015 SA
ATOM      6  C4  UNL d   1       1.129   0.677  -0.353  0.00  0.00     0.022 A 
ATOM      7  C5  UNL d   1      -0.064   0.695  -1.036  0.00  0.00     0.026 A 
ATOM      8  C6  UNL d   1      -1.025  -0.231  -0.505  0.00  0.00    -0.082 A 
ATOM      9  C7  UNL d   1      -2.350  -0.518  -0.912  0.00  0.00     0.045 A 
ENDROOT
TORSDOF 0
ENDMDL
