MODEL 1
REMARK minimizedAffinity -4.815516
REMARK minimizedRMSD -1
REMARK  0 active torsions:
REMARK  status: ('A' for Active; 'I' for Inactive)
ROOT
ATOM      1  C   UNL d   1      -3.126  -1.793   0.001  0.00  0.00    -0.002 A 
ATOM      2  C1  UNL d   1      -2.397  -2.337   1.049  0.00  0.00     0.010 A 
ATOM      3  C2  UNL d   1      -1.099  -1.897   1.316  0.00  0.00     0.041 A 
ATOM      4  C3  UNL d   1      -0.541  -0.890   0.504  0.00  0.00    -0.075 A 
ATOM      5  S   UNL d   1       1.031  -0.194   0.644  0.00  0.00     0.015 SA
ATOM      6  C4  UNL d   1       0.772   0.842  -0.684  0.00  0.00     0.022 A 
ATOM      7  C5  UNL d   1      -0.478   0.675  -1.233  0.00  0.00     0.026 A 
ATOM      8  C6  UNL d   1      -1.255  -0.326  -0.557  0.00  0.00    -0.082 A 
ATOM      9  C7  UNL d   1      -2.568  -0.794  -0.802  0.00  0.00     0.045 A 
ENDROOT
TORSDOF 0
ENDMDL
