MODEL 1
REMARK minimizedAffinity -2.27700472
REMARK minimizedRMSD -1
REMARK  0 active torsions:
REMARK  status: ('A' for Active; 'I' for Inactive)
ROOT
ATOM      1  C   UNL d   1      -1.988   0.141  -1.015  0.00  0.00    -0.002 A 
ATOM      2  C1  UNL d   1      -1.927  -1.031  -0.276  0.00  0.00     0.010 A 
ATOM      3  C2  UNL d   1      -0.759  -1.381   0.405  0.00  0.00     0.041 A 
ATOM      4  C3  UNL d   1       0.356  -0.524   0.332  0.00  0.00    -0.075 A 
ATOM      5  S   UNL d   1       1.891  -0.747   1.084  0.00  0.00     0.015 SA
ATOM      6  C4  UNL d   1       2.501   0.709   0.443  0.00  0.00     0.022 A 
ATOM      7  C5  UNL d   1       1.570   1.362  -0.329  0.00  0.00     0.026 A 
ATOM      8  C6  UNL d   1       0.318   0.663  -0.406  0.00  0.00    -0.082 A 
ATOM      9  C7  UNL d   1      -0.880   0.989  -1.086  0.00  0.00     0.045 A 
ENDROOT
TORSDOF 0
ENDMDL
