MODEL 1
REMARK minimizedAffinity -6.0960412
REMARK minimizedRMSD -1
REMARK  0 active torsions:
REMARK  status: ('A' for Active; 'I' for Inactive)
ROOT
ATOM      1  C   UNL d   1      -3.414  -1.690   0.000  0.00  0.00    -0.002 A 
ATOM      2  C1  UNL d   1      -2.625  -2.250   0.995  0.00  0.00     0.010 A 
ATOM      3  C2  UNL d   1      -1.284  -1.885   1.127  0.00  0.00     0.041 A 
ATOM      4  C3  UNL d   1      -0.744  -0.938   0.235  0.00  0.00    -0.075 A 
ATOM      5  S   UNL d   1       0.872  -0.339   0.207  0.00  0.00     0.015 SA
ATOM      6  C4  UNL d   1       0.553   0.675  -1.125  0.00  0.00     0.022 A 
ATOM      7  C5  UNL d   1      -0.750   0.572  -1.551  0.00  0.00     0.026 A 
ATOM      8  C6  UNL d   1      -1.519  -0.359  -0.774  0.00  0.00    -0.082 A 
ATOM      9  C7  UNL d   1      -2.876  -0.750  -0.883  0.00  0.00     0.045 A 
ENDROOT
TORSDOF 0
ENDMDL
