MODEL 1
REMARK minimizedAffinity -4.83255339
REMARK minimizedRMSD -1
REMARK  0 active torsions:
REMARK  status: ('A' for Active; 'I' for Inactive)
ROOT
ATOM      1  C   UNL d   1      -3.428  -1.169  -0.361  0.00  0.00    -0.002 A 
ATOM      2  C1  UNL d   1      -3.040  -1.628   0.890  0.00  0.00     0.010 A 
ATOM      3  C2  UNL d   1      -1.714  -1.506   1.312  0.00  0.00     0.041 A 
ATOM      4  C3  UNL d   1      -0.776  -0.907   0.447  0.00  0.00    -0.075 A 
ATOM      5  S   UNL d   1       0.901  -0.650   0.751  0.00  0.00     0.015 SA
ATOM      6  C4  UNL d   1       1.142   0.076  -0.772  0.00  0.00     0.022 A 
ATOM      7  C5  UNL d   1      -0.018   0.129  -1.507  0.00  0.00     0.026 A 
ATOM      8  C6  UNL d   1      -1.143  -0.436  -0.816  0.00  0.00    -0.082 A 
ATOM      9  C7  UNL d   1      -2.495  -0.575  -1.215  0.00  0.00     0.045 A 
ENDROOT
TORSDOF 0
ENDMDL
