MODEL 1
REMARK minimizedAffinity -4.41719627
REMARK minimizedRMSD -1
REMARK  0 active torsions:
REMARK  status: ('A' for Active; 'I' for Inactive)
ROOT
ATOM      1  C   UNL d   1      -3.209  -1.122  -0.230  0.00  0.00    -0.002 A 
ATOM      2  C1  UNL d   1      -2.629  -1.638   0.920  0.00  0.00     0.010 A 
ATOM      3  C2  UNL d   1      -1.271  -1.441   1.181  0.00  0.00     0.041 A 
ATOM      4  C3  UNL d   1      -0.500  -0.708   0.258  0.00  0.00    -0.075 A 
ATOM      5  S   UNL d   1       1.181  -0.340   0.368  0.00  0.00     0.015 SA
ATOM      6  C4  UNL d   1       1.168   0.512  -1.108  0.00  0.00     0.022 A 
ATOM      7  C5  UNL d   1      -0.080   0.525  -1.685  0.00  0.00     0.026 A 
ATOM      8  C6  UNL d   1      -1.062  -0.177  -0.907  0.00  0.00    -0.082 A 
ATOM      9  C7  UNL d   1      -2.441  -0.395  -1.143  0.00  0.00     0.045 A 
ENDROOT
TORSDOF 0
ENDMDL
