MODEL 1
REMARK minimizedAffinity -3.31632519
REMARK minimizedRMSD -1
REMARK  0 active torsions:
REMARK  status: ('A' for Active; 'I' for Inactive)
ROOT
ATOM      1  C4' PXY d   1       4.887   1.631  -6.000  0.00  0.00     0.077 C 
ATOM      2  C1' PXY d   1       4.815   6.000  -2.215  0.00  0.00     0.077 C 
ATOM      3  C1  PXY d   1       4.822   4.851  -3.203  0.00  0.00    -0.082 A 
ATOM      4  C2  PXY d   1       5.975   4.354  -3.621  0.00  0.00     0.003 A 
ATOM      5  C3  PXY d   1       6.000   3.336  -4.539  0.00  0.00     0.003 A 
ATOM      6  C4  PXY d   1       4.832   2.785  -4.995  0.00  0.00    -0.082 A 
ATOM      7  C5  PXY d   1       3.651   3.280  -4.566  0.00  0.00     0.003 A 
ATOM      8  C6  PXY d   1       3.648   4.340  -3.665  0.00  0.00     0.003 A 
ENDROOT
TORSDOF 0
ENDMDL
