MODEL 1
REMARK minimizedAffinity 3.17769337
REMARK minimizedRMSD -1
REMARK  0 active torsions:
REMARK  status: ('A' for Active; 'I' for Inactive)
ROOT
ATOM      1  C4' PXY d   1       5.830   5.082  -0.706  0.00  0.00     0.077 C 
ATOM      2  C1' PXY d   1       3.640   5.861  -5.998  0.00  0.00     0.077 C 
ATOM      3  C1  PXY d   1       4.202   5.657  -4.605  0.00  0.00    -0.082 A 
ATOM      4  C2  PXY d   1       5.464   5.968  -4.358  0.00  0.00     0.003 A 
ATOM      5  C3  PXY d   1       5.998   5.760  -3.112  0.00  0.00     0.003 A 
ATOM      6  C4  PXY d   1       5.217   5.280  -2.095  0.00  0.00    -0.082 A 
ATOM      7  C5  PXY d   1       3.925   4.971  -2.337  0.00  0.00     0.003 A 
ATOM      8  C6  PXY d   1       3.414   5.150  -3.619  0.00  0.00     0.003 A 
ENDROOT
TORSDOF 0
ENDMDL
