MODEL 1
REMARK minimizedAffinity -0.126629129
REMARK minimizedRMSD -1
REMARK  0 active torsions:
REMARK  status: ('A' for Active; 'I' for Inactive)
ROOT
ATOM      1  C4' PXY d   1       0.721  -1.835  -1.811  0.00  0.00     0.077 C 
ATOM      2  C1' PXY d   1      -1.810  -5.931  -5.010  0.00  0.00     0.077 C 
ATOM      3  C1  PXY d   1      -1.150  -4.848  -4.180  0.00  0.00    -0.082 A 
ATOM      4  C2  PXY d   1      -0.148  -5.160  -3.375  0.00  0.00     0.003 A 
ATOM      5  C3  PXY d   1       0.439  -4.198  -2.593  0.00  0.00     0.003 A 
ATOM      6  C4  PXY d   1       0.031  -2.894  -2.675  0.00  0.00    -0.082 A 
ATOM      7  C5  PXY d   1      -0.984  -2.566  -3.502  0.00  0.00     0.003 A 
ATOM      8  C6  PXY d   1      -1.594  -3.564  -4.257  0.00  0.00     0.003 A 
ENDROOT
TORSDOF 0
ENDMDL
