MODEL 1
REMARK minimizedAffinity -5.16097927
REMARK minimizedRMSD -1
REMARK  0 active torsions:
REMARK  status: ('A' for Active; 'I' for Inactive)
ROOT
ATOM      1  C4' PXY d   1       5.233   2.420  -6.000  0.00  0.00     0.077 C 
ATOM      2  C1' PXY d   1       4.059   5.854  -1.500  0.00  0.00     0.077 C 
ATOM      3  C1  PXY d   1       4.379   4.958  -2.680  0.00  0.00    -0.082 A 
ATOM      4  C2  PXY d   1       3.409   4.581  -3.497  0.00  0.00     0.003 A 
ATOM      5  C3  PXY d   1       3.676   3.744  -4.551  0.00  0.00     0.003 A 
ATOM      6  C4  PXY d   1       4.957   3.332  -4.801  0.00  0.00    -0.082 A 
ATOM      7  C5  PXY d   1       5.954   3.721  -3.978  0.00  0.00     0.003 A 
ATOM      8  C6  PXY d   1       5.656   4.537  -2.890  0.00  0.00     0.003 A 
ENDROOT
TORSDOF 0
ENDMDL
