MODEL 1
REMARK minimizedAffinity 3.08145428
REMARK minimizedRMSD -1
REMARK  0 active torsions:
REMARK  status: ('A' for Active; 'I' for Inactive)
ROOT
ATOM      1  C4' PXY d   1       6.000   5.310  -5.994  0.00  0.00     0.077 C 
ATOM      2  C1' PXY d   1       3.337   4.504  -0.927  0.00  0.00     0.077 C 
ATOM      3  C1  PXY d   1       4.025   4.709  -2.262  0.00  0.00    -0.082 A 
ATOM      4  C2  PXY d   1       5.333   4.904  -2.300  0.00  0.00     0.003 A 
ATOM      5  C3  PXY d   1       5.968   5.123  -3.496  0.00  0.00     0.003 A 
ATOM      6  C4  PXY d   1       5.264   5.089  -4.669  0.00  0.00    -0.082 A 
ATOM      7  C5  PXY d   1       3.930   4.881  -4.640  0.00  0.00     0.003 A 
ATOM      8  C6  PXY d   1       3.299   4.702  -3.412  0.00  0.00     0.003 A 
ENDROOT
TORSDOF 0
ENDMDL
