MODEL 1
REMARK minimizedAffinity 1.26165032
REMARK minimizedRMSD -1
REMARK  0 active torsions:
REMARK  status: ('A' for Active; 'I' for Inactive)
ROOT
ATOM      1  C4' PXY d   1       5.826   5.741  -0.700  0.00  0.00     0.077 C 
ATOM      2  C1' PXY d   1       3.925   4.431  -6.000  0.00  0.00     0.077 C 
ATOM      3  C1  PXY d   1       4.429   4.763  -4.609  0.00  0.00    -0.082 A 
ATOM      4  C2  PXY d   1       3.790   5.661  -3.878  0.00  0.00     0.003 A 
ATOM      5  C3  PXY d   1       4.251   5.997  -2.631  0.00  0.00     0.003 A 
ATOM      6  C4  PXY d   1       5.347   5.367  -2.106  0.00  0.00    -0.082 A 
ATOM      7  C5  PXY d   1       5.999   4.442  -2.841  0.00  0.00     0.003 A 
ATOM      8  C6  PXY d   1       5.539   4.146  -4.121  0.00  0.00     0.003 A 
ENDROOT
TORSDOF 0
ENDMDL
