MODEL 1
REMARK minimizedAffinity -1.33730233
REMARK minimizedRMSD -1
REMARK  0 active torsions:
REMARK  status: ('A' for Active; 'I' for Inactive)
ROOT
ATOM      1  C4' PXY d   1       3.432   5.949  -1.720  0.00  0.00     0.077 C 
ATOM      2  C1' PXY d   1       5.965   3.003  -6.000  0.00  0.00     0.077 C 
ATOM      3  C1  PXY d   1       5.291   3.779  -4.886  0.00  0.00    -0.082 A 
ATOM      4  C2  PXY d   1       6.000   4.167  -3.838  0.00  0.00     0.003 A 
ATOM      5  C3  PXY d   1       5.400   4.843  -2.806  0.00  0.00     0.003 A 
ATOM      6  C4  PXY d   1       4.072   5.171  -2.873  0.00  0.00    -0.082 A 
ATOM      7  C5  PXY d   1       3.345   4.787  -3.943  0.00  0.00     0.003 A 
ATOM      8  C6  PXY d   1       3.964   4.067  -4.961  0.00  0.00     0.003 A 
ENDROOT
TORSDOF 0
ENDMDL
