MODEL 1
REMARK minimizedAffinity -1.29589617
REMARK minimizedRMSD -1
REMARK  0 active torsions:
REMARK  status: ('A' for Active; 'I' for Inactive)
ROOT
ATOM      1  C4' PXY d   1       5.777   0.902  -5.995  0.00  0.00     0.077 C 
ATOM      2  C1' PXY d   1       4.904   5.991  -3.395  0.00  0.00     0.077 C 
ATOM      3  C1  PXY d   1       5.123   4.658  -4.085  0.00  0.00    -0.082 A 
ATOM      4  C2  PXY d   1       5.766   3.691  -3.450  0.00  0.00     0.003 A 
ATOM      5  C3  PXY d   1       6.000   2.491  -4.071  0.00  0.00     0.003 A 
ATOM      6  C4  PXY d   1       5.525   2.260  -5.334  0.00  0.00    -0.082 A 
ATOM      7  C5  PXY d   1       4.859   3.238  -5.984  0.00  0.00     0.003 A 
ATOM      8  C6  PXY d   1       4.667   4.463  -5.352  0.00  0.00     0.003 A 
ENDROOT
TORSDOF 0
ENDMDL
