MODEL 1
REMARK minimizedAffinity 0.153451219
REMARK minimizedRMSD -1
REMARK  0 active torsions:
REMARK  status: ('A' for Active; 'I' for Inactive)
ROOT
ATOM      1  C4' PXY d   1       5.999   5.987  -5.601  0.00  0.00     0.077 C 
ATOM      2  C1' PXY d   1       3.411   4.355  -0.696  0.00  0.00     0.077 C 
ATOM      3  C1  PXY d   1       4.097   4.791  -1.976  0.00  0.00    -0.082 A 
ATOM      4  C2  PXY d   1       3.476   4.643  -3.135  0.00  0.00     0.003 A 
ATOM      5  C3  PXY d   1       4.094   5.003  -4.304  0.00  0.00     0.003 A 
ATOM      6  C4  PXY d   1       5.341   5.569  -4.283  0.00  0.00    -0.082 A 
ATOM      7  C5  PXY d   1       5.977   5.734  -3.104  0.00  0.00     0.003 A 
ATOM      8  C6  PXY d   1       5.348   5.324  -1.932  0.00  0.00     0.003 A 
ENDROOT
TORSDOF 0
ENDMDL
