MODEL 1
REMARK minimizedAffinity 0.513773859
REMARK minimizedRMSD -1
REMARK  0 active torsions:
REMARK  status: ('A' for Active; 'I' for Inactive)
ROOT
ATOM      1  C4' PXY d   1       4.543   5.230  -5.991  0.00  0.00     0.077 C 
ATOM      2  C1' PXY d   1       5.265   4.808  -0.271  0.00  0.00     0.077 C 
ATOM      3  C1  PXY d   1       5.068   4.908  -1.771  0.00  0.00    -0.082 A 
ATOM      4  C2  PXY d   1       5.998   5.482  -2.516  0.00  0.00     0.003 A 
ATOM      5  C3  PXY d   1       5.821   5.611  -3.870  0.00  0.00     0.003 A 
ATOM      6  C4  PXY d   1       4.705   5.098  -4.474  0.00  0.00    -0.082 A 
ATOM      7  C5  PXY d   1       3.756   4.502  -3.722  0.00  0.00     0.003 A 
ATOM      8  C6  PXY d   1       3.935   4.419  -2.344  0.00  0.00     0.003 A 
ENDROOT
TORSDOF 0
ENDMDL
