MODEL 1
REMARK minimizedAffinity -0.301515162
REMARK minimizedRMSD -1
REMARK  0 active torsions:
REMARK  status: ('A' for Active; 'I' for Inactive)
ROOT
ATOM      1  C4' PXY d   1       4.877   2.867  -5.901  0.00  0.00     0.077 C 
ATOM      2  C1' PXY d   1       4.935   5.999  -1.043  0.00  0.00     0.077 C 
ATOM      3  C1  PXY d   1       4.910   5.171  -2.312  0.00  0.00    -0.082 A 
ATOM      4  C2  PXY d   1       6.000   5.081  -3.056  0.00  0.00     0.003 A 
ATOM      5  C3  PXY d   1       5.985   4.362  -4.224  0.00  0.00     0.003 A 
ATOM      6  C4  PXY d   1       4.859   3.684  -4.606  0.00  0.00    -0.082 A 
ATOM      7  C5  PXY d   1       3.745   3.762  -3.847  0.00  0.00     0.003 A 
ATOM      8  C6  PXY d   1       3.769   4.531  -2.687  0.00  0.00     0.003 A 
ENDROOT
TORSDOF 0
ENDMDL
