MODEL 1
REMARK minimizedAffinity -2.24045038
REMARK minimizedRMSD -1
REMARK  0 active torsions:
REMARK  status: ('A' for Active; 'I' for Inactive)
ROOT
ATOM      1  C4' PXY d   1       4.822   2.054  -5.995  0.00  0.00     0.077 C 
ATOM      2  C1' PXY d   1       4.925   5.997  -1.769  0.00  0.00     0.077 C 
ATOM      3  C1  PXY d   1       4.888   4.957  -2.872  0.00  0.00    -0.082 A 
ATOM      4  C2  PXY d   1       6.000   4.649  -3.519  0.00  0.00     0.003 A 
ATOM      5  C3  PXY d   1       5.978   3.735  -4.540  0.00  0.00     0.003 A 
ATOM      6  C4  PXY d   1       4.815   3.091  -4.868  0.00  0.00    -0.082 A 
ATOM      7  C5  PXY d   1       3.678   3.392  -4.206  0.00  0.00     0.003 A 
ATOM      8  C6  PXY d   1       3.713   4.353  -3.200  0.00  0.00     0.003 A 
ENDROOT
TORSDOF 0
ENDMDL
