MODEL 1
REMARK minimizedAffinity -1.79623914
REMARK minimizedRMSD -1
REMARK  0 active torsions:
REMARK  status: ('A' for Active; 'I' for Inactive)
ROOT
ATOM      1  C4' PXY d   1       6.000   5.691  -6.000  0.00  0.00     0.077 C 
ATOM      2  C1' PXY d   1       2.978   4.013  -1.366  0.00  0.00     0.077 C 
ATOM      3  C1  PXY d   1       3.776   4.463  -2.575  0.00  0.00    -0.082 A 
ATOM      4  C2  PXY d   1       3.377   4.116  -3.788  0.00  0.00     0.003 A 
ATOM      5  C3  PXY d   1       4.104   4.487  -4.889  0.00  0.00     0.003 A 
ATOM      6  C4  PXY d   1       5.221   5.267  -4.752  0.00  0.00    -0.082 A 
ATOM      7  C5  PXY d   1       5.628   5.634  -3.518  0.00  0.00     0.003 A 
ATOM      8  C6  PXY d   1       4.899   5.212  -2.410  0.00  0.00     0.003 A 
ENDROOT
TORSDOF 0
ENDMDL
