MODEL 1
REMARK minimizedAffinity 2.96501517
REMARK minimizedRMSD -1
REMARK  0 active torsions:
REMARK  status: ('A' for Active; 'I' for Inactive)
ROOT
ATOM      1  C4' PXY d   1       2.574   4.121  -1.184  0.00  0.00     0.077 C 
ATOM      2  C1' PXY d   1       5.994   5.317  -5.688  0.00  0.00     0.077 C 
ATOM      3  C1  PXY d   1       5.106   4.995  -4.502  0.00  0.00    -0.082 A 
ATOM      4  C2  PXY d   1       3.797   5.167  -4.599  0.00  0.00     0.003 A 
ATOM      5  C3  PXY d   1       2.983   4.912  -3.526  0.00  0.00     0.003 A 
ATOM      6  C4  PXY d   1       3.508   4.424  -2.359  0.00  0.00    -0.082 A 
ATOM      7  C5  PXY d   1       4.840   4.236  -2.256  0.00  0.00     0.003 A 
ATOM      8  C6  PXY d   1       5.654   4.541  -3.343  0.00  0.00     0.003 A 
ENDROOT
TORSDOF 0
ENDMDL
