MODEL 1
REMARK minimizedAffinity 0.722083032
REMARK minimizedRMSD -1
REMARK  0 active torsions:
REMARK  status: ('A' for Active; 'I' for Inactive)
ROOT
ATOM      1  C4' PXY d   1       3.377   4.892  -5.920  0.00  0.00     0.077 C 
ATOM      2  C1' PXY d   1       6.000   4.871  -0.769  0.00  0.00     0.077 C 
ATOM      3  C1  PXY d   1       5.303   4.868  -2.116  0.00  0.00    -0.082 A 
ATOM      4  C2  PXY d   1       5.974   5.222  -3.200  0.00  0.00     0.003 A 
ATOM      5  C3  PXY d   1       5.351   5.255  -4.421  0.00  0.00     0.003 A 
ATOM      6  C4  PXY d   1       4.042   4.871  -4.541  0.00  0.00    -0.082 A 
ATOM      7  C5  PXY d   1       3.354   4.498  -3.441  0.00  0.00     0.003 A 
ATOM      8  C6  PXY d   1       3.993   4.511  -2.205  0.00  0.00     0.003 A 
ENDROOT
TORSDOF 0
ENDMDL
