MODEL 1
REMARK minimizedAffinity -1.95545578
REMARK minimizedRMSD -1
REMARK  0 active torsions:
REMARK  status: ('A' for Active; 'I' for Inactive)
ROOT
ATOM      1  C4' PXY d   1       5.998   5.952  -5.997  0.00  0.00     0.077 C 
ATOM      2  C1' PXY d   1       2.446   4.160  -1.803  0.00  0.00     0.077 C 
ATOM      3  C1  PXY d   1       3.367   4.633  -2.910  0.00  0.00    -0.082 A 
ATOM      4  C2  PXY d   1       4.591   4.139  -2.999  0.00  0.00     0.003 A 
ATOM      5  C3  PXY d   1       5.448   4.579  -3.975  0.00  0.00     0.003 A 
ATOM      6  C4  PXY d   1       5.031   5.497  -4.901  0.00  0.00    -0.082 A 
ATOM      7  C5  PXY d   1       3.780   5.998  -4.823  0.00  0.00     0.003 A 
ATOM      8  C6  PXY d   1       2.939   5.569  -3.801  0.00  0.00     0.003 A 
ENDROOT
TORSDOF 0
ENDMDL
