MODEL 1
REMARK minimizedAffinity 2.36640882
REMARK minimizedRMSD -1
REMARK  0 active torsions:
REMARK  status: ('A' for Active; 'I' for Inactive)
ROOT
ATOM      1  C4' PXY d   1       5.974   5.999  -0.572  0.00  0.00     0.077 C 
ATOM      2  C1' PXY d   1       4.318   3.260  -5.385  0.00  0.00     0.077 C 
ATOM      3  C1  PXY d   1       4.749   3.990  -4.128  0.00  0.00    -0.082 A 
ATOM      4  C2  PXY d   1       5.623   3.425  -3.311  0.00  0.00     0.003 A 
ATOM      5  C3  PXY d   1       5.999   4.057  -2.154  0.00  0.00     0.003 A 
ATOM      6  C4  PXY d   1       5.517   5.303  -1.857  0.00  0.00    -0.082 A 
ATOM      7  C5  PXY d   1       4.634   5.891  -2.691  0.00  0.00     0.003 A 
ATOM      8  C6  PXY d   1       4.233   5.215  -3.840  0.00  0.00     0.003 A 
ENDROOT
TORSDOF 0
ENDMDL
