MODEL 1
REMARK minimizedAffinity 0.494146943
REMARK minimizedRMSD -1
REMARK  0 active torsions:
REMARK  status: ('A' for Active; 'I' for Inactive)
ROOT
ATOM      1  C4' PXY d   1       5.999  -4.084  -0.396  0.00  0.00     0.077 C 
ATOM      2  C1' PXY d   1       3.449  -2.921  -5.452  0.00  0.00     0.077 C 
ATOM      3  C1  PXY d   1       4.125  -3.236  -4.132  0.00  0.00    -0.082 A 
ATOM      4  C2  PXY d   1       3.507  -2.952  -2.997  0.00  0.00     0.003 A 
ATOM      5  C3  PXY d   1       4.117  -3.200  -1.794  0.00  0.00     0.003 A 
ATOM      6  C4  PXY d   1       5.351  -3.793  -1.753  0.00  0.00    -0.082 A 
ATOM      7  C5  PXY d   1       5.983  -4.095  -2.906  0.00  0.00     0.003 A 
ATOM      8  C6  PXY d   1       5.364  -3.798  -4.117  0.00  0.00     0.003 A 
ENDROOT
TORSDOF 0
ENDMDL
