MODEL 1
REMARK minimizedAffinity 5.6591711
REMARK minimizedRMSD -1
REMARK  0 active torsions:
REMARK  status: ('A' for Active; 'I' for Inactive)
ROOT
ATOM      1  C4' PXY d   1       5.235   5.888  -0.435  0.00  0.00     0.077 C 
ATOM      2  C1' PXY d   1       4.338   4.534  -5.983  0.00  0.00     0.077 C 
ATOM      3  C1  PXY d   1       4.562   4.896  -4.528  0.00  0.00    -0.082 A 
ATOM      4  C2  PXY d   1       5.781   4.827  -4.017  0.00  0.00     0.003 A 
ATOM      5  C3  PXY d   1       5.996   5.120  -2.695  0.00  0.00     0.003 A 
ATOM      6  C4  PXY d   1       4.963   5.540  -1.901  0.00  0.00    -0.082 A 
ATOM      7  C5  PXY d   1       3.719   5.624  -2.418  0.00  0.00     0.003 A 
ATOM      8  C6  PXY d   1       3.514   5.282  -3.751  0.00  0.00     0.003 A 
ENDROOT
TORSDOF 0
ENDMDL
