MODEL 1
REMARK minimizedAffinity -1.97521877
REMARK minimizedRMSD -1
REMARK  1 active torsions:
REMARK  status: ('A' for Active; 'I' for Inactive)
REMARK    1  A    between atoms: C1_2  and  C2_3 
ROOT
ATOM      1  C2  UNL d   1       5.769   3.549   3.067  0.00  0.00    -0.077 A 
ATOM      2  C3  UNL d   1       6.000   3.651   1.688  0.00  0.00     0.002 A 
ATOM      3  C4  UNL d   1       5.830   4.872   1.032  0.00  0.00     0.002 A 
ATOM      4  C5  UNL d   1       5.433   6.000   1.748  0.00  0.00    -0.004 A 
ATOM      5  C6  UNL d   1       5.199   5.908   3.119  0.00  0.00     0.002 A 
ATOM      6  C7  UNL d   1       5.368   4.688   3.776  0.00  0.00     0.002 A 
ENDROOT
BRANCH   1   7
ATOM      7  C1  UNL d   1       6.000   2.244   3.785  0.00  0.00     0.055 C 
ATOM      8  C   UNL d   1       5.969   1.068   2.819  0.00  0.00     0.019 C 
ENDBRANCH   1   7
TORSDOF 1
ENDMDL
