MODEL 1
REMARK minimizedAffinity 0.287743121
REMARK minimizedRMSD -1
REMARK  1 active torsions:
REMARK  status: ('A' for Active; 'I' for Inactive)
REMARK    1  A    between atoms: C1_2  and  C2_3 
ROOT
ATOM      1  C2  UNL d   1       5.128   0.756   4.224  0.00  0.00    -0.077 A 
ATOM      2  C3  UNL d   1       4.736  -0.385   3.510  0.00  0.00     0.002 A 
ATOM      3  C4  UNL d   1       4.976  -1.659   4.028  0.00  0.00     0.002 A 
ATOM      4  C5  UNL d   1       5.604  -1.804   5.264  0.00  0.00    -0.004 A 
ATOM      5  C6  UNL d   1       6.000  -0.675   5.980  0.00  0.00     0.002 A 
ATOM      6  C7  UNL d   1       5.762   0.599   5.463  0.00  0.00     0.002 A 
ENDROOT
BRANCH   1   7
ATOM      7  C1  UNL d   1       4.826   2.132   3.690  0.00  0.00     0.055 C 
ATOM      8  C   UNL d   1       5.999   3.078   3.901  0.00  0.00     0.019 C 
ENDBRANCH   1   7
TORSDOF 1
ENDMDL
