MODEL 1
REMARK minimizedAffinity 12.9690094
REMARK minimizedRMSD -1
REMARK  1 active torsions:
REMARK  status: ('A' for Active; 'I' for Inactive)
REMARK    1  A    between atoms: C1_2  and  C2_3 
ROOT
ATOM      1  C2  UNL d   1      -1.793   2.137   2.616  0.00  0.00    -0.077 A 
ATOM      2  C3  UNL d   1      -1.897   1.843   1.249  0.00  0.00     0.002 A 
ATOM      3  C4  UNL d   1      -1.298   2.675   0.301  0.00  0.00     0.002 A 
ATOM      4  C5  UNL d   1      -0.588   3.802   0.709  0.00  0.00    -0.004 A 
ATOM      5  C6  UNL d   1      -0.481   4.104   2.066  0.00  0.00     0.002 A 
ATOM      6  C7  UNL d   1      -1.080   3.274   3.015  0.00  0.00     0.002 A 
ENDROOT
BRANCH   1   7
ATOM      7  C1  UNL d   1      -2.396   1.214   3.643  0.00  0.00     0.055 C 
ATOM      8  C   UNL d   1      -2.684  -0.158   3.053  0.00  0.00     0.019 C 
ENDBRANCH   1   7
TORSDOF 1
ENDMDL
