MODEL 1
REMARK minimizedAffinity -1.78002369
REMARK minimizedRMSD -1
REMARK  1 active torsions:
REMARK  status: ('A' for Active; 'I' for Inactive)
REMARK    1  A    between atoms: C1_2  and  C2_3 
ROOT
ATOM      1  C2  UNL d   1       5.808   1.345   3.733  0.00  0.00    -0.077 A 
ATOM      2  C3  UNL d   1       5.995   2.497   2.956  0.00  0.00     0.002 A 
ATOM      3  C4  UNL d   1       6.000   3.759   3.554  0.00  0.00     0.002 A 
ATOM      4  C5  UNL d   1       5.821   3.880   4.930  0.00  0.00    -0.004 A 
ATOM      5  C6  UNL d   1       5.632   2.741   5.711  0.00  0.00     0.002 A 
ATOM      6  C7  UNL d   1       5.626   1.479   5.115  0.00  0.00     0.002 A 
ENDROOT
BRANCH   1   7
ATOM      7  C1  UNL d   1       5.852  -0.020   3.097  0.00  0.00     0.055 C 
ATOM      8  C   UNL d   1       5.649  -1.118   4.130  0.00  0.00     0.019 C 
ENDBRANCH   1   7
TORSDOF 1
ENDMDL
