MODEL 1
REMARK minimizedAffinity -3.64358711
REMARK minimizedRMSD -1
REMARK  1 active torsions:
REMARK  status: ('A' for Active; 'I' for Inactive)
REMARK    1  A    between atoms: C1_2  and  C2_3 
ROOT
ATOM      1  C2  UNL d   1       5.157   1.558   4.488  0.00  0.00    -0.077 A 
ATOM      2  C3  UNL d   1       4.920   0.567   3.526  0.00  0.00     0.002 A 
ATOM      3  C4  UNL d   1       5.218  -0.769   3.801  0.00  0.00     0.002 A 
ATOM      4  C5  UNL d   1       5.751  -1.126   5.037  0.00  0.00    -0.004 A 
ATOM      5  C6  UNL d   1       5.993  -0.147   6.000  0.00  0.00     0.002 A 
ATOM      6  C7  UNL d   1       5.697   1.189   5.727  0.00  0.00     0.002 A 
ENDROOT
BRANCH   1   7
ATOM      7  C1  UNL d   1       4.791   2.993   4.212  0.00  0.00     0.055 C 
ATOM      8  C   UNL d   1       5.997   3.792   3.739  0.00  0.00     0.019 C 
ENDBRANCH   1   7
TORSDOF 1
ENDMDL
