MODEL 1
REMARK minimizedAffinity -3.51907754
REMARK minimizedRMSD -1
REMARK  1 active torsions:
REMARK  status: ('A' for Active; 'I' for Inactive)
REMARK    1  A    between atoms: C1_2  and  C2_3 
ROOT
ATOM      1  C2  UNL d   1       5.962   1.719   4.594  0.00  0.00    -0.077 A 
ATOM      2  C3  UNL d   1       5.989   0.994   5.794  0.00  0.00     0.002 A 
ATOM      3  C4  UNL d   1       6.000  -0.402   5.775  0.00  0.00     0.002 A 
ATOM      4  C5  UNL d   1       5.988  -1.085   4.560  0.00  0.00    -0.004 A 
ATOM      5  C6  UNL d   1       5.958  -0.372   3.362  0.00  0.00     0.002 A 
ATOM      6  C7  UNL d   1       5.946   1.023   3.379  0.00  0.00     0.002 A 
ENDROOT
BRANCH   1   7
ATOM      7  C1  UNL d   1       6.000   3.225   4.612  0.00  0.00     0.055 C 
ATOM      8  C   UNL d   1       5.891   3.797   3.206  0.00  0.00     0.019 C 
ENDBRANCH   1   7
TORSDOF 1
ENDMDL
