MODEL 1
REMARK minimizedAffinity -3.75873566
REMARK minimizedRMSD -1
REMARK  1 active torsions:
REMARK  status: ('A' for Active; 'I' for Inactive)
REMARK    1  A    between atoms: C1_2  and  C2_3 
ROOT
ATOM      1  C2  UNL d   1       5.705   0.852   4.951  0.00  0.00    -0.077 A 
ATOM      2  C3  UNL d   1       5.920   0.818   3.566  0.00  0.00     0.002 A 
ATOM      3  C4  UNL d   1       5.999   2.005   2.834  0.00  0.00     0.002 A 
ATOM      4  C5  UNL d   1       5.867   3.233   3.478  0.00  0.00    -0.004 A 
ATOM      5  C6  UNL d   1       5.651   3.277   4.855  0.00  0.00     0.002 A 
ATOM      6  C7  UNL d   1       5.571   2.093   5.588  0.00  0.00     0.002 A 
ENDROOT
BRANCH   1   7
ATOM      7  C1  UNL d   1       5.670  -0.424   5.750  0.00  0.00     0.055 C 
ATOM      8  C   UNL d   1       6.000  -1.630   4.881  0.00  0.00     0.019 C 
ENDBRANCH   1   7
TORSDOF 1
ENDMDL
