MODEL 1
REMARK minimizedAffinity 9.14577866
REMARK minimizedRMSD -1
REMARK  1 active torsions:
REMARK  status: ('A' for Active; 'I' for Inactive)
REMARK    1  A    between atoms: C1_2  and  C2_3 
ROOT
ATOM      1  C2  UNL d   1       4.127   2.219  -4.560  0.00  0.00    -0.077 A 
ATOM      2  C3  UNL d   1       4.036   3.618  -4.574  0.00  0.00     0.002 A 
ATOM      3  C4  UNL d   1       3.021   4.252  -5.293  0.00  0.00     0.002 A 
ATOM      4  C5  UNL d   1       2.088   3.496  -5.999  0.00  0.00    -0.004 A 
ATOM      5  C6  UNL d   1       2.171   2.104  -5.993  0.00  0.00     0.002 A 
ATOM      6  C7  UNL d   1       3.186   1.469  -5.276  0.00  0.00     0.002 A 
ENDROOT
BRANCH   1   7
ATOM      7  C1  UNL d   1       5.191   1.532  -3.746  0.00  0.00     0.055 C 
ATOM      8  C   UNL d   1       4.584   0.734  -2.601  0.00  0.00     0.019 C 
ENDBRANCH   1   7
TORSDOF 1
ENDMDL
