MODEL 1
REMARK minimizedAffinity -1.93428493
REMARK minimizedRMSD -1
REMARK  1 active torsions:
REMARK  status: ('A' for Active; 'I' for Inactive)
REMARK    1  A    between atoms: C1_2  and  C2_3 
ROOT
ATOM      1  C2  UNL d   1       5.789   3.340   4.336  0.00  0.00    -0.077 A 
ATOM      2  C3  UNL d   1       5.999   2.362   3.354  0.00  0.00     0.002 A 
ATOM      3  C4  UNL d   1       5.992   1.007   3.693  0.00  0.00     0.002 A 
ATOM      4  C5  UNL d   1       5.771   0.619   5.012  0.00  0.00    -0.004 A 
ATOM      5  C6  UNL d   1       5.563   1.584   5.997  0.00  0.00     0.002 A 
ATOM      6  C7  UNL d   1       5.571   2.938   5.660  0.00  0.00     0.002 A 
ENDROOT
BRANCH   1   7
ATOM      7  C1  UNL d   1       5.747   4.799   3.964  0.00  0.00     0.055 C 
ATOM      8  C   UNL d   1       5.994   5.686   5.176  0.00  0.00     0.019 C 
ENDBRANCH   1   7
TORSDOF 1
ENDMDL
