MODEL 1
REMARK minimizedAffinity 5.07461882
REMARK minimizedRMSD -1
REMARK  1 active torsions:
REMARK  status: ('A' for Active; 'I' for Inactive)
REMARK    1  A    between atoms: C1_2  and  C2_3 
ROOT
ATOM      1  C2  UNL d   1       5.785   0.991   3.695  0.00  0.00    -0.077 A 
ATOM      2  C3  UNL d   1       5.998   0.520   2.391  0.00  0.00     0.002 A 
ATOM      3  C4  UNL d   1       5.760  -0.819   2.076  0.00  0.00     0.002 A 
ATOM      4  C5  UNL d   1       5.304  -1.697   3.057  0.00  0.00    -0.004 A 
ATOM      5  C6  UNL d   1       5.091  -1.239   4.357  0.00  0.00     0.002 A 
ATOM      6  C7  UNL d   1       5.330   0.099   4.674  0.00  0.00     0.002 A 
ENDROOT
BRANCH   1   7
ATOM      7  C1  UNL d   1       5.995   2.446   4.025  0.00  0.00     0.055 C 
ATOM      8  C   UNL d   1       5.429   3.347   2.937  0.00  0.00     0.019 C 
ENDBRANCH   1   7
TORSDOF 1
ENDMDL
