MODEL 1
REMARK minimizedAffinity -0.0849817917
REMARK minimizedRMSD -1
REMARK  1 active torsions:
REMARK  status: ('A' for Active; 'I' for Inactive)
REMARK    1  A    between atoms: C1_2  and  C2_3 
ROOT
ATOM      1  C2  UNL d   1       5.998   0.003   4.117  0.00  0.00    -0.077 A 
ATOM      2  C3  UNL d   1       5.998   0.250   5.497  0.00  0.00     0.002 A 
ATOM      3  C4  UNL d   1       6.000   1.560   5.981  0.00  0.00     0.002 A 
ATOM      4  C5  UNL d   1       5.997   2.632   5.091  0.00  0.00    -0.004 A 
ATOM      5  C6  UNL d   1       5.999   2.398   3.717  0.00  0.00     0.002 A 
ATOM      6  C7  UNL d   1       5.999   1.089   3.232  0.00  0.00     0.002 A 
ENDROOT
BRANCH   1   7
ATOM      7  C1  UNL d   1       5.947  -1.408   3.594  0.00  0.00     0.055 C 
ATOM      8  C   UNL d   1       5.985  -2.421   4.729  0.00  0.00     0.019 C 
ENDBRANCH   1   7
TORSDOF 1
ENDMDL
