MODEL 1
REMARK minimizedAffinity 3.32707119
REMARK minimizedRMSD -1
REMARK  1 active torsions:
REMARK  status: ('A' for Active; 'I' for Inactive)
REMARK    1  A    between atoms: C1_2  and  C2_3 
ROOT
ATOM      1  C2  UNL d   1       5.258   5.071   1.934  0.00  0.00    -0.077 A 
ATOM      2  C3  UNL d   1       4.218   4.179   1.638  0.00  0.00     0.002 A 
ATOM      3  C4  UNL d   1       3.606   4.200   0.383  0.00  0.00     0.002 A 
ATOM      4  C5  UNL d   1       4.030   5.107  -0.586  0.00  0.00    -0.004 A 
ATOM      5  C6  UNL d   1       5.063   5.999  -0.300  0.00  0.00     0.002 A 
ATOM      6  C7  UNL d   1       5.675   5.981   0.954  0.00  0.00     0.002 A 
ENDROOT
BRANCH   1   7
ATOM      7  C1  UNL d   1       5.952   5.017   3.270  0.00  0.00     0.055 C 
ATOM      8  C   UNL d   1       5.334   5.998   4.255  0.00  0.00     0.019 C 
ENDBRANCH   1   7
TORSDOF 1
ENDMDL
