MODEL 1
REMARK minimizedAffinity -1.57163239
REMARK minimizedRMSD -1
REMARK  1 active torsions:
REMARK  status: ('A' for Active; 'I' for Inactive)
REMARK    1  A    between atoms: C1_2  and  C2_3 
ROOT
ATOM      1  C2  UNL d   1       5.867   2.533   4.083  0.00  0.00    -0.077 A 
ATOM      2  C3  UNL d   1       5.656   2.099   5.399  0.00  0.00     0.002 A 
ATOM      3  C4  UNL d   1       5.579   0.736   5.690  0.00  0.00     0.002 A 
ATOM      4  C5  UNL d   1       5.716  -0.204   4.670  0.00  0.00    -0.004 A 
ATOM      5  C6  UNL d   1       5.923   0.217   3.358  0.00  0.00     0.002 A 
ATOM      6  C7  UNL d   1       6.000   1.580   3.065  0.00  0.00     0.002 A 
ENDROOT
BRANCH   1   7
ATOM      7  C1  UNL d   1       6.000   4.002   3.775  0.00  0.00     0.055 C 
ATOM      8  C   UNL d   1       5.987   4.837   5.047  0.00  0.00     0.019 C 
ENDBRANCH   1   7
TORSDOF 1
ENDMDL
