MODEL 1
REMARK minimizedAffinity 5.77157879
REMARK minimizedRMSD -1
REMARK  1 active torsions:
REMARK  status: ('A' for Active; 'I' for Inactive)
REMARK    1  A    between atoms: C1_2  and  C2_3 
ROOT
ATOM      1  C2  UNL d   1       3.621   2.964  -4.096  0.00  0.00    -0.081 A 
ATOM      2  C3  UNL d   1       2.318   2.671  -4.518  0.00  0.00     0.006 A 
ATOM      3  C4  UNL d   1       1.532   3.654  -5.123  0.00  0.00     0.002 A 
ATOM      4  C5  UNL d   1       2.037   4.943  -5.324  0.00  0.00    -0.080 A 
ATOM      5  C6  UNL d   1       1.214   6.000  -5.999  0.00  0.00     0.076 C 
ATOM      6  C7  UNL d   1       3.332   5.241  -4.886  0.00  0.00     0.002 A 
ATOM      7  C8  UNL d   1       4.119   4.258  -4.281  0.00  0.00     0.006 A 
ENDROOT
BRANCH   1   8
ATOM      8  C1  UNL d   1       4.494   1.888  -3.503  0.00  0.00     0.054 C 
ATOM      9  C   UNL d   1       4.876   2.216  -2.066  0.00  0.00     0.018 C 
ENDBRANCH   1   8
TORSDOF 1
ENDMDL
