MODEL 1
REMARK minimizedAffinity 6.10472441
REMARK minimizedRMSD -1
REMARK  1 active torsions:
REMARK  status: ('A' for Active; 'I' for Inactive)
REMARK    1  A    between atoms: C1_2  and  C2_3 
ROOT
ATOM      1  C2  UNL d   1      -5.087   0.775   3.569  0.00  0.00    -0.081 A 
ATOM      2  C3  UNL d   1      -5.742   0.637   4.799  0.00  0.00     0.006 A 
ATOM      3  C4  UNL d   1      -5.998   1.757   5.594  0.00  0.00     0.002 A 
ATOM      4  C5  UNL d   1      -5.612   3.032   5.169  0.00  0.00    -0.080 A 
ATOM      5  C6  UNL d   1      -5.908   4.246   5.999  0.00  0.00     0.076 C 
ATOM      6  C7  UNL d   1      -4.943   3.168   3.948  0.00  0.00     0.002 A 
ATOM      7  C8  UNL d   1      -4.686   2.049   3.153  0.00  0.00     0.006 A 
ENDROOT
BRANCH   1   8
ATOM      8  C1  UNL d   1      -4.867  -0.422   2.680  0.00  0.00     0.054 C 
ATOM      9  C   UNL d   1      -3.767  -0.160   1.662  0.00  0.00     0.018 C 
ENDBRANCH   1   8
TORSDOF 1
ENDMDL
