MODEL 1
REMARK minimizedAffinity 15.348362
REMARK minimizedRMSD -1
REMARK  1 active torsions:
REMARK  status: ('A' for Active; 'I' for Inactive)
REMARK    1  A    between atoms: C1_2  and  C2_3 
ROOT
ATOM      1  C2  UNL d   1       2.272   0.301   2.569  0.00  0.00    -0.081 A 
ATOM      2  C3  UNL d   1       3.214  -0.407   1.811  0.00  0.00     0.006 A 
ATOM      3  C4  UNL d   1       3.526  -0.002   0.511  0.00  0.00     0.002 A 
ATOM      4  C5  UNL d   1       2.908   1.121  -0.049  0.00  0.00    -0.080 A 
ATOM      5  C6  UNL d   1       3.256   1.585  -1.433  0.00  0.00     0.076 C 
ATOM      6  C7  UNL d   1       1.955   1.818   0.701  0.00  0.00     0.002 A 
ATOM      7  C8  UNL d   1       1.642   1.413   2.000  0.00  0.00     0.006 A 
ENDROOT
BRANCH   1   8
ATOM      8  C1  UNL d   1       1.981  -0.095   3.994  0.00  0.00     0.054 C 
ATOM      9  C   UNL d   1       0.483  -0.141   4.261  0.00  0.00     0.018 C 
ENDBRANCH   1   8
TORSDOF 1
ENDMDL
