MODEL 1
REMARK minimizedAffinity 16.2857571
REMARK minimizedRMSD -1
REMARK  1 active torsions:
REMARK  status: ('A' for Active; 'I' for Inactive)
REMARK    1  A    between atoms: C1_2  and  C2_3 
ROOT
ATOM      1  C2  UNL d   1       3.508   3.554  -3.045  0.00  0.00    -0.081 A 
ATOM      2  C3  UNL d   1       2.346   3.095  -3.678  0.00  0.00     0.006 A 
ATOM      3  C4  UNL d   1       1.696   3.889  -4.626  0.00  0.00     0.002 A 
ATOM      4  C5  UNL d   1       2.200   5.150  -4.962  0.00  0.00    -0.080 A 
ATOM      5  C6  UNL d   1       1.529   5.999  -6.000  0.00  0.00     0.076 C 
ATOM      6  C7  UNL d   1       3.351   5.616  -4.316  0.00  0.00     0.002 A 
ATOM      7  C8  UNL d   1       4.001   4.823  -3.368  0.00  0.00     0.006 A 
ENDROOT
BRANCH   1   8
ATOM      8  C1  UNL d   1       4.248   2.674  -2.070  0.00  0.00     0.054 C 
ATOM      9  C   UNL d   1       3.284   1.882  -1.198  0.00  0.00     0.018 C 
ENDBRANCH   1   8
TORSDOF 1
ENDMDL
