MODEL 1
REMARK minimizedAffinity 20.4193401
REMARK minimizedRMSD -1
REMARK  1 active torsions:
REMARK  status: ('A' for Active; 'I' for Inactive)
REMARK    1  A    between atoms: C1_2  and  C2_3 
ROOT
ATOM      1  C2  UNL d   1       0.162   1.124   3.231  0.00  0.00    -0.081 A 
ATOM      2  C3  UNL d   1       1.388   0.824   2.624  0.00  0.00     0.006 A 
ATOM      3  C4  UNL d   1       2.042   1.777   1.840  0.00  0.00     0.002 A 
ATOM      4  C5  UNL d   1       1.486   3.048   1.656  0.00  0.00    -0.080 A 
ATOM      5  C6  UNL d   1       2.192   4.090   0.842  0.00  0.00     0.076 C 
ATOM      6  C7  UNL d   1       0.252   3.341   2.248  0.00  0.00     0.002 A 
ATOM      7  C8  UNL d   1      -0.402   2.389   3.031  0.00  0.00     0.006 A 
ENDROOT
BRANCH   1   8
ATOM      8  C1  UNL d   1      -0.514   0.120   4.130  0.00  0.00     0.054 C 
ATOM      9  C   UNL d   1       0.405  -0.315   5.262  0.00  0.00     0.018 C 
ENDBRANCH   1   8
TORSDOF 1
ENDMDL
