MODEL 1
REMARK minimizedAffinity 6.7484684
REMARK minimizedRMSD -1
REMARK  1 active torsions:
REMARK  status: ('A' for Active; 'I' for Inactive)
REMARK    1  A    between atoms: C1_2  and  C2_3 
ROOT
ATOM      1  C2  UNL d   1      -2.002   4.130  -0.842  0.00  0.00    -0.081 A 
ATOM      2  C3  UNL d   1      -1.282   3.113  -1.481  0.00  0.00     0.006 A 
ATOM      3  C4  UNL d   1      -0.146   2.565  -0.880  0.00  0.00     0.002 A 
ATOM      4  C5  UNL d   1       0.283   3.017   0.372  0.00  0.00    -0.080 A 
ATOM      5  C6  UNL d   1       1.483   2.416   1.041  0.00  0.00     0.076 C 
ATOM      6  C7  UNL d   1      -0.426   4.045   1.002  0.00  0.00     0.002 A 
ATOM      7  C8  UNL d   1      -1.561   4.595   0.402  0.00  0.00     0.006 A 
ENDROOT
BRANCH   1   8
ATOM      8  C1  UNL d   1      -3.264   4.679  -1.458  0.00  0.00     0.054 C 
ATOM      9  C   UNL d   1      -3.790   5.871  -0.671  0.00  0.00     0.018 C 
ENDBRANCH   1   8
TORSDOF 1
ENDMDL
