MODEL 1
REMARK minimizedAffinity 19.730114
REMARK minimizedRMSD -1
REMARK  1 active torsions:
REMARK  status: ('A' for Active; 'I' for Inactive)
REMARK    1  A    between atoms: C1_2  and  C2_3 
ROOT
ATOM      1  C2  UNL d   1      -4.048   3.275   2.133  0.00  0.00    -0.081 A 
ATOM      2  C3  UNL d   1      -2.999   3.382   3.054  0.00  0.00     0.006 A 
ATOM      3  C4  UNL d   1      -2.683   2.312   3.895  0.00  0.00     0.002 A 
ATOM      4  C5  UNL d   1      -3.406   1.117   3.825  0.00  0.00    -0.080 A 
ATOM      5  C6  UNL d   1      -3.058  -0.049   4.702  0.00  0.00     0.076 C 
ATOM      6  C7  UNL d   1      -4.465   1.016   2.917  0.00  0.00     0.002 A 
ATOM      7  C8  UNL d   1      -4.782   2.085   2.075  0.00  0.00     0.006 A 
ENDROOT
BRANCH   1   8
ATOM      8  C1  UNL d   1      -4.348   4.403   1.179  0.00  0.00     0.054 C 
ATOM      9  C   UNL d   1      -3.164   4.685   0.265  0.00  0.00     0.018 C 
ENDBRANCH   1   8
TORSDOF 1
ENDMDL
