MODEL 1
REMARK minimizedAffinity 14.799058
REMARK minimizedRMSD -1
REMARK  1 active torsions:
REMARK  status: ('A' for Active; 'I' for Inactive)
REMARK    1  A    between atoms: C1_2  and  C2_3 
ROOT
ATOM      1  C2  UNL d   1      -1.907  -4.577  -3.441  0.00  0.00    -0.081 A 
ATOM      2  C3  UNL d   1      -2.383  -5.839  -3.066  0.00  0.00     0.006 A 
ATOM      3  C4  UNL d   1      -3.703  -6.000  -2.638  0.00  0.00     0.002 A 
ATOM      4  C5  UNL d   1      -4.571  -4.904  -2.585  0.00  0.00    -0.080 A 
ATOM      5  C6  UNL d   1      -5.999  -5.068  -2.156  0.00  0.00     0.076 C 
ATOM      6  C7  UNL d   1      -4.090  -3.639  -2.943  0.00  0.00     0.002 A 
ATOM      7  C8  UNL d   1      -2.771  -3.478  -3.370  0.00  0.00     0.006 A 
ENDROOT
BRANCH   1   8
ATOM      8  C1  UNL d   1      -0.503  -4.412  -3.964  0.00  0.00     0.054 C 
ATOM      9  C   UNL d   1      -0.009  -5.686  -4.633  0.00  0.00     0.018 C 
ENDBRANCH   1   8
TORSDOF 1
ENDMDL
