MODEL 1
REMARK minimizedAffinity 16.0546112
REMARK minimizedRMSD -1
REMARK  1 active torsions:
REMARK  status: ('A' for Active; 'I' for Inactive)
REMARK    1  A    between atoms: C1_2  and  C2_3 
ROOT
ATOM      1  C2  UNL d   1       0.401   4.211  -2.078  0.00  0.00    -0.081 A 
ATOM      2  C3  UNL d   1      -0.480   3.308  -1.468  0.00  0.00     0.006 A 
ATOM      3  C4  UNL d   1      -1.702   3.748  -0.955  0.00  0.00     0.002 A 
ATOM      4  C5  UNL d   1      -2.068   5.095  -1.049  0.00  0.00    -0.080 A 
ATOM      5  C6  UNL d   1      -3.390   5.575  -0.530  0.00  0.00     0.076 C 
ATOM      6  C7  UNL d   1      -1.181   6.000  -1.642  0.00  0.00     0.002 A 
ATOM      7  C8  UNL d   1       0.042   5.561  -2.155  0.00  0.00     0.006 A 
ENDROOT
BRANCH   1   8
ATOM      8  C1  UNL d   1       1.691   3.728  -2.690  0.00  0.00     0.054 C 
ATOM      9  C   UNL d   1       2.613   3.129  -1.637  0.00  0.00     0.018 C 
ENDBRANCH   1   8
TORSDOF 1
ENDMDL
