MODEL 1
REMARK minimizedAffinity 22.7424698
REMARK minimizedRMSD -1
REMARK  1 active torsions:
REMARK  status: ('A' for Active; 'I' for Inactive)
REMARK    1  A    between atoms: C1_2  and  C2_3 
ROOT
ATOM      1  C2  UNL d   1      -0.266  -1.494   2.472  0.00  0.00    -0.081 A 
ATOM      2  C3  UNL d   1       0.666  -0.457   2.338  0.00  0.00     0.006 A 
ATOM      3  C4  UNL d   1       0.992   0.348   3.432  0.00  0.00     0.002 A 
ATOM      4  C5  UNL d   1       0.399   0.125   4.679  0.00  0.00    -0.080 A 
ATOM      5  C6  UNL d   1       0.763   0.963   5.869  0.00  0.00     0.076 C 
ATOM      6  C7  UNL d   1      -0.545  -0.900   4.809  0.00  0.00     0.002 A 
ATOM      7  C8  UNL d   1      -0.872  -1.705   3.716  0.00  0.00     0.006 A 
ENDROOT
BRANCH   1   8
ATOM      8  C1  UNL d   1      -0.572  -2.405   1.311  0.00  0.00     0.054 C 
ATOM      9  C   UNL d   1      -2.045  -2.344   0.933  0.00  0.00     0.018 C 
ENDBRANCH   1   8
TORSDOF 1
ENDMDL
