MODEL 1
REMARK minimizedAffinity 24.3686638
REMARK minimizedRMSD -1
REMARK  1 active torsions:
REMARK  status: ('A' for Active; 'I' for Inactive)
REMARK    1  A    between atoms: C1_2  and  C2_3 
ROOT
ATOM      1  C2  UNL d   1      -2.403  -3.754  -3.503  0.00  0.00    -0.081 A 
ATOM      2  C3  UNL d   1      -2.122  -5.033  -3.005  0.00  0.00     0.006 A 
ATOM      3  C4  UNL d   1      -1.045  -5.767  -3.507  0.00  0.00     0.002 A 
ATOM      4  C5  UNL d   1      -0.226  -5.232  -4.507  0.00  0.00    -0.080 A 
ATOM      5  C6  UNL d   1       0.952  -5.998  -5.033  0.00  0.00     0.076 C 
ATOM      6  C7  UNL d   1      -0.517  -3.962  -5.017  0.00  0.00     0.002 A 
ATOM      7  C8  UNL d   1      -1.595  -3.228  -4.516  0.00  0.00     0.006 A 
ENDROOT
BRANCH   1   8
ATOM      8  C1  UNL d   1      -3.525  -2.934  -2.919  0.00  0.00     0.054 C 
ATOM      9  C   UNL d   1      -4.873  -3.360  -3.482  0.00  0.00     0.018 C 
ENDBRANCH   1   8
TORSDOF 1
ENDMDL
