MODEL 1
REMARK minimizedAffinity 25.713625
REMARK minimizedRMSD -1
REMARK  1 active torsions:
REMARK  status: ('A' for Active; 'I' for Inactive)
REMARK    1  A    between atoms: C1_2  and  C2_3 
ROOT
ATOM      1  C2  UNL d   1      -2.452  -2.638  -1.206  0.00  0.00    -0.081 A 
ATOM      2  C3  UNL d   1      -3.198  -1.828  -0.341  0.00  0.00     0.006 A 
ATOM      3  C4  UNL d   1      -2.808  -1.668   0.991  0.00  0.00     0.002 A 
ATOM      4  C5  UNL d   1      -1.663  -2.308   1.478  0.00  0.00    -0.080 A 
ATOM      5  C6  UNL d   1      -1.217  -2.121   2.897  0.00  0.00     0.076 C 
ATOM      6  C7  UNL d   1      -0.929  -3.132   0.618  0.00  0.00     0.002 A 
ATOM      7  C8  UNL d   1      -1.318  -3.293  -0.713  0.00  0.00     0.006 A 
ENDROOT
BRANCH   1   8
ATOM      8  C1  UNL d   1      -2.833  -2.761  -2.659  0.00  0.00     0.054 C 
ATOM      9  C   UNL d   1      -4.316  -3.067  -2.818  0.00  0.00     0.018 C 
ENDBRANCH   1   8
TORSDOF 1
ENDMDL
