MODEL 1
REMARK minimizedAffinity 17.9208145
REMARK minimizedRMSD -1
REMARK  1 active torsions:
REMARK  status: ('A' for Active; 'I' for Inactive)
REMARK    1  A    between atoms: C1_2  and  C2_3 
ROOT
ATOM      1  C2  UNL d   1      -1.814  -4.569   2.166  0.00  0.00    -0.081 A 
ATOM      2  C3  UNL d   1      -1.644  -3.643   1.130  0.00  0.00     0.006 A 
ATOM      3  C4  UNL d   1      -1.156  -2.362   1.399  0.00  0.00     0.002 A 
ATOM      4  C5  UNL d   1      -0.822  -1.989   2.706  0.00  0.00    -0.080 A 
ATOM      5  C6  UNL d   1      -0.269  -0.627   3.004  0.00  0.00     0.076 C 
ATOM      6  C7  UNL d   1      -1.008  -2.909   3.743  0.00  0.00     0.002 A 
ATOM      7  C8  UNL d   1      -1.497  -4.189   3.475  0.00  0.00     0.006 A 
ENDROOT
BRANCH   1   8
ATOM      8  C1  UNL d   1      -2.278  -5.972   1.871  0.00  0.00     0.054 C 
ATOM      9  C   UNL d   1      -3.754  -6.000   1.500  0.00  0.00     0.018 C 
ENDBRANCH   1   8
TORSDOF 1
ENDMDL
