MODEL 1
REMARK minimizedAffinity 12.3354673
REMARK minimizedRMSD -1
REMARK  1 active torsions:
REMARK  status: ('A' for Active; 'I' for Inactive)
REMARK    1  A    between atoms: C1_2  and  C2_3 
ROOT
ATOM      1  C2  UNL d   1      -4.253  -5.196  -1.829  0.00  0.00    -0.081 A 
ATOM      2  C3  UNL d   1      -3.409  -4.171  -2.274  0.00  0.00     0.006 A 
ATOM      3  C4  UNL d   1      -3.763  -3.390  -3.377  0.00  0.00     0.002 A 
ATOM      4  C5  UNL d   1      -4.971  -3.615  -4.047  0.00  0.00    -0.080 A 
ATOM      5  C6  UNL d   1      -5.378  -2.764  -5.213  0.00  0.00     0.076 C 
ATOM      6  C7  UNL d   1      -5.806  -4.650  -3.613  0.00  0.00     0.002 A 
ATOM      7  C8  UNL d   1      -5.451  -5.432  -2.511  0.00  0.00     0.006 A 
ENDROOT
BRANCH   1   8
ATOM      8  C1  UNL d   1      -3.903  -5.997  -0.601  0.00  0.00     0.054 C 
ATOM      9  C   UNL d   1      -5.048  -6.000   0.402  0.00  0.00     0.018 C 
ENDBRANCH   1   8
TORSDOF 1
ENDMDL
