MODEL 1
REMARK minimizedAffinity 9.75374413
REMARK minimizedRMSD -1
REMARK  1 active torsions:
REMARK  status: ('A' for Active; 'I' for Inactive)
REMARK    1  A    between atoms: C1_2  and  C2_3 
ROOT
ATOM      1  C2  UNL d   1       2.149  -3.406   5.374  0.00  0.00    -0.073 A 
ATOM      2  C3  UNL d   1       3.320  -2.957   5.996  0.00  0.00    -0.002 A 
ATOM      3  C4  UNL d   1       3.990  -1.834   5.510  0.00  0.00     0.004 A 
ATOM      4  C5  UNL d   1       3.494  -1.144   4.404  0.00  0.00    -0.004 A 
ATOM      5  C6  UNL d   1       2.319  -1.570   3.777  0.00  0.00    -0.075 A 
ATOM      6  C7  UNL d   1       1.773  -0.840   2.584  0.00  0.00     0.076 C 
ATOM      7  C8  UNL d   1       1.653  -2.700   4.269  0.00  0.00     0.001 A 
ENDROOT
BRANCH   1   8
ATOM      8  C1  UNL d   1       1.418  -4.615   5.899  0.00  0.00     0.053 C 
ATOM      9  C   UNL d   1       2.291  -5.860   5.884  0.00  0.00     0.018 C 
ENDBRANCH   1   8
TORSDOF 1
ENDMDL
