MODEL 1
REMARK minimizedAffinity 10.4132776
REMARK minimizedRMSD -1
REMARK  1 active torsions:
REMARK  status: ('A' for Active; 'I' for Inactive)
REMARK    1  A    between atoms: C1_2  and  C2_3 
ROOT
ATOM      1  C2  UNL d   1       2.210   0.080   2.847  0.00  0.00    -0.073 A 
ATOM      2  C3  UNL d   1       3.207  -0.388   1.984  0.00  0.00    -0.002 A 
ATOM      3  C4  UNL d   1       3.794  -1.636   2.196  0.00  0.00     0.004 A 
ATOM      4  C5  UNL d   1       3.386  -2.431   3.267  0.00  0.00    -0.004 A 
ATOM      5  C6  UNL d   1       2.382  -1.986   4.133  0.00  0.00    -0.075 A 
ATOM      6  C7  UNL d   1       1.934  -2.828   5.292  0.00  0.00     0.076 C 
ATOM      7  C8  UNL d   1       1.800  -0.730   3.916  0.00  0.00     0.001 A 
ENDROOT
BRANCH   1   8
ATOM      8  C1  UNL d   1       1.569   1.424   2.618  0.00  0.00     0.053 C 
ATOM      9  C   UNL d   1       2.563   2.448   2.093  0.00  0.00     0.018 C 
ENDBRANCH   1   8
TORSDOF 1
ENDMDL
