MODEL 1
REMARK minimizedAffinity 9.33417797
REMARK minimizedRMSD -1
REMARK  1 active torsions:
REMARK  status: ('A' for Active; 'I' for Inactive)
REMARK    1  A    between atoms: C1_2  and  C2_3 
ROOT
ATOM      1  C2  UNL d   1       1.978  -2.804   3.977  0.00  0.00    -0.073 A 
ATOM      2  C3  UNL d   1       2.888  -3.491   3.167  0.00  0.00    -0.002 A 
ATOM      3  C4  UNL d   1       3.025  -4.876   3.278  0.00  0.00     0.004 A 
ATOM      4  C5  UNL d   1       2.249  -5.586   4.194  0.00  0.00    -0.004 A 
ATOM      5  C6  UNL d   1       1.325  -4.918   5.004  0.00  0.00    -0.075 A 
ATOM      6  C7  UNL d   1       0.485  -5.668   5.995  0.00  0.00     0.076 C 
ATOM      7  C8  UNL d   1       1.195  -3.528   4.888  0.00  0.00     0.001 A 
ENDROOT
BRANCH   1   8
ATOM      8  C1  UNL d   1       1.822  -1.310   3.856  0.00  0.00     0.053 C 
ATOM      9  C   UNL d   1       1.836  -0.851   2.407  0.00  0.00     0.018 C 
ENDBRANCH   1   8
TORSDOF 1
ENDMDL
