MODEL 1
REMARK minimizedAffinity 1.14023495
REMARK minimizedRMSD -1
REMARK  1 active torsions:
REMARK  status: ('A' for Active; 'I' for Inactive)
REMARK    1  A    between atoms: C1_2  and  C2_3 
ROOT
ATOM      1  C2  UNL d   1       3.665  -1.987   4.933  0.00  0.00    -0.073 A 
ATOM      2  C3  UNL d   1       2.298  -2.289   4.937  0.00  0.00    -0.002 A 
ATOM      3  C4  UNL d   1       1.461  -1.779   3.944  0.00  0.00     0.004 A 
ATOM      4  C5  UNL d   1       1.981  -0.968   2.936  0.00  0.00    -0.004 A 
ATOM      5  C6  UNL d   1       3.346  -0.664   2.908  0.00  0.00    -0.075 A 
ATOM      6  C7  UNL d   1       3.920   0.208   1.831  0.00  0.00     0.076 C 
ATOM      7  C8  UNL d   1       4.180  -1.178   3.910  0.00  0.00     0.001 A 
ENDROOT
BRANCH   1   8
ATOM      8  C1  UNL d   1       4.574  -2.541   6.000  0.00  0.00     0.053 C 
ATOM      9  C   UNL d   1       5.996  -2.020   5.863  0.00  0.00     0.018 C 
ENDBRANCH   1   8
TORSDOF 1
ENDMDL
