MODEL 1
REMARK minimizedAffinity 13.1155701
REMARK minimizedRMSD -1
REMARK  1 active torsions:
REMARK  status: ('A' for Active; 'I' for Inactive)
REMARK    1  A    between atoms: C1_2  and  C2_3 
ROOT
ATOM      1  C2  UNL d   1       2.000  -2.915   3.715  0.00  0.00    -0.073 A 
ATOM      2  C3  UNL d   1       1.270  -3.708   4.607  0.00  0.00    -0.002 A 
ATOM      3  C4  UNL d   1       1.350  -5.099   4.542  0.00  0.00     0.004 A 
ATOM      4  C5  UNL d   1       2.166  -5.711   3.590  0.00  0.00    -0.004 A 
ATOM      5  C6  UNL d   1       2.913  -4.935   2.697  0.00  0.00    -0.075 A 
ATOM      6  C7  UNL d   1       3.793  -5.578   1.666  0.00  0.00     0.076 C 
ATOM      7  C8  UNL d   1       2.824  -3.539   2.768  0.00  0.00     0.001 A 
ENDROOT
BRANCH   1   8
ATOM      8  C1  UNL d   1       1.921  -1.411   3.787  0.00  0.00     0.053 C 
ATOM      9  C   UNL d   1       1.643  -0.790   2.427  0.00  0.00     0.018 C 
ENDBRANCH   1   8
TORSDOF 1
ENDMDL
