MODEL 1
REMARK minimizedAffinity 3.72518325
REMARK minimizedRMSD -1
REMARK  1 active torsions:
REMARK  status: ('A' for Active; 'I' for Inactive)
REMARK    1  A    between atoms: C1_2  and  C2_3 
ROOT
ATOM      1  C2  UNL d   1       1.896  -2.736   4.291  0.00  0.00    -0.073 A 
ATOM      2  C3  UNL d   1       2.797  -3.490   3.530  0.00  0.00    -0.002 A 
ATOM      3  C4  UNL d   1       2.762  -4.884   3.572  0.00  0.00     0.004 A 
ATOM      4  C5  UNL d   1       1.822  -5.539   4.368  0.00  0.00    -0.004 A 
ATOM      5  C6  UNL d   1       0.905  -4.803   5.126  0.00  0.00    -0.075 A 
ATOM      6  C7  UNL d   1      -0.111  -5.492   5.989  0.00  0.00     0.076 C 
ATOM      7  C8  UNL d   1       0.949  -3.404   5.081  0.00  0.00     0.001 A 
ENDROOT
BRANCH   1   8
ATOM      8  C1  UNL d   1       1.926  -1.231   4.244  0.00  0.00     0.053 C 
ATOM      9  C   UNL d   1       2.084  -0.708   2.825  0.00  0.00     0.018 C 
ENDBRANCH   1   8
TORSDOF 1
ENDMDL
