MODEL 1
REMARK minimizedAffinity -3.2910533
REMARK minimizedRMSD -1
REMARK  0 active torsions:
REMARK  status: ('A' for Active; 'I' for Inactive)
ROOT
ATOM      1  C   UNL d   1       1.199  -0.495  -1.139  0.00  0.00     0.172 C 
ATOM      2  N   UNL d   1       0.227   0.023  -0.205  0.00  0.00    -0.070 N 
ATOM      3  C1  UNL d   1      -0.664   1.031  -0.458  0.00  0.00    -0.004 A 
ATOM      4  C2  UNL d   1      -1.413   1.228   0.682  0.00  0.00    -0.047 A 
ATOM      5  C3  UNL d   1      -0.956   0.306   1.654  0.00  0.00    -0.047 A 
ATOM      6  C4  UNL d   1       0.060  -0.427   1.078  0.00  0.00    -0.004 A 
ENDROOT
TORSDOF 0
ENDMDL
