MODEL 1
REMARK minimizedAffinity -3.71876979
REMARK minimizedRMSD -1
REMARK  0 active torsions:
REMARK  status: ('A' for Active; 'I' for Inactive)
ROOT
ATOM      1  C   UNL d   1       0.855  -0.605  -0.772  0.00  0.00     0.172 C 
ATOM      2  N   UNL d   1      -0.047   0.060   0.139  0.00  0.00    -0.070 N 
ATOM      3  C1  UNL d   1      -0.382  -0.377   1.393  0.00  0.00    -0.004 A 
ATOM      4  C2  UNL d   1      -1.263   0.533   1.936  0.00  0.00    -0.047 A 
ATOM      5  C3  UNL d   1      -1.466   1.552   0.975  0.00  0.00    -0.047 A 
ATOM      6  C4  UNL d   1      -0.701   1.234  -0.128  0.00  0.00    -0.004 A 
ENDROOT
TORSDOF 0
ENDMDL
