MODEL 1
REMARK minimizedAffinity -4.16902399
REMARK minimizedRMSD -1
REMARK  0 active torsions:
REMARK  status: ('A' for Active; 'I' for Inactive)
ROOT
ATOM      1  C   UNL d   1      -0.033  -0.642  -0.733  0.00  0.00     0.172 C 
ATOM      2  N   UNL d   1      -0.792   0.173   0.187  0.00  0.00    -0.070 N 
ATOM      3  C1  UNL d   1      -0.930  -0.056   1.530  0.00  0.00    -0.004 A 
ATOM      4  C2  UNL d   1      -1.726   0.942   2.048  0.00  0.00    -0.047 A 
ATOM      5  C3  UNL d   1      -2.079   1.800   0.980  0.00  0.00    -0.047 A 
ATOM      6  C4  UNL d   1      -1.487   1.301  -0.161  0.00  0.00    -0.004 A 
ENDROOT
TORSDOF 0
ENDMDL
