MODEL 1
REMARK minimizedAffinity -3.92030835
REMARK minimizedRMSD -1
REMARK  0 active torsions:
REMARK  status: ('A' for Active; 'I' for Inactive)
ROOT
ATOM      1  C   UNL d   1       0.821  -0.429  -0.541  0.00  0.00     0.172 C 
ATOM      2  N   UNL d   1      -0.148   0.305   0.238  0.00  0.00    -0.070 N 
ATOM      3  C1  UNL d   1      -0.672   1.528  -0.086  0.00  0.00    -0.004 A 
ATOM      4  C2  UNL d   1      -1.557   1.885   0.908  0.00  0.00    -0.047 A 
ATOM      5  C3  UNL d   1      -1.564   0.841   1.864  0.00  0.00    -0.047 A 
ATOM      6  C4  UNL d   1      -0.683  -0.124   1.424  0.00  0.00    -0.004 A 
ENDROOT
TORSDOF 0
ENDMDL
