MODEL 1
REMARK minimizedAffinity -2.90969372
REMARK minimizedRMSD -1
REMARK  0 active torsions:
REMARK  status: ('A' for Active; 'I' for Inactive)
ROOT
ATOM      1  C   UNL d   1       0.360  -0.189  -0.106  0.00  0.00     0.172 C 
ATOM      2  N   UNL d   1      -0.705   0.554   0.526  0.00  0.00    -0.070 N 
ATOM      3  C1  UNL d   1      -0.691   1.036   1.808  0.00  0.00    -0.004 A 
ATOM      4  C2  UNL d   1      -1.887   1.684   2.028  0.00  0.00    -0.047 A 
ATOM      5  C3  UNL d   1      -2.647   1.587   0.839  0.00  0.00    -0.047 A 
ATOM      6  C4  UNL d   1      -1.892   0.882  -0.075  0.00  0.00    -0.004 A 
ENDROOT
TORSDOF 0
ENDMDL
