MODEL 1
REMARK minimizedAffinity -0.990925014
REMARK minimizedRMSD -1
REMARK  0 active torsions:
REMARK  status: ('A' for Active; 'I' for Inactive)
ROOT
ATOM      1  C   UNL d   1       0.874  -0.569  -0.647  0.00  0.00     0.172 C 
ATOM      2  N   UNL d   1       0.050   0.201   0.254  0.00  0.00    -0.070 N 
ATOM      3  C1  UNL d   1      -0.650   1.332  -0.073  0.00  0.00    -0.004 A 
ATOM      4  C2  UNL d   1      -1.306   1.765   1.059  0.00  0.00    -0.047 A 
ATOM      5  C3  UNL d   1      -0.988   0.864   2.103  0.00  0.00    -0.047 A 
ATOM      6  C4  UNL d   1      -0.147  -0.094   1.577  0.00  0.00    -0.004 A 
ENDROOT
TORSDOF 0
ENDMDL
