MODEL 1
REMARK minimizedAffinity -3.20313048
REMARK minimizedRMSD -1
REMARK  0 active torsions:
REMARK  status: ('A' for Active; 'I' for Inactive)
ROOT
ATOM      1  C   UNL d   1       0.957  -0.232  -0.732  0.00  0.00     0.172 C 
ATOM      2  N   UNL d   1       0.002   0.462   0.099  0.00  0.00    -0.070 N 
ATOM      3  C1  UNL d   1      -0.423   0.057   1.337  0.00  0.00    -0.004 A 
ATOM      4  C2  UNL d   1      -1.330   0.987   1.797  0.00  0.00    -0.047 A 
ATOM      5  C3  UNL d   1      -1.456   1.985   0.801  0.00  0.00    -0.047 A 
ATOM      6  C4  UNL d   1      -0.620   1.635  -0.239  0.00  0.00    -0.004 A 
ENDROOT
TORSDOF 0
ENDMDL
