MODEL 1
REMARK minimizedAffinity -3.0344317
REMARK minimizedRMSD -1
REMARK  0 active torsions:
REMARK  status: ('A' for Active; 'I' for Inactive)
ROOT
ATOM      1  C   UNL d   1      -1.812   1.539   1.793  0.00  0.00     0.172 C 
ATOM      2  N   UNL d   1      -1.025   0.572   1.065  0.00  0.00    -0.070 N 
ATOM      3  C1  UNL d   1      -0.496  -0.579   1.583  0.00  0.00    -0.004 A 
ATOM      4  C2  UNL d   1       0.183  -1.224   0.572  0.00  0.00    -0.047 A 
ATOM      5  C3  UNL d   1       0.057  -0.433  -0.595  0.00  0.00    -0.047 A 
ATOM      6  C4  UNL d   1      -0.695   0.673  -0.261  0.00  0.00    -0.004 A 
ENDROOT
TORSDOF 0
ENDMDL
