MODEL 1
REMARK minimizedAffinity -2.65173888
REMARK minimizedRMSD -1
REMARK  0 active torsions:
REMARK  status: ('A' for Active; 'I' for Inactive)
ROOT
ATOM      1  C   UNL d   1      -2.329   1.901   1.173  0.00  0.00     0.172 C 
ATOM      2  N   UNL d   1      -1.199   1.060   0.855  0.00  0.00    -0.070 N 
ATOM      3  C1  UNL d   1      -0.492   0.300   1.748  0.00  0.00    -0.004 A 
ATOM      4  C2  UNL d   1       0.503  -0.352   1.053  0.00  0.00    -0.047 A 
ATOM      5  C3  UNL d   1       0.392   0.029  -0.305  0.00  0.00    -0.047 A 
ATOM      6  C4  UNL d   1      -0.670   0.904  -0.400  0.00  0.00    -0.004 A 
ENDROOT
TORSDOF 0
ENDMDL
