MODEL 1
REMARK minimizedAffinity -3.20083785
REMARK minimizedRMSD -1
REMARK  0 active torsions:
REMARK  status: ('A' for Active; 'I' for Inactive)
ROOT
ATOM      1  C   UNL d   1       0.204  -0.294  -0.447  0.00  0.00     0.172 C 
ATOM      2  N   UNL d   1      -0.648   0.493   0.414  0.00  0.00    -0.070 N 
ATOM      3  C1  UNL d   1      -1.457   1.522   0.011  0.00  0.00    -0.004 A 
ATOM      4  C2  UNL d   1      -2.103   2.012   1.126  0.00  0.00    -0.047 A 
ATOM      5  C3  UNL d   1      -1.666   1.251   2.237  0.00  0.00    -0.047 A 
ATOM      6  C4  UNL d   1      -0.766   0.318   1.767  0.00  0.00    -0.004 A 
ENDROOT
TORSDOF 0
ENDMDL
