MODEL 1
REMARK minimizedAffinity -3.19559622
REMARK minimizedRMSD -1
REMARK  0 active torsions:
REMARK  status: ('A' for Active; 'I' for Inactive)
ROOT
ATOM      1  C   UNL d   1       0.841  -0.793  -0.899  0.00  0.00     0.172 C 
ATOM      2  N   UNL d   1      -0.046   0.055  -0.139  0.00  0.00    -0.070 N 
ATOM      3  C1  UNL d   1      -0.732   1.135  -0.629  0.00  0.00    -0.004 A 
ATOM      4  C2  UNL d   1      -1.465   1.674   0.406  0.00  0.00    -0.047 A 
ATOM      5  C3  UNL d   1      -1.210   0.892   1.558  0.00  0.00    -0.047 A 
ATOM      6  C4  UNL d   1      -0.329  -0.103   1.192  0.00  0.00    -0.004 A 
ENDROOT
TORSDOF 0
ENDMDL
