MODEL 1
REMARK minimizedAffinity -2.56938195
REMARK minimizedRMSD -1
REMARK  1 active torsions:
REMARK  status: ('A' for Active; 'I' for Inactive)
REMARK    1  A    between atoms: C1_2  and  C2_3 
ROOT
ATOM      1  C2  UNL d   1       0.338  -1.054   1.169  0.00  0.00    -0.073 A 
ATOM      2  C3  UNL d   1       1.469  -1.764   0.750  0.00  0.00    -0.002 A 
ATOM      3  C4  UNL d   1       1.907  -1.674  -0.572  0.00  0.00     0.004 A 
ATOM      4  C5  UNL d   1       1.225  -0.870  -1.485  0.00  0.00    -0.004 A 
ATOM      5  C6  UNL d   1       0.100  -0.144  -1.082  0.00  0.00    -0.075 A 
ATOM      6  C7  UNL d   1      -0.647   0.724  -2.052  0.00  0.00     0.076 C 
ATOM      7  C8  UNL d   1      -0.336  -0.241   0.247  0.00  0.00     0.001 A 
ENDROOT
BRANCH   1   8
ATOM      8  C1  UNL d   1      -0.135  -1.143   2.597  0.00  0.00     0.053 C 
ATOM      9  C   UNL d   1       0.980  -1.559   3.543  0.00  0.00     0.018 C 
ENDBRANCH   1   8
TORSDOF 1
ENDMDL
