MODEL 1
REMARK minimizedAffinity 1.5254761
REMARK minimizedRMSD -1
REMARK  1 active torsions:
REMARK  status: ('A' for Active; 'I' for Inactive)
REMARK    1  A    between atoms: C1_2  and  C2_3 
ROOT
ATOM      1  C2  UNL d   1       0.900  -1.174   1.054  0.00  0.00    -0.073 A 
ATOM      2  C3  UNL d   1       0.458  -1.092   2.380  0.00  0.00    -0.002 A 
ATOM      3  C4  UNL d   1      -0.866  -0.752   2.661  0.00  0.00     0.004 A 
ATOM      4  C5  UNL d   1      -1.761  -0.498   1.622  0.00  0.00    -0.004 A 
ATOM      5  C6  UNL d   1      -1.341  -0.587   0.291  0.00  0.00    -0.075 A 
ATOM      6  C7  UNL d   1      -2.291  -0.314  -0.838  0.00  0.00     0.076 C 
ATOM      7  C8  UNL d   1      -0.009  -0.926   0.017  0.00  0.00     0.001 A 
ENDROOT
BRANCH   1   8
ATOM      8  C1  UNL d   1       2.327  -1.547   0.746  0.00  0.00     0.053 C 
ATOM      9  C   UNL d   1       2.500  -3.048   0.573  0.00  0.00     0.018 C 
ENDBRANCH   1   8
TORSDOF 1
ENDMDL
