MODEL 1
REMARK minimizedAffinity -0.217411593
REMARK minimizedRMSD -1
REMARK  1 active torsions:
REMARK  status: ('A' for Active; 'I' for Inactive)
REMARK    1  A    between atoms: C1_2  and  C2_3 
ROOT
ATOM      1  C2  UNL d   1      -0.896  -0.963   2.038  0.00  0.00    -0.073 A 
ATOM      2  C3  UNL d   1      -1.831  -0.213   1.315  0.00  0.00    -0.002 A 
ATOM      3  C4  UNL d   1      -3.198  -0.442   1.480  0.00  0.00     0.004 A 
ATOM      4  C5  UNL d   1      -3.643  -1.417   2.373  0.00  0.00    -0.004 A 
ATOM      5  C6  UNL d   1      -2.725  -2.168   3.113  0.00  0.00    -0.075 A 
ATOM      6  C7  UNL d   1      -3.188  -3.222   4.076  0.00  0.00     0.076 C 
ATOM      7  C8  UNL d   1      -1.354  -1.934   2.940  0.00  0.00     0.001 A 
ENDROOT
BRANCH   1   8
ATOM      8  C1  UNL d   1       0.580  -0.714   1.868  0.00  0.00     0.053 C 
ATOM      9  C   UNL d   1       1.152  -1.467   0.677  0.00  0.00     0.018 C 
ENDBRANCH   1   8
TORSDOF 1
ENDMDL
