MODEL 1
REMARK minimizedAffinity 6.97934198
REMARK minimizedRMSD -1
REMARK  1 active torsions:
REMARK  status: ('A' for Active; 'I' for Inactive)
REMARK    1  A    between atoms: C1_2  and  C2_3 
ROOT
ATOM      1  C2  UNL d   1       1.819   5.992   3.949  0.00  0.00    -0.073 A 
ATOM      2  C3  UNL d   1       2.830   6.000   4.916  0.00  0.00    -0.002 A 
ATOM      3  C4  UNL d   1       4.172   5.998   4.533  0.00  0.00     0.004 A 
ATOM      4  C5  UNL d   1       4.516   5.996   3.182  0.00  0.00    -0.004 A 
ATOM      5  C6  UNL d   1       3.520   6.000   2.200  0.00  0.00    -0.075 A 
ATOM      6  C7  UNL d   1       3.874   5.995   0.742  0.00  0.00     0.076 C 
ATOM      7  C8  UNL d   1       2.175   5.999   2.593  0.00  0.00     0.001 A 
ENDROOT
BRANCH   1   8
ATOM      8  C1  UNL d   1       0.368   6.000   4.358  0.00  0.00     0.053 C 
ATOM      9  C   UNL d   1      -0.185   4.593   4.523  0.00  0.00     0.018 C 
ENDBRANCH   1   8
TORSDOF 1
ENDMDL
