MODEL 1
REMARK minimizedAffinity -3.10014677
REMARK minimizedRMSD -1
REMARK  1 active torsions:
REMARK  status: ('A' for Active; 'I' for Inactive)
REMARK    1  A    between atoms: C1_2  and  C2_3 
ROOT
ATOM      1  C2  UNL d   1      -1.327   0.713  -2.546  0.00  0.00    -0.073 A 
ATOM      2  C3  UNL d   1      -0.264   1.565  -2.867  0.00  0.00    -0.002 A 
ATOM      3  C4  UNL d   1      -0.511   2.868  -3.301  0.00  0.00     0.004 A 
ATOM      4  C5  UNL d   1      -1.821   3.334  -3.412  0.00  0.00    -0.004 A 
ATOM      5  C6  UNL d   1      -2.896   2.502  -3.084  0.00  0.00    -0.075 A 
ATOM      6  C7  UNL d   1      -4.311   2.987  -3.200  0.00  0.00     0.076 C 
ATOM      7  C8  UNL d   1      -2.640   1.194  -2.652  0.00  0.00     0.001 A 
ENDROOT
BRANCH   1   8
ATOM      8  C1  UNL d   1      -1.064  -0.693  -2.070  0.00  0.00     0.053 C 
ATOM      9  C   UNL d   1      -0.501  -0.721  -0.658  0.00  0.00     0.018 C 
ENDBRANCH   1   8
TORSDOF 1
ENDMDL
