MODEL 1
REMARK minimizedAffinity 6.08620596
REMARK minimizedRMSD -1
REMARK  1 active torsions:
REMARK  status: ('A' for Active; 'I' for Inactive)
REMARK    1  A    between atoms: C1_2  and  C2_3 
ROOT
ATOM      1  C2  UNL d   1       0.224  -0.899   0.050  0.00  0.00    -0.073 A 
ATOM      2  C3  UNL d   1       0.868  -1.044   1.284  0.00  0.00    -0.002 A 
ATOM      3  C4  UNL d   1       0.146  -0.932   2.473  0.00  0.00     0.004 A 
ATOM      4  C5  UNL d   1      -1.226  -0.681   2.441  0.00  0.00    -0.004 A 
ATOM      5  C6  UNL d   1      -1.889  -0.545   1.217  0.00  0.00    -0.075 A 
ATOM      6  C7  UNL d   1      -3.364  -0.273   1.165  0.00  0.00     0.076 C 
ATOM      7  C8  UNL d   1      -1.157  -0.656   0.028  0.00  0.00     0.001 A 
ENDROOT
BRANCH   1   8
ATOM      8  C1  UNL d   1       0.998  -1.026  -1.236  0.00  0.00     0.053 C 
ATOM      9  C   UNL d   1       1.661   0.284  -1.634  0.00  0.00     0.018 C 
ENDBRANCH   1   8
TORSDOF 1
ENDMDL
