MODEL 1
REMARK minimizedAffinity 6.34520674
REMARK minimizedRMSD -1
REMARK  1 active torsions:
REMARK  status: ('A' for Active; 'I' for Inactive)
REMARK    1  A    between atoms: C1_2  and  C2_3 
ROOT
ATOM      1  C2  UNL d   1       0.726  -0.949   0.074  0.00  0.00    -0.073 A 
ATOM      2  C3  UNL d   1       0.093  -0.850  -1.170  0.00  0.00    -0.002 A 
ATOM      3  C4  UNL d   1      -1.279  -0.607  -1.246  0.00  0.00     0.004 A 
ATOM      4  C5  UNL d   1      -2.030  -0.454  -0.080  0.00  0.00    -0.004 A 
ATOM      5  C6  UNL d   1      -1.413  -0.539   1.172  0.00  0.00    -0.075 A 
ATOM      6  C7  UNL d   1      -2.207  -0.379   2.436  0.00  0.00     0.076 C 
ATOM      7  C8  UNL d   1      -0.035  -0.786   1.240  0.00  0.00     0.001 A 
ENDROOT
BRANCH   1   8
ATOM      8  C1  UNL d   1       2.209  -1.205   0.160  0.00  0.00     0.053 C 
ATOM      9  C   UNL d   1       2.539  -2.686   0.051  0.00  0.00     0.018 C 
ENDBRANCH   1   8
TORSDOF 1
ENDMDL
