MODEL 1
REMARK minimizedAffinity 7.27489281
REMARK minimizedRMSD -1
REMARK  0 active torsions:
REMARK  status: ('A' for Active; 'I' for Inactive)
ROOT
ATOM      1  C2' OXE d   1       1.106   4.387  -0.740  0.00  0.00     0.078 C 
ATOM      2  C1' OXE d   1       1.695   1.667  -1.106  0.00  0.00     0.078 C 
ATOM      3  C1  OXE d   1       0.259   2.047  -0.842  0.00  0.00    -0.078 A 
ATOM      4  C2  OXE d   1      -0.013   3.375  -0.618  0.00  0.00    -0.078 A 
ATOM      5  C3  OXE d   1      -1.328   3.787  -0.425  0.00  0.00     0.003 A 
ATOM      6  C4  OXE d   1      -2.356   2.843  -0.303  0.00  0.00    -0.002 A 
ATOM      7  C5  OXE d   1      -2.094   1.481  -0.488  0.00  0.00    -0.002 A 
ATOM      8  C6  OXE d   1      -0.803   1.072  -0.800  0.00  0.00     0.003 A 
ENDROOT
TORSDOF 0
ENDMDL
