MODEL 1
REMARK minimizedAffinity 1.90451634
REMARK minimizedRMSD -1
REMARK  0 active torsions:
REMARK  status: ('A' for Active; 'I' for Inactive)
ROOT
ATOM      1  C2' OXE d   1      -3.485   2.021  -0.548  0.00  0.00     0.078 C 
ATOM      2  C1' OXE d   1      -3.052  -0.497   0.617  0.00  0.00     0.078 C 
ATOM      3  C1  OXE d   1      -1.899   0.475   0.592  0.00  0.00    -0.078 A 
ATOM      4  C2  OXE d   1      -2.106   1.687  -0.021  0.00  0.00    -0.078 A 
ATOM      5  C3  OXE d   1      -1.093   2.641  -0.024  0.00  0.00     0.003 A 
ATOM      6  C4  OXE d   1       0.183   2.321   0.457  0.00  0.00    -0.002 A 
ATOM      7  C5  OXE d   1       0.427   1.078   1.050  0.00  0.00    -0.002 A 
ATOM      8  C6  OXE d   1      -0.613   0.161   1.164  0.00  0.00     0.003 A 
ENDROOT
TORSDOF 0
ENDMDL
