MODEL 1
REMARK minimizedAffinity 5.63950205
REMARK minimizedRMSD -1
REMARK  0 active torsions:
REMARK  status: ('A' for Active; 'I' for Inactive)
ROOT
ATOM      1  C2' OXE d   1      -2.263   1.498  -1.445  0.00  0.00     0.078 C 
ATOM      2  C1' OXE d   1      -3.501   0.021   0.596  0.00  0.00     0.078 C 
ATOM      3  C1  OXE d   1      -2.087   0.493   0.827  0.00  0.00    -0.078 A 
ATOM      4  C2  OXE d   1      -1.473   1.174  -0.196  0.00  0.00    -0.078 A 
ATOM      5  C3  OXE d   1      -0.188   1.679  -0.015  0.00  0.00     0.003 A 
ATOM      6  C4  OXE d   1       0.540   1.367   1.140  0.00  0.00    -0.002 A 
ATOM      7  C5  OXE d   1      -0.053   0.640   2.178  0.00  0.00    -0.002 A 
ATOM      8  C6  OXE d   1      -1.377   0.233   2.055  0.00  0.00     0.003 A 
ENDROOT
TORSDOF 0
ENDMDL
