MODEL 1
REMARK minimizedAffinity -2.94362473
REMARK minimizedRMSD -1
REMARK  0 active torsions:
REMARK  status: ('A' for Active; 'I' for Inactive)
ROOT
ATOM      1  C2' OXE d   1       0.873   1.470   0.601  0.00  0.00     0.078 C 
ATOM      2  C1' OXE d   1      -0.269  -0.960   1.419  0.00  0.00     0.078 C 
ATOM      3  C1  OXE d   1      -1.198   0.128   0.940  0.00  0.00    -0.078 A 
ATOM      4  C2  OXE d   1      -0.634   1.330   0.586  0.00  0.00    -0.078 A 
ATOM      5  C3  OXE d   1      -1.440   2.348   0.086  0.00  0.00     0.003 A 
ATOM      6  C4  OXE d   1      -2.834   2.214   0.084  0.00  0.00    -0.002 A 
ATOM      7  C5  OXE d   1      -3.431   1.012   0.478  0.00  0.00    -0.002 A 
ATOM      8  C6  OXE d   1      -2.627  -0.053   0.868  0.00  0.00     0.003 A 
ENDROOT
TORSDOF 0
ENDMDL
