MODEL 1
REMARK minimizedAffinity 1.78436053
REMARK minimizedRMSD -1
REMARK  0 active torsions:
REMARK  status: ('A' for Active; 'I' for Inactive)
ROOT
ATOM      1  C2' OXE d   1      -1.003   1.686   3.483  0.00  0.00     0.078 C 
ATOM      2  C1' OXE d   1       0.583   0.127   1.770  0.00  0.00     0.078 C 
ATOM      3  C1  OXE d   1      -0.557   0.903   1.160  0.00  0.00    -0.078 A 
ATOM      4  C2  OXE d   1      -1.356   1.627   2.012  0.00  0.00    -0.078 A 
ATOM      5  C3  OXE d   1      -2.388   2.405   1.495  0.00  0.00     0.003 A 
ATOM      6  C4  OXE d   1      -2.714   2.337   0.135  0.00  0.00    -0.002 A 
ATOM      7  C5  OXE d   1      -1.938   1.574  -0.744  0.00  0.00    -0.002 A 
ATOM      8  C6  OXE d   1      -0.832   0.887  -0.255  0.00  0.00     0.003 A 
ENDROOT
TORSDOF 0
ENDMDL
