MODEL 1
REMARK minimizedAffinity -1.69612718
REMARK minimizedRMSD -1
REMARK  0 active torsions:
REMARK  status: ('A' for Active; 'I' for Inactive)
ROOT
ATOM      1  C2' OXE d   1       0.753   0.966   0.975  0.00  0.00     0.078 C 
ATOM      2  C1' OXE d   1      -0.528   2.858  -0.655  0.00  0.00     0.078 C 
ATOM      3  C1  OXE d   1      -1.394   1.897   0.120  0.00  0.00    -0.078 A 
ATOM      4  C2  OXE d   1      -0.758   0.944   0.879  0.00  0.00    -0.078 A 
ATOM      5  C3  OXE d   1      -1.509   0.068   1.657  0.00  0.00     0.003 A 
ATOM      6  C4  OXE d   1      -2.905   0.048   1.554  0.00  0.00    -0.002 A 
ATOM      7  C5  OXE d   1      -3.572   0.984   0.756  0.00  0.00    -0.002 A 
ATOM      8  C6  OXE d   1      -2.834   1.940   0.068  0.00  0.00     0.003 A 
ENDROOT
TORSDOF 0
ENDMDL
