MODEL 1
REMARK minimizedAffinity -2.06199861
REMARK minimizedRMSD -1
REMARK  0 active torsions:
REMARK  status: ('A' for Active; 'I' for Inactive)
ROOT
ATOM      1  C2' OXE d   1       0.418   2.347  -0.548  0.00  0.00     0.078 C 
ATOM      2  C1' OXE d   1       0.072   0.476   1.516  0.00  0.00     0.078 C 
ATOM      3  C1  OXE d   1      -1.164   1.022   0.848  0.00  0.00    -0.078 A 
ATOM      4  C2  OXE d   1      -0.988   1.973  -0.129  0.00  0.00    -0.078 A 
ATOM      5  C3  OXE d   1      -2.092   2.470  -0.815  0.00  0.00     0.003 A 
ATOM      6  C4  OXE d   1      -3.389   2.125  -0.415  0.00  0.00    -0.002 A 
ATOM      7  C5  OXE d   1      -3.592   1.189   0.604  0.00  0.00    -0.002 A 
ATOM      8  C6  OXE d   1      -2.492   0.598   1.216  0.00  0.00     0.003 A 
ENDROOT
TORSDOF 0
ENDMDL
