MODEL 1
REMARK minimizedAffinity -1.9804734
REMARK minimizedRMSD -1
REMARK  0 active torsions:
REMARK  status: ('A' for Active; 'I' for Inactive)
ROOT
ATOM      1  C2' OXE d   1       3.740   1.415  -0.695  0.00  0.00     0.078 C 
ATOM      2  C1' OXE d   1       3.527   0.941   2.064  0.00  0.00     0.078 C 
ATOM      3  C1  OXE d   1       2.274   1.327   1.317  0.00  0.00    -0.078 A 
ATOM      4  C2  OXE d   1       2.397   1.602  -0.023  0.00  0.00    -0.078 A 
ATOM      5  C3  OXE d   1       1.263   1.909  -0.770  0.00  0.00     0.003 A 
ATOM      6  C4  OXE d   1       0.026   2.089  -0.140  0.00  0.00    -0.002 A 
ATOM      7  C5  OXE d   1      -0.113   1.853   1.232  0.00  0.00    -0.002 A 
ATOM      8  C6  OXE d   1       0.990   1.430   1.966  0.00  0.00     0.003 A 
ENDROOT
TORSDOF 0
ENDMDL
