MODEL 1
REMARK minimizedAffinity 3.10536742
REMARK minimizedRMSD -1
REMARK  0 active torsions:
REMARK  status: ('A' for Active; 'I' for Inactive)
ROOT
ATOM      1  C2' OXE d   1      -4.389   1.752  -0.371  0.00  0.00     0.078 C 
ATOM      2  C1' OXE d   1      -3.979  -0.351   1.443  0.00  0.00     0.078 C 
ATOM      3  C1  OXE d   1      -2.816   0.563   1.151  0.00  0.00    -0.078 A 
ATOM      4  C2  OXE d   1      -3.012   1.561   0.227  0.00  0.00    -0.078 A 
ATOM      5  C3  OXE d   1      -1.989   2.467  -0.038  0.00  0.00     0.003 A 
ATOM      6  C4  OXE d   1      -0.715   2.277   0.512  0.00  0.00    -0.002 A 
ATOM      7  C5  OXE d   1      -0.482   1.243   1.425  0.00  0.00    -0.002 A 
ATOM      8  C6  OXE d   1      -1.531   0.405   1.787  0.00  0.00     0.003 A 
ENDROOT
TORSDOF 0
ENDMDL
