MODEL 1
REMARK minimizedAffinity 1.51594448
REMARK minimizedRMSD -1
REMARK  0 active torsions:
REMARK  status: ('A' for Active; 'I' for Inactive)
ROOT
ATOM      1  C2' OXE d   1      -1.849   2.075  -1.039  0.00  0.00     0.078 C 
ATOM      2  C1' OXE d   1       0.908   1.952  -0.530  0.00  0.00     0.078 C 
ATOM      3  C1  OXE d   1      -0.008   1.154   0.363  0.00  0.00    -0.078 A 
ATOM      4  C2  OXE d   1      -1.360   1.257   0.136  0.00  0.00    -0.078 A 
ATOM      5  C3  OXE d   1      -2.246   0.499   0.896  0.00  0.00     0.003 A 
ATOM      6  C4  OXE d   1      -1.786  -0.247   1.987  0.00  0.00    -0.002 A 
ATOM      7  C5  OXE d   1      -0.416  -0.335   2.261  0.00  0.00    -0.002 A 
ATOM      8  C6  OXE d   1       0.487   0.324   1.434  0.00  0.00     0.003 A 
ENDROOT
TORSDOF 0
ENDMDL
