MODEL 1
REMARK minimizedAffinity 2.19516826
REMARK minimizedRMSD -1
REMARK  0 active torsions:
REMARK  status: ('A' for Active; 'I' for Inactive)
ROOT
ATOM      1  C2' OXE d   1      -0.356   1.814   0.758  0.00  0.00     0.078 C 
ATOM      2  C1' OXE d   1      -1.601  -0.244   2.208  0.00  0.00     0.078 C 
ATOM      3  C1  OXE d   1      -2.473   0.642   1.353  0.00  0.00    -0.078 A 
ATOM      4  C2  OXE d   1      -1.862   1.675   0.684  0.00  0.00    -0.078 A 
ATOM      5  C3  OXE d   1      -2.611   2.488  -0.161  0.00  0.00     0.003 A 
ATOM      6  C4  OXE d   1      -4.005   2.359  -0.217  0.00  0.00    -0.002 A 
ATOM      7  C5  OXE d   1      -4.652   1.338   0.488  0.00  0.00    -0.002 A 
ATOM      8  C6  OXE d   1      -3.897   0.447   1.242  0.00  0.00     0.003 A 
ENDROOT
TORSDOF 0
ENDMDL
