MODEL 1
REMARK minimizedAffinity 8.56872749
REMARK minimizedRMSD -1
REMARK  0 active torsions:
REMARK  status: ('A' for Active; 'I' for Inactive)
ROOT
ATOM      1  C2' OXE d   1       1.218   3.023  -0.298  0.00  0.00     0.078 C 
ATOM      2  C1' OXE d   1       0.441   1.548   1.961  0.00  0.00     0.078 C 
ATOM      3  C1  OXE d   1      -0.625   1.913   0.958  0.00  0.00    -0.078 A 
ATOM      4  C2  OXE d   1      -0.244   2.675  -0.120  0.00  0.00    -0.078 A 
ATOM      5  C3  OXE d   1      -1.177   2.993  -1.103  0.00  0.00     0.003 A 
ATOM      6  C4  OXE d   1      -2.529   2.677  -0.927  0.00  0.00    -0.002 A 
ATOM      7  C5  OXE d   1      -2.945   1.936   0.184  0.00  0.00    -0.002 A 
ATOM      8  C6  OXE d   1      -2.001   1.510   1.112  0.00  0.00     0.003 A 
ENDROOT
TORSDOF 0
ENDMDL
