MODEL 1
REMARK minimizedAffinity -0.304436892
REMARK minimizedRMSD -1
REMARK  0 active torsions:
REMARK  status: ('A' for Active; 'I' for Inactive)
ROOT
ATOM      1  C2' OXE d   1      -3.556   1.851   0.028  0.00  0.00     0.078 C 
ATOM      2  C1' OXE d   1      -3.100  -0.552   1.405  0.00  0.00     0.078 C 
ATOM      3  C1  OXE d   1      -1.898   0.256   0.984  0.00  0.00    -0.078 A 
ATOM      4  C2  OXE d   1      -2.129   1.407   0.269  0.00  0.00    -0.078 A 
ATOM      5  C3  OXE d   1      -1.059   2.217  -0.097  0.00  0.00     0.003 A 
ATOM      6  C4  OXE d   1       0.258   1.794   0.122  0.00  0.00    -0.002 A 
ATOM      7  C5  OXE d   1       0.516   0.606   0.813  0.00  0.00    -0.002 A 
ATOM      8  C6  OXE d   1      -0.549  -0.152   1.287  0.00  0.00     0.003 A 
ENDROOT
TORSDOF 0
ENDMDL
