MODEL 1
REMARK minimizedAffinity 3.27827978
REMARK minimizedRMSD -1
REMARK  0 active torsions:
REMARK  status: ('A' for Active; 'I' for Inactive)
ROOT
ATOM      1  C2' OXE d   1      -1.154   1.100   0.073  0.00  0.00     0.078 C 
ATOM      2  C1' OXE d   1      -1.105   2.688   2.387  0.00  0.00     0.078 C 
ATOM      3  C1  OXE d   1       0.216   2.242   1.812  0.00  0.00    -0.078 A 
ATOM      4  C2  OXE d   1       0.181   1.426   0.707  0.00  0.00    -0.078 A 
ATOM      5  C3  OXE d   1       1.372   1.031   0.104  0.00  0.00     0.003 A 
ATOM      6  C4  OXE d   1       2.602   1.328   0.703  0.00  0.00    -0.002 A 
ATOM      7  C5  OXE d   1       2.659   2.125   1.851  0.00  0.00    -0.002 A 
ATOM      8  C6  OXE d   1       1.479   2.624   2.393  0.00  0.00     0.003 A 
ENDROOT
TORSDOF 0
ENDMDL
