MODEL 1
REMARK minimizedAffinity 3.27716017
REMARK minimizedRMSD -1
REMARK  0 active torsions:
REMARK  status: ('A' for Active; 'I' for Inactive)
ROOT
ATOM      1  C2' OXE d   1      -1.181   2.691   2.366  0.00  0.00     0.078 C 
ATOM      2  C1' OXE d   1      -1.298   0.774   0.318  0.00  0.00     0.078 C 
ATOM      3  C1  OXE d   1       0.062   1.278   0.734  0.00  0.00    -0.078 A 
ATOM      4  C2  OXE d   1       0.107   2.250   1.704  0.00  0.00    -0.078 A 
ATOM      5  C3  OXE d   1       1.338   2.709   2.163  0.00  0.00     0.003 A 
ATOM      6  C4  OXE d   1       2.523   2.304   1.539  0.00  0.00    -0.002 A 
ATOM      7  C5  OXE d   1       2.498   1.344   0.521  0.00  0.00    -0.002 A 
ATOM      8  C6  OXE d   1       1.281   0.791   0.137  0.00  0.00     0.003 A 
ENDROOT
TORSDOF 0
ENDMDL
