MODEL 1
REMARK minimizedAffinity 1.99520445
REMARK minimizedRMSD -1
REMARK  0 active torsions:
REMARK  status: ('A' for Active; 'I' for Inactive)
ROOT
ATOM      1  C2' OXE d   1      -1.041   3.105   2.830  0.00  0.00     0.078 C 
ATOM      2  C1' OXE d   1       1.704   3.486   3.280  0.00  0.00     0.078 C 
ATOM      3  C1  OXE d   1       1.296   2.560   2.162  0.00  0.00    -0.078 A 
ATOM      4  C2  OXE d   1      -0.048   2.343   1.979  0.00  0.00    -0.078 A 
ATOM      5  C3  OXE d   1      -0.480   1.541   0.927  0.00  0.00     0.003 A 
ATOM      6  C4  OXE d   1       0.444   0.831   0.150  0.00  0.00    -0.002 A 
ATOM      7  C5  OXE d   1       1.818   1.007   0.346  0.00  0.00    -0.002 A 
ATOM      8  C6  OXE d   1       2.260   1.898   1.317  0.00  0.00     0.003 A 
ENDROOT
TORSDOF 0
ENDMDL
