MODEL 1
REMARK minimizedAffinity 7.57905817
REMARK minimizedRMSD -1
REMARK  0 active torsions:
REMARK  status: ('A' for Active; 'I' for Inactive)
ROOT
ATOM      1  C2' OXE d   1       3.122   1.944   1.403  0.00  0.00     0.078 C 
ATOM      2  C1' OXE d   1       1.083   1.051  -0.308  0.00  0.00     0.078 C 
ATOM      3  C1  OXE d   1       0.683   1.855   0.904  0.00  0.00    -0.078 A 
ATOM      4  C2  OXE d   1       1.683   2.248   1.760  0.00  0.00    -0.078 A 
ATOM      5  C3  OXE d   1       1.375   3.038   2.864  0.00  0.00     0.003 A 
ATOM      6  C4  OXE d   1       0.040   3.306   3.193  0.00  0.00    -0.002 A 
ATOM      7  C5  OXE d   1      -0.997   2.881   2.355  0.00  0.00    -0.002 A 
ATOM      8  C6  OXE d   1      -0.690   2.193   1.187  0.00  0.00     0.003 A 
ENDROOT
TORSDOF 0
ENDMDL
