MODEL 1
REMARK minimizedAffinity -1.44844639
REMARK minimizedRMSD -1
REMARK  0 active torsions:
REMARK  status: ('A' for Active; 'I' for Inactive)
ROOT
ATOM      1  C2' OXE d   1      -1.113   3.190   2.725  0.00  0.00     0.078 C 
ATOM      2  C1' OXE d   1       1.608   3.273   3.411  0.00  0.00     0.078 C 
ATOM      3  C1  OXE d   1       1.202   2.406   2.245  0.00  0.00    -0.078 A 
ATOM      4  C2  OXE d   1      -0.137   2.335   1.946  0.00  0.00    -0.078 A 
ATOM      5  C3  OXE d   1      -0.560   1.594   0.846  0.00  0.00     0.003 A 
ATOM      6  C4  OXE d   1       0.348   0.798   0.137  0.00  0.00    -0.002 A 
ATOM      7  C5  OXE d   1       1.711   0.824   0.451  0.00  0.00    -0.002 A 
ATOM      8  C6  OXE d   1       2.160   1.654   1.472  0.00  0.00     0.003 A 
ENDROOT
TORSDOF 0
ENDMDL
