MODEL 1
REMARK minimizedAffinity -3.37272596
REMARK minimizedRMSD -1
REMARK  1 active torsions:
REMARK  status: ('A' for Active; 'I' for Inactive)
REMARK    1  A    between atoms: C1_2  and  C2_3 
ROOT
ATOM      1  C2  UNL d   1       0.287   1.277   0.194  0.00  0.00    -0.073 A 
ATOM      2  C3  UNL d   1       0.215   1.298  -1.203  0.00  0.00    -0.002 A 
ATOM      3  C4  UNL d   1      -0.209   0.169  -1.904  0.00  0.00     0.004 A 
ATOM      4  C5  UNL d   1      -0.572  -0.989  -1.216  0.00  0.00    -0.004 A 
ATOM      5  C6  UNL d   1      -0.518  -1.026   0.181  0.00  0.00    -0.075 A 
ATOM      6  C7  UNL d   1      -0.903  -2.265   0.936  0.00  0.00     0.076 C 
ATOM      7  C8  UNL d   1      -0.089   0.112   0.878  0.00  0.00     0.001 A 
ENDROOT
BRANCH   1   8
ATOM      8  C1  UNL d   1       0.738   2.497   0.956  0.00  0.00     0.053 C 
ATOM      9  C   UNL d   1       1.442   3.501   0.058  0.00  0.00     0.018 C 
ENDBRANCH   1   8
TORSDOF 1
ENDMDL
