MODEL 1
REMARK minimizedAffinity -3.83509111
REMARK minimizedRMSD -1
REMARK  1 active torsions:
REMARK  status: ('A' for Active; 'I' for Inactive)
REMARK    1  A    between atoms: C1_2  and  C2_3 
ROOT
ATOM      1  C2  UNL d   1      -0.148   3.993   1.256  0.00  0.00    -0.073 A 
ATOM      2  C3  UNL d   1       1.180   4.434   1.284  0.00  0.00    -0.002 A 
ATOM      3  C4  UNL d   1       2.196   3.644   0.746  0.00  0.00     0.004 A 
ATOM      4  C5  UNL d   1       1.896   2.409   0.171  0.00  0.00    -0.004 A 
ATOM      5  C6  UNL d   1       0.573   1.956   0.123  0.00  0.00    -0.075 A 
ATOM      6  C7  UNL d   1       0.234   0.630  -0.490  0.00  0.00     0.076 C 
ATOM      7  C8  UNL d   1      -0.442   2.755   0.667  0.00  0.00     0.001 A 
ENDROOT
BRANCH   1   8
ATOM      8  C1  UNL d   1      -1.250   4.846   1.830  0.00  0.00     0.053 C 
ATOM      9  C   UNL d   1      -0.754   5.733   2.961  0.00  0.00     0.018 C 
ENDBRANCH   1   8
TORSDOF 1
ENDMDL
