MODEL 1
REMARK minimizedAffinity -2.62338233
REMARK minimizedRMSD -1
REMARK  1 active torsions:
REMARK  status: ('A' for Active; 'I' for Inactive)
REMARK    1  A    between atoms: C1_2  and  C2_3 
ROOT
ATOM      1  C2  UNL d   1       0.690   1.590   0.083  0.00  0.00    -0.073 A 
ATOM      2  C3  UNL d   1      -0.357   1.679   1.008  0.00  0.00    -0.002 A 
ATOM      3  C4  UNL d   1      -1.029   0.529   1.424  0.00  0.00     0.004 A 
ATOM      4  C5  UNL d   1      -0.658  -0.720   0.926  0.00  0.00    -0.004 A 
ATOM      5  C6  UNL d   1       0.393  -0.830   0.010  0.00  0.00    -0.075 A 
ATOM      6  C7  UNL d   1       0.803  -2.166  -0.537  0.00  0.00     0.076 C 
ATOM      7  C8  UNL d   1       1.062   0.329  -0.405  0.00  0.00     0.001 A 
ENDROOT
BRANCH   1   8
ATOM      8  C1  UNL d   1       1.423   2.828  -0.364  0.00  0.00     0.053 C 
ATOM      9  C   UNL d   1       1.884   3.674   0.812  0.00  0.00     0.018 C 
ENDBRANCH   1   8
TORSDOF 1
ENDMDL
