MODEL 1
REMARK minimizedAffinity -5.34103537
REMARK minimizedRMSD -1
REMARK  1 active torsions:
REMARK  status: ('A' for Active; 'I' for Inactive)
REMARK    1  A    between atoms: C1_2  and  C2_3 
ROOT
ATOM      1  C2  UNL d   1       0.002   0.057  -0.533  0.00  0.00    -0.073 A 
ATOM      2  C3  UNL d   1       0.513  -0.027   0.768  0.00  0.00    -0.002 A 
ATOM      3  C4  UNL d   1       0.832  -1.268   1.321  0.00  0.00     0.004 A 
ATOM      4  C5  UNL d   1       0.651  -2.435   0.579  0.00  0.00    -0.004 A 
ATOM      5  C6  UNL d   1       0.153  -2.370  -0.727  0.00  0.00    -0.075 A 
ATOM      6  C7  UNL d   1      -0.049  -3.617  -1.538  0.00  0.00     0.076 C 
ATOM      7  C8  UNL d   1      -0.167  -1.121  -1.274  0.00  0.00     0.001 A 
ENDROOT
BRANCH   1   8
ATOM      8  C1  UNL d   1      -0.337   1.395  -1.137  0.00  0.00     0.053 C 
ATOM      9  C   UNL d   1       0.179   2.549  -0.292  0.00  0.00     0.018 C 
ENDBRANCH   1   8
TORSDOF 1
ENDMDL
