MODEL 1
REMARK minimizedAffinity -3.5974369
REMARK minimizedRMSD -1
REMARK  1 active torsions:
REMARK  status: ('A' for Active; 'I' for Inactive)
REMARK    1  A    between atoms: C1_2  and  C2_3 
ROOT
ATOM      1  C2  UNL d   1       0.040   1.377   0.089  0.00  0.00    -0.073 A 
ATOM      2  C3  UNL d   1      -0.409   0.627   1.182  0.00  0.00    -0.002 A 
ATOM      3  C4  UNL d   1      -0.615  -0.747   1.057  0.00  0.00     0.004 A 
ATOM      4  C5  UNL d   1      -0.369  -1.386  -0.159  0.00  0.00    -0.004 A 
ATOM      5  C6  UNL d   1       0.091  -0.655  -1.259  0.00  0.00    -0.075 A 
ATOM      6  C7  UNL d   1       0.358  -1.327  -2.574  0.00  0.00     0.076 C 
ATOM      7  C8  UNL d   1       0.293   0.725  -1.126  0.00  0.00     0.001 A 
ENDROOT
BRANCH   1   8
ATOM      8  C1  UNL d   1       0.270   2.861   0.222  0.00  0.00     0.053 C 
ATOM      9  C   UNL d   1       1.741   3.222   0.094  0.00  0.00     0.018 C 
ENDBRANCH   1   8
TORSDOF 1
ENDMDL
