MODEL 1
REMARK minimizedAffinity -4.11515427
REMARK minimizedRMSD -1
REMARK  1 active torsions:
REMARK  status: ('A' for Active; 'I' for Inactive)
REMARK    1  A    between atoms: C1_2  and  C2_3 
ROOT
ATOM      1  C2  UNL d   1       0.146   0.255   0.741  0.00  0.00    -0.073 A 
ATOM      2  C3  UNL d   1      -0.310   0.315  -0.581  0.00  0.00    -0.002 A 
ATOM      3  C4  UNL d   1      -0.049   1.439  -1.366  0.00  0.00     0.004 A 
ATOM      4  C5  UNL d   1       0.676   2.509  -0.841  0.00  0.00    -0.004 A 
ATOM      5  C6  UNL d   1       1.150   2.463   0.474  0.00  0.00    -0.075 A 
ATOM      6  C7  UNL d   1       1.928   3.607   1.054  0.00  0.00     0.076 C 
ATOM      7  C8  UNL d   1       0.881   1.332   1.257  0.00  0.00     0.001 A 
ENDROOT
BRANCH   1   8
ATOM      8  C1  UNL d   1      -0.127  -0.959   1.591  0.00  0.00     0.053 C 
ATOM      9  C   UNL d   1      -1.090  -1.923   0.915  0.00  0.00     0.018 C 
ENDBRANCH   1   8
TORSDOF 1
ENDMDL
