MODEL 1
REMARK minimizedAffinity 0.522929788
REMARK minimizedRMSD -1
REMARK  1 active torsions:
REMARK  status: ('A' for Active; 'I' for Inactive)
REMARK    1  A    between atoms: C1_2  and  C2_3 
ROOT
ATOM      1  C2  UNL d   1       0.250  -1.236  -0.617  0.00  0.00    -0.077 A 
ATOM      2  C3  UNL d   1       0.450  -1.578   0.728  0.00  0.00     0.002 A 
ATOM      3  C4  UNL d   1       1.677  -2.096   1.150  0.00  0.00     0.002 A 
ATOM      4  C5  UNL d   1       2.712  -2.272   0.235  0.00  0.00    -0.004 A 
ATOM      5  C6  UNL d   1       2.522  -1.937  -1.105  0.00  0.00     0.002 A 
ATOM      6  C7  UNL d   1       1.297  -1.421  -1.529  0.00  0.00     0.002 A 
ENDROOT
BRANCH   1   7
ATOM      7  C1  UNL d   1      -1.055  -0.632  -1.065  0.00  0.00     0.055 C 
ATOM      8  C   UNL d   1      -1.203   0.798  -0.566  0.00  0.00     0.019 C 
ENDBRANCH   1   7
TORSDOF 1
ENDMDL
