MODEL 1
REMARK minimizedAffinity -0.891567588
REMARK minimizedRMSD -1
REMARK  1 active torsions:
REMARK  status: ('A' for Active; 'I' for Inactive)
REMARK    1  A    between atoms: C1_2  and  C2_3 
ROOT
ATOM      1  C2  UNL d   1      -2.076   0.972   1.043  0.00  0.00    -0.077 A 
ATOM      2  C3  UNL d   1      -2.205   0.047  -0.003  0.00  0.00     0.002 A 
ATOM      3  C4  UNL d   1      -1.079  -0.391  -0.701  0.00  0.00     0.002 A 
ATOM      4  C5  UNL d   1       0.185   0.086  -0.358  0.00  0.00    -0.004 A 
ATOM      5  C6  UNL d   1       0.324   1.007   0.679  0.00  0.00     0.002 A 
ATOM      6  C7  UNL d   1      -0.801   1.448   1.377  0.00  0.00     0.002 A 
ENDROOT
BRANCH   1   7
ATOM      7  C1  UNL d   1      -3.284   1.409   1.830  0.00  0.00     0.055 C 
ATOM      8  C   UNL d   1      -4.311   0.290   1.934  0.00  0.00     0.019 C 
ENDBRANCH   1   7
TORSDOF 1
ENDMDL
