MODEL 1
REMARK minimizedAffinity -1.28578293
REMARK minimizedRMSD -1
REMARK  1 active torsions:
REMARK  status: ('A' for Active; 'I' for Inactive)
REMARK    1  A    between atoms: C1_2  and  C2_3 
ROOT
ATOM      1  C2  UNL d   1      -1.491   0.455  -0.279  0.00  0.00    -0.077 A 
ATOM      2  C3  UNL d   1      -1.257  -0.921  -0.403  0.00  0.00     0.002 A 
ATOM      3  C4  UNL d   1       0.049  -1.415  -0.435  0.00  0.00     0.002 A 
ATOM      4  C5  UNL d   1       1.129  -0.540  -0.340  0.00  0.00    -0.004 A 
ATOM      5  C6  UNL d   1       0.906   0.831  -0.219  0.00  0.00     0.002 A 
ATOM      6  C7  UNL d   1      -0.398   1.326  -0.188  0.00  0.00     0.002 A 
ENDROOT
BRANCH   1   7
ATOM      7  C1  UNL d   1      -2.899   0.985  -0.194  0.00  0.00     0.055 C 
ATOM      8  C   UNL d   1      -3.479   0.795   1.199  0.00  0.00     0.019 C 
ENDBRANCH   1   7
TORSDOF 1
ENDMDL
