MODEL 1
REMARK minimizedAffinity -3.7585988
REMARK minimizedRMSD -1
REMARK  1 active torsions:
REMARK  status: ('A' for Active; 'I' for Inactive)
REMARK    1  A    between atoms: C1_2  and  C2_3 
ROOT
ATOM      1  C2  UNL d   1       0.752   0.363  -0.451  0.00  0.00    -0.077 A 
ATOM      2  C3  UNL d   1      -0.063  -0.768  -0.595  0.00  0.00     0.002 A 
ATOM      3  C4  UNL d   1       0.480  -2.049  -0.471  0.00  0.00     0.002 A 
ATOM      4  C5  UNL d   1       1.836  -2.210  -0.199  0.00  0.00    -0.004 A 
ATOM      5  C6  UNL d   1       2.655  -1.090  -0.056  0.00  0.00     0.002 A 
ATOM      6  C7  UNL d   1       2.116   0.190  -0.181  0.00  0.00     0.002 A 
ENDROOT
BRANCH   1   7
ATOM      7  C1  UNL d   1       0.160   1.746  -0.536  0.00  0.00     0.055 C 
ATOM      8  C   UNL d   1       1.174   2.808  -0.136  0.00  0.00     0.019 C 
ENDBRANCH   1   7
TORSDOF 1
ENDMDL
