MODEL 1
REMARK minimizedAffinity -5.13714218
REMARK minimizedRMSD -1
REMARK  1 active torsions:
REMARK  status: ('A' for Active; 'I' for Inactive)
REMARK    1  A    between atoms: C1_2  and  C2_3 
ROOT
ATOM      1  C2  UNL d   1       0.362   0.469  -0.322  0.00  0.00    -0.077 A 
ATOM      2  C3  UNL d   1       0.262  -0.822  -0.859  0.00  0.00     0.002 A 
ATOM      3  C4  UNL d   1       1.191  -1.806  -0.512  0.00  0.00     0.002 A 
ATOM      4  C5  UNL d   1       2.223  -1.509   0.376  0.00  0.00    -0.004 A 
ATOM      5  C6  UNL d   1       2.332  -0.228   0.914  0.00  0.00     0.002 A 
ATOM      6  C7  UNL d   1       1.405   0.757   0.567  0.00  0.00     0.002 A 
ENDROOT
BRANCH   1   7
ATOM      7  C1  UNL d   1      -0.667   1.517  -0.656  0.00  0.00     0.055 C 
ATOM      8  C   UNL d   1      -2.031   1.155  -0.086  0.00  0.00     0.019 C 
ENDBRANCH   1   7
TORSDOF 1
ENDMDL
