MODEL 1
REMARK minimizedAffinity -2.93495631
REMARK minimizedRMSD -1
REMARK  1 active torsions:
REMARK  status: ('A' for Active; 'I' for Inactive)
REMARK    1  A    between atoms: C1_2  and  C2_3 
ROOT
ATOM      1  C2  UNL d   1      -1.161   0.269  -0.437  0.00  0.00    -0.077 A 
ATOM      2  C3  UNL d   1      -0.080   1.158  -0.352  0.00  0.00     0.002 A 
ATOM      3  C4  UNL d   1       1.230   0.676  -0.327  0.00  0.00     0.002 A 
ATOM      4  C5  UNL d   1       1.472  -0.695  -0.390  0.00  0.00    -0.004 A 
ATOM      5  C6  UNL d   1       0.404  -1.587  -0.473  0.00  0.00     0.002 A 
ATOM      6  C7  UNL d   1      -0.907  -1.107  -0.497  0.00  0.00     0.002 A 
ENDROOT
BRANCH   1   7
ATOM      7  C1  UNL d   1      -2.572   0.789  -0.515  0.00  0.00     0.055 C 
ATOM      8  C   UNL d   1      -3.139   1.061   0.871  0.00  0.00     0.019 C 
ENDBRANCH   1   7
TORSDOF 1
ENDMDL
