MODEL 1
REMARK minimizedAffinity -4.98660088
REMARK minimizedRMSD -1
REMARK  1 active torsions:
REMARK  status: ('A' for Active; 'I' for Inactive)
REMARK    1  A    between atoms: C1_2  and  C2_3 
ROOT
ATOM      1  C2  UNL d   1      -0.782  -0.108  -0.393  0.00  0.00    -0.077 A 
ATOM      2  C3  UNL d   1       0.259   0.765  -0.044  0.00  0.00     0.002 A 
ATOM      3  C4  UNL d   1       1.532   0.268   0.239  0.00  0.00     0.002 A 
ATOM      4  C5  UNL d   1       1.778  -1.102   0.172  0.00  0.00    -0.004 A 
ATOM      5  C6  UNL d   1       0.750  -1.978  -0.172  0.00  0.00     0.002 A 
ATOM      6  C7  UNL d   1      -0.524  -1.484  -0.454  0.00  0.00     0.002 A 
ENDROOT
BRANCH   1   7
ATOM      7  C1  UNL d   1      -2.143   0.430  -0.747  0.00  0.00     0.055 C 
ATOM      8  C   UNL d   1      -2.764   1.179   0.424  0.00  0.00     0.019 C 
ENDBRANCH   1   7
TORSDOF 1
ENDMDL
