MODEL 1
REMARK minimizedAffinity 0.63135314
REMARK minimizedRMSD -1
REMARK  0 active torsions:
REMARK  status: ('A' for Active; 'I' for Inactive)
ROOT
ATOM      1  C   UNL d   1      -5.963   0.318   2.562  0.00  0.00     0.172 C 
ATOM      2  N   UNL d   1      -5.617   0.140   3.952  0.00  0.00    -0.070 N 
ATOM      3  C1  UNL d   1      -6.000  -0.912   4.742  0.00  0.00    -0.004 A 
ATOM      4  C2  UNL d   1      -5.468  -0.713   5.997  0.00  0.00    -0.047 A 
ATOM      5  C3  UNL d   1      -4.741   0.501   5.962  0.00  0.00    -0.047 A 
ATOM      6  C4  UNL d   1      -4.850   1.008   4.684  0.00  0.00    -0.004 A 
ENDROOT
TORSDOF 0
ENDMDL
