MODEL 1
REMARK minimizedAffinity 0.245586559
REMARK minimizedRMSD -1
REMARK  0 active torsions:
REMARK  status: ('A' for Active; 'I' for Inactive)
ROOT
ATOM      1  C   UNL d   1       0.253   1.559   3.347  0.00  0.00     0.172 C 
ATOM      2  N   UNL d   1      -0.861   1.312   2.463  0.00  0.00    -0.070 N 
ATOM      3  C1  UNL d   1      -2.136   1.783   2.633  0.00  0.00    -0.004 A 
ATOM      4  C2  UNL d   1      -2.898   1.328   1.579  0.00  0.00    -0.047 A 
ATOM      5  C3  UNL d   1      -2.054   0.556   0.747  0.00  0.00    -0.047 A 
ATOM      6  C4  UNL d   1      -0.798   0.563   1.318  0.00  0.00    -0.004 A 
ENDROOT
TORSDOF 0
ENDMDL
