MODEL 1
REMARK minimizedAffinity -0.521975398
REMARK minimizedRMSD -1
REMARK  0 active torsions:
REMARK  status: ('A' for Active; 'I' for Inactive)
ROOT
ATOM      1  C   UNL d   1      -1.243   0.225   0.816  0.00  0.00     0.172 C 
ATOM      2  N   UNL d   1      -1.275   1.023   2.020  0.00  0.00    -0.070 N 
ATOM      3  C1  UNL d   1      -2.404   1.428   2.680  0.00  0.00    -0.004 A 
ATOM      4  C2  UNL d   1      -2.011   2.166   3.776  0.00  0.00    -0.047 A 
ATOM      5  C3  UNL d   1      -0.597   2.206   3.773  0.00  0.00    -0.047 A 
ATOM      6  C4  UNL d   1      -0.167   1.491   2.676  0.00  0.00    -0.004 A 
ENDROOT
TORSDOF 0
ENDMDL
