MODEL 1
REMARK minimizedAffinity 0.26158756
REMARK minimizedRMSD -1
REMARK  0 active torsions:
REMARK  status: ('A' for Active; 'I' for Inactive)
ROOT
ATOM      1  C   UNL d   1      -5.871   1.971   5.999  0.00  0.00     0.172 C 
ATOM      2  N   UNL d   1      -5.019   3.137   5.999  0.00  0.00    -0.070 N 
ATOM      3  C1  UNL d   1      -3.650   3.125   6.000  0.00  0.00    -0.004 A 
ATOM      4  C2  UNL d   1      -3.217   4.434   5.999  0.00  0.00    -0.047 A 
ATOM      5  C3  UNL d   1      -4.365   5.260   5.999  0.00  0.00    -0.047 A 
ATOM      6  C4  UNL d   1      -5.467   4.431   5.999  0.00  0.00    -0.004 A 
ENDROOT
TORSDOF 0
ENDMDL
