MODEL 1
REMARK minimizedAffinity -1.51276565
REMARK minimizedRMSD -1
REMARK  0 active torsions:
REMARK  status: ('A' for Active; 'I' for Inactive)
ROOT
ATOM      1  C   UNL d   1       2.177  -2.491   2.797  0.00  0.00     0.172 C 
ATOM      2  N   UNL d   1       2.780  -1.297   2.252  0.00  0.00    -0.070 N 
ATOM      3  C1  UNL d   1       4.085  -0.915   2.418  0.00  0.00    -0.004 A 
ATOM      4  C2  UNL d   1       4.264   0.275   1.746  0.00  0.00    -0.047 A 
ATOM      5  C3  UNL d   1       3.025   0.620   1.157  0.00  0.00    -0.047 A 
ATOM      6  C4  UNL d   1       2.124  -0.370   1.487  0.00  0.00    -0.004 A 
ENDROOT
TORSDOF 0
ENDMDL
