MODEL 1
REMARK minimizedAffinity 0.722441196
REMARK minimizedRMSD -1
REMARK  0 active torsions:
REMARK  status: ('A' for Active; 'I' for Inactive)
ROOT
ATOM      1  C   UNL d   1       5.256  -0.256   2.630  0.00  0.00     0.172 C 
ATOM      2  N   UNL d   1       3.977  -0.103   1.977  0.00  0.00    -0.070 N 
ATOM      3  C1  UNL d   1       2.793  -0.641   2.406  0.00  0.00    -0.004 A 
ATOM      4  C2  UNL d   1       1.812  -0.265   1.514  0.00  0.00    -0.047 A 
ATOM      5  C3  UNL d   1       2.427   0.526   0.515  0.00  0.00    -0.047 A 
ATOM      6  C4  UNL d   1       3.768   0.610   0.826  0.00  0.00    -0.004 A 
ENDROOT
TORSDOF 0
ENDMDL
