MODEL 1
REMARK minimizedAffinity 9.70226765
REMARK minimizedRMSD -1
REMARK  0 active torsions:
REMARK  status: ('A' for Active; 'I' for Inactive)
ROOT
ATOM      1  C   UNL d   1       3.381  -0.328   2.705  0.00  0.00     0.172 C 
ATOM      2  N   UNL d   1       3.033   0.584   1.641  0.00  0.00    -0.070 N 
ATOM      3  C1  UNL d   1       1.818   0.653   1.014  0.00  0.00    -0.004 A 
ATOM      4  C2  UNL d   1       1.889   1.647   0.062  0.00  0.00    -0.047 A 
ATOM      5  C3  UNL d   1       3.193   2.195   0.119  0.00  0.00    -0.047 A 
ATOM      6  C4  UNL d   1       3.880   1.518   1.105  0.00  0.00    -0.004 A 
ENDROOT
TORSDOF 0
ENDMDL
