MODEL 1
REMARK minimizedAffinity 1.5543412
REMARK minimizedRMSD -1
REMARK  0 active torsions:
REMARK  status: ('A' for Active; 'I' for Inactive)
ROOT
ATOM      1  C   UNL d   1      -0.368   4.125   3.839  0.00  0.00     0.172 C 
ATOM      2  N   UNL d   1      -1.492   4.349   4.718  0.00  0.00    -0.070 N 
ATOM      3  C1  UNL d   1      -2.334   3.382   5.199  0.00  0.00    -0.004 A 
ATOM      4  C2  UNL d   1      -3.271   3.998   6.000  0.00  0.00    -0.047 A 
ATOM      5  C3  UNL d   1      -2.982   5.384   5.999  0.00  0.00    -0.047 A 
ATOM      6  C4  UNL d   1      -1.876   5.573   5.198  0.00  0.00    -0.004 A 
ENDROOT
TORSDOF 0
ENDMDL
