MODEL 1
REMARK minimizedAffinity 1.53410316
REMARK minimizedRMSD -1
REMARK  0 active torsions:
REMARK  status: ('A' for Active; 'I' for Inactive)
ROOT
ATOM      1  C   UNL d   1       3.292   1.885  -6.000  0.00  0.00     0.172 C 
ATOM      2  N   UNL d   1       3.017   0.719  -5.193  0.00  0.00    -0.070 N 
ATOM      3  C1  UNL d   1       2.070  -0.233  -5.462  0.00  0.00    -0.004 A 
ATOM      4  C2  UNL d   1       2.123  -1.175  -4.458  0.00  0.00    -0.047 A 
ATOM      5  C3  UNL d   1       3.136  -0.776  -3.554  0.00  0.00    -0.047 A 
ATOM      6  C4  UNL d   1       3.673   0.400  -4.033  0.00  0.00    -0.004 A 
ENDROOT
TORSDOF 0
ENDMDL
