MODEL 1
REMARK minimizedAffinity -2.0199585
REMARK minimizedRMSD -1
REMARK  0 active torsions:
REMARK  status: ('A' for Active; 'I' for Inactive)
ROOT
ATOM      1  C   UNL d   1      -4.678   0.966   5.866  0.00  0.00     0.172 C 
ATOM      2  N   UNL d   1      -4.806   2.404   5.920  0.00  0.00    -0.070 N 
ATOM      3  C1  UNL d   1      -3.769   3.297   5.951  0.00  0.00    -0.004 A 
ATOM      4  C2  UNL d   1      -4.306   4.566   6.000  0.00  0.00    -0.047 A 
ATOM      5  C3  UNL d   1      -5.714   4.430   5.999  0.00  0.00    -0.047 A 
ATOM      6  C4  UNL d   1      -5.997   3.081   5.949  0.00  0.00    -0.004 A 
ENDROOT
TORSDOF 0
ENDMDL
