MODEL 1
REMARK minimizedAffinity -0.118133813
REMARK minimizedRMSD -1
REMARK  0 active torsions:
REMARK  status: ('A' for Active; 'I' for Inactive)
ROOT
ATOM      1  C   UNL d   1      -5.710   5.951   5.998  0.00  0.00     0.172 C 
ATOM      2  N   UNL d   1      -4.545   5.097   5.986  0.00  0.00    -0.070 N 
ATOM      3  C1  UNL d   1      -4.559   3.728   5.999  0.00  0.00    -0.004 A 
ATOM      4  C2  UNL d   1      -3.252   3.292   5.980  0.00  0.00    -0.047 A 
ATOM      5  C3  UNL d   1      -2.424   4.439   5.956  0.00  0.00    -0.047 A 
ATOM      6  C4  UNL d   1      -3.250   5.543   5.960  0.00  0.00    -0.004 A 
ENDROOT
TORSDOF 0
ENDMDL
