MODEL 1
REMARK minimizedAffinity 4.85598755
REMARK minimizedRMSD -1
REMARK  0 active torsions:
REMARK  status: ('A' for Active; 'I' for Inactive)
ROOT
ATOM      1  C   UNL d   1      -5.115   3.169   5.966  0.00  0.00     0.172 C 
ATOM      2  N   UNL d   1      -4.015   4.105   5.972  0.00  0.00    -0.070 N 
ATOM      3  C1  UNL d   1      -4.128   5.469   5.984  0.00  0.00    -0.004 A 
ATOM      4  C2  UNL d   1      -2.855   5.998   5.987  0.00  0.00    -0.047 A 
ATOM      5  C3  UNL d   1      -1.946   4.913   5.976  0.00  0.00    -0.047 A 
ATOM      6  C4  UNL d   1      -2.691   3.753   5.966  0.00  0.00    -0.004 A 
ENDROOT
TORSDOF 0
ENDMDL
