MODEL 1
REMARK minimizedAffinity -1.49193609
REMARK minimizedRMSD -1
REMARK  0 active torsions:
REMARK  status: ('A' for Active; 'I' for Inactive)
ROOT
ATOM      1  C   UNL d   1      -2.982  -1.501   5.999  0.00  0.00     0.172 C 
ATOM      2  N   UNL d   1      -3.356  -2.456   4.983  0.00  0.00    -0.070 N 
ATOM      3  C1  UNL d   1      -3.727  -3.755   5.205  0.00  0.00    -0.004 A 
ATOM      4  C2  UNL d   1      -4.004  -4.330   3.984  0.00  0.00    -0.047 A 
ATOM      5  C3  UNL d   1      -3.791  -3.342   2.993  0.00  0.00    -0.047 A 
ATOM      6  C4  UNL d   1      -3.390  -2.192   3.639  0.00  0.00    -0.004 A 
ENDROOT
TORSDOF 0
ENDMDL
