MODEL 1
REMARK minimizedAffinity 6.25507259
REMARK minimizedRMSD -1
REMARK  0 active torsions:
REMARK  status: ('A' for Active; 'I' for Inactive)
ROOT
ATOM      1  C   UNL d   1       5.340  -0.066   2.230  0.00  0.00     0.172 C 
ATOM      2  N   UNL d   1       3.923   0.017   1.966  0.00  0.00    -0.070 N 
ATOM      3  C1  UNL d   1       2.945  -0.676   2.629  0.00  0.00    -0.004 A 
ATOM      4  C2  UNL d   1       1.731  -0.320   2.082  0.00  0.00    -0.047 A 
ATOM      5  C3  UNL d   1       1.988   0.618   1.054  0.00  0.00    -0.047 A 
ATOM      6  C4  UNL d   1       3.353   0.808   1.003  0.00  0.00    -0.004 A 
ENDROOT
TORSDOF 0
ENDMDL
