MODEL 1
REMARK minimizedAffinity 6.4311595
REMARK minimizedRMSD -1
REMARK  0 active torsions:
REMARK  status: ('A' for Active; 'I' for Inactive)
ROOT
ATOM      1  C   UNL d   1      -3.070  -0.314   5.993  0.00  0.00     0.172 C 
ATOM      2  N   UNL d   1      -3.342  -1.605   5.406  0.00  0.00    -0.070 N 
ATOM      3  C1  UNL d   1      -4.044  -2.619   5.999  0.00  0.00    -0.004 A 
ATOM      4  C2  UNL d   1      -4.082  -3.678   5.117  0.00  0.00    -0.047 A 
ATOM      5  C3  UNL d   1      -3.378  -3.286   3.954  0.00  0.00    -0.047 A 
ATOM      6  C4  UNL d   1      -2.930  -1.998   4.160  0.00  0.00    -0.004 A 
ENDROOT
TORSDOF 0
ENDMDL
