MODEL 1
REMARK minimizedAffinity -0.476483107
REMARK minimizedRMSD -1
REMARK  0 active torsions:
REMARK  status: ('A' for Active; 'I' for Inactive)
ROOT
ATOM      1  C   UNL d   1       1.613  -1.795   4.502  0.00  0.00    -0.002 A 
ATOM      2  C1  UNL d   1       2.270  -1.427   3.336  0.00  0.00     0.010 A 
ATOM      3  C2  UNL d   1       1.561  -0.880   2.264  0.00  0.00     0.041 A 
ATOM      4  C3  UNL d   1       0.168  -0.706   2.386  0.00  0.00    -0.075 A 
ATOM      5  S   UNL d   1      -0.905  -0.056   1.204  0.00  0.00     0.015 SA
ATOM      6  C4  UNL d   1      -2.260  -0.251   2.219  0.00  0.00     0.022 A 
ATOM      7  C5  UNL d   1      -1.920  -0.798   3.433  0.00  0.00     0.026 A 
ATOM      8  C6  UNL d   1      -0.515  -1.069   3.550  0.00  0.00    -0.082 A 
ATOM      9  C7  UNL d   1       0.232  -1.621   4.618  0.00  0.00     0.045 A 
ENDROOT
TORSDOF 0
ENDMDL
