MODEL 1
REMARK minimizedAffinity 2.38818955
REMARK minimizedRMSD -1
REMARK  0 active torsions:
REMARK  status: ('A' for Active; 'I' for Inactive)
ROOT
ATOM      1  C   UNL d   1       1.314  -1.161   5.064  0.00  0.00    -0.002 A 
ATOM      2  C1  UNL d   1       2.313  -1.346   4.119  0.00  0.00     0.010 A 
ATOM      3  C2  UNL d   1       2.076  -1.067   2.771  0.00  0.00     0.041 A 
ATOM      4  C3  UNL d   1       0.807  -0.593   2.387  0.00  0.00    -0.075 A 
ATOM      5  S   UNL d   1       0.288  -0.184   0.794  0.00  0.00     0.015 SA
ATOM      6  C4  UNL d   1      -1.271   0.247   1.331  0.00  0.00     0.022 A 
ATOM      7  C5  UNL d   1      -1.410   0.088   2.690  0.00  0.00     0.026 A 
ATOM      8  C6  UNL d   1      -0.215  -0.398   3.321  0.00  0.00    -0.082 A 
ATOM      9  C7  UNL d   1       0.056  -0.691   4.679  0.00  0.00     0.045 A 
ENDROOT
TORSDOF 0
ENDMDL
