MODEL 1
REMARK minimizedAffinity 3.7439394
REMARK minimizedRMSD -1
REMARK  0 active torsions:
REMARK  status: ('A' for Active; 'I' for Inactive)
ROOT
ATOM      1  C   UNL d   1       0.471  -0.780   3.779  0.00  0.00    -0.002 A 
ATOM      2  C1  UNL d   1       1.509  -0.861   2.863  0.00  0.00     0.010 A 
ATOM      3  C2  UNL d   1       1.270  -0.680   1.499  0.00  0.00     0.041 A 
ATOM      4  C3  UNL d   1      -0.044  -0.411   1.068  0.00  0.00    -0.075 A 
ATOM      5  S   UNL d   1      -0.575  -0.153  -0.552  0.00  0.00     0.015 SA
ATOM      6  C4  UNL d   1      -2.193   0.072  -0.066  0.00  0.00     0.022 A 
ATOM      7  C5  UNL d   1      -2.343  -0.044   1.296  0.00  0.00     0.026 A 
ATOM      8  C6  UNL d   1      -1.107  -0.324   1.972  0.00  0.00    -0.082 A 
ATOM      9  C7  UNL d   1      -0.832  -0.513   3.348  0.00  0.00     0.045 A 
ENDROOT
TORSDOF 0
ENDMDL
