MODEL 1
REMARK minimizedAffinity 12.9528389
REMARK minimizedRMSD -1
REMARK  0 active torsions:
REMARK  status: ('A' for Active; 'I' for Inactive)
ROOT
ATOM      1  C   UNL d   1       3.412  -1.155   4.853  0.00  0.00    -0.002 A 
ATOM      2  C1  UNL d   1       2.110  -1.637   4.877  0.00  0.00     0.010 A 
ATOM      3  C2  UNL d   1       1.259  -1.436   3.789  0.00  0.00     0.041 A 
ATOM      4  C3  UNL d   1       1.742  -0.737   2.665  0.00  0.00    -0.075 A 
ATOM      5  S   UNL d   1       0.879  -0.373   1.218  0.00  0.00     0.015 SA
ATOM      6  C4  UNL d   1       2.218   0.430   0.533  0.00  0.00     0.022 A 
ATOM      7  C5  UNL d   1       3.305   0.430   1.375  0.00  0.00     0.026 A 
ATOM      8  C6  UNL d   1       3.049  -0.243   2.618  0.00  0.00    -0.082 A 
ATOM      9  C7  UNL d   1       3.887  -0.463   3.737  0.00  0.00     0.045 A 
ENDROOT
TORSDOF 0
ENDMDL
