MODEL 1
REMARK minimizedAffinity 4.60299587
REMARK minimizedRMSD -1
REMARK  0 active torsions:
REMARK  status: ('A' for Active; 'I' for Inactive)
ROOT
ATOM      1  C   UNL d   1       2.956  -1.582   4.443  0.00  0.00    -0.002 A 
ATOM      2  C1  UNL d   1       1.770  -1.812   5.127  0.00  0.00     0.010 A 
ATOM      3  C2  UNL d   1       0.539  -1.552   4.521  0.00  0.00     0.041 A 
ATOM      4  C3  UNL d   1       0.519  -1.054   3.204  0.00  0.00    -0.075 A 
ATOM      5  S   UNL d   1      -0.870  -0.663   2.260  0.00  0.00     0.015 SA
ATOM      6  C4  UNL d   1       0.077  -0.183   0.928  0.00  0.00     0.022 A 
ATOM      7  C5  UNL d   1       1.423  -0.311   1.179  0.00  0.00     0.026 A 
ATOM      8  C6  UNL d   1       1.700  -0.815   2.494  0.00  0.00    -0.082 A 
ATOM      9  C7  UNL d   1       2.932  -1.088   3.136  0.00  0.00     0.045 A 
ENDROOT
TORSDOF 0
ENDMDL
