MODEL 1
REMARK minimizedAffinity -2.70439839
REMARK minimizedRMSD -1
REMARK  0 active torsions:
REMARK  status: ('A' for Active; 'I' for Inactive)
ROOT
ATOM      1  C   UNL d   1      -0.067   0.085   1.235  0.00  0.00    -0.002 A 
ATOM      2  C1  UNL d   1      -1.042   0.120   2.222  0.00  0.00     0.010 A 
ATOM      3  C2  UNL d   1      -0.743  -0.267   3.529  0.00  0.00     0.041 A 
ATOM      4  C3  UNL d   1       0.566  -0.693   3.832  0.00  0.00    -0.075 A 
ATOM      5  S   UNL d   1       1.162  -1.214   5.364  0.00  0.00     0.015 SA
ATOM      6  C4  UNL d   1       2.725  -1.493   4.744  0.00  0.00     0.022 A 
ATOM      7  C5  UNL d   1       2.807  -1.203   3.403  0.00  0.00     0.026 A 
ATOM      8  C6  UNL d   1       1.565  -0.736   2.855  0.00  0.00    -0.082 A 
ATOM      9  C7  UNL d   1       1.230  -0.338   1.539  0.00  0.00     0.045 A 
ENDROOT
TORSDOF 0
ENDMDL
