MODEL 1
REMARK minimizedAffinity -4.83169937
REMARK minimizedRMSD -1
REMARK  1 active torsions:
REMARK  status: ('A' for Active; 'I' for Inactive)
REMARK    1  A    between atoms: C1_2  and  C2_3 
ROOT
ATOM      1  C2  UNL d   1      -0.528   0.785   1.935  0.00  0.00    -0.077 A 
ATOM      2  C3  UNL d   1      -0.444   2.150   2.244  0.00  0.00     0.002 A 
ATOM      3  C4  UNL d   1       0.800   2.773   2.361  0.00  0.00     0.002 A 
ATOM      4  C5  UNL d   1       1.969   2.040   2.167  0.00  0.00    -0.004 A 
ATOM      5  C6  UNL d   1       1.896   0.681   1.862  0.00  0.00     0.002 A 
ATOM      6  C7  UNL d   1       0.654   0.057   1.745  0.00  0.00     0.002 A 
ENDROOT
BRANCH   1   7
ATOM      7  C1  UNL d   1      -1.869   0.123   1.760  0.00  0.00     0.055 C 
ATOM      8  C   UNL d   1      -2.128  -0.226   0.302  0.00  0.00     0.019 C 
ENDBRANCH   1   7
TORSDOF 1
ENDMDL
