MODEL 1
REMARK minimizedAffinity 0.461014032
REMARK minimizedRMSD -1
REMARK  1 active torsions:
REMARK  status: ('A' for Active; 'I' for Inactive)
REMARK    1  A    between atoms: C1_2  and  C2_3 
ROOT
ATOM      1  C2  UNL d   1       0.272  -0.360   0.694  0.00  0.00    -0.077 A 
ATOM      2  C3  UNL d   1      -0.348  -0.838  -0.469  0.00  0.00     0.002 A 
ATOM      3  C4  UNL d   1      -1.721  -0.667  -0.659  0.00  0.00     0.002 A 
ATOM      4  C5  UNL d   1      -2.484  -0.015   0.308  0.00  0.00    -0.004 A 
ATOM      5  C6  UNL d   1      -1.877   0.462   1.469  0.00  0.00     0.002 A 
ATOM      6  C7  UNL d   1      -0.505   0.291   1.661  0.00  0.00     0.002 A 
ENDROOT
BRANCH   1   7
ATOM      7  C1  UNL d   1       1.761  -0.499   0.877  0.00  0.00     0.055 C 
ATOM      8  C   UNL d   1       2.517   0.560   0.089  0.00  0.00     0.019 C 
ENDBRANCH   1   7
TORSDOF 1
ENDMDL
