MODEL 1
REMARK minimizedAffinity -3.44565415
REMARK minimizedRMSD -1
REMARK  1 active torsions:
REMARK  status: ('A' for Active; 'I' for Inactive)
REMARK    1  A    between atoms: C1_2  and  C2_3 
ROOT
ATOM      1  C2  UNL d   1       0.810  -0.144   1.238  0.00  0.00    -0.077 A 
ATOM      2  C3  UNL d   1      -0.270  -0.440   0.395  0.00  0.00     0.002 A 
ATOM      3  C4  UNL d   1      -1.564  -0.049   0.741  0.00  0.00     0.002 A 
ATOM      4  C5  UNL d   1      -1.790   0.644   1.928  0.00  0.00    -0.004 A 
ATOM      5  C6  UNL d   1      -0.723   0.941   2.775  0.00  0.00     0.002 A 
ATOM      6  C7  UNL d   1       0.572   0.550   2.431  0.00  0.00     0.002 A 
ENDROOT
BRANCH   1   7
ATOM      7  C1  UNL d   1       2.214  -0.523   0.843  0.00  0.00     0.055 C 
ATOM      8  C   UNL d   1       2.848   0.545  -0.037  0.00  0.00     0.019 C 
ENDBRANCH   1   7
TORSDOF 1
ENDMDL
