MODEL 1
REMARK minimizedAffinity -3.20916057
REMARK minimizedRMSD -1
REMARK  1 active torsions:
REMARK  status: ('A' for Active; 'I' for Inactive)
REMARK    1  A    between atoms: C1_2  and  C2_3 
ROOT
ATOM      1  C2  UNL d   1      -0.593  -0.125   0.548  0.00  0.00    -0.077 A 
ATOM      2  C3  UNL d   1       0.776  -0.378   0.718  0.00  0.00     0.002 A 
ATOM      3  C4  UNL d   1       1.389  -0.140   1.950  0.00  0.00     0.002 A 
ATOM      4  C5  UNL d   1       0.642   0.346   3.020  0.00  0.00    -0.004 A 
ATOM      5  C6  UNL d   1      -0.719   0.602   2.860  0.00  0.00     0.002 A 
ATOM      6  C7  UNL d   1      -1.334   0.367   1.629  0.00  0.00     0.002 A 
ENDROOT
BRANCH   1   7
ATOM      7  C1  UNL d   1      -1.267  -0.427  -0.765  0.00  0.00     0.055 C 
ATOM      8  C   UNL d   1      -2.705  -0.879  -0.558  0.00  0.00     0.019 C 
ENDBRANCH   1   7
TORSDOF 1
ENDMDL
