MODEL 1
REMARK minimizedAffinity -3.03454018
REMARK minimizedRMSD -1
REMARK  1 active torsions:
REMARK  status: ('A' for Active; 'I' for Inactive)
REMARK    1  A    between atoms: C1_2  and  C2_3 
ROOT
ATOM      1  C2  UNL d   1      -0.186  -0.306   4.019  0.00  0.00    -0.077 A 
ATOM      2  C3  UNL d   1      -1.513  -0.121   3.606  0.00  0.00     0.002 A 
ATOM      3  C4  UNL d   1      -2.490  -1.067   3.923  0.00  0.00     0.002 A 
ATOM      4  C5  UNL d   1      -2.152  -2.201   4.657  0.00  0.00    -0.004 A 
ATOM      5  C6  UNL d   1      -0.834  -2.396   5.070  0.00  0.00     0.002 A 
ATOM      6  C7  UNL d   1       0.144  -1.452   4.753  0.00  0.00     0.002 A 
ENDROOT
BRANCH   1   7
ATOM      7  C1  UNL d   1       0.859   0.737   3.720  0.00  0.00     0.055 C 
ATOM      8  C   UNL d   1       1.142   0.825   2.228  0.00  0.00     0.019 C 
ENDBRANCH   1   7
TORSDOF 1
ENDMDL
