MODEL 1
REMARK minimizedAffinity -5.94282579
REMARK minimizedRMSD -1
REMARK  1 active torsions:
REMARK  status: ('A' for Active; 'I' for Inactive)
REMARK    1  A    between atoms: C1_2  and  C2_3 
ROOT
ATOM      1  C2  UNL d   1       0.961   0.004   0.497  0.00  0.00    -0.077 A 
ATOM      2  C3  UNL d   1       2.080  -0.144   1.329  0.00  0.00     0.002 A 
ATOM      3  C4  UNL d   1       2.033   0.277   2.659  0.00  0.00     0.002 A 
ATOM      4  C5  UNL d   1       0.868   0.846   3.170  0.00  0.00    -0.004 A 
ATOM      5  C6  UNL d   1      -0.249   1.000   2.351  0.00  0.00     0.002 A 
ATOM      6  C7  UNL d   1      -0.203   0.580   1.021  0.00  0.00     0.002 A 
ENDROOT
BRANCH   1   7
ATOM      7  C1  UNL d   1       0.994  -0.494  -0.924  0.00  0.00     0.055 C 
ATOM      8  C   UNL d   1       2.232   0.002  -1.656  0.00  0.00     0.019 C 
ENDBRANCH   1   7
TORSDOF 1
ENDMDL
