MODEL 1
REMARK minimizedAffinity -4.0500288
REMARK minimizedRMSD -1
REMARK  1 active torsions:
REMARK  status: ('A' for Active; 'I' for Inactive)
REMARK    1  A    between atoms: C1_2  and  C2_3 
ROOT
ATOM      1  C2  UNL d   1       1.418   0.161  -2.133  0.00  0.00    -0.077 A 
ATOM      2  C3  UNL d   1       2.149  -0.796  -1.415  0.00  0.00     0.002 A 
ATOM      3  C4  UNL d   1       1.752  -1.169  -0.129  0.00  0.00     0.002 A 
ATOM      4  C5  UNL d   1       0.621  -0.594   0.447  0.00  0.00    -0.004 A 
ATOM      5  C6  UNL d   1      -0.111   0.361  -0.259  0.00  0.00     0.002 A 
ATOM      6  C7  UNL d   1       0.285   0.735  -1.544  0.00  0.00     0.002 A 
ENDROOT
BRANCH   1   7
ATOM      7  C1  UNL d   1       1.817   0.528  -3.539  0.00  0.00     0.055 C 
ATOM      8  C   UNL d   1       1.117   1.799  -3.998  0.00  0.00     0.019 C 
ENDBRANCH   1   7
TORSDOF 1
ENDMDL
