MODEL 1
REMARK minimizedAffinity -4.62606478
REMARK minimizedRMSD -1
REMARK  1 active torsions:
REMARK  status: ('A' for Active; 'I' for Inactive)
REMARK    1  A    between atoms: C1_2  and  C2_3 
ROOT
ATOM      1  C2  UNL d   1      -0.056   0.029   0.356  0.00  0.00    -0.077 A 
ATOM      2  C3  UNL d   1      -0.346   0.981   1.344  0.00  0.00     0.002 A 
ATOM      3  C4  UNL d   1      -1.651   1.133   1.816  0.00  0.00     0.002 A 
ATOM      4  C5  UNL d   1      -2.674   0.335   1.309  0.00  0.00    -0.004 A 
ATOM      5  C6  UNL d   1      -2.396  -0.613   0.326  0.00  0.00     0.002 A 
ATOM      6  C7  UNL d   1      -1.093  -0.766  -0.148  0.00  0.00     0.002 A 
ENDROOT
BRANCH   1   7
ATOM      7  C1  UNL d   1       1.360  -0.171  -0.119  0.00  0.00     0.055 C 
ATOM      8  C   UNL d   1       2.107  -1.158   0.766  0.00  0.00     0.019 C 
ENDBRANCH   1   7
TORSDOF 1
ENDMDL
