MODEL 1
REMARK minimizedAffinity -3.25513816
REMARK minimizedRMSD -1
REMARK  1 active torsions:
REMARK  status: ('A' for Active; 'I' for Inactive)
REMARK    1  A    between atoms: C1_2  and  C2_3 
ROOT
ATOM      1  C2  UNL d   1       0.088  -0.648   1.160  0.00  0.00    -0.077 A 
ATOM      2  C3  UNL d   1       0.176  -0.762   2.555  0.00  0.00     0.002 A 
ATOM      3  C4  UNL d   1      -0.932  -0.483   3.357  0.00  0.00     0.002 A 
ATOM      4  C5  UNL d   1      -2.136  -0.093   2.774  0.00  0.00    -0.004 A 
ATOM      5  C6  UNL d   1      -2.233   0.025   1.388  0.00  0.00     0.002 A 
ATOM      6  C7  UNL d   1      -1.126  -0.252   0.585  0.00  0.00     0.002 A 
ENDROOT
BRANCH   1   7
ATOM      7  C1  UNL d   1       1.268  -0.996   0.290  0.00  0.00     0.055 C 
ATOM      8  C   UNL d   1       2.245   0.166   0.191  0.00  0.00     0.019 C 
ENDBRANCH   1   7
TORSDOF 1
ENDMDL
