MODEL 1
REMARK minimizedAffinity 1.39283586
REMARK minimizedRMSD -1
REMARK  1 active torsions:
REMARK  status: ('A' for Active; 'I' for Inactive)
REMARK    1  A    between atoms: C1_2  and  C2_3 
ROOT
ATOM      1  C2  UNL d   1       0.082  -0.665   3.163  0.00  0.00    -0.077 A 
ATOM      2  C3  UNL d   1       0.379  -0.588   1.796  0.00  0.00     0.002 A 
ATOM      3  C4  UNL d   1      -0.589  -0.160   0.885  0.00  0.00     0.002 A 
ATOM      4  C5  UNL d   1      -1.859   0.197   1.333  0.00  0.00    -0.004 A 
ATOM      5  C6  UNL d   1      -2.166   0.122   2.691  0.00  0.00     0.002 A 
ATOM      6  C7  UNL d   1      -1.199  -0.306   3.602  0.00  0.00     0.002 A 
ENDROOT
BRANCH   1   7
ATOM      7  C1  UNL d   1       1.140  -1.079   4.153  0.00  0.00     0.055 C 
ATOM      8  C   UNL d   1       0.521  -1.548   5.461  0.00  0.00     0.019 C 
ENDBRANCH   1   7
TORSDOF 1
ENDMDL
