MODEL 1
REMARK minimizedAffinity -4.97477865
REMARK minimizedRMSD -1
REMARK  0 active torsions:
REMARK  status: ('A' for Active; 'I' for Inactive)
ROOT
ATOM      1  C   UNL d   1       1.020   0.181   1.741  0.00  0.00     0.124 A 
ATOM      2  C1  UNL d   1       1.117  -0.379   0.475  0.00  0.00     0.062 A 
ATOM      3  C2  UNL d   1      -0.035  -0.710  -0.234  0.00  0.00     0.162 A 
ATOM      4  C3  UNL d   1      -1.293  -0.479   0.322  0.00  0.00    -0.034 A 
ATOM      5  C4  UNL d   1      -1.382   0.084   1.596  0.00  0.00     0.162 A 
ATOM      6  C5  UNL d   1      -0.228   0.412   2.300  0.00  0.00     0.062 A 
ATOM      7  F   UNL d   1      -0.323   0.954   3.523  0.00  0.00    -0.097 F 
ATOM      8  F1  UNL d   1      -2.576   0.319   2.160  0.00  0.00    -0.096 F 
ATOM      9  I   UNL d   1      -3.017  -0.972  -0.735  0.00  0.00    -0.060 I 
ATOM     10  F2  UNL d   1       0.088  -1.250  -1.455  0.00  0.00    -0.096 F 
ATOM     11  F3  UNL d   1       2.322  -0.604  -0.067  0.00  0.00    -0.097 F 
ATOM     12  F4  UNL d   1       2.130   0.497   2.421  0.00  0.00    -0.092 F 
ENDROOT
TORSDOF 0
ENDMDL
