MODEL 1
REMARK minimizedAffinity 3.74548411
REMARK minimizedRMSD -1
REMARK  0 active torsions:
REMARK  status: ('A' for Active; 'I' for Inactive)
ROOT
ATOM      1  C   UNL d   1      -2.948  -1.509   3.559  0.00  0.00     0.124 A 
ATOM      2  C1  UNL d   1      -2.057  -2.257   4.317  0.00  0.00     0.062 A 
ATOM      3  C2  UNL d   1      -0.689  -2.020   4.226  0.00  0.00     0.162 A 
ATOM      4  C3  UNL d   1      -0.202  -1.030   3.372  0.00  0.00    -0.034 A 
ATOM      5  C4  UNL d   1      -1.103  -0.283   2.611  0.00  0.00     0.162 A 
ATOM      6  C5  UNL d   1      -2.470  -0.524   2.707  0.00  0.00     0.062 A 
ATOM      7  F   UNL d   1      -3.328   0.200   1.973  0.00  0.00    -0.097 F 
ATOM      8  F1  UNL d   1      -0.668   0.676   1.781  0.00  0.00    -0.096 F 
ATOM      9  I   UNL d   1       1.844  -0.674   3.232  0.00  0.00    -0.060 I 
ATOM     10  F2  UNL d   1       0.148  -2.758   4.970  0.00  0.00    -0.096 F 
ATOM     11  F3  UNL d   1      -2.517  -3.210   5.141  0.00  0.00    -0.097 F 
ATOM     12  F4  UNL d   1      -4.264  -1.740   3.648  0.00  0.00    -0.092 F 
ENDROOT
TORSDOF 0
ENDMDL
