MODEL 1
REMARK minimizedAffinity 7.74485397
REMARK minimizedRMSD -1
REMARK  0 active torsions:
REMARK  status: ('A' for Active; 'I' for Inactive)
ROOT
ATOM      1  C   UNL d   1      -2.284  -0.460   3.333  0.00  0.00     0.124 A 
ATOM      2  C1  UNL d   1      -1.033  -0.990   3.618  0.00  0.00     0.062 A 
ATOM      3  C2  UNL d   1       0.095  -0.518   2.954  0.00  0.00     0.162 A 
ATOM      4  C3  UNL d   1      -0.022   0.490   1.997  0.00  0.00    -0.034 A 
ATOM      5  C4  UNL d   1      -1.283   1.018   1.715  0.00  0.00     0.162 A 
ATOM      6  C5  UNL d   1      -2.408   0.543   2.382  0.00  0.00     0.062 A 
ATOM      7  F   UNL d   1      -3.615   1.056   2.105  0.00  0.00    -0.097 F 
ATOM      8  F1  UNL d   1      -1.431   1.988   0.801  0.00  0.00    -0.096 F 
ATOM      9  I   UNL d   1       1.663   1.198   1.001  0.00  0.00    -0.060 I 
ATOM     10  F2  UNL d   1       1.291  -1.048   3.250  0.00  0.00    -0.096 F 
ATOM     11  F3  UNL d   1      -0.911  -1.959   4.536  0.00  0.00    -0.097 F 
ATOM     12  F4  UNL d   1      -3.368  -0.916   3.973  0.00  0.00    -0.092 F 
ENDROOT
TORSDOF 0
ENDMDL
