MODEL 1
REMARK minimizedAffinity 16.5763798
REMARK minimizedRMSD -1
REMARK  0 active torsions:
REMARK  status: ('A' for Active; 'I' for Inactive)
ROOT
ATOM      1  C   UNL d   1      -0.528  -3.284  -5.975  0.00  0.00     0.124 A 
ATOM      2  C1  UNL d   1      -1.571  -4.199  -5.983  0.00  0.00     0.062 A 
ATOM      3  C2  UNL d   1      -2.891  -3.757  -5.989  0.00  0.00     0.162 A 
ATOM      4  C3  UNL d   1      -3.176  -2.391  -5.988  0.00  0.00    -0.034 A 
ATOM      5  C4  UNL d   1      -2.121  -1.476  -5.979  0.00  0.00     0.162 A 
ATOM      6  C5  UNL d   1      -0.804  -1.924  -5.973  0.00  0.00     0.062 A 
ATOM      7  F   UNL d   1       0.203  -1.037  -5.965  0.00  0.00    -0.097 F 
ATOM      8  F1  UNL d   1      -2.359  -0.156  -5.977  0.00  0.00    -0.096 F 
ATOM      9  I   UNL d   1      -5.148  -1.726  -5.996  0.00  0.00    -0.060 I 
ATOM     10  F2  UNL d   1      -3.879  -4.664  -5.996  0.00  0.00    -0.096 F 
ATOM     11  F3  UNL d   1      -1.308  -5.514  -5.984  0.00  0.00    -0.097 F 
ATOM     12  F4  UNL d   1       0.741  -3.712  -5.968  0.00  0.00    -0.092 F 
ENDROOT
TORSDOF 0
ENDMDL
