MODEL 1
REMARK minimizedAffinity 7.95735693
REMARK minimizedRMSD -1
REMARK  0 active torsions:
REMARK  status: ('A' for Active; 'I' for Inactive)
ROOT
ATOM      1  C   UNL d   1       0.157  -0.426   2.424  0.00  0.00     0.124 A 
ATOM      2  C1  UNL d   1      -1.071  -0.034   2.937  0.00  0.00     0.062 A 
ATOM      3  C2  UNL d   1      -2.133   0.238   2.080  0.00  0.00     0.162 A 
ATOM      4  C3  UNL d   1      -1.972   0.120   0.700  0.00  0.00    -0.034 A 
ATOM      5  C4  UNL d   1      -0.733  -0.274   0.191  0.00  0.00     0.162 A 
ATOM      6  C5  UNL d   1       0.325  -0.545   1.052  0.00  0.00     0.062 A 
ATOM      7  F   UNL d   1       1.512  -0.924   0.554  0.00  0.00    -0.097 F 
ATOM      8  F1  UNL d   1      -0.544  -0.398  -1.131  0.00  0.00    -0.096 F 
ATOM      9  I   UNL d   1      -3.558   0.527  -0.585  0.00  0.00    -0.060 I 
ATOM     10  F2  UNL d   1      -3.309   0.615   2.604  0.00  0.00    -0.096 F 
ATOM     11  F3  UNL d   1      -1.236   0.082   4.263  0.00  0.00    -0.097 F 
ATOM     12  F4  UNL d   1       1.178  -0.687   3.251  0.00  0.00    -0.092 F 
ENDROOT
TORSDOF 0
ENDMDL
