MODEL 1
REMARK minimizedAffinity 5.10532284
REMARK minimizedRMSD -1
REMARK  0 active torsions:
REMARK  status: ('A' for Active; 'I' for Inactive)
ROOT
ATOM      1  C   UNL d   1      -0.826  -0.171   2.292  0.00  0.00     0.124 A 
ATOM      2  C1  UNL d   1       0.509   0.002   1.956  0.00  0.00     0.062 A 
ATOM      3  C2  UNL d   1       1.478   0.084   2.952  0.00  0.00     0.162 A 
ATOM      4  C3  UNL d   1       1.115  -0.008   4.296  0.00  0.00    -0.034 A 
ATOM      5  C4  UNL d   1      -0.230  -0.182   4.627  0.00  0.00     0.162 A 
ATOM      6  C5  UNL d   1      -1.194  -0.263   3.627  0.00  0.00     0.062 A 
ATOM      7  F   UNL d   1      -2.484  -0.430   3.954  0.00  0.00    -0.097 F 
ATOM      8  F1  UNL d   1      -0.614  -0.275   5.908  0.00  0.00    -0.096 F 
ATOM      9  I   UNL d   1       2.560   0.114   5.789  0.00  0.00    -0.060 I 
ATOM     10  F2  UNL d   1       2.761   0.252   2.598  0.00  0.00    -0.096 F 
ATOM     11  F3  UNL d   1       0.868   0.092   0.667  0.00  0.00    -0.097 F 
ATOM     12  F4  UNL d   1      -1.756  -0.248   1.332  0.00  0.00    -0.092 F 
ENDROOT
TORSDOF 0
ENDMDL
