MODEL 1
REMARK minimizedAffinity 8.48565578
REMARK minimizedRMSD -1
REMARK  0 active torsions:
REMARK  status: ('A' for Active; 'I' for Inactive)
ROOT
ATOM      1  C   UNL d   1       0.301  -0.465   2.154  0.00  0.00     0.124 A 
ATOM      2  C1  UNL d   1      -0.786   0.230   2.666  0.00  0.00     0.062 A 
ATOM      3  C2  UNL d   1      -1.824   0.624   1.826  0.00  0.00     0.162 A 
ATOM      4  C3  UNL d   1      -1.781   0.322   0.465  0.00  0.00    -0.034 A 
ATOM      5  C4  UNL d   1      -0.684  -0.376  -0.043  0.00  0.00     0.162 A 
ATOM      6  C5  UNL d   1       0.351  -0.767   0.801  0.00  0.00     0.062 A 
ATOM      7  F   UNL d   1       1.400  -1.439   0.304  0.00  0.00    -0.097 F 
ATOM      8  F1  UNL d   1      -0.610  -0.683  -1.347  0.00  0.00    -0.096 F 
ATOM      9  I   UNL d   1      -3.330   0.909  -0.795  0.00  0.00    -0.060 I 
ATOM     10  F2  UNL d   1      -2.862   1.294   2.348  0.00  0.00    -0.096 F 
ATOM     11  F3  UNL d   1      -0.837   0.525   3.973  0.00  0.00    -0.097 F 
ATOM     12  F4  UNL d   1       1.298  -0.841   2.964  0.00  0.00    -0.092 F 
ENDROOT
TORSDOF 0
ENDMDL
