MODEL 1
REMARK minimizedAffinity -1.7144686
REMARK minimizedRMSD -1
REMARK  1 active torsions:
REMARK  status: ('A' for Active; 'I' for Inactive)
REMARK    1  A    between atoms: C1_2  and  C2_3 
ROOT
ATOM      1  C2  UNL d   1      -0.877   0.068   1.262  0.00  0.00    -0.073 A 
ATOM      2  C3  UNL d   1      -0.375  -1.232   1.396  0.00  0.00    -0.002 A 
ATOM      3  C4  UNL d   1       0.642  -1.685   0.555  0.00  0.00     0.004 A 
ATOM      4  C5  UNL d   1       1.172  -0.843  -0.422  0.00  0.00    -0.004 A 
ATOM      5  C6  UNL d   1       0.692   0.463  -0.564  0.00  0.00    -0.075 A 
ATOM      6  C7  UNL d   1       1.249   1.381  -1.612  0.00  0.00     0.076 C 
ATOM      7  C8  UNL d   1      -0.332   0.910   0.283  0.00  0.00     0.001 A 
ENDROOT
BRANCH   1   8
ATOM      8  C1  UNL d   1      -1.971   0.564   2.172  0.00  0.00     0.053 C 
ATOM      9  C   UNL d   1      -3.234  -0.275   2.055  0.00  0.00     0.018 C 
ENDBRANCH   1   8
TORSDOF 1
ENDMDL
