MODEL 1
REMARK minimizedAffinity -1.95386589
REMARK minimizedRMSD -1
REMARK  1 active torsions:
REMARK  status: ('A' for Active; 'I' for Inactive)
REMARK    1  A    between atoms: C1_2  and  C2_3 
ROOT
ATOM      1  C2  UNL d   1      -0.328   0.762   0.698  0.00  0.00    -0.073 A 
ATOM      2  C3  UNL d   1       0.166   1.751  -0.159  0.00  0.00    -0.002 A 
ATOM      3  C4  UNL d   1       0.969   1.405  -1.247  0.00  0.00     0.004 A 
ATOM      4  C5  UNL d   1       1.281   0.068  -1.491  0.00  0.00    -0.004 A 
ATOM      5  C6  UNL d   1       0.787  -0.937  -0.652  0.00  0.00    -0.075 A 
ATOM      6  C7  UNL d   1       1.115  -2.380  -0.900  0.00  0.00     0.076 C 
ATOM      7  C8  UNL d   1      -0.017  -0.580   0.439  0.00  0.00     0.001 A 
ENDROOT
BRANCH   1   8
ATOM      8  C1  UNL d   1      -1.201   1.131   1.870  0.00  0.00     0.053 C 
ATOM      9  C   UNL d   1      -2.446   0.262   1.948  0.00  0.00     0.018 C 
ENDBRANCH   1   8
TORSDOF 1
ENDMDL
