MODEL 1
REMARK minimizedAffinity -2.80563974
REMARK minimizedRMSD -1
REMARK  1 active torsions:
REMARK  status: ('A' for Active; 'I' for Inactive)
REMARK    1  A    between atoms: C1_2  and  C2_3 
ROOT
ATOM      1  C2  UNL d   1      -0.744  -0.009   1.001  0.00  0.00    -0.073 A 
ATOM      2  C3  UNL d   1      -0.268  -1.313   0.821  0.00  0.00    -0.002 A 
ATOM      3  C4  UNL d   1       0.795  -1.561  -0.049  0.00  0.00     0.004 A 
ATOM      4  C5  UNL d   1       1.396  -0.511  -0.741  0.00  0.00    -0.004 A 
ATOM      5  C6  UNL d   1       0.942   0.801  -0.566  0.00  0.00    -0.075 A 
ATOM      6  C7  UNL d   1       1.576   1.942  -1.305  0.00  0.00     0.076 C 
ATOM      7  C8  UNL d   1      -0.127   1.042   0.307  0.00  0.00     0.001 A 
ENDROOT
BRANCH   1   8
ATOM      8  C1  UNL d   1      -1.887   0.265   1.944  0.00  0.00     0.053 C 
ATOM      9  C   UNL d   1      -3.238   0.057   1.278  0.00  0.00     0.018 C 
ENDBRANCH   1   8
TORSDOF 1
ENDMDL
