MODEL 1
REMARK minimizedAffinity -3.42326951
REMARK minimizedRMSD -1
REMARK  1 active torsions:
REMARK  status: ('A' for Active; 'I' for Inactive)
REMARK    1  A    between atoms: C1_2  and  C2_3 
ROOT
ATOM      1  C2  UNL d   1      -1.279   0.505   0.467  0.00  0.00    -0.073 A 
ATOM      2  C3  UNL d   1      -1.844   1.712   0.039  0.00  0.00    -0.002 A 
ATOM      3  C4  UNL d   1      -1.107   2.594  -0.752  0.00  0.00     0.004 A 
ATOM      4  C5  UNL d   1       0.198   2.277  -1.129  0.00  0.00    -0.004 A 
ATOM      5  C6  UNL d   1       0.776   1.070  -0.721  0.00  0.00    -0.075 A 
ATOM      6  C7  UNL d   1       2.179   0.715  -1.116  0.00  0.00     0.076 C 
ATOM      7  C8  UNL d   1       0.030   0.191   0.075  0.00  0.00     0.001 A 
ENDROOT
BRANCH   1   8
ATOM      8  C1  UNL d   1      -2.073  -0.453   1.316  0.00  0.00     0.053 C 
ATOM      9  C   UNL d   1      -3.261   0.224   1.982  0.00  0.00     0.018 C 
ENDBRANCH   1   8
TORSDOF 1
ENDMDL
