MODEL 1
REMARK minimizedAffinity -4.82086277
REMARK minimizedRMSD -1
REMARK  1 active torsions:
REMARK  status: ('A' for Active; 'I' for Inactive)
REMARK    1  A    between atoms: C1_2  and  C2_3 
ROOT
ATOM      1  C2  UNL d   1       0.082   0.407  -0.238  0.00  0.00    -0.073 A 
ATOM      2  C3  UNL d   1       0.706   1.503  -0.845  0.00  0.00    -0.002 A 
ATOM      3  C4  UNL d   1       1.802   1.312  -1.688  0.00  0.00     0.004 A 
ATOM      4  C5  UNL d   1       2.280   0.026  -1.939  0.00  0.00    -0.004 A 
ATOM      5  C6  UNL d   1       1.662  -1.083  -1.351  0.00  0.00    -0.075 A 
ATOM      6  C7  UNL d   1       2.166  -2.473  -1.609  0.00  0.00     0.076 C 
ATOM      7  C8  UNL d   1       0.564  -0.883  -0.503  0.00  0.00     0.001 A 
ENDROOT
BRANCH   1   8
ATOM      8  C1  UNL d   1      -1.105   0.607   0.668  0.00  0.00     0.053 C 
ATOM      9  C   UNL d   1      -1.106  -0.373   1.830  0.00  0.00     0.018 C 
ENDBRANCH   1   8
TORSDOF 1
ENDMDL
