MODEL 1
REMARK minimizedAffinity -3.44444895
REMARK minimizedRMSD -1
REMARK  1 active torsions:
REMARK  status: ('A' for Active; 'I' for Inactive)
REMARK    1  A    between atoms: C1_2  and  C2_3 
ROOT
ATOM      1  C2  UNL d   1       1.747  -0.911  -1.181  0.00  0.00    -0.073 A 
ATOM      2  C3  UNL d   1       2.309   0.293  -1.620  0.00  0.00    -0.002 A 
ATOM      3  C4  UNL d   1       1.809   1.513  -1.163  0.00  0.00     0.004 A 
ATOM      4  C5  UNL d   1       0.748   1.541  -0.258  0.00  0.00    -0.004 A 
ATOM      5  C6  UNL d   1       0.181   0.348   0.202  0.00  0.00    -0.075 A 
ATOM      6  C7  UNL d   1      -0.963   0.362   1.174  0.00  0.00     0.076 C 
ATOM      7  C8  UNL d   1       0.687  -0.872  -0.264  0.00  0.00     0.001 A 
ENDROOT
BRANCH   1   8
ATOM      8  C1  UNL d   1       2.288  -2.230  -1.668  0.00  0.00     0.053 C 
ATOM      9  C   UNL d   1       1.509  -3.408  -1.104  0.00  0.00     0.018 C 
ENDBRANCH   1   8
TORSDOF 1
ENDMDL
