MODEL 1
REMARK minimizedAffinity -2.14017582
REMARK minimizedRMSD -1
REMARK  1 active torsions:
REMARK  status: ('A' for Active; 'I' for Inactive)
REMARK    1  A    between atoms: C1_2  and  C2_3 
ROOT
ATOM      1  C2  UNL d   1      -0.219   1.053  -0.040  0.00  0.00    -0.073 A 
ATOM      2  C3  UNL d   1       0.314  -0.133   0.478  0.00  0.00    -0.002 A 
ATOM      3  C4  UNL d   1      -0.426  -0.909   1.371  0.00  0.00     0.004 A 
ATOM      4  C5  UNL d   1      -1.708  -0.511   1.750  0.00  0.00    -0.004 A 
ATOM      5  C6  UNL d   1      -2.263   0.665   1.235  0.00  0.00    -0.075 A 
ATOM      6  C7  UNL d   1      -3.640   1.109   1.634  0.00  0.00     0.076 C 
ATOM      7  C8  UNL d   1      -1.512   1.440   0.340  0.00  0.00     0.001 A 
ENDROOT
BRANCH   1   8
ATOM      8  C1  UNL d   1       0.575   1.890  -1.009  0.00  0.00     0.053 C 
ATOM      9  C   UNL d   1       1.773   1.136  -1.565  0.00  0.00     0.018 C 
ENDBRANCH   1   8
TORSDOF 1
ENDMDL
