MODEL 1
REMARK minimizedAffinity -0.544603109
REMARK minimizedRMSD -1
REMARK  1 active torsions:
REMARK  status: ('A' for Active; 'I' for Inactive)
REMARK    1  A    between atoms: C1_2  and  C2_3 
ROOT
ATOM      1  C2  UNL d   1      -0.979   0.046   0.931  0.00  0.00    -0.073 A 
ATOM      2  C3  UNL d   1      -0.526   1.212   0.303  0.00  0.00    -0.002 A 
ATOM      3  C4  UNL d   1       0.487   1.149  -0.655  0.00  0.00     0.004 A 
ATOM      4  C5  UNL d   1       1.051  -0.079  -1.000  0.00  0.00    -0.004 A 
ATOM      5  C6  UNL d   1       0.604  -1.257  -0.392  0.00  0.00    -0.075 A 
ATOM      6  C7  UNL d   1       1.203  -2.585  -0.751  0.00  0.00     0.076 C 
ATOM      7  C8  UNL d   1      -0.411  -1.185   0.571  0.00  0.00     0.001 A 
ENDROOT
BRANCH   1   8
ATOM      8  C1  UNL d   1      -2.076   0.108   1.962  0.00  0.00     0.053 C 
ATOM      9  C   UNL d   1      -3.336  -0.605   1.496  0.00  0.00     0.018 C 
ENDBRANCH   1   8
TORSDOF 1
ENDMDL
