MODEL 1
REMARK minimizedAffinity -4.19071007
REMARK minimizedRMSD -1
REMARK  1 active torsions:
REMARK  status: ('A' for Active; 'I' for Inactive)
REMARK    1  A    between atoms: C1_2  and  C2_3 
ROOT
ATOM      1  C2  UNL d   1      -0.319   0.625  -0.484  0.00  0.00    -0.073 A 
ATOM      2  C3  UNL d   1       0.497   0.079   0.514  0.00  0.00    -0.002 A 
ATOM      3  C4  UNL d   1      -0.050  -0.312   1.736  0.00  0.00     0.004 A 
ATOM      4  C5  UNL d   1      -1.417  -0.168   1.971  0.00  0.00    -0.004 A 
ATOM      5  C6  UNL d   1      -2.251   0.364   0.983  0.00  0.00    -0.075 A 
ATOM      6  C7  UNL d   1      -3.723   0.527   1.221  0.00  0.00     0.076 C 
ATOM      7  C8  UNL d   1      -1.693   0.757  -0.242  0.00  0.00     0.001 A 
ENDROOT
BRANCH   1   8
ATOM      8  C1  UNL d   1       0.267   1.043  -1.808  0.00  0.00     0.053 C 
ATOM      9  C   UNL d   1       1.734   0.662  -1.928  0.00  0.00     0.018 C 
ENDBRANCH   1   8
TORSDOF 1
ENDMDL
