MODEL 1
REMARK minimizedAffinity -1.93120301
REMARK minimizedRMSD -1
REMARK  1 active torsions:
REMARK  status: ('A' for Active; 'I' for Inactive)
REMARK    1  A    between atoms: C1_2  and  C2_3 
ROOT
ATOM      1  C2  UNL d   1      -0.133   0.498   0.429  0.00  0.00    -0.073 A 
ATOM      2  C3  UNL d   1      -0.746   1.292  -0.546  0.00  0.00    -0.002 A 
ATOM      3  C4  UNL d   1       0.028   2.006  -1.462  0.00  0.00     0.004 A 
ATOM      4  C5  UNL d   1       1.420   1.928  -1.416  0.00  0.00    -0.004 A 
ATOM      5  C6  UNL d   1       2.051   1.130  -0.456  0.00  0.00    -0.075 A 
ATOM      6  C7  UNL d   1       3.547   1.037  -0.392  0.00  0.00     0.076 C 
ATOM      7  C8  UNL d   1       1.267   0.418   0.462  0.00  0.00     0.001 A 
ENDROOT
BRANCH   1   8
ATOM      8  C1  UNL d   1      -0.965  -0.280   1.416  0.00  0.00     0.053 C 
ATOM      9  C   UNL d   1      -2.137   0.534   1.941  0.00  0.00     0.018 C 
ENDBRANCH   1   8
TORSDOF 1
ENDMDL
