MODEL 1
REMARK minimizedAffinity 10.1951962
REMARK minimizedRMSD -1
REMARK  1 active torsions:
REMARK  status: ('A' for Active; 'I' for Inactive)
REMARK    1  A    between atoms: C1_2  and  C2_3 
ROOT
ATOM      1  C2  UNL d   1      -4.144   2.940   0.648  0.00  0.00    -0.077 A 
ATOM      2  C3  UNL d   1      -3.036   3.334  -0.114  0.00  0.00     0.002 A 
ATOM      3  C4  UNL d   1      -1.991   2.440  -0.357  0.00  0.00     0.002 A 
ATOM      4  C5  UNL d   1      -2.047   1.146   0.155  0.00  0.00    -0.004 A 
ATOM      5  C6  UNL d   1      -3.144   0.744   0.916  0.00  0.00     0.002 A 
ATOM      6  C7  UNL d   1      -4.188   1.637   1.161  0.00  0.00     0.002 A 
ENDROOT
BRANCH   1   7
ATOM      7  C1  UNL d   1      -5.294   3.887   0.870  0.00  0.00     0.055 C 
ATOM      8  C   UNL d   1      -5.998   4.220  -0.438  0.00  0.00     0.019 C 
ENDBRANCH   1   7
TORSDOF 1
ENDMDL
