MODEL 1
REMARK minimizedAffinity 0.825331688
REMARK minimizedRMSD -1
REMARK  1 active torsions:
REMARK  status: ('A' for Active; 'I' for Inactive)
REMARK    1  A    between atoms: C1_2  and  C2_3 
ROOT
ATOM      1  C2  UNL d   1       2.703  -5.943  -3.527  0.00  0.00    -0.077 A 
ATOM      2  C3  UNL d   1       2.312  -5.790  -2.189  0.00  0.00     0.002 A 
ATOM      3  C4  UNL d   1       3.272  -5.695  -1.179  0.00  0.00     0.002 A 
ATOM      4  C5  UNL d   1       4.628  -5.748  -1.497  0.00  0.00    -0.004 A 
ATOM      5  C6  UNL d   1       5.026  -5.902  -2.824  0.00  0.00     0.002 A 
ATOM      6  C7  UNL d   1       4.069  -5.999  -3.834  0.00  0.00     0.002 A 
ENDROOT
BRANCH   1   7
ATOM      7  C1  UNL d   1       1.671  -5.996  -4.622  0.00  0.00     0.055 C 
ATOM      8  C   UNL d   1       2.323  -5.999  -5.997  0.00  0.00     0.019 C 
ENDBRANCH   1   7
TORSDOF 1
ENDMDL
