MODEL 1
REMARK minimizedAffinity 6.17840672
REMARK minimizedRMSD -1
REMARK  1 active torsions:
REMARK  status: ('A' for Active; 'I' for Inactive)
REMARK    1  A    between atoms: C1_2  and  C2_3 
ROOT
ATOM      1  C2  UNL d   1       1.767  -2.224   3.506  0.00  0.00    -0.077 A 
ATOM      2  C3  UNL d   1       3.047  -2.412   4.047  0.00  0.00     0.002 A 
ATOM      3  C4  UNL d   1       3.458  -3.680   4.464  0.00  0.00     0.002 A 
ATOM      4  C5  UNL d   1       2.598  -4.769   4.339  0.00  0.00    -0.004 A 
ATOM      5  C6  UNL d   1       1.322  -4.591   3.804  0.00  0.00     0.002 A 
ATOM      6  C7  UNL d   1       0.909  -3.325   3.389  0.00  0.00     0.002 A 
ENDROOT
BRANCH   1   7
ATOM      7  C1  UNL d   1       1.340  -0.866   3.011  0.00  0.00     0.055 C 
ATOM      8  C   UNL d   1       1.988  -0.536   1.675  0.00  0.00     0.019 C 
ENDBRANCH   1   7
TORSDOF 1
ENDMDL
