MODEL 1
REMARK minimizedAffinity -1.50571978
REMARK minimizedRMSD -1
REMARK  1 active torsions:
REMARK  status: ('A' for Active; 'I' for Inactive)
REMARK    1  A    between atoms: C1_2  and  C2_3 
ROOT
ATOM      1  C2  UNL d   1       3.065  -2.398   3.503  0.00  0.00    -0.077 A 
ATOM      2  C3  UNL d   1       1.991  -3.289   3.643  0.00  0.00     0.002 A 
ATOM      3  C4  UNL d   1       0.874  -3.184   2.812  0.00  0.00     0.002 A 
ATOM      4  C5  UNL d   1       0.821  -2.194   1.834  0.00  0.00    -0.004 A 
ATOM      5  C6  UNL d   1       1.882  -1.302   1.688  0.00  0.00     0.002 A 
ATOM      6  C7  UNL d   1       3.000  -1.404   2.518  0.00  0.00     0.002 A 
ENDROOT
BRANCH   1   7
ATOM      7  C1  UNL d   1       4.292  -2.540   4.364  0.00  0.00     0.055 C 
ATOM      8  C   UNL d   1       5.559  -2.237   3.578  0.00  0.00     0.019 C 
ENDBRANCH   1   7
TORSDOF 1
ENDMDL
