MODEL 1
REMARK minimizedAffinity 6.78269196
REMARK minimizedRMSD -1
REMARK  0 active torsions:
REMARK  status: ('A' for Active; 'I' for Inactive)
ROOT
ATOM      1  C1  DEN d   1       6.000  -0.220   4.730  0.00  0.00     0.130 A 
ATOM      2  C2  DEN d   1       5.379  -1.149   3.789  0.00  0.00    -0.031 A 
ATOM      3  C3  DEN d   1       4.669  -0.355   2.766  0.00  0.00     0.027 A 
ATOM      4  C4  DEN d   1       4.475   2.208   2.546  0.00  0.00     0.027 A 
ATOM      5  C5  DEN d   1       4.824   3.413   3.115  0.00  0.00    -0.003 A 
ATOM      6  C6  DEN d   1       5.555   3.490   4.271  0.00  0.00     0.001 A 
ATOM      7  C7  DEN d   1       5.999   2.342   4.871  0.00  0.00     0.017 A 
ATOM      8  C8  DEN d   1       5.644   1.123   4.308  0.00  0.00    -0.094 A 
ATOM      9  C9  DEN d   1       4.916   1.066   3.132  0.00  0.00    -0.072 A 
ENDROOT
TORSDOF 0
ENDMDL
