MODEL 1
REMARK minimizedAffinity 11.1259661
REMARK minimizedRMSD -1
REMARK  0 active torsions:
REMARK  status: ('A' for Active; 'I' for Inactive)
ROOT
ATOM      1  C1  DEN d   1       0.797  -1.477   4.318  0.00  0.00     0.130 A 
ATOM      2  C2  DEN d   1       1.815  -2.378   3.784  0.00  0.00    -0.031 A 
ATOM      3  C3  DEN d   1       1.244  -3.066   2.609  0.00  0.00     0.027 A 
ATOM      4  C4  DEN d   1      -1.103  -2.822   1.567  0.00  0.00     0.027 A 
ATOM      5  C5  DEN d   1      -2.320  -2.186   1.679  0.00  0.00    -0.003 A 
ATOM      6  C6  DEN d   1      -2.593  -1.303   2.689  0.00  0.00     0.001 A 
ATOM      7  C7  DEN d   1      -1.620  -0.996   3.603  0.00  0.00     0.017 A 
ATOM      8  C8  DEN d   1      -0.393  -1.638   3.502  0.00  0.00    -0.094 A 
ATOM      9  C9  DEN d   1      -0.132  -2.519   2.466  0.00  0.00    -0.072 A 
ENDROOT
TORSDOF 0
ENDMDL
