MODEL 1
REMARK minimizedAffinity 5.97842407
REMARK minimizedRMSD -1
REMARK  0 active torsions:
REMARK  status: ('A' for Active; 'I' for Inactive)
ROOT
ATOM      1  C1  DEN d   1       2.239   3.780  -3.877  0.00  0.00     0.130 A 
ATOM      2  C2  DEN d   1       2.947   4.911  -3.284  0.00  0.00    -0.031 A 
ATOM      3  C3  DEN d   1       2.503   5.043  -1.882  0.00  0.00     0.027 A 
ATOM      4  C4  DEN d   1       0.801   3.610  -0.577  0.00  0.00     0.027 A 
ATOM      5  C5  DEN d   1      -0.068   2.544  -0.662  0.00  0.00    -0.003 A 
ATOM      6  C6  DEN d   1      -0.252   1.843  -1.824  0.00  0.00     0.001 A 
ATOM      7  C7  DEN d   1       0.476   2.171  -2.938  0.00  0.00     0.017 A 
ATOM      8  C8  DEN d   1       1.348   3.249  -2.862  0.00  0.00    -0.094 A 
ATOM      9  C9  DEN d   1       1.530   3.937  -1.674  0.00  0.00    -0.072 A 
ENDROOT
TORSDOF 0
ENDMDL
