MODEL 1
REMARK minimizedAffinity -0.273049504
REMARK minimizedRMSD -1
REMARK  0 active torsions:
REMARK  status: ('A' for Active; 'I' for Inactive)
ROOT
ATOM      1  C1  DEN d   1       4.401   1.580   2.770  0.00  0.00     0.130 A 
ATOM      2  C2  DEN d   1       5.224   2.760   3.022  0.00  0.00    -0.031 A 
ATOM      3  C3  DEN d   1       5.996   2.523   4.259  0.00  0.00     0.027 A 
ATOM      4  C4  DEN d   1       6.000   0.453   5.797  0.00  0.00     0.027 A 
ATOM      5  C5  DEN d   1       5.455  -0.796   6.000  0.00  0.00    -0.003 A 
ATOM      6  C6  DEN d   1       4.504  -1.322   5.166  0.00  0.00     0.001 A 
ATOM      7  C7  DEN d   1       4.101  -0.615   4.065  0.00  0.00     0.017 A 
ATOM      8  C8  DEN d   1       4.640   0.648   3.857  0.00  0.00    -0.094 A 
ATOM      9  C9  DEN d   1       5.609   1.157   4.705  0.00  0.00    -0.072 A 
ENDROOT
TORSDOF 0
ENDMDL
