MODEL 1
REMARK minimizedAffinity 4.21872902
REMARK minimizedRMSD -1
REMARK  0 active torsions:
REMARK  status: ('A' for Active; 'I' for Inactive)
ROOT
ATOM      1  C1  DEN d   1       4.051   0.937   1.895  0.00  0.00     0.130 A 
ATOM      2  C2  DEN d   1       3.647  -0.386   2.363  0.00  0.00    -0.031 A 
ATOM      3  C3  DEN d   1       4.118  -0.543   3.754  0.00  0.00     0.027 A 
ATOM      4  C4  DEN d   1       5.421   1.129   5.223  0.00  0.00     0.027 A 
ATOM      5  C5  DEN d   1       6.000   2.378   5.259  0.00  0.00    -0.003 A 
ATOM      6  C6  DEN d   1       5.999   3.214   4.174  0.00  0.00     0.001 A 
ATOM      7  C7  DEN d   1       5.369   2.829   3.021  0.00  0.00     0.017 A 
ATOM      8  C8  DEN d   1       4.789   1.568   2.975  0.00  0.00    -0.094 A 
ATOM      9  C9  DEN d   1       4.790   0.742   4.086  0.00  0.00    -0.072 A 
ENDROOT
TORSDOF 0
ENDMDL
