MODEL 1
REMARK minimizedAffinity 10.2682524
REMARK minimizedRMSD -1
REMARK  0 active torsions:
REMARK  status: ('A' for Active; 'I' for Inactive)
ROOT
ATOM      1  C1  DEN d   1      -2.676   3.126   1.653  0.00  0.00     0.130 A 
ATOM      2  C2  DEN d   1      -2.912   3.710   0.335  0.00  0.00    -0.031 A 
ATOM      3  C3  DEN d   1      -3.235   2.613  -0.599  0.00  0.00     0.027 A 
ATOM      4  C4  DEN d   1      -3.399   0.081  -0.134  0.00  0.00     0.027 A 
ATOM      5  C5  DEN d   1      -3.272  -0.893   0.831  0.00  0.00    -0.003 A 
ATOM      6  C6  DEN d   1      -2.907  -0.602   2.119  0.00  0.00     0.001 A 
ATOM      7  C7  DEN d   1      -2.701   0.701   2.488  0.00  0.00     0.017 A 
ATOM      8  C8  DEN d   1      -2.819   1.688   1.519  0.00  0.00    -0.094 A 
ATOM      9  C9  DEN d   1      -3.201   1.375   0.225  0.00  0.00    -0.072 A 
ENDROOT
TORSDOF 0
ENDMDL
