MODEL 1
REMARK minimizedAffinity -3.15735221
REMARK minimizedRMSD -1
REMARK  0 active torsions:
REMARK  status: ('A' for Active; 'I' for Inactive)
ROOT
ATOM      1  C1  DEN d   1       5.386   0.180   5.862  0.00  0.00     0.130 A 
ATOM      2  C2  DEN d   1       5.999   1.503   5.787  0.00  0.00    -0.031 A 
ATOM      3  C3  DEN d   1       5.609   2.115   4.501  0.00  0.00     0.027 A 
ATOM      4  C4  DEN d   1       4.120   1.149   2.630  0.00  0.00     0.027 A 
ATOM      5  C5  DEN d   1       3.382   0.055   2.235  0.00  0.00    -0.003 A 
ATOM      6  C6  DEN d   1       3.288  -1.077   3.000  0.00  0.00     0.001 A 
ATOM      7  C7  DEN d   1       3.907  -1.125   4.221  0.00  0.00     0.017 A 
ATOM      8  C8  DEN d   1       4.660  -0.029   4.623  0.00  0.00    -0.094 A 
ATOM      9  C9  DEN d   1       4.732   1.111   3.841  0.00  0.00    -0.072 A 
ENDROOT
TORSDOF 0
ENDMDL
