MODEL 1
REMARK minimizedAffinity 10.1798668
REMARK minimizedRMSD -1
REMARK  0 active torsions:
REMARK  status: ('A' for Active; 'I' for Inactive)
ROOT
ATOM      1  C1  DEN d   1      -2.836   1.151   3.909  0.00  0.00     0.130 A 
ATOM      2  C2  DEN d   1      -2.903  -0.291   3.693  0.00  0.00    -0.031 A 
ATOM      3  C3  DEN d   1      -3.108  -0.528   2.250  0.00  0.00     0.027 A 
ATOM      4  C4  DEN d   1      -3.321   1.190   0.338  0.00  0.00     0.027 A 
ATOM      5  C5  DEN d   1      -3.339   2.533   0.033  0.00  0.00    -0.003 A 
ATOM      6  C6  DEN d   1      -3.225   3.502   0.994  0.00  0.00     0.001 A 
ATOM      7  C7  DEN d   1      -3.043   3.142   2.303  0.00  0.00     0.017 A 
ATOM      8  C8  DEN d   1      -3.032   1.790   2.620  0.00  0.00    -0.094 A 
ATOM      9  C9  DEN d   1      -3.136   0.825   1.632  0.00  0.00    -0.072 A 
ENDROOT
TORSDOF 0
ENDMDL
