MODEL 1
REMARK minimizedAffinity 6.62313795
REMARK minimizedRMSD -1
REMARK  0 active torsions:
REMARK  status: ('A' for Active; 'I' for Inactive)
ROOT
ATOM      1  C1  DEN d   1       5.411   0.728   3.176  0.00  0.00     0.130 A 
ATOM      2  C2  DEN d   1       5.281   1.209   4.549  0.00  0.00    -0.031 A 
ATOM      3  C3  DEN d   1       4.143   0.505   5.174  0.00  0.00     0.027 A 
ATOM      4  C4  DEN d   1       2.581  -1.278   4.157  0.00  0.00     0.027 A 
ATOM      5  C5  DEN d   1       2.293  -2.000   3.020  0.00  0.00    -0.003 A 
ATOM      6  C6  DEN d   1       2.996  -1.841   1.855  0.00  0.00     0.001 A 
ATOM      7  C7  DEN d   1       4.052  -0.970   1.814  0.00  0.00     0.017 A 
ATOM      8  C8  DEN d   1       4.345  -0.232   2.954  0.00  0.00    -0.094 A 
ATOM      9  C9  DEN d   1       3.630  -0.417   4.125  0.00  0.00    -0.072 A 
ENDROOT
TORSDOF 0
ENDMDL
