MODEL 1
REMARK minimizedAffinity 6.53517199
REMARK minimizedRMSD -1
REMARK  0 active torsions:
REMARK  status: ('A' for Active; 'I' for Inactive)
ROOT
ATOM      1  C1  DEN d   1      -5.636  -1.353   2.341  0.00  0.00     0.130 A 
ATOM      2  C2  DEN d   1      -5.983  -1.630   3.732  0.00  0.00    -0.031 A 
ATOM      3  C3  DEN d   1      -5.034  -0.898   4.594  0.00  0.00     0.027 A 
ATOM      4  C4  DEN d   1      -3.075   0.636   3.915  0.00  0.00     0.027 A 
ATOM      5  C5  DEN d   1      -2.382   1.166   2.849  0.00  0.00    -0.003 A 
ATOM      6  C6  DEN d   1      -2.701   0.870   1.550  0.00  0.00     0.001 A 
ATOM      7  C7  DEN d   1      -3.770   0.055   1.283  0.00  0.00     0.017 A 
ATOM      8  C8  DEN d   1      -4.468  -0.490   2.352  0.00  0.00    -0.094 A 
ATOM      9  C9  DEN d   1      -4.138  -0.168   3.658  0.00  0.00    -0.072 A 
ENDROOT
TORSDOF 0
ENDMDL
