MODEL 1
REMARK minimizedAffinity 8.80753613
REMARK minimizedRMSD -1
REMARK  0 active torsions:
REMARK  status: ('A' for Active; 'I' for Inactive)
ROOT
ATOM      1  C1  DEN d   1      -1.351  -3.823  -2.513  0.00  0.00     0.130 A 
ATOM      2  C2  DEN d   1       0.065  -3.636  -2.208  0.00  0.00    -0.031 A 
ATOM      3  C3  DEN d   1       0.291  -4.056  -0.811  0.00  0.00     0.027 A 
ATOM      4  C4  DEN d   1      -1.405  -4.976   0.901  0.00  0.00     0.027 A 
ATOM      5  C5  DEN d   1      -2.727  -5.303   1.107  0.00  0.00    -0.003 A 
ATOM      6  C6  DEN d   1      -3.682  -5.128   0.140  0.00  0.00     0.001 A 
ATOM      7  C7  DEN d   1      -3.319  -4.655  -1.094  0.00  0.00     0.017 A 
ATOM      8  C8  DEN d   1      -1.989  -4.317  -1.307  0.00  0.00    -0.094 A 
ATOM      9  C9  DEN d   1      -1.037  -4.513  -0.320  0.00  0.00    -0.072 A 
ENDROOT
TORSDOF 0
ENDMDL
