MODEL 1
REMARK minimizedAffinity -0.356336862
REMARK minimizedRMSD -1
REMARK  0 active torsions:
REMARK  status: ('A' for Active; 'I' for Inactive)
ROOT
ATOM      1  C1  DEN d   1      -2.604   1.844  -0.716  0.00  0.00     0.130 A 
ATOM      2  C2  DEN d   1      -2.410   3.117  -0.028  0.00  0.00    -0.031 A 
ATOM      3  C3  DEN d   1      -2.403   2.855   1.425  0.00  0.00     0.027 A 
ATOM      4  C4  DEN d   1      -2.667   0.611   2.671  0.00  0.00     0.027 A 
ATOM      5  C5  DEN d   1      -2.867  -0.742   2.514  0.00  0.00    -0.003 A 
ATOM      6  C6  DEN d   1      -3.026  -1.320   1.282  0.00  0.00     0.001 A 
ATOM      7  C7  DEN d   1      -2.943  -0.546   0.155  0.00  0.00     0.017 A 
ATOM      8  C8  DEN d   1      -2.749   0.820   0.304  0.00  0.00    -0.094 A 
ATOM      9  C9  DEN d   1      -2.578   1.383   1.558  0.00  0.00    -0.072 A 
ENDROOT
TORSDOF 0
ENDMDL
