MODEL 1
REMARK minimizedAffinity 0.488736659
REMARK minimizedRMSD -1
REMARK  0 active torsions:
REMARK  status: ('A' for Active; 'I' for Inactive)
ROOT
ATOM      1  C1  DEN d   1      -2.515   2.962   1.773  0.00  0.00     0.130 A 
ATOM      2  C2  DEN d   1      -2.811   3.104   0.350  0.00  0.00    -0.031 A 
ATOM      3  C3  DEN d   1      -3.346   1.816  -0.135  0.00  0.00     0.027 A 
ATOM      4  C4  DEN d   1      -3.747  -0.371   1.173  0.00  0.00     0.027 A 
ATOM      5  C5  DEN d   1      -3.637  -0.979   2.404  0.00  0.00    -0.003 A 
ATOM      6  C6  DEN d   1      -3.118  -0.332   3.494  0.00  0.00     0.001 A 
ATOM      7  C7  DEN d   1      -2.731   0.978   3.386  0.00  0.00     0.017 A 
ATOM      8  C8  DEN d   1      -2.832   1.595   2.146  0.00  0.00    -0.094 A 
ATOM      9  C9  DEN d   1      -3.371   0.928   1.059  0.00  0.00    -0.072 A 
ENDROOT
TORSDOF 0
ENDMDL
