MODEL 1
REMARK minimizedAffinity -2.60001206
REMARK minimizedRMSD -1
REMARK  0 active torsions:
REMARK  status: ('A' for Active; 'I' for Inactive)
ROOT
ATOM      1  C1  DEN d   1       4.807  -1.105   3.271  0.00  0.00     0.130 A 
ATOM      2  C2  DEN d   1       4.567   0.317   3.500  0.00  0.00    -0.031 A 
ATOM      3  C3  DEN d   1       3.462   0.742   2.617  0.00  0.00     0.027 A 
ATOM      4  C4  DEN d   1       2.103  -0.659   0.931  0.00  0.00     0.027 A 
ATOM      5  C5  DEN d   1       1.949  -1.911   0.378  0.00  0.00    -0.003 A 
ATOM      6  C6  DEN d   1       2.752  -2.965   0.723  0.00  0.00     0.001 A 
ATOM      7  C7  DEN d   1       3.718  -2.798   1.680  0.00  0.00     0.017 A 
ATOM      8  C8  DEN d   1       3.884  -1.537   2.236  0.00  0.00    -0.094 A 
ATOM      9  C9  DEN d   1       3.054  -0.487   1.884  0.00  0.00    -0.072 A 
ENDROOT
TORSDOF 0
ENDMDL
