MODEL 1
REMARK minimizedAffinity 15.3752241
REMARK minimizedRMSD -1
REMARK  0 active torsions:
REMARK  status: ('A' for Active; 'I' for Inactive)
ROOT
ATOM      1  C1  DEN d   1      -3.367  -3.647  -1.321  0.00  0.00     0.130 A 
ATOM      2  C2  DEN d   1      -2.620  -2.398  -1.448  0.00  0.00    -0.031 A 
ATOM      3  C3  DEN d   1      -1.637  -2.340  -0.347  0.00  0.00     0.027 A 
ATOM      4  C4  DEN d   1      -1.198  -4.056   1.528  0.00  0.00     0.027 A 
ATOM      5  C5  DEN d   1      -1.590  -5.266   2.057  0.00  0.00    -0.003 A 
ATOM      6  C6  DEN d   1      -2.615  -5.999   1.521  0.00  0.00     0.001 A 
ATOM      7  C7  DEN d   1      -3.255  -5.550   0.396  0.00  0.00     0.017 A 
ATOM      8  C8  DEN d   1      -2.871  -4.328  -0.138  0.00  0.00    -0.094 A 
ATOM      9  C9  DEN d   1      -1.824  -3.607   0.411  0.00  0.00    -0.072 A 
ENDROOT
TORSDOF 0
ENDMDL
