MODEL 1
REMARK minimizedAffinity 19.4157925
REMARK minimizedRMSD -1
REMARK  0 active torsions:
REMARK  status: ('A' for Active; 'I' for Inactive)
ROOT
ATOM      1  C1  DEN d   1      -2.998  -1.809  -4.842  0.00  0.00     0.130 A 
ATOM      2  C2  DEN d   1      -2.212  -2.234  -5.998  0.00  0.00    -0.031 A 
ATOM      3  C3  DEN d   1      -1.741  -3.611  -5.748  0.00  0.00     0.027 A 
ATOM      4  C4  DEN d   1      -2.154  -5.121  -3.698  0.00  0.00     0.027 A 
ATOM      5  C5  DEN d   1      -2.753  -5.193  -2.460  0.00  0.00    -0.003 A 
ATOM      6  C6  DEN d   1      -3.441  -4.140  -1.919  0.00  0.00     0.001 A 
ATOM      7  C7  DEN d   1      -3.586  -2.983  -2.638  0.00  0.00     0.017 A 
ATOM      8  C8  DEN d   1      -2.979  -2.899  -3.884  0.00  0.00    -0.094 A 
ATOM      9  C9  DEN d   1      -2.298  -3.980  -4.419  0.00  0.00    -0.072 A 
ENDROOT
TORSDOF 0
ENDMDL
