MODEL 1
REMARK minimizedAffinity 24.0007305
REMARK minimizedRMSD -1
REMARK  0 active torsions:
REMARK  status: ('A' for Active; 'I' for Inactive)
ROOT
ATOM      1  C1  DEN d   1       2.497   1.372  -2.969  0.00  0.00     0.130 A 
ATOM      2  C2  DEN d   1       3.032   2.271  -3.988  0.00  0.00    -0.031 A 
ATOM      3  C3  DEN d   1       4.504   2.273  -3.868  0.00  0.00     0.027 A 
ATOM      4  C4  DEN d   1       5.999   0.975  -2.215  0.00  0.00     0.027 A 
ATOM      5  C5  DEN d   1       6.000   0.094  -1.156  0.00  0.00    -0.003 A 
ATOM      6  C6  DEN d   1       4.842  -0.392  -0.609  0.00  0.00     0.001 A 
ATOM      7  C7  DEN d   1       3.635  -0.036  -1.149  0.00  0.00     0.017 A 
ATOM      8  C8  DEN d   1       3.625   0.858  -2.213  0.00  0.00    -0.094 A 
ATOM      9  C9  DEN d   1       4.807   1.329  -2.759  0.00  0.00    -0.072 A 
ENDROOT
TORSDOF 0
ENDMDL
