MODEL 1
REMARK minimizedAffinity 12.6344318
REMARK minimizedRMSD -1
REMARK  0 active torsions:
REMARK  status: ('A' for Active; 'I' for Inactive)
ROOT
ATOM      1  C1  DEN d   1      -2.044  -2.943  -2.429  0.00  0.00     0.130 A 
ATOM      2  C2  DEN d   1      -3.444  -3.310  -2.618  0.00  0.00    -0.031 A 
ATOM      3  C3  DEN d   1      -4.121  -3.218  -1.308  0.00  0.00     0.027 A 
ATOM      4  C4  DEN d   1      -3.142  -2.541   0.980  0.00  0.00     0.027 A 
ATOM      5  C5  DEN d   1      -1.996  -2.155   1.641  0.00  0.00    -0.003 A 
ATOM      6  C6  DEN d   1      -0.790  -2.038   1.003  0.00  0.00     0.001 A 
ATOM      7  C7  DEN d   1      -0.709  -2.267  -0.345  0.00  0.00     0.017 A 
ATOM      8  C8  DEN d   1      -1.858  -2.664  -1.017  0.00  0.00    -0.094 A 
ATOM      9  C9  DEN d   1      -3.071  -2.764  -0.357  0.00  0.00    -0.072 A 
ENDROOT
TORSDOF 0
ENDMDL
