MODEL 1
REMARK minimizedAffinity 23.7318935
REMARK minimizedRMSD -1
REMARK  0 active torsions:
REMARK  status: ('A' for Active; 'I' for Inactive)
ROOT
ATOM      1  C1  DEN d   1      -4.950   1.322   5.992  0.00  0.00     0.130 A 
ATOM      2  C2  DEN d   1      -5.921   0.232   5.987  0.00  0.00    -0.031 A 
ATOM      3  C3  DEN d   1      -5.999  -0.303   4.613  0.00  0.00     0.027 A 
ATOM      4  C4  DEN d   1      -4.713   0.443   2.506  0.00  0.00     0.027 A 
ATOM      5  C5  DEN d   1      -3.788   1.336   2.013  0.00  0.00    -0.003 A 
ATOM      6  C6  DEN d   1      -3.215   2.301   2.798  0.00  0.00     0.001 A 
ATOM      7  C7  DEN d   1      -3.528   2.367   4.130  0.00  0.00     0.017 A 
ATOM      8  C8  DEN d   1      -4.466   1.475   4.632  0.00  0.00    -0.094 A 
ATOM      9  C9  DEN d   1      -5.025   0.498   3.825  0.00  0.00    -0.072 A 
ENDROOT
TORSDOF 0
ENDMDL
