MODEL 1
REMARK minimizedAffinity 16.6469307
REMARK minimizedRMSD -1
REMARK  0 active torsions:
REMARK  status: ('A' for Active; 'I' for Inactive)
ROOT
ATOM      1  C1  DEN d   1       3.261  -0.303   0.162  0.00  0.00     0.130 A 
ATOM      2  C2  DEN d   1       3.636   0.494  -1.003  0.00  0.00    -0.031 A 
ATOM      3  C3  DEN d   1       2.854   1.746  -0.970  0.00  0.00     0.027 A 
ATOM      4  C4  DEN d   1       1.111   2.526   0.764  0.00  0.00     0.027 A 
ATOM      5  C5  DEN d   1       0.450   2.184   1.923  0.00  0.00    -0.003 A 
ATOM      6  C6  DEN d   1       0.653   0.984   2.553  0.00  0.00     0.001 A 
ATOM      7  C7  DEN d   1       1.573   0.101   2.051  0.00  0.00     0.017 A 
ATOM      8  C8  DEN d   1       2.238   0.436   0.879  0.00  0.00    -0.094 A 
ATOM      9  C9  DEN d   1       2.028   1.659   0.264  0.00  0.00    -0.072 A 
ENDROOT
TORSDOF 0
ENDMDL
