MODEL 1
REMARK minimizedAffinity 14.1980133
REMARK minimizedRMSD -1
REMARK  0 active torsions:
REMARK  status: ('A' for Active; 'I' for Inactive)
ROOT
ATOM      1  C1  DEN d   1       2.217   0.004   0.068  0.00  0.00     0.130 A 
ATOM      2  C2  DEN d   1       1.410   0.208   1.268  0.00  0.00    -0.031 A 
ATOM      3  C3  DEN d   1       2.315   0.199   2.434  0.00  0.00     0.027 A 
ATOM      4  C4  DEN d   1       4.876  -0.106   2.498  0.00  0.00     0.027 A 
ATOM      5  C5  DEN d   1       6.000  -0.322   1.732  0.00  0.00    -0.003 A 
ATOM      6  C6  DEN d   1       5.938  -0.477   0.372  0.00  0.00     0.001 A 
ATOM      7  C7  DEN d   1       4.732  -0.374  -0.269  0.00  0.00     0.017 A 
ATOM      8  C8  DEN d   1       3.593  -0.163   0.498  0.00  0.00    -0.094 A 
ATOM      9  C9  DEN d   1       3.678   0.004   1.870  0.00  0.00    -0.072 A 
ENDROOT
TORSDOF 0
ENDMDL
