MODEL 1
REMARK minimizedAffinity 22.7361736
REMARK minimizedRMSD -1
REMARK  0 active torsions:
REMARK  status: ('A' for Active; 'I' for Inactive)
ROOT
ATOM      1  C1  DEN d   1      -1.058  -2.001   1.170  0.00  0.00     0.130 A 
ATOM      2  C2  DEN d   1      -0.359  -2.720   0.108  0.00  0.00    -0.031 A 
ATOM      3  C3  DEN d   1       0.812  -1.916  -0.295  0.00  0.00     0.027 A 
ATOM      4  C4  DEN d   1       1.610   0.359   0.622  0.00  0.00     0.027 A 
ATOM      5  C5  DEN d   1       1.335   1.366   1.520  0.00  0.00    -0.003 A 
ATOM      6  C6  DEN d   1       0.234   1.338   2.334  0.00  0.00     0.001 A 
ATOM      7  C7  DEN d   1      -0.610   0.259   2.298  0.00  0.00     0.017 A 
ATOM      8  C8  DEN d   1      -0.343  -0.756   1.389  0.00  0.00    -0.094 A 
ATOM      9  C9  DEN d   1       0.782  -0.716   0.584  0.00  0.00    -0.072 A 
ENDROOT
TORSDOF 0
ENDMDL
