MODEL 1
REMARK minimizedAffinity 14.5118523
REMARK minimizedRMSD -1
REMARK  0 active torsions:
REMARK  status: ('A' for Active; 'I' for Inactive)
ROOT
ATOM      1  C1  DEN d   1       2.898   2.023  -2.569  0.00  0.00     0.130 A 
ATOM      2  C2  DEN d   1       4.255   1.695  -2.997  0.00  0.00    -0.031 A 
ATOM      3  C3  DEN d   1       4.858   0.820  -1.971  0.00  0.00     0.027 A 
ATOM      4  C4  DEN d   1       3.826  -0.056   0.225  0.00  0.00     0.027 A 
ATOM      5  C5  DEN d   1       2.704  -0.037   1.023  0.00  0.00    -0.003 A 
ATOM      6  C6  DEN d   1       1.590   0.690   0.700  0.00  0.00     0.001 A 
ATOM      7  C7  DEN d   1       1.556   1.395  -0.474  0.00  0.00     0.017 A 
ATOM      8  C8  DEN d   1       2.686   1.387  -1.281  0.00  0.00    -0.094 A 
ATOM      9  C9  DEN d   1       3.798   0.635  -0.943  0.00  0.00    -0.072 A 
ENDROOT
TORSDOF 0
ENDMDL
