MODEL 1
REMARK minimizedAffinity 18.8741226
REMARK minimizedRMSD -1
REMARK  0 active torsions:
REMARK  status: ('A' for Active; 'I' for Inactive)
ROOT
ATOM      1  C1  DEN d   1       1.904   1.897  -0.620  0.00  0.00     0.130 A 
ATOM      2  C2  DEN d   1       2.621   0.659  -0.908  0.00  0.00    -0.031 A 
ATOM      3  C3  DEN d   1       2.399  -0.271   0.218  0.00  0.00     0.027 A 
ATOM      4  C4  DEN d   1       1.017   0.085   2.366  0.00  0.00     0.027 A 
ATOM      5  C5  DEN d   1       0.235   0.980   3.063  0.00  0.00    -0.003 A 
ATOM      6  C6  DEN d   1      -0.015   2.244   2.600  0.00  0.00     0.001 A 
ATOM      7  C7  DEN d   1       0.484   2.635   1.386  0.00  0.00     0.017 A 
ATOM      8  C8  DEN d   1       1.279   1.741   0.681  0.00  0.00    -0.094 A 
ATOM      9  C9  DEN d   1       1.511   0.462   1.160  0.00  0.00    -0.072 A 
ENDROOT
TORSDOF 0
ENDMDL
