MODEL 1
REMARK minimizedAffinity 18.3060474
REMARK minimizedRMSD -1
REMARK  0 active torsions:
REMARK  status: ('A' for Active; 'I' for Inactive)
ROOT
ATOM      1  C1  DEN d   1      -3.945   4.893   5.999  0.00  0.00     0.130 A 
ATOM      2  C2  DEN d   1      -5.082   5.810   6.000  0.00  0.00    -0.031 A 
ATOM      3  C3  DEN d   1      -5.999   5.400   4.917  0.00  0.00     0.027 A 
ATOM      4  C4  DEN d   1      -5.772   3.443   3.252  0.00  0.00     0.027 A 
ATOM      5  C5  DEN d   1      -4.972   2.395   2.854  0.00  0.00    -0.003 A 
ATOM      6  C6  DEN d   1      -3.768   2.128   3.450  0.00  0.00     0.001 A 
ATOM      7  C7  DEN d   1      -3.349   2.893   4.507  0.00  0.00     0.017 A 
ATOM      8  C8  DEN d   1      -4.147   3.956   4.909  0.00  0.00    -0.094 A 
ATOM      9  C9  DEN d   1      -5.367   4.202   4.302  0.00  0.00    -0.072 A 
ENDROOT
TORSDOF 0
ENDMDL
