MODEL 1
REMARK minimizedAffinity 10.292304
REMARK minimizedRMSD -1
REMARK  0 active torsions:
REMARK  status: ('A' for Active; 'I' for Inactive)
ROOT
ATOM      1  C1  DEN d   1      -2.994   3.130   4.964  0.00  0.00     0.130 A 
ATOM      2  C2  DEN d   1      -3.166   2.408   3.706  0.00  0.00    -0.031 A 
ATOM      3  C3  DEN d   1      -4.286   3.031   2.972  0.00  0.00     0.027 A 
ATOM      4  C4  DEN d   1      -5.759   5.035   3.655  0.00  0.00     0.027 A 
ATOM      5  C5  DEN d   1      -6.000   5.967   4.640  0.00  0.00    -0.003 A 
ATOM      6  C6  DEN d   1      -5.284   5.997   5.807  0.00  0.00     0.001 A 
ATOM      7  C7  DEN d   1      -4.262   5.106   6.000  0.00  0.00     0.017 A 
ATOM      8  C8  DEN d   1      -4.018   4.158   5.014  0.00  0.00    -0.094 A 
ATOM      9  C9  DEN d   1      -4.745   4.152   3.836  0.00  0.00    -0.072 A 
ENDROOT
TORSDOF 0
ENDMDL
