MODEL 1
REMARK minimizedAffinity 9.91099453
REMARK minimizedRMSD -1
REMARK  2 active torsions:
REMARK  status: ('A' for Active; 'I' for Inactive)
REMARK    1  A    between atoms: C1_2  and  C2_3 
REMARK    2  A    between atoms: C2_3  and  C3_4 
ROOT
ATOM      1  C3  UNL d   1      -5.997  -1.448   3.111  0.00  0.00    -0.075 A 
ATOM      2  C4  UNL d   1      -5.999  -0.560   4.197  0.00  0.00     0.002 A 
ATOM      3  C5  UNL d   1      -5.983  -1.043   5.506  0.00  0.00     0.002 A 
ATOM      4  C6  UNL d   1      -5.974  -2.415   5.746  0.00  0.00    -0.004 A 
ATOM      5  C7  UNL d   1      -5.988  -3.306   4.675  0.00  0.00     0.002 A 
ATOM      6  C8  UNL d   1      -6.000  -2.826   3.364  0.00  0.00     0.002 A 
ENDROOT
BRANCH   1   7
ATOM      7  C2  UNL d   1      -5.984  -0.932   1.692  0.00  0.00     0.056 C 
BRANCH   7   8
ATOM      8  C1  UNL d   1      -5.989  -2.034   0.628  0.00  0.00     0.007 C 
ATOM      9  C   UNL d   1      -5.999  -1.494  -0.796  0.00  0.00     0.009 C 
ENDBRANCH   7   8
ENDBRANCH   1   7
TORSDOF 2
ENDMDL
