MODEL 1
REMARK minimizedAffinity 9.7390852
REMARK minimizedRMSD -1
REMARK  2 active torsions:
REMARK  status: ('A' for Active; 'I' for Inactive)
REMARK    1  A    between atoms: C1_2  and  C2_3 
REMARK    2  A    between atoms: C2_3  and  C3_4 
ROOT
ATOM      1  C3  UNL d   1       0.731   2.804   1.914  0.00  0.00    -0.075 A 
ATOM      2  C4  UNL d   1       1.609   2.570   2.982  0.00  0.00     0.002 A 
ATOM      3  C5  UNL d   1       2.484   3.568   3.412  0.00  0.00     0.002 A 
ATOM      4  C6  UNL d   1       2.499   4.807   2.776  0.00  0.00    -0.004 A 
ATOM      5  C7  UNL d   1       1.642   5.045   1.703  0.00  0.00     0.002 A 
ATOM      6  C8  UNL d   1       0.763   4.050   1.274  0.00  0.00     0.002 A 
ENDROOT
BRANCH   1   7
ATOM      7  C2  UNL d   1      -0.239   1.738   1.463  0.00  0.00     0.056 C 
BRANCH   7   8
ATOM      8  C1  UNL d   1       0.220   0.962   0.224  0.00  0.00     0.007 C 
ATOM      9  C   UNL d   1       0.884  -0.367   0.561  0.00  0.00     0.009 C 
ENDBRANCH   7   8
ENDBRANCH   1   7
TORSDOF 2
ENDMDL
