MODEL 1
REMARK minimizedAffinity 6.60732174
REMARK minimizedRMSD -1
REMARK  2 active torsions:
REMARK  status: ('A' for Active; 'I' for Inactive)
REMARK    1  A    between atoms: C1_2  and  C2_3 
REMARK    2  A    between atoms: C2_3  and  C3_4 
ROOT
ATOM      1  C3  UNL d   1       0.429   1.838   2.146  0.00  0.00    -0.075 A 
ATOM      2  C4  UNL d   1       1.032   0.744   2.784  0.00  0.00     0.002 A 
ATOM      3  C5  UNL d   1       0.753  -0.559   2.370  0.00  0.00     0.002 A 
ATOM      4  C6  UNL d   1      -0.136  -0.785   1.323  0.00  0.00    -0.004 A 
ATOM      5  C7  UNL d   1      -0.754   0.293   0.692  0.00  0.00     0.002 A 
ATOM      6  C8  UNL d   1      -0.474   1.598   1.101  0.00  0.00     0.002 A 
ENDROOT
BRANCH   1   7
ATOM      7  C2  UNL d   1       0.748   3.252   2.570  0.00  0.00     0.056 C 
BRANCH   7   8
ATOM      8  C1  UNL d   1       2.231   3.492   2.874  0.00  0.00     0.007 C 
ATOM      9  C   UNL d   1       2.608   3.172   4.314  0.00  0.00     0.009 C 
ENDBRANCH   7   8
ENDBRANCH   1   7
TORSDOF 2
ENDMDL
