MODEL 1
REMARK minimizedAffinity -3.3987453
REMARK minimizedRMSD -1
REMARK  2 active torsions:
REMARK  status: ('A' for Active; 'I' for Inactive)
REMARK    1  A    between atoms: C1_2  and  C2_3 
REMARK    2  A    between atoms: C2_3  and  C3_4 
ROOT
ATOM      1  C3  UNL d   1       0.025   0.799   0.551  0.00  0.00    -0.075 A 
ATOM      2  C4  UNL d   1      -1.028   1.268  -0.248  0.00  0.00     0.002 A 
ATOM      3  C5  UNL d   1      -1.502   2.572  -0.102  0.00  0.00     0.002 A 
ATOM      4  C6  UNL d   1      -0.938   3.419   0.849  0.00  0.00    -0.004 A 
ATOM      5  C7  UNL d   1       0.098   2.959   1.659  0.00  0.00     0.002 A 
ATOM      6  C8  UNL d   1       0.577   1.656   1.512  0.00  0.00     0.002 A 
ENDROOT
BRANCH   1   7
ATOM      7  C2  UNL d   1       0.562  -0.601   0.377  0.00  0.00     0.056 C 
BRANCH   7   8
ATOM      8  C1  UNL d   1       0.166  -1.261  -0.948  0.00  0.00     0.007 C 
ATOM      9  C   UNL d   1       0.416  -2.763  -0.968  0.00  0.00     0.009 C 
ENDBRANCH   7   8
ENDBRANCH   1   7
TORSDOF 2
ENDMDL
