MODEL 1
REMARK minimizedAffinity -5.00866222
REMARK minimizedRMSD -1
REMARK  2 active torsions:
REMARK  status: ('A' for Active; 'I' for Inactive)
REMARK    1  A    between atoms: C1_2  and  C2_3 
REMARK    2  A    between atoms: C2_3  and  C3_4 
ROOT
ATOM      1  C3  UNL d   1      -0.316   1.261   0.368  0.00  0.00    -0.075 A 
ATOM      2  C4  UNL d   1      -0.762   2.033   1.450  0.00  0.00     0.002 A 
ATOM      3  C5  UNL d   1      -1.452   3.226   1.232  0.00  0.00     0.002 A 
ATOM      4  C6  UNL d   1      -1.694   3.667  -0.067  0.00  0.00    -0.004 A 
ATOM      5  C7  UNL d   1      -1.241   2.916  -1.149  0.00  0.00     0.002 A 
ATOM      6  C8  UNL d   1      -0.555   1.720  -0.934  0.00  0.00     0.002 A 
ENDROOT
BRANCH   1   7
ATOM      7  C2  UNL d   1       0.405  -0.046   0.597  0.00  0.00     0.056 C 
BRANCH   7   8
ATOM      8  C1  UNL d   1       0.726  -0.815  -0.689  0.00  0.00     0.007 C 
ATOM      9  C   UNL d   1      -0.186  -2.012  -0.917  0.00  0.00     0.009 C 
ENDBRANCH   7   8
ENDBRANCH   1   7
TORSDOF 2
ENDMDL
