MODEL 1
REMARK minimizedAffinity -3.76217294
REMARK minimizedRMSD -1
REMARK  2 active torsions:
REMARK  status: ('A' for Active; 'I' for Inactive)
REMARK    1  A    between atoms: C1_2  and  C2_3 
REMARK    2  A    between atoms: C2_3  and  C3_4 
ROOT
ATOM      1  C3  UNL d   1      -0.323   0.861   0.066  0.00  0.00    -0.075 A 
ATOM      2  C4  UNL d   1      -0.530   1.645  -1.078  0.00  0.00     0.002 A 
ATOM      3  C5  UNL d   1      -0.964   2.966  -0.963  0.00  0.00     0.002 A 
ATOM      4  C6  UNL d   1      -1.206   3.516   0.295  0.00  0.00    -0.004 A 
ATOM      5  C7  UNL d   1      -1.019   2.741   1.437  0.00  0.00     0.002 A 
ATOM      6  C8  UNL d   1      -0.581   1.420   1.325  0.00  0.00     0.002 A 
ENDROOT
BRANCH   1   7
ATOM      7  C2  UNL d   1       0.175  -0.560  -0.050  0.00  0.00     0.056 C 
BRANCH   7   8
ATOM      8  C1  UNL d   1       0.407  -1.023  -1.492  0.00  0.00     0.007 C 
ATOM      9  C   UNL d   1       0.378  -2.538  -1.648  0.00  0.00     0.009 C 
ENDBRANCH   7   8
ENDBRANCH   1   7
TORSDOF 2
ENDMDL
