MODEL 1
REMARK minimizedAffinity 4.50043249
REMARK minimizedRMSD -1
REMARK  1 active torsions:
REMARK  status: ('A' for Active; 'I' for Inactive)
REMARK    1  A    between atoms: N_2  and  C1_3 
ROOT
ATOM      1  C1  UNL d   1       0.867  -1.707   1.462  0.00  0.00     0.143 A 
ATOM      2  C2  UNL d   1       0.853  -2.669   2.478  0.00  0.00    -0.057 A 
ATOM      3  C3  UNL d   1       1.399  -2.401   3.739  0.00  0.00     0.033 A 
ATOM      4  C4  UNL d   1       1.997  -1.172   3.998  0.00  0.00    -0.042 A 
ATOM      5  C5  UNL d   1       2.044  -0.210   2.996  0.00  0.00     0.033 A 
ATOM      6  C6  UNL d   1       1.491  -0.481   1.741  0.00  0.00    -0.057 A 
ENDROOT
BRANCH   1   7
ATOM      7  N   UNL d   1       0.428  -1.946   0.158  0.00  0.00    -0.732 N 
ATOM      8  C   UNL d   1       0.837  -3.141  -0.549  0.00  0.00     0.284 C 
ATOM      9  H3  UNL d   1      -0.549  -1.699   0.025  0.00  0.00     0.395 HD
ENDBRANCH   1   7
TORSDOF 1
ENDMDL
