MODEL 1
REMARK minimizedAffinity 0.190320879
REMARK minimizedRMSD -1
REMARK  1 active torsions:
REMARK  status: ('A' for Active; 'I' for Inactive)
REMARK    1  A    between atoms: N_2  and  C1_3 
ROOT
ATOM      1  C1  UNL d   1       1.060  -3.085   0.885  0.00  0.00     0.143 A 
ATOM      2  C2  UNL d   1       0.749  -1.744   1.133  0.00  0.00    -0.057 A 
ATOM      3  C3  UNL d   1       1.006  -1.158   2.378  0.00  0.00     0.033 A 
ATOM      4  C4  UNL d   1       1.554  -1.913   3.409  0.00  0.00    -0.042 A 
ATOM      5  C5  UNL d   1       1.848  -3.255   3.193  0.00  0.00     0.033 A 
ATOM      6  C6  UNL d   1       1.595  -3.833   1.946  0.00  0.00    -0.057 A 
ENDROOT
BRANCH   1   7
ATOM      7  N   UNL d   1       0.738  -3.752  -0.300  0.00  0.00    -0.732 N 
ATOM      8  C   UNL d   1       1.090  -3.185  -1.584  0.00  0.00     0.284 C 
ATOM      9  H3  UNL d   1       0.888  -4.756  -0.234  0.00  0.00     0.395 HD
ENDBRANCH   1   7
TORSDOF 1
ENDMDL
