MODEL 1
REMARK minimizedAffinity 3.13956261
REMARK minimizedRMSD -1
REMARK  1 active torsions:
REMARK  status: ('A' for Active; 'I' for Inactive)
REMARK    1  A    between atoms: N_2  and  C1_3 
ROOT
ATOM      1  C1  UNL d   1      -4.938   2.210  -0.992  0.00  0.00     0.143 A 
ATOM      2  C2  UNL d   1      -5.811   1.593  -0.090  0.00  0.00    -0.057 A 
ATOM      3  C3  UNL d   1      -5.569   1.621   1.289  0.00  0.00     0.033 A 
ATOM      4  C4  UNL d   1      -4.429   2.243   1.789  0.00  0.00    -0.042 A 
ATOM      5  C5  UNL d   1      -3.534   2.840   0.908  0.00  0.00     0.033 A 
ATOM      6  C6  UNL d   1      -3.786   2.815  -0.467  0.00  0.00    -0.057 A 
ENDROOT
BRANCH   1   7
ATOM      7  N   UNL d   1      -5.073   2.133  -2.381  0.00  0.00    -0.732 N 
ATOM      8  C   UNL d   1      -3.905   2.047  -3.231  0.00  0.00     0.284 C 
ATOM      9  H3  UNL d   1      -5.838   1.525  -2.664  0.00  0.00     0.395 HD
ENDBRANCH   1   7
TORSDOF 1
ENDMDL
