MODEL 1
REMARK minimizedAffinity 6.05429506
REMARK minimizedRMSD -1
REMARK  1 active torsions:
REMARK  status: ('A' for Active; 'I' for Inactive)
REMARK    1  A    between atoms: N_2  and  C1_3 
ROOT
ATOM      1  C1  UNL d   1       0.800  -2.323   0.662  0.00  0.00     0.143 A 
ATOM      2  C2  UNL d   1       0.916  -3.708   0.504  0.00  0.00    -0.057 A 
ATOM      3  C3  UNL d   1       0.994  -4.290  -0.768  0.00  0.00     0.033 A 
ATOM      4  C4  UNL d   1       0.928  -3.496  -1.908  0.00  0.00    -0.042 A 
ATOM      5  C5  UNL d   1       0.787  -2.119  -1.775  0.00  0.00     0.033 A 
ATOM      6  C6  UNL d   1       0.717  -1.543  -0.503  0.00  0.00    -0.057 A 
ENDROOT
BRANCH   1   7
ATOM      7  N   UNL d   1       0.619  -1.693   1.896  0.00  0.00    -0.732 N 
ATOM      8  C   UNL d   1       1.503  -1.979   3.005  0.00  0.00     0.284 C 
ATOM      9  H3  UNL d   1       0.379  -0.709   1.798  0.00  0.00     0.395 HD
ENDBRANCH   1   7
TORSDOF 1
ENDMDL
