MODEL 1
REMARK minimizedAffinity -0.089584738
REMARK minimizedRMSD -1
REMARK  1 active torsions:
REMARK  status: ('A' for Active; 'I' for Inactive)
REMARK    1  A    between atoms: N_2  and  C1_3 
ROOT
ATOM      1  C1  UNL d   1       2.034  -0.412   2.918  0.00  0.00     0.143 A 
ATOM      2  C2  UNL d   1       2.582  -0.082   1.674  0.00  0.00    -0.057 A 
ATOM      3  C3  UNL d   1       2.943   1.236   1.366  0.00  0.00     0.033 A 
ATOM      4  C4  UNL d   1       2.733   2.255   2.289  0.00  0.00    -0.042 A 
ATOM      5  C5  UNL d   1       2.166   1.954   3.522  0.00  0.00     0.033 A 
ATOM      6  C6  UNL d   1       1.814   0.635   3.827  0.00  0.00    -0.057 A 
ENDROOT
BRANCH   1   7
ATOM      7  N   UNL d   1       1.564  -1.685   3.248  0.00  0.00    -0.732 N 
ATOM      8  C   UNL d   1       2.478  -2.715   3.694  0.00  0.00     0.284 C 
ATOM      9  H3  UNL d   1       0.688  -1.655   3.764  0.00  0.00     0.395 HD
ENDBRANCH   1   7
TORSDOF 1
ENDMDL
