MODEL 1
REMARK minimizedAffinity 0.778940439
REMARK minimizedRMSD -1
REMARK  1 active torsions:
REMARK  status: ('A' for Active; 'I' for Inactive)
REMARK    1  A    between atoms: N_2  and  C1_3 
ROOT
ATOM      1  C1  UNL d   1      -4.872   3.552   0.270  0.00  0.00     0.143 A 
ATOM      2  C2  UNL d   1      -4.905   4.286   1.460  0.00  0.00    -0.057 A 
ATOM      3  C3  UNL d   1      -3.760   4.437   2.252  0.00  0.00     0.033 A 
ATOM      4  C4  UNL d   1      -2.565   3.831   1.880  0.00  0.00    -0.042 A 
ATOM      5  C5  UNL d   1      -2.515   3.076   0.714  0.00  0.00     0.033 A 
ATOM      6  C6  UNL d   1      -3.660   2.933  -0.076  0.00  0.00    -0.057 A 
ENDROOT
BRANCH   1   7
ATOM      7  N   UNL d   1      -6.000   3.282  -0.509  0.00  0.00    -0.732 N 
ATOM      8  C   UNL d   1      -5.985   2.209  -1.480  0.00  0.00     0.284 C 
ATOM      9  H3  UNL d   1      -6.864   3.350   0.022  0.00  0.00     0.395 HD
ENDBRANCH   1   7
TORSDOF 1
ENDMDL
