MODEL 1
REMARK minimizedAffinity -2.93074465
REMARK minimizedRMSD -1
REMARK  0 active torsions:
REMARK  status: ('A' for Active; 'I' for Inactive)
ROOT
ATOM      1  C   UNL d   1      -1.201   1.110   0.339  0.00  0.00     0.077 C 
ATOM      2  C1  UNL d   1      -0.242  -0.008   0.055  0.00  0.00    -0.074 A 
ATOM      3  C2  UNL d   1      -0.598  -1.339   0.295  0.00  0.00    -0.005 A 
ATOM      4  C3  UNL d   1       0.301  -2.369   0.017  0.00  0.00     0.006 A 
ATOM      5  C4  UNL d   1       1.563  -2.078  -0.503  0.00  0.00    -0.005 A 
ATOM      6  C5  UNL d   1       1.937  -0.753  -0.750  0.00  0.00    -0.074 A 
ATOM      7  C6  UNL d   1       3.286  -0.425  -1.317  0.00  0.00     0.077 C 
ATOM      8  C7  UNL d   1       1.025   0.275  -0.474  0.00  0.00    -0.001 A 
ENDROOT
TORSDOF 0
ENDMDL
