MODEL 1
REMARK minimizedAffinity -5.07350683
REMARK minimizedRMSD -1
REMARK  0 active torsions:
REMARK  status: ('A' for Active; 'I' for Inactive)
ROOT
ATOM      1  C   UNL d   1       3.942   0.235  -3.187  0.00  0.00     0.077 C 
ATOM      2  C1  UNL d   1       2.650   0.563  -2.500  0.00  0.00    -0.074 A 
ATOM      3  C2  UNL d   1       2.016   1.793  -2.709  0.00  0.00    -0.005 A 
ATOM      4  C3  UNL d   1       0.810   2.080  -2.071  0.00  0.00     0.006 A 
ATOM      5  C4  UNL d   1       0.226   1.142  -1.218  0.00  0.00    -0.005 A 
ATOM      6  C5  UNL d   1       0.844  -0.093  -0.998  0.00  0.00    -0.074 A 
ATOM      7  C6  UNL d   1       0.224  -1.115  -0.092  0.00  0.00     0.077 C 
ATOM      8  C7  UNL d   1       2.052  -0.377  -1.649  0.00  0.00    -0.001 A 
ENDROOT
TORSDOF 0
ENDMDL
