MODEL 1
REMARK minimizedAffinity -4.52305126
REMARK minimizedRMSD -1
REMARK  0 active torsions:
REMARK  status: ('A' for Active; 'I' for Inactive)
ROOT
ATOM      1  C   UNL d   1      -0.520   0.254   1.270  0.00  0.00     0.077 C 
ATOM      2  C1  UNL d   1       0.468   0.094   0.154  0.00  0.00    -0.074 A 
ATOM      3  C2  UNL d   1       0.998  -1.161  -0.162  0.00  0.00    -0.005 A 
ATOM      4  C3  UNL d   1       1.910  -1.296  -1.210  0.00  0.00     0.006 A 
ATOM      5  C4  UNL d   1       2.299  -0.180  -1.950  0.00  0.00    -0.005 A 
ATOM      6  C5  UNL d   1       1.779   1.083  -1.650  0.00  0.00    -0.074 A 
ATOM      7  C6  UNL d   1       2.179   2.292  -2.443  0.00  0.00     0.077 C 
ATOM      8  C7  UNL d   1       0.858   1.210  -0.600  0.00  0.00    -0.001 A 
ENDROOT
TORSDOF 0
ENDMDL
