MODEL 1
REMARK minimizedAffinity -2.20422769
REMARK minimizedRMSD -1
REMARK  0 active torsions:
REMARK  status: ('A' for Active; 'I' for Inactive)
ROOT
ATOM      1  C   UNL d   1      -1.132   2.553  -1.079  0.00  0.00     0.077 C 
ATOM      2  C1  UNL d   1      -0.561   1.200  -0.774  0.00  0.00    -0.074 A 
ATOM      3  C2  UNL d   1      -1.275   0.275  -0.005  0.00  0.00    -0.005 A 
ATOM      4  C3  UNL d   1      -0.735  -0.983   0.262  0.00  0.00     0.006 A 
ATOM      5  C4  UNL d   1       0.522  -1.329  -0.237  0.00  0.00    -0.005 A 
ATOM      6  C5  UNL d   1       1.249  -0.418  -1.009  0.00  0.00    -0.074 A 
ATOM      7  C6  UNL d   1       2.597  -0.777  -1.561  0.00  0.00     0.077 C 
ATOM      8  C7  UNL d   1       0.697   0.842  -1.279  0.00  0.00    -0.001 A 
ENDROOT
TORSDOF 0
ENDMDL
