MODEL 1
REMARK minimizedAffinity -4.11472988
REMARK minimizedRMSD -1
REMARK  0 active torsions:
REMARK  status: ('A' for Active; 'I' for Inactive)
ROOT
ATOM      1  C   UNL d   1       2.584  -1.630  -1.502  0.00  0.00     0.077 C 
ATOM      2  C1  UNL d   1       1.671  -0.453  -1.324  0.00  0.00    -0.074 A 
ATOM      3  C2  UNL d   1       1.896   0.742  -2.015  0.00  0.00    -0.005 A 
ATOM      4  C3  UNL d   1       1.034   1.825  -1.846  0.00  0.00     0.006 A 
ATOM      5  C4  UNL d   1      -0.060   1.724  -0.986  0.00  0.00    -0.005 A 
ATOM      6  C5  UNL d   1      -0.302   0.537  -0.288  0.00  0.00    -0.074 A 
ATOM      7  C6  UNL d   1      -1.479   0.409   0.633  0.00  0.00     0.077 C 
ATOM      8  C7  UNL d   1       0.565  -0.549  -0.468  0.00  0.00    -0.001 A 
ENDROOT
TORSDOF 0
ENDMDL
