MODEL 1
REMARK minimizedAffinity -5.6067977
REMARK minimizedRMSD -1
REMARK  0 active torsions:
REMARK  status: ('A' for Active; 'I' for Inactive)
ROOT
ATOM      1  C   UNL d   1      -1.167   0.388   0.952  0.00  0.00     0.077 C 
ATOM      2  C1  UNL d   1      -0.015   0.060   0.049  0.00  0.00    -0.074 A 
ATOM      3  C2  UNL d   1       0.630  -1.178   0.128  0.00  0.00    -0.005 A 
ATOM      4  C3  UNL d   1       1.695  -1.472  -0.724  0.00  0.00     0.006 A 
ATOM      5  C4  UNL d   1       2.124  -0.533  -1.663  0.00  0.00    -0.005 A 
ATOM      6  C5  UNL d   1       1.490   0.710  -1.757  0.00  0.00    -0.074 A 
ATOM      7  C6  UNL d   1       1.932   1.727  -2.767  0.00  0.00     0.077 C 
ATOM      8  C7  UNL d   1       0.417   0.996  -0.902  0.00  0.00    -0.001 A 
ENDROOT
TORSDOF 0
ENDMDL
