MODEL 1
REMARK minimizedAffinity -5.04941177
REMARK minimizedRMSD -1
REMARK  0 active torsions:
REMARK  status: ('A' for Active; 'I' for Inactive)
ROOT
ATOM      1  C   UNL d   1      -0.638  -0.006   0.688  0.00  0.00     0.077 C 
ATOM      2  C1  UNL d   1       0.523   0.008  -0.262  0.00  0.00    -0.074 A 
ATOM      3  C2  UNL d   1       1.510  -0.982  -0.206  0.00  0.00    -0.005 A 
ATOM      4  C3  UNL d   1       2.578  -0.961  -1.102  0.00  0.00     0.006 A 
ATOM      5  C4  UNL d   1       2.671   0.048  -2.061  0.00  0.00    -0.005 A 
ATOM      6  C5  UNL d   1       1.694   1.046  -2.133  0.00  0.00    -0.074 A 
ATOM      7  C6  UNL d   1       1.774   2.132  -3.164  0.00  0.00     0.077 C 
ATOM      8  C7  UNL d   1       0.619   1.014  -1.233  0.00  0.00    -0.001 A 
ENDROOT
TORSDOF 0
ENDMDL
