MODEL 1
REMARK minimizedAffinity -2.39439678
REMARK minimizedRMSD -1
REMARK  0 active torsions:
REMARK  status: ('A' for Active; 'I' for Inactive)
ROOT
ATOM      1  C   UNL d   1      -1.491   0.675  -0.018  0.00  0.00     0.077 C 
ATOM      2  C1  UNL d   1      -0.463  -0.417   0.016  0.00  0.00    -0.074 A 
ATOM      3  C2  UNL d   1      -0.734  -1.640   0.639  0.00  0.00    -0.005 A 
ATOM      4  C3  UNL d   1       0.229  -2.649   0.655  0.00  0.00     0.006 A 
ATOM      5  C4  UNL d   1       1.470  -2.446   0.049  0.00  0.00    -0.005 A 
ATOM      6  C5  UNL d   1       1.758  -1.230  -0.579  0.00  0.00    -0.074 A 
ATOM      7  C6  UNL d   1       3.083  -0.999  -1.243  0.00  0.00     0.077 C 
ATOM      8  C7  UNL d   1       0.783  -0.223  -0.596  0.00  0.00    -0.001 A 
ENDROOT
TORSDOF 0
ENDMDL
