MODEL 1
REMARK minimizedAffinity -5.14660168
REMARK minimizedRMSD -1
REMARK  0 active torsions:
REMARK  status: ('A' for Active; 'I' for Inactive)
ROOT
ATOM      1  C   UNL d   1       1.712   2.071  -2.720  0.00  0.00     0.077 C 
ATOM      2  C1  UNL d   1       1.434   0.904  -1.820  0.00  0.00    -0.074 A 
ATOM      3  C2  UNL d   1       2.236  -0.242  -1.860  0.00  0.00    -0.005 A 
ATOM      4  C3  UNL d   1       1.970  -1.316  -1.011  0.00  0.00     0.006 A 
ATOM      5  C4  UNL d   1       0.902  -1.256  -0.115  0.00  0.00    -0.005 A 
ATOM      6  C5  UNL d   1       0.090  -0.119  -0.061  0.00  0.00    -0.074 A 
ATOM      7  C6  UNL d   1      -1.057  -0.034   0.903  0.00  0.00     0.077 C 
ATOM      8  C7  UNL d   1       0.367   0.959  -0.912  0.00  0.00    -0.001 A 
ENDROOT
TORSDOF 0
ENDMDL
