MODEL 1
REMARK minimizedAffinity -4.72528982
REMARK minimizedRMSD -1
REMARK  0 active torsions:
REMARK  status: ('A' for Active; 'I' for Inactive)
ROOT
ATOM      1  C   UNL d   1       1.995   2.331  -2.106  0.00  0.00     0.077 C 
ATOM      2  C1  UNL d   1       1.419   1.080  -1.511  0.00  0.00    -0.074 A 
ATOM      3  C2  UNL d   1       1.986  -0.170  -1.779  0.00  0.00    -0.005 A 
ATOM      4  C3  UNL d   1       1.445  -1.323  -1.211  0.00  0.00     0.006 A 
ATOM      5  C4  UNL d   1       0.334  -1.239  -0.371  0.00  0.00    -0.005 A 
ATOM      6  C5  UNL d   1      -0.245   0.003  -0.091  0.00  0.00    -0.074 A 
ATOM      7  C6  UNL d   1      -1.434   0.112   0.818  0.00  0.00     0.077 C 
ATOM      8  C7  UNL d   1       0.308   1.158  -0.660  0.00  0.00    -0.001 A 
ENDROOT
TORSDOF 0
ENDMDL
