MODEL 1
REMARK minimizedAffinity -3.8532753
REMARK minimizedRMSD -1
REMARK  0 active torsions:
REMARK  status: ('A' for Active; 'I' for Inactive)
ROOT
ATOM      1  C   UNL d   1      -1.108   1.501   3.986  0.00  0.00     0.077 C 
ATOM      2  C1  UNL d   1      -1.246   0.879   2.628  0.00  0.00    -0.074 A 
ATOM      3  C2  UNL d   1      -2.504   0.549   2.114  0.00  0.00    -0.005 A 
ATOM      4  C3  UNL d   1      -2.619  -0.019   0.846  0.00  0.00     0.006 A 
ATOM      5  C4  UNL d   1      -1.478  -0.264   0.080  0.00  0.00    -0.005 A 
ATOM      6  C5  UNL d   1      -0.212   0.060   0.577  0.00  0.00    -0.074 A 
ATOM      7  C6  UNL d   1       1.024  -0.186  -0.237  0.00  0.00     0.077 C 
ATOM      8  C7  UNL d   1      -0.106   0.638   1.850  0.00  0.00    -0.001 A 
ENDROOT
TORSDOF 0
ENDMDL
