MODEL 1
REMARK minimizedAffinity -5.53368044
REMARK minimizedRMSD -1
REMARK  0 active torsions:
REMARK  status: ('A' for Active; 'I' for Inactive)
ROOT
ATOM      1  C   UNL d   1      -0.843   0.001   0.869  0.00  0.00     0.077 C 
ATOM      2  C1  UNL d   1       0.311  -0.043  -0.089  0.00  0.00    -0.074 A 
ATOM      3  C2  UNL d   1       1.171  -1.145  -0.128  0.00  0.00    -0.005 A 
ATOM      4  C3  UNL d   1       2.234  -1.176  -1.031  0.00  0.00     0.006 A 
ATOM      5  C4  UNL d   1       2.446  -0.108  -1.903  0.00  0.00    -0.005 A 
ATOM      6  C5  UNL d   1       1.596   1.002  -1.879  0.00  0.00    -0.074 A 
ATOM      7  C6  UNL d   1       1.804   2.154  -2.816  0.00  0.00     0.077 C 
ATOM      8  C7  UNL d   1       0.526   1.023  -0.974  0.00  0.00    -0.001 A 
ENDROOT
TORSDOF 0
ENDMDL
