MODEL 1
REMARK minimizedAffinity -5.89176083
REMARK minimizedRMSD -1
REMARK  0 active torsions:
REMARK  status: ('A' for Active; 'I' for Inactive)
ROOT
ATOM      1  C   UNL d   1      -0.064  -1.533   0.067  0.00  0.00     0.077 C 
ATOM      2  C1  UNL d   1       0.863  -0.691  -0.758  0.00  0.00    -0.074 A 
ATOM      3  C2  UNL d   1       2.013  -1.240  -1.334  0.00  0.00    -0.005 A 
ATOM      4  C3  UNL d   1       2.861  -0.447  -2.106  0.00  0.00     0.006 A 
ATOM      5  C4  UNL d   1       2.568   0.902  -2.311  0.00  0.00    -0.005 A 
ATOM      6  C5  UNL d   1       1.422   1.469  -1.744  0.00  0.00    -0.074 A 
ATOM      7  C6  UNL d   1       1.087   2.915  -1.962  0.00  0.00     0.077 C 
ATOM      8  C7  UNL d   1       0.571   0.663  -0.975  0.00  0.00    -0.001 A 
ENDROOT
TORSDOF 0
ENDMDL
