MODEL 1
REMARK minimizedAffinity -5.45023298
REMARK minimizedRMSD -1
REMARK  0 active torsions:
REMARK  status: ('A' for Active; 'I' for Inactive)
ROOT
ATOM      1  C   UNL d   1      -1.437   0.246   0.450  0.00  0.00     0.077 C 
ATOM      2  C1  UNL d   1      -0.156  -0.030  -0.280  0.00  0.00    -0.074 A 
ATOM      3  C2  UNL d   1       0.510  -1.251  -0.127  0.00  0.00    -0.005 A 
ATOM      4  C3  UNL d   1       1.695  -1.497  -0.820  0.00  0.00     0.006 A 
ATOM      5  C4  UNL d   1       2.226  -0.527  -1.671  0.00  0.00    -0.005 A 
ATOM      6  C5  UNL d   1       1.574   0.699  -1.837  0.00  0.00    -0.074 A 
ATOM      7  C6  UNL d   1       2.126   1.748  -2.756  0.00  0.00     0.077 C 
ATOM      8  C7  UNL d   1       0.380   0.936  -1.143  0.00  0.00    -0.001 A 
ENDROOT
TORSDOF 0
ENDMDL
