MODEL 1
REMARK minimizedAffinity 8.08445358
REMARK minimizedRMSD -1
REMARK  0 active torsions:
REMARK  status: ('A' for Active; 'I' for Inactive)
ROOT
ATOM      1  N1  IND d   1      -2.853   1.463  -3.558  0.00  0.00    -0.196 N 
ATOM      2  C2  IND d   1      -2.466   0.947  -2.352  0.00  0.00     0.054 A 
ATOM      3  C3  IND d   1      -2.961   1.696  -1.341  0.00  0.00    -0.031 A 
ATOM      4  C4  IND d   1      -4.512   3.748  -1.432  0.00  0.00     0.051 A 
ATOM      5  C5  IND d   1      -5.105   4.612  -2.309  0.00  0.00    -0.031 A 
ATOM      6  C6  IND d   1      -4.978   4.466  -3.675  0.00  0.00     0.015 A 
ATOM      7  C7  IND d   1      -4.258   3.439  -4.218  0.00  0.00    -0.016 A 
ATOM      8  C8  IND d   1      -3.649   2.564  -3.330  0.00  0.00    -0.047 A 
ATOM      9  C9  IND d   1      -3.739   2.732  -1.942  0.00  0.00    -0.096 A 
ATOM     10  HN1 IND d   1      -2.635   1.151  -4.330  0.00  0.00     0.298 HD
ENDROOT
TORSDOF 0
ENDMDL
