MODEL 1
REMARK minimizedAffinity 6.5115242
REMARK minimizedRMSD -1
REMARK  0 active torsions:
REMARK  status: ('A' for Active; 'I' for Inactive)
ROOT
ATOM      1  N1  IND d   1       0.352  -0.814   1.133  0.00  0.00    -0.196 N 
ATOM      2  C2  IND d   1       0.332  -1.435  -0.084  0.00  0.00     0.054 A 
ATOM      3  C3  IND d   1       1.144  -2.516  -0.074  0.00  0.00    -0.031 A 
ATOM      4  C4  IND d   1       2.521  -3.509   1.861  0.00  0.00     0.051 A 
ATOM      5  C5  IND d   1       2.887  -3.270   3.156  0.00  0.00    -0.031 A 
ATOM      6  C6  IND d   1       2.415  -2.180   3.858  0.00  0.00     0.015 A 
ATOM      7  C7  IND d   1       1.546  -1.290   3.292  0.00  0.00    -0.016 A 
ATOM      8  C8  IND d   1       1.178  -1.526   1.975  0.00  0.00    -0.047 A 
ATOM      9  C9  IND d   1       1.687  -2.607   1.244  0.00  0.00    -0.096 A 
ATOM     10  HN1 IND d   1      -0.079  -0.099   1.339  0.00  0.00     0.298 HD
ENDROOT
TORSDOF 0
ENDMDL
