MODEL 1
REMARK minimizedAffinity 9.45663261
REMARK minimizedRMSD -1
REMARK  0 active torsions:
REMARK  status: ('A' for Active; 'I' for Inactive)
ROOT
ATOM      1  N1  IND d   1       1.113  -0.439   2.987  0.00  0.00    -0.196 N 
ATOM      2  C2  IND d   1       2.480  -0.431   2.974  0.00  0.00     0.054 A 
ATOM      3  C3  IND d   1       2.942  -0.848   1.774  0.00  0.00    -0.031 A 
ATOM      4  C4  IND d   1       1.633  -1.497  -0.346  0.00  0.00     0.051 A 
ATOM      5  C5  IND d   1       0.363  -1.695  -0.809  0.00  0.00    -0.031 A 
ATOM      6  C6  IND d   1      -0.745  -1.478  -0.016  0.00  0.00     0.015 A 
ATOM      7  C7  IND d   1      -0.623  -1.041   1.273  0.00  0.00    -0.016 A 
ATOM      8  C8  IND d   1       0.665  -0.846   1.749  0.00  0.00    -0.047 A 
ATOM      9  C9  IND d   1       1.795  -1.106   0.962  0.00  0.00    -0.096 A 
ATOM     10  HN1 IND d   1       0.616  -0.226   3.656  0.00  0.00     0.298 HD
ENDROOT
TORSDOF 0
ENDMDL
