MODEL 1
REMARK minimizedAffinity 2.2879982
REMARK minimizedRMSD -1
REMARK  0 active torsions:
REMARK  status: ('A' for Active; 'I' for Inactive)
ROOT
ATOM      1  N1  IND d   1      -5.993  -0.721  -4.682  0.00  0.00    -0.196 N 
ATOM      2  C2  IND d   1      -5.989  -1.105  -3.370  0.00  0.00     0.054 A 
ATOM      3  C3  IND d   1      -5.930  -0.022  -2.563  0.00  0.00    -0.031 A 
ATOM      4  C4  IND d   1      -5.934   2.478  -3.177  0.00  0.00     0.051 A 
ATOM      5  C5  IND d   1      -5.892   3.323  -4.250  0.00  0.00    -0.031 A 
ATOM      6  C6  IND d   1      -5.883   2.855  -5.548  0.00  0.00     0.015 A 
ATOM      7  C7  IND d   1      -5.929   1.517  -5.822  0.00  0.00    -0.016 A 
ATOM      8  C8  IND d   1      -5.965   0.655  -4.735  0.00  0.00    -0.047 A 
ATOM      9  C9  IND d   1      -5.931   1.124  -3.416  0.00  0.00    -0.096 A 
ATOM     10  HN1 IND d   1      -6.009  -1.250  -5.359  0.00  0.00     0.298 HD
ENDROOT
TORSDOF 0
ENDMDL
