MODEL 1
REMARK minimizedAffinity 9.04475689
REMARK minimizedRMSD -1
REMARK  0 active torsions:
REMARK  status: ('A' for Active; 'I' for Inactive)
ROOT
ATOM      1  N1  IND d   1       1.934  -0.133   3.855  0.00  0.00    -0.196 N 
ATOM      2  C2  IND d   1       1.825  -1.451   3.505  0.00  0.00     0.054 A 
ATOM      3  C3  IND d   1       2.242  -1.635   2.233  0.00  0.00    -0.031 A 
ATOM      4  C4  IND d   1       3.239   0.064   0.575  0.00  0.00     0.051 A 
ATOM      5  C5  IND d   1       3.502   1.397   0.427  0.00  0.00    -0.031 A 
ATOM      6  C6  IND d   1       3.254   2.305   1.435  0.00  0.00     0.015 A 
ATOM      7  C7  IND d   1       2.741   1.912   2.638  0.00  0.00    -0.016 A 
ATOM      8  C8  IND d   1       2.466   0.560   2.790  0.00  0.00    -0.047 A 
ATOM      9  C9  IND d   1       2.676  -0.360   1.755  0.00  0.00    -0.096 A 
ATOM     10  HN1 IND d   1       1.708   0.205   4.612  0.00  0.00     0.298 HD
ENDROOT
TORSDOF 0
ENDMDL
