MODEL 1
REMARK minimizedAffinity 16.156826
REMARK minimizedRMSD -1
REMARK  0 active torsions:
REMARK  status: ('A' for Active; 'I' for Inactive)
ROOT
ATOM      1  N1  IND d   1      -4.719   2.358   2.972  0.00  0.00    -0.196 N 
ATOM      2  C2  IND d   1      -6.000   2.544   2.533  0.00  0.00     0.054 A 
ATOM      3  C3  IND d   1      -6.000   2.998   1.260  0.00  0.00    -0.031 A 
ATOM      4  C4  IND d   1      -4.017   3.411  -0.329  0.00  0.00     0.051 A 
ATOM      5  C5  IND d   1      -2.651   3.417  -0.368  0.00  0.00    -0.031 A 
ATOM      6  C6  IND d   1      -1.889   3.061   0.726  0.00  0.00     0.015 A 
ATOM      7  C7  IND d   1      -2.467   2.672   1.901  0.00  0.00    -0.016 A 
ATOM      8  C8  IND d   1      -3.854   2.672   1.946  0.00  0.00    -0.047 A 
ATOM      9  C9  IND d   1      -4.633   3.073   0.853  0.00  0.00    -0.096 A 
ATOM     10  HN1 IND d   1      -4.491   2.091   3.757  0.00  0.00     0.298 HD
ENDROOT
TORSDOF 0
ENDMDL
