MODEL 1
REMARK minimizedAffinity 10.5249929
REMARK minimizedRMSD -1
REMARK  0 active torsions:
REMARK  status: ('A' for Active; 'I' for Inactive)
ROOT
ATOM      1  N1  IND d   1       1.018  -0.333   3.082  0.00  0.00    -0.196 N 
ATOM      2  C2  IND d   1       2.246  -0.894   3.297  0.00  0.00     0.054 A 
ATOM      3  C3  IND d   1       2.564  -1.731   2.285  0.00  0.00    -0.031 A 
ATOM      4  C4  IND d   1       1.266  -2.253   0.124  0.00  0.00     0.051 A 
ATOM      5  C5  IND d   1       0.076  -2.009  -0.503  0.00  0.00    -0.031 A 
ATOM      6  C6  IND d   1      -0.879  -1.175   0.042  0.00  0.00     0.015 A 
ATOM      7  C7  IND d   1      -0.673  -0.542   1.236  0.00  0.00    -0.016 A 
ATOM      8  C8  IND d   1       0.530  -0.793   1.879  0.00  0.00    -0.047 A 
ATOM      9  C9  IND d   1       1.485  -1.671   1.350  0.00  0.00    -0.096 A 
ATOM     10  HN1 IND d   1       0.617   0.215   3.610  0.00  0.00     0.298 HD
ENDROOT
TORSDOF 0
ENDMDL
