MODEL 1
REMARK minimizedAffinity -0.426453441
REMARK minimizedRMSD -1
REMARK  1 active torsions:
REMARK  status: ('A' for Active; 'I' for Inactive)
REMARK    1  A    between atoms: C1_2  and  C2_3 
ROOT
ATOM      1  C2  UNL d   1       3.776   1.174  -1.012  0.00  0.00    -0.077 A 
ATOM      2  C3  UNL d   1       4.682   0.239  -0.492  0.00  0.00     0.002 A 
ATOM      3  C4  UNL d   1       4.486  -0.305   0.779  0.00  0.00     0.002 A 
ATOM      4  C5  UNL d   1       3.382   0.077   1.539  0.00  0.00    -0.004 A 
ATOM      5  C6  UNL d   1       2.476   1.008   1.032  0.00  0.00     0.002 A 
ATOM      6  C7  UNL d   1       2.671   1.553  -0.238  0.00  0.00     0.002 A 
ENDROOT
BRANCH   1   7
ATOM      7  C1  UNL d   1       3.960   1.724  -2.402  0.00  0.00     0.055 C 
ATOM      8  C   UNL d   1       2.631   1.825  -3.137  0.00  0.00     0.019 C 
ENDBRANCH   1   7
TORSDOF 1
ENDMDL
