MODEL 1
REMARK minimizedAffinity 2.54730368
REMARK minimizedRMSD -1
REMARK  1 active torsions:
REMARK  status: ('A' for Active; 'I' for Inactive)
REMARK    1  A    between atoms: C1_2  and  C2_3 
ROOT
ATOM      1  C2  UNL d   1       3.296   1.174  -1.043  0.00  0.00    -0.077 A 
ATOM      2  C3  UNL d   1       2.311   1.389  -0.069  0.00  0.00     0.002 A 
ATOM      3  C4  UNL d   1       2.380   0.735   1.162  0.00  0.00     0.002 A 
ATOM      4  C5  UNL d   1       3.435  -0.134   1.433  0.00  0.00    -0.004 A 
ATOM      5  C6  UNL d   1       4.419  -0.356   0.470  0.00  0.00     0.002 A 
ATOM      6  C7  UNL d   1       4.351   0.296  -0.762  0.00  0.00     0.002 A 
ENDROOT
BRANCH   1   7
ATOM      7  C1  UNL d   1       3.250   1.916  -2.353  0.00  0.00     0.055 C 
ATOM      8  C   UNL d   1       1.845   2.416  -2.656  0.00  0.00     0.019 C 
ENDBRANCH   1   7
TORSDOF 1
ENDMDL
