MODEL 1
REMARK minimizedAffinity 3.18315291
REMARK minimizedRMSD -1
REMARK  1 active torsions:
REMARK  status: ('A' for Active; 'I' for Inactive)
REMARK    1  A    between atoms: C1_2  and  C2_3 
ROOT
ATOM      1  C2  UNL d   1       5.260   1.664   0.874  0.00  0.00    -0.077 A 
ATOM      2  C3  UNL d   1       4.013   1.665   0.234  0.00  0.00     0.002 A 
ATOM      3  C4  UNL d   1       3.308   0.473   0.059  0.00  0.00     0.002 A 
ATOM      4  C5  UNL d   1       3.840  -0.728   0.524  0.00  0.00    -0.004 A 
ATOM      5  C6  UNL d   1       5.081  -0.740   1.159  0.00  0.00     0.002 A 
ATOM      6  C7  UNL d   1       5.787   0.451   1.334  0.00  0.00     0.002 A 
ENDROOT
BRANCH   1   7
ATOM      7  C1  UNL d   1       6.000   2.955   1.108  0.00  0.00     0.055 C 
ATOM      8  C   UNL d   1       5.050   4.144   1.109  0.00  0.00     0.019 C 
ENDBRANCH   1   7
TORSDOF 1
ENDMDL
