MODEL 1
REMARK minimizedAffinity 7.88622284
REMARK minimizedRMSD -1
REMARK  1 active torsions:
REMARK  status: ('A' for Active; 'I' for Inactive)
REMARK    1  A    between atoms: C1_2  and  C2_3 
ROOT
ATOM      1  C2  UNL d   1      -1.543  -3.663  -3.684  0.00  0.00    -0.077 A 
ATOM      2  C3  UNL d   1      -0.492  -4.061  -2.846  0.00  0.00     0.002 A 
ATOM      3  C4  UNL d   1      -0.535  -3.786  -1.478  0.00  0.00     0.002 A 
ATOM      4  C5  UNL d   1      -1.629  -3.115  -0.935  0.00  0.00    -0.004 A 
ATOM      5  C6  UNL d   1      -2.679  -2.713  -1.760  0.00  0.00     0.002 A 
ATOM      6  C7  UNL d   1      -2.637  -2.987  -3.128  0.00  0.00     0.002 A 
ENDROOT
BRANCH   1   7
ATOM      7  C1  UNL d   1      -1.521  -4.003  -5.151  0.00  0.00     0.055 C 
ATOM      8  C   UNL d   1      -1.225  -2.775  -5.999  0.00  0.00     0.019 C 
ENDBRANCH   1   7
TORSDOF 1
ENDMDL
