MODEL 1
REMARK minimizedAffinity 1.15202057
REMARK minimizedRMSD -1
REMARK  1 active torsions:
REMARK  status: ('A' for Active; 'I' for Inactive)
REMARK    1  A    between atoms: C1_2  and  C2_3 
ROOT
ATOM      1  C2  UNL d   1       4.103   1.382   0.379  0.00  0.00    -0.077 A 
ATOM      2  C3  UNL d   1       4.158   0.032   0.752  0.00  0.00     0.002 A 
ATOM      3  C4  UNL d   1       5.104  -0.406   1.682  0.00  0.00     0.002 A 
ATOM      4  C5  UNL d   1       5.998   0.501   2.248  0.00  0.00    -0.004 A 
ATOM      5  C6  UNL d   1       5.952   1.845   1.882  0.00  0.00     0.002 A 
ATOM      6  C7  UNL d   1       5.008   2.284   0.953  0.00  0.00     0.002 A 
ENDROOT
BRANCH   1   7
ATOM      7  C1  UNL d   1       3.052   1.865  -0.586  0.00  0.00     0.055 C 
ATOM      8  C   UNL d   1       3.567   1.851  -2.018  0.00  0.00     0.019 C 
ENDBRANCH   1   7
TORSDOF 1
ENDMDL
