MODEL 1
REMARK minimizedAffinity 0.813930213
REMARK minimizedRMSD -1
REMARK  1 active torsions:
REMARK  status: ('A' for Active; 'I' for Inactive)
REMARK    1  A    between atoms: C1_2  and  C2_3 
ROOT
ATOM      1  C2  UNL d   1       3.679   0.309  -0.013  0.00  0.00    -0.077 A 
ATOM      2  C3  UNL d   1       4.279   0.690  -1.221  0.00  0.00     0.002 A 
ATOM      3  C4  UNL d   1       3.634   1.583  -2.079  0.00  0.00     0.002 A 
ATOM      4  C5  UNL d   1       2.388   2.105  -1.736  0.00  0.00    -0.004 A 
ATOM      5  C6  UNL d   1       1.782   1.730  -0.537  0.00  0.00     0.002 A 
ATOM      6  C7  UNL d   1       2.425   0.837   0.321  0.00  0.00     0.002 A 
ENDROOT
BRANCH   1   7
ATOM      7  C1  UNL d   1       4.394  -0.616   0.937  0.00  0.00     0.055 C 
ATOM      8  C   UNL d   1       5.905  -0.479   0.810  0.00  0.00     0.019 C 
ENDBRANCH   1   7
TORSDOF 1
ENDMDL
