MODEL 1
REMARK minimizedAffinity 1.73058188
REMARK minimizedRMSD -1
REMARK  1 active torsions:
REMARK  status: ('A' for Active; 'I' for Inactive)
REMARK    1  A    between atoms: C1_2  and  C2_3 
ROOT
ATOM      1  C2  UNL d   1      -2.418  -3.517  -1.036  0.00  0.00    -0.077 A 
ATOM      2  C3  UNL d   1      -1.590  -2.476  -0.593  0.00  0.00     0.002 A 
ATOM      3  C4  UNL d   1      -0.754  -2.659   0.510  0.00  0.00     0.002 A 
ATOM      4  C5  UNL d   1      -0.733  -3.884   1.174  0.00  0.00    -0.004 A 
ATOM      5  C6  UNL d   1      -1.554  -4.925   0.742  0.00  0.00     0.002 A 
ATOM      6  C7  UNL d   1      -2.392  -4.742  -0.359  0.00  0.00     0.002 A 
ENDROOT
BRANCH   1   7
ATOM      7  C1  UNL d   1      -3.285  -3.337  -2.255  0.00  0.00     0.055 C 
ATOM      8  C   UNL d   1      -2.495  -2.745  -3.413  0.00  0.00     0.019 C 
ENDBRANCH   1   7
TORSDOF 1
ENDMDL
