MODEL 1
REMARK minimizedAffinity 0.577975154
REMARK minimizedRMSD -1
REMARK  1 active torsions:
REMARK  status: ('A' for Active; 'I' for Inactive)
REMARK    1  A    between atoms: C1_2  and  C2_3 
ROOT
ATOM      1  C2  UNL d   1       2.583   1.431  -2.696  0.00  0.00    -0.077 A 
ATOM      2  C3  UNL d   1       1.651   2.060  -3.532  0.00  0.00     0.002 A 
ATOM      3  C4  UNL d   1       1.915   2.217  -4.894  0.00  0.00     0.002 A 
ATOM      4  C5  UNL d   1       3.110   1.743  -5.432  0.00  0.00    -0.004 A 
ATOM      5  C6  UNL d   1       4.045   1.117  -4.608  0.00  0.00     0.002 A 
ATOM      6  C7  UNL d   1       3.782   0.961  -3.246  0.00  0.00     0.002 A 
ENDROOT
BRANCH   1   7
ATOM      7  C1  UNL d   1       2.278   1.217  -1.236  0.00  0.00     0.055 C 
ATOM      8  C   UNL d   1       3.030   0.015  -0.683  0.00  0.00     0.019 C 
ENDBRANCH   1   7
TORSDOF 1
ENDMDL
