MODEL 1
REMARK minimizedAffinity 10.4213877
REMARK minimizedRMSD -1
REMARK  1 active torsions:
REMARK  status: ('A' for Active; 'I' for Inactive)
REMARK    1  A    between atoms: C1_2  and  C2_3 
ROOT
ATOM      1  C2  UNL d   1      -1.717  -2.718  -1.043  0.00  0.00    -0.077 A 
ATOM      2  C3  UNL d   1      -2.986  -3.233  -0.746  0.00  0.00     0.002 A 
ATOM      3  C4  UNL d   1      -3.947  -3.366  -1.750  0.00  0.00     0.002 A 
ATOM      4  C5  UNL d   1      -3.648  -2.990  -3.058  0.00  0.00    -0.004 A 
ATOM      5  C6  UNL d   1      -2.389  -2.474  -3.363  0.00  0.00     0.002 A 
ATOM      6  C7  UNL d   1      -1.428  -2.339  -2.360  0.00  0.00     0.002 A 
ENDROOT
BRANCH   1   7
ATOM      7  C1  UNL d   1      -0.663  -2.619   0.028  0.00  0.00     0.055 C 
ATOM      8  C   UNL d   1       0.725  -2.894  -0.533  0.00  0.00     0.019 C 
ENDBRANCH   1   7
TORSDOF 1
ENDMDL
