MODEL 1
REMARK minimizedAffinity -0.59108901
REMARK minimizedRMSD -1
REMARK  1 active torsions:
REMARK  status: ('A' for Active; 'I' for Inactive)
REMARK    1  A    between atoms: C1_2  and  C2_3 
ROOT
ATOM      1  C2  UNL d   1      -2.626  -3.717  -0.494  0.00  0.00    -0.077 A 
ATOM      2  C3  UNL d   1      -3.301  -4.864  -0.933  0.00  0.00     0.002 A 
ATOM      3  C4  UNL d   1      -3.578  -5.046  -2.289  0.00  0.00     0.002 A 
ATOM      4  C5  UNL d   1      -3.179  -4.086  -3.217  0.00  0.00    -0.004 A 
ATOM      5  C6  UNL d   1      -2.508  -2.941  -2.790  0.00  0.00     0.002 A 
ATOM      6  C7  UNL d   1      -2.233  -2.757  -1.435  0.00  0.00     0.002 A 
ENDROOT
BRANCH   1   7
ATOM      7  C1  UNL d   1      -2.284  -3.543   0.963  0.00  0.00     0.055 C 
ATOM      8  C   UNL d   1      -0.788  -3.688   1.201  0.00  0.00     0.019 C 
ENDBRANCH   1   7
TORSDOF 1
ENDMDL
