MODEL 1
REMARK minimizedAffinity 13.4712982
REMARK minimizedRMSD -1
REMARK  0 active torsions:
REMARK  status: ('A' for Active; 'I' for Inactive)
ROOT
ATOM      1  C1  DEN d   1      -1.171  -4.008  -0.517  0.00  0.00     0.130 A 
ATOM      2  C2  DEN d   1      -1.755  -2.672  -0.442  0.00  0.00    -0.031 A 
ATOM      3  C3  DEN d   1      -2.010  -2.364   0.980  0.00  0.00     0.027 A 
ATOM      4  C4  DEN d   1      -1.557  -3.819   3.061  0.00  0.00     0.027 A 
ATOM      5  C5  DEN d   1      -1.082  -5.035   3.499  0.00  0.00    -0.003 A 
ATOM      6  C6  DEN d   1      -0.638  -6.000   2.634  0.00  0.00     0.001 A 
ATOM      7  C7  DEN d   1      -0.619  -5.747   1.287  0.00  0.00     0.017 A 
ATOM      8  C8  DEN d   1      -1.103  -4.526   0.838  0.00  0.00    -0.094 A 
ATOM      9  C9  DEN d   1      -1.536  -3.559   1.730  0.00  0.00    -0.072 A 
ENDROOT
TORSDOF 0
ENDMDL
