MODEL 1
REMARK minimizedAffinity 3.98492599
REMARK minimizedRMSD -1
REMARK  0 active torsions:
REMARK  status: ('A' for Active; 'I' for Inactive)
ROOT
ATOM      1  C1  DEN d   1      -1.728  -3.859   3.892  0.00  0.00     0.130 A 
ATOM      2  C2  DEN d   1      -2.171  -2.467   3.927  0.00  0.00    -0.031 A 
ATOM      3  C3  DEN d   1      -1.977  -1.893   2.581  0.00  0.00     0.027 A 
ATOM      4  C4  DEN d   1      -1.046  -3.018   0.455  0.00  0.00     0.027 A 
ATOM      5  C5  DEN d   1      -0.528  -4.184  -0.063  0.00  0.00    -0.003 A 
ATOM      6  C6  DEN d   1      -0.345  -5.305   0.703  0.00  0.00     0.001 A 
ATOM      7  C7  DEN d   1      -0.723  -5.296   2.019  0.00  0.00     0.017 A 
ATOM      8  C8  DEN d   1      -1.239  -4.121   2.551  0.00  0.00    -0.094 A 
ATOM      9  C9  DEN d   1      -1.428  -3.003   1.757  0.00  0.00    -0.072 A 
ENDROOT
TORSDOF 0
ENDMDL
