MODEL 1
REMARK minimizedAffinity 15.8165007
REMARK minimizedRMSD -1
REMARK  0 active torsions:
REMARK  status: ('A' for Active; 'I' for Inactive)
ROOT
ATOM      1  C1  DEN d   1      -0.306  -4.639   0.254  0.00  0.00     0.130 A 
ATOM      2  C2  DEN d   1      -0.446  -5.244   1.576  0.00  0.00    -0.031 A 
ATOM      3  C3  DEN d   1      -1.278  -4.346   2.403  0.00  0.00     0.027 A 
ATOM      4  C4  DEN d   1      -2.361  -2.094   1.767  0.00  0.00     0.027 A 
ATOM      5  C5  DEN d   1      -2.513  -1.167   0.760  0.00  0.00    -0.003 A 
ATOM      6  C6  DEN d   1      -1.918  -1.314  -0.465  0.00  0.00     0.001 A 
ATOM      7  C7  DEN d   1      -1.178  -2.436  -0.730  0.00  0.00     0.017 A 
ATOM      8  C8  DEN d   1      -1.014  -3.372   0.283  0.00  0.00    -0.094 A 
ATOM      9  C9  DEN d   1      -1.634  -3.211   1.510  0.00  0.00    -0.072 A 
ENDROOT
TORSDOF 0
ENDMDL
