MODEL 1
REMARK minimizedAffinity 14.0825653
REMARK minimizedRMSD -1
REMARK  0 active torsions:
REMARK  status: ('A' for Active; 'I' for Inactive)
ROOT
ATOM      1  C1  DEN d   1      -3.088   2.998  -5.270  0.00  0.00     0.130 A 
ATOM      2  C2  DEN d   1      -2.019   3.673  -6.000  0.00  0.00    -0.031 A 
ATOM      3  C3  DEN d   1      -0.764   2.934  -5.759  0.00  0.00     0.027 A 
ATOM      4  C4  DEN d   1      -0.375   0.817  -4.338  0.00  0.00     0.027 A 
ATOM      5  C5  DEN d   1      -0.979  -0.112  -3.519  0.00  0.00    -0.003 A 
ATOM      6  C6  DEN d   1      -2.310  -0.051  -3.203  0.00  0.00     0.001 A 
ATOM      7  C7  DEN d   1      -3.092   0.935  -3.744  0.00  0.00     0.017 A 
ATOM      8  C8  DEN d   1      -2.489   1.880  -4.563  0.00  0.00    -0.094 A 
ATOM      9  C9  DEN d   1      -1.144   1.794  -4.882  0.00  0.00    -0.072 A 
ENDROOT
TORSDOF 0
ENDMDL
