MODEL 1
REMARK minimizedAffinity 18.5008507
REMARK minimizedRMSD -1
REMARK  0 active torsions:
REMARK  status: ('A' for Active; 'I' for Inactive)
ROOT
ATOM      1  C1  DEN d   1       1.859   2.146   0.067  0.00  0.00     0.130 A 
ATOM      2  C2  DEN d   1       3.195   2.697   0.274  0.00  0.00    -0.031 A 
ATOM      3  C3  DEN d   1       4.120   2.014  -0.652  0.00  0.00     0.027 A 
ATOM      4  C4  DEN d   1       3.615   0.168  -2.381  0.00  0.00     0.027 A 
ATOM      5  C5  DEN d   1       2.628  -0.633  -2.912  0.00  0.00    -0.003 A 
ATOM      6  C6  DEN d   1       1.333  -0.588  -2.468  0.00  0.00     0.001 A 
ATOM      7  C7  DEN d   1       0.981   0.308  -1.494  0.00  0.00     0.017 A 
ATOM      8  C8  DEN d   1       1.972   1.113  -0.948  0.00  0.00    -0.094 A 
ATOM      9  C9  DEN d   1       3.273   1.061  -1.419  0.00  0.00    -0.072 A 
ENDROOT
TORSDOF 0
ENDMDL
