MODEL 1
REMARK minimizedAffinity 16.0554981
REMARK minimizedRMSD -1
REMARK  0 active torsions:
REMARK  status: ('A' for Active; 'I' for Inactive)
ROOT
ATOM      1  C1  DEN d   1      -5.941   0.105   5.610  0.00  0.00     0.130 A 
ATOM      2  C2  DEN d   1      -5.999   1.512   6.000  0.00  0.00    -0.031 A 
ATOM      3  C3  DEN d   1      -4.621   2.043   6.000  0.00  0.00     0.027 A 
ATOM      4  C4  DEN d   1      -2.416   0.833   5.432  0.00  0.00     0.027 A 
ATOM      5  C5  DEN d   1      -1.860  -0.370   5.057  0.00  0.00    -0.003 A 
ATOM      6  C6  DEN d   1      -2.615  -1.498   4.874  0.00  0.00     0.001 A 
ATOM      7  C7  DEN d   1      -3.975  -1.436   5.023  0.00  0.00     0.017 A 
ATOM      8  C8  DEN d   1      -4.542  -0.228   5.408  0.00  0.00    -0.094 A 
ATOM      9  C9  DEN d   1      -3.763   0.904   5.576  0.00  0.00    -0.072 A 
ENDROOT
TORSDOF 0
ENDMDL
