MODEL 1
REMARK minimizedAffinity 19.2758293
REMARK minimizedRMSD -1
REMARK  0 active torsions:
REMARK  status: ('A' for Active; 'I' for Inactive)
ROOT
ATOM      1  C1  DEN d   1      -4.963  -1.099   6.000  0.00  0.00     0.130 A 
ATOM      2  C2  DEN d   1      -4.493   0.284   5.973  0.00  0.00    -0.031 A 
ATOM      3  C3  DEN d   1      -3.096   0.282   5.495  0.00  0.00     0.027 A 
ATOM      4  C4  DEN d   1      -1.623  -1.715   4.794  0.00  0.00     0.027 A 
ATOM      5  C5  DEN d   1      -1.580  -3.085   4.659  0.00  0.00    -0.003 A 
ATOM      6  C6  DEN d   1      -2.641  -3.886   4.990  0.00  0.00     0.001 A 
ATOM      7  C7  DEN d   1      -3.808  -3.318   5.432  0.00  0.00     0.017 A 
ATOM      8  C8  DEN d   1      -3.856  -1.938   5.578  0.00  0.00    -0.094 A 
ATOM      9  C9  DEN d   1      -2.777  -1.145   5.226  0.00  0.00    -0.072 A 
ENDROOT
TORSDOF 0
ENDMDL
