MODEL 1
REMARK minimizedAffinity 13.6958818
REMARK minimizedRMSD -1
REMARK  0 active torsions:
REMARK  status: ('A' for Active; 'I' for Inactive)
ROOT
ATOM      1  C1  DEN d   1      -0.401  -5.322  -0.142  0.00  0.00     0.130 A 
ATOM      2  C2  DEN d   1      -0.402  -5.216   1.315  0.00  0.00    -0.031 A 
ATOM      3  C3  DEN d   1      -0.756  -3.827   1.671  0.00  0.00     0.027 A 
ATOM      4  C4  DEN d   1      -1.304  -1.842   0.118  0.00  0.00     0.027 A 
ATOM      5  C5  DEN d   1      -1.420  -1.444  -1.195  0.00  0.00    -0.003 A 
ATOM      6  C6  DEN d   1      -1.174  -2.293  -2.241  0.00  0.00     0.001 A 
ATOM      7  C7  DEN d   1      -0.842  -3.599  -1.991  0.00  0.00     0.017 A 
ATOM      8  C8  DEN d   1      -0.716  -4.006  -0.670  0.00  0.00    -0.094 A 
ATOM      9  C9  DEN d   1      -0.981  -3.136   0.373  0.00  0.00    -0.072 A 
ENDROOT
TORSDOF 0
ENDMDL
