MODEL 1
REMARK minimizedAffinity 20.4128799
REMARK minimizedRMSD -1
REMARK  0 active torsions:
REMARK  status: ('A' for Active; 'I' for Inactive)
ROOT
ATOM      1  C1  DEN d   1      -1.287  -2.107   1.475  0.00  0.00     0.130 A 
ATOM      2  C2  DEN d   1      -1.512  -1.110   0.433  0.00  0.00    -0.031 A 
ATOM      3  C3  DEN d   1      -1.809   0.179   1.090  0.00  0.00     0.027 A 
ATOM      4  C4  DEN d   1      -1.936   0.723   3.608  0.00  0.00     0.027 A 
ATOM      5  C5  DEN d   1      -1.831   0.198   4.877  0.00  0.00    -0.003 A 
ATOM      6  C6  DEN d   1      -1.573  -1.129   5.099  0.00  0.00     0.001 A 
ATOM      7  C7  DEN d   1      -1.366  -1.967   4.035  0.00  0.00     0.017 A 
ATOM      8  C8  DEN d   1      -1.478  -1.446   2.753  0.00  0.00    -0.094 A 
ATOM      9  C9  DEN d   1      -1.728  -0.100   2.550  0.00  0.00    -0.072 A 
ENDROOT
TORSDOF 0
ENDMDL
