MODEL 1
REMARK minimizedAffinity 6.03386879
REMARK minimizedRMSD -1
REMARK  0 active torsions:
REMARK  status: ('A' for Active; 'I' for Inactive)
ROOT
ATOM      1  C1  DEN d   1      -1.872   0.827   5.968  0.00  0.00     0.130 A 
ATOM      2  C2  DEN d   1      -3.141   1.550   5.955  0.00  0.00    -0.031 A 
ATOM      3  C3  DEN d   1      -4.233   0.557   5.961  0.00  0.00     0.027 A 
ATOM      4  C4  DEN d   1      -4.084  -2.018   5.995  0.00  0.00     0.027 A 
ATOM      5  C5  DEN d   1      -3.223  -3.093   5.999  0.00  0.00    -0.003 A 
ATOM      6  C6  DEN d   1      -1.862  -2.938   5.960  0.00  0.00     0.001 A 
ATOM      7  C7  DEN d   1      -1.322  -1.679   5.960  0.00  0.00     0.017 A 
ATOM      8  C8  DEN d   1      -2.184  -0.591   5.947  0.00  0.00    -0.094 A 
ATOM      9  C9  DEN d   1      -3.557  -0.768   6.000  0.00  0.00    -0.072 A 
ENDROOT
TORSDOF 0
ENDMDL
