MODEL 1
REMARK minimizedAffinity 7.34436607
REMARK minimizedRMSD -1
REMARK  0 active torsions:
REMARK  status: ('A' for Active; 'I' for Inactive)
ROOT
ATOM      1  C1  DEN d   1      -5.492   4.478  -6.000  0.00  0.00     0.130 A 
ATOM      2  C2  DEN d   1      -5.948   5.618  -5.208  0.00  0.00    -0.031 A 
ATOM      3  C3  DEN d   1      -4.858   6.000  -4.288  0.00  0.00     0.027 A 
ATOM      4  C4  DEN d   1      -2.519   4.946  -4.017  0.00  0.00     0.027 A 
ATOM      5  C5  DEN d   1      -1.679   3.949  -4.461  0.00  0.00    -0.003 A 
ATOM      6  C6  DEN d   1      -2.060   3.044  -5.416  0.00  0.00     0.001 A 
ATOM      7  C7  DEN d   1      -3.299   3.147  -5.992  0.00  0.00     0.017 A 
ATOM      8  C8  DEN d   1      -4.154   4.145  -5.545  0.00  0.00    -0.094 A 
ATOM      9  C9  DEN d   1      -3.746   5.057  -4.587  0.00  0.00    -0.072 A 
ENDROOT
TORSDOF 0
ENDMDL
