MODEL 1
REMARK minimizedAffinity 19.4091702
REMARK minimizedRMSD -1
REMARK  0 active torsions:
REMARK  status: ('A' for Active; 'I' for Inactive)
ROOT
ATOM      1  C1  DEN d   1      -5.985   2.809   4.080  0.00  0.00     0.130 A 
ATOM      2  C2  DEN d   1      -5.982   3.669   5.260  0.00  0.00    -0.031 A 
ATOM      3  C3  DEN d   1      -5.967   5.072   4.802  0.00  0.00     0.027 A 
ATOM      4  C4  DEN d   1      -5.954   5.993   2.393  0.00  0.00     0.027 A 
ATOM      5  C5  DEN d   1      -5.941   5.648   1.059  0.00  0.00    -0.003 A 
ATOM      6  C6  DEN d   1      -5.907   4.344   0.643  0.00  0.00     0.001 A 
ATOM      7  C7  DEN d   1      -5.931   3.335   1.569  0.00  0.00     0.017 A 
ATOM      8  C8  DEN d   1      -5.937   3.675   2.915  0.00  0.00    -0.094 A 
ATOM      9  C9  DEN d   1      -5.983   4.999   3.316  0.00  0.00    -0.072 A 
ENDROOT
TORSDOF 0
ENDMDL
