MODEL 1
REMARK minimizedAffinity 8.88815784
REMARK minimizedRMSD -1
REMARK  0 active torsions:
REMARK  status: ('A' for Active; 'I' for Inactive)
ROOT
ATOM      1  C1  DEN d   1      -3.037   1.828   5.970  0.00  0.00     0.130 A 
ATOM      2  C2  DEN d   1      -4.448   2.203   5.998  0.00  0.00    -0.031 A 
ATOM      3  C3  DEN d   1      -5.250   0.962   6.000  0.00  0.00     0.027 A 
ATOM      4  C4  DEN d   1      -4.446  -1.489   5.968  0.00  0.00     0.027 A 
ATOM      5  C5  DEN d   1      -3.339  -2.307   5.931  0.00  0.00    -0.003 A 
ATOM      6  C6  DEN d   1      -2.065  -1.808   5.870  0.00  0.00     0.001 A 
ATOM      7  C7  DEN d   1      -1.864  -0.453   5.890  0.00  0.00     0.017 A 
ATOM      8  C8  DEN d   1      -2.976   0.378   5.920  0.00  0.00    -0.094 A 
ATOM      9  C9  DEN d   1      -4.256  -0.145   5.994  0.00  0.00    -0.072 A 
ENDROOT
TORSDOF 0
ENDMDL
