MODEL 1
REMARK minimizedAffinity 10.5024548
REMARK minimizedRMSD -1
REMARK  0 active torsions:
REMARK  status: ('A' for Active; 'I' for Inactive)
ROOT
ATOM      1  C1  DEN d   1      -3.762   4.042  -1.828  0.00  0.00     0.130 A 
ATOM      2  C2  DEN d   1      -4.114   5.053  -2.820  0.00  0.00    -0.031 A 
ATOM      3  C3  DEN d   1      -5.058   6.000  -2.192  0.00  0.00     0.027 A 
ATOM      4  C4  DEN d   1      -5.998   6.000   0.210  0.00  0.00     0.027 A 
ATOM      5  C5  DEN d   1      -5.997   5.334   1.416  0.00  0.00    -0.003 A 
ATOM      6  C6  DEN d   1      -5.284   4.181   1.613  0.00  0.00     0.001 A 
ATOM      7  C7  DEN d   1      -4.505   3.683   0.602  0.00  0.00     0.017 A 
ATOM      8  C8  DEN d   1      -4.507   4.345  -0.619  0.00  0.00    -0.094 A 
ATOM      9  C9  DEN d   1      -5.224   5.516  -0.795  0.00  0.00    -0.072 A 
ENDROOT
TORSDOF 0
ENDMDL
