MODEL 1
REMARK minimizedAffinity 13.5688248
REMARK minimizedRMSD -1
REMARK  0 active torsions:
REMARK  status: ('A' for Active; 'I' for Inactive)
ROOT
ATOM      1  C1  DEN d   1       5.999   0.723   2.329  0.00  0.00     0.130 A 
ATOM      2  C2  DEN d   1       4.999   0.485   3.366  0.00  0.00    -0.031 A 
ATOM      3  C3  DEN d   1       3.808   1.297   3.047  0.00  0.00     0.027 A 
ATOM      4  C4  DEN d   1       3.415   2.888   1.055  0.00  0.00     0.027 A 
ATOM      5  C5  DEN d   1       3.979   3.425  -0.081  0.00  0.00    -0.003 A 
ATOM      6  C6  DEN d   1       5.258   3.128  -0.471  0.00  0.00     0.001 A 
ATOM      7  C7  DEN d   1       6.000   2.235   0.256  0.00  0.00     0.017 A 
ATOM      8  C8  DEN d   1       5.440   1.695   1.407  0.00  0.00    -0.094 A 
ATOM      9  C9  DEN d   1       4.142   1.998   1.778  0.00  0.00    -0.072 A 
ENDROOT
TORSDOF 0
ENDMDL
