MODEL 1
REMARK minimizedAffinity 1.04757559
REMARK minimizedRMSD -1
REMARK  0 active torsions:
REMARK  status: ('A' for Active; 'I' for Inactive)
ROOT
ATOM      1  C4' PXY d   1      -4.898   5.068  -1.735  0.00  0.00     0.077 C 
ATOM      2  C1' PXY d   1      -1.370   0.706  -3.128  0.00  0.00     0.077 C 
ATOM      3  C1  PXY d   1      -2.299   1.844  -2.753  0.00  0.00    -0.082 A 
ATOM      4  C2  PXY d   1      -2.712   2.686  -3.685  0.00  0.00     0.003 A 
ATOM      5  C3  PXY d   1      -3.527   3.739  -3.357  0.00  0.00     0.003 A 
ATOM      6  C4  PXY d   1      -3.967   3.900  -2.071  0.00  0.00    -0.082 A 
ATOM      7  C5  PXY d   1      -3.559   3.038  -1.115  0.00  0.00     0.003 A 
ATOM      8  C6  PXY d   1      -2.699   2.000  -1.461  0.00  0.00     0.003 A 
ENDROOT
TORSDOF 0
ENDMDL
