MODEL 1
REMARK minimizedAffinity 3.6912446
REMARK minimizedRMSD -1
REMARK  0 active torsions:
REMARK  status: ('A' for Active; 'I' for Inactive)
ROOT
ATOM      1  C4' PXY d   1      -1.063  -3.252   0.874  0.00  0.00     0.077 C 
ATOM      2  C1' PXY d   1       0.302   2.320   0.169  0.00  0.00     0.077 C 
ATOM      3  C1  PXY d   1      -0.061   0.859   0.342  0.00  0.00    -0.082 A 
ATOM      4  C2  PXY d   1      -0.212   0.362   1.559  0.00  0.00     0.003 A 
ATOM      5  C3  PXY d   1      -0.509  -0.965   1.734  0.00  0.00     0.003 A 
ATOM      6  C4  PXY d   1      -0.706  -1.780   0.651  0.00  0.00    -0.082 A 
ATOM      7  C5  PXY d   1      -0.565  -1.278  -0.594  0.00  0.00     0.003 A 
ATOM      8  C6  PXY d   1      -0.223   0.062  -0.749  0.00  0.00     0.003 A 
ENDROOT
TORSDOF 0
ENDMDL
