MODEL 1
REMARK minimizedAffinity -2.36338592
REMARK minimizedRMSD -1
REMARK  0 active torsions:
REMARK  status: ('A' for Active; 'I' for Inactive)
ROOT
ATOM      1  C4' PXY d   1       2.623  -5.243  -0.874  0.00  0.00     0.077 C 
ATOM      2  C1' PXY d   1       5.254  -4.774  -6.000  0.00  0.00     0.077 C 
ATOM      3  C1  PXY d   1       4.554  -4.903  -4.661  0.00  0.00    -0.082 A 
ATOM      4  C2  PXY d   1       4.851  -4.062  -3.684  0.00  0.00     0.003 A 
ATOM      5  C3  PXY d   1       4.250  -4.184  -2.458  0.00  0.00     0.003 A 
ATOM      6  C4  PXY d   1       3.298  -5.145  -2.245  0.00  0.00    -0.082 A 
ATOM      7  C5  PXY d   1       2.982  -6.000  -3.241  0.00  0.00     0.003 A 
ATOM      8  C6  PXY d   1       3.633  -5.885  -4.466  0.00  0.00     0.003 A 
ENDROOT
TORSDOF 0
ENDMDL
