MODEL 1
REMARK minimizedAffinity 3.05366921
REMARK minimizedRMSD -1
REMARK  0 active torsions:
REMARK  status: ('A' for Active; 'I' for Inactive)
ROOT
ATOM      1  C4' PXY d   1       2.257  -4.858  -0.168  0.00  0.00     0.077 C 
ATOM      2  C1' PXY d   1      -1.648  -1.259  -2.451  0.00  0.00     0.077 C 
ATOM      3  C1  PXY d   1      -0.617  -2.193  -1.847  0.00  0.00    -0.082 A 
ATOM      4  C2  PXY d   1      -0.443  -3.398  -2.365  0.00  0.00     0.003 A 
ATOM      5  C3  PXY d   1       0.462  -4.266  -1.812  0.00  0.00     0.003 A 
ATOM      6  C4  PXY d   1       1.235  -3.878  -0.750  0.00  0.00    -0.082 A 
ATOM      7  C5  PXY d   1       1.071  -2.647  -0.223  0.00  0.00     0.003 A 
ATOM      8  C6  PXY d   1       0.117  -1.795  -0.773  0.00  0.00     0.003 A 
ENDROOT
TORSDOF 0
ENDMDL
