MODEL 1
REMARK minimizedAffinity -3.93712211
REMARK minimizedRMSD -1
REMARK  0 active torsions:
REMARK  status: ('A' for Active; 'I' for Inactive)
ROOT
ATOM      1  C4' PXY d   1       4.512  -5.268  -3.514  0.00  0.00     0.077 C 
ATOM      2  C1' PXY d   1       4.126  -0.049  -5.969  0.00  0.00     0.077 C 
ATOM      3  C1  PXY d   1       4.217  -1.422  -5.333  0.00  0.00    -0.082 A 
ATOM      4  C2  PXY d   1       4.754  -1.551  -4.131  0.00  0.00     0.003 A 
ATOM      5  C3  PXY d   1       4.874  -2.789  -3.554  0.00  0.00     0.003 A 
ATOM      6  C4  PXY d   1       4.391  -3.900  -4.191  0.00  0.00    -0.082 A 
ATOM      7  C5  PXY d   1       3.831  -3.775  -5.414  0.00  0.00     0.003 A 
ATOM      8  C6  PXY d   1       3.757  -2.515  -6.000  0.00  0.00     0.003 A 
ENDROOT
TORSDOF 0
ENDMDL
