MODEL 1
REMARK minimizedAffinity 0.549280465
REMARK minimizedRMSD -1
REMARK  0 active torsions:
REMARK  status: ('A' for Active; 'I' for Inactive)
ROOT
ATOM      1  C4' PXY d   1      -2.366   0.386  -3.489  0.00  0.00     0.077 C 
ATOM      2  C1' PXY d   1      -0.231  -2.262   1.185  0.00  0.00     0.077 C 
ATOM      3  C1  PXY d   1      -0.795  -1.557  -0.033  0.00  0.00    -0.082 A 
ATOM      4  C2  PXY d   1      -1.151  -2.266  -1.092  0.00  0.00     0.003 A 
ATOM      5  C3  PXY d   1      -1.633  -1.642  -2.214  0.00  0.00     0.003 A 
ATOM      6  C4  PXY d   1      -1.801  -0.283  -2.233  0.00  0.00    -0.082 A 
ATOM      7  C5  PXY d   1      -1.450   0.446  -1.153  0.00  0.00     0.003 A 
ATOM      8  C6  PXY d   1      -0.924  -0.203  -0.039  0.00  0.00     0.003 A 
ENDROOT
TORSDOF 0
ENDMDL
