MODEL 1
REMARK minimizedAffinity -0.829154134
REMARK minimizedRMSD -1
REMARK  0 active torsions:
REMARK  status: ('A' for Active; 'I' for Inactive)
ROOT
ATOM      1  C4' PXY d   1       2.846   2.042   3.430  0.00  0.00     0.077 C 
ATOM      2  C1' PXY d   1       1.711  -3.227   1.341  0.00  0.00     0.077 C 
ATOM      3  C1  PXY d   1       2.016  -1.843   1.878  0.00  0.00    -0.082 A 
ATOM      4  C2  PXY d   1       1.942  -1.615   3.180  0.00  0.00     0.003 A 
ATOM      5  C3  PXY d   1       2.183  -0.361   3.679  0.00  0.00     0.003 A 
ATOM      6  C4  PXY d   1       2.556   0.657   2.844  0.00  0.00    -0.082 A 
ATOM      7  C5  PXY d   1       2.644   0.430   1.516  0.00  0.00     0.003 A 
ATOM      8  C6  PXY d   1       2.355  -0.839   1.024  0.00  0.00     0.003 A 
ENDROOT
TORSDOF 0
ENDMDL
