MODEL 1
REMARK minimizedAffinity -0.935785949
REMARK minimizedRMSD -1
REMARK  0 active torsions:
REMARK  status: ('A' for Active; 'I' for Inactive)
ROOT
ATOM      1  C4' PXY d   1       3.336  -5.997  -3.512  0.00  0.00     0.077 C 
ATOM      2  C1' PXY d   1       4.738  -0.967  -5.993  0.00  0.00     0.077 C 
ATOM      3  C1  PXY d   1       4.372  -2.281  -5.330  0.00  0.00    -0.082 A 
ATOM      4  C2  PXY d   1       4.519  -3.413  -5.998  0.00  0.00     0.003 A 
ATOM      5  C3  PXY d   1       4.163  -4.607  -5.426  0.00  0.00     0.003 A 
ATOM      6  C4  PXY d   1       3.702  -4.648  -4.137  0.00  0.00    -0.082 A 
ATOM      7  C5  PXY d   1       3.560  -3.497  -3.445  0.00  0.00     0.003 A 
ATOM      8  C6  PXY d   1       3.888  -2.292  -4.059  0.00  0.00     0.003 A 
ENDROOT
TORSDOF 0
ENDMDL
