MODEL 1
REMARK minimizedAffinity -0.213841408
REMARK minimizedRMSD -1
REMARK  0 active torsions:
REMARK  status: ('A' for Active; 'I' for Inactive)
ROOT
ATOM      1  C   UNL d   1      -4.414   1.606   1.547  0.00  0.00     0.023 A 
ATOM      2  C1  UNL d   1      -3.746   1.949   0.372  0.00  0.00     0.003 A 
ATOM      3  C2  UNL d   1      -4.199   3.017  -0.405  0.00  0.00     0.048 A 
ATOM      4  C3  UNL d   1      -5.322   3.739  -0.000  0.00  0.00     0.023 A 
ATOM      5  C4  UNL d   1      -5.994   3.400   1.175  0.00  0.00     0.048 A 
ATOM      6  C5  UNL d   1      -5.537   2.331   1.948  0.00  0.00     0.003 A 
ATOM      7  I   UNL d   1      -5.999   5.329  -1.154  0.00  0.00    -0.146 I 
ENDROOT
TORSDOF 0
ENDMDL
