MODEL 1
REMARK minimizedAffinity 4.35627174
REMARK minimizedRMSD -1
REMARK  0 active torsions:
REMARK  status: ('A' for Active; 'I' for Inactive)
ROOT
ATOM      1  C   UNL d   1      -5.752  -3.919  -6.000  0.00  0.00     0.023 A 
ATOM      2  C1  UNL d   1      -5.079  -3.157  -5.045  0.00  0.00     0.003 A 
ATOM      3  C2  UNL d   1      -4.628  -3.752  -3.865  0.00  0.00     0.048 A 
ATOM      4  C3  UNL d   1      -4.852  -5.111  -3.647  0.00  0.00     0.023 A 
ATOM      5  C4  UNL d   1      -5.524  -5.878  -4.600  0.00  0.00     0.048 A 
ATOM      6  C5  UNL d   1      -5.974  -5.278  -5.778  0.00  0.00     0.003 A 
ATOM      7  I   UNL d   1      -4.181  -6.000  -1.893  0.00  0.00    -0.146 I 
ENDROOT
TORSDOF 0
ENDMDL
