MODEL 1
REMARK minimizedAffinity 5.20097256
REMARK minimizedRMSD -1
REMARK  0 active torsions:
REMARK  status: ('A' for Active; 'I' for Inactive)
ROOT
ATOM      1  C   UNL d   1       2.685  -4.455   5.154  0.00  0.00     0.023 A 
ATOM      2  C1  UNL d   1       2.496  -3.136   5.570  0.00  0.00     0.003 A 
ATOM      3  C2  UNL d   1       2.208  -2.142   4.633  0.00  0.00     0.048 A 
ATOM      4  C3  UNL d   1       2.108  -2.473   3.282  0.00  0.00     0.023 A 
ATOM      5  C4  UNL d   1       2.295  -3.790   2.861  0.00  0.00     0.048 A 
ATOM      6  C5  UNL d   1       2.584  -4.781   3.801  0.00  0.00     0.003 A 
ATOM      7  I   UNL d   1       1.679  -0.994   1.886  0.00  0.00    -0.146 I 
ENDROOT
TORSDOF 0
ENDMDL
