MODEL 1
REMARK minimizedAffinity 7.46970558
REMARK minimizedRMSD -1
REMARK  0 active torsions:
REMARK  status: ('A' for Active; 'I' for Inactive)
ROOT
ATOM      1  C   UNL d   1       1.127  -2.838   3.005  0.00  0.00     0.023 A 
ATOM      2  C1  UNL d   1       1.452  -2.136   1.844  0.00  0.00     0.003 A 
ATOM      3  C2  UNL d   1       1.418  -0.740   1.838  0.00  0.00     0.048 A 
ATOM      4  C3  UNL d   1       1.058  -0.052   2.996  0.00  0.00     0.023 A 
ATOM      5  C4  UNL d   1       0.732  -0.750   4.160  0.00  0.00     0.048 A 
ATOM      6  C5  UNL d   1       0.767  -2.146   4.161  0.00  0.00     0.003 A 
ATOM      7  I   UNL d   1       1.006   2.026   2.989  0.00  0.00    -0.146 I 
ENDROOT
TORSDOF 0
ENDMDL
