MODEL 1
REMARK minimizedAffinity 3.92197347
REMARK minimizedRMSD -1
REMARK  0 active torsions:
REMARK  status: ('A' for Active; 'I' for Inactive)
ROOT
ATOM      1  C   UNL d   1       1.197  -3.830   2.903  0.00  0.00     0.023 A 
ATOM      2  C1  UNL d   1       1.752  -2.640   3.372  0.00  0.00     0.003 A 
ATOM      3  C2  UNL d   1       3.130  -2.431   3.291  0.00  0.00     0.048 A 
ATOM      4  C3  UNL d   1       3.948  -3.417   2.740  0.00  0.00     0.023 A 
ATOM      5  C4  UNL d   1       3.396  -4.610   2.268  0.00  0.00     0.048 A 
ATOM      6  C5  UNL d   1       2.018  -4.814   2.352  0.00  0.00     0.003 A 
ATOM      7  I   UNL d   1       5.999  -3.109   2.619  0.00  0.00    -0.146 I 
ENDROOT
TORSDOF 0
ENDMDL
