MODEL 1
REMARK minimizedAffinity 3.63590384
REMARK minimizedRMSD -1
REMARK  0 active torsions:
REMARK  status: ('A' for Active; 'I' for Inactive)
ROOT
ATOM      1  C   UNL d   1       5.658  -1.435   1.432  0.00  0.00     0.023 A 
ATOM      2  C1  UNL d   1       5.464  -2.184   2.593  0.00  0.00     0.003 A 
ATOM      3  C2  UNL d   1       4.200  -2.240   3.186  0.00  0.00     0.048 A 
ATOM      4  C3  UNL d   1       3.136  -1.546   2.612  0.00  0.00     0.023 A 
ATOM      5  C4  UNL d   1       3.325  -0.797   1.449  0.00  0.00     0.048 A 
ATOM      6  C5  UNL d   1       4.590  -0.743   0.861  0.00  0.00     0.003 A 
ATOM      7  I   UNL d   1       1.255  -1.629   3.492  0.00  0.00    -0.146 I 
ENDROOT
TORSDOF 0
ENDMDL
