MODEL 1
REMARK minimizedAffinity 0.778597176
REMARK minimizedRMSD -1
REMARK  0 active torsions:
REMARK  status: ('A' for Active; 'I' for Inactive)
ROOT
ATOM      1  C   UNL d   1       1.344  -3.715   3.777  0.00  0.00     0.023 A 
ATOM      2  C1  UNL d   1       1.767  -2.622   3.021  0.00  0.00     0.003 A 
ATOM      3  C2  UNL d   1       3.103  -2.519   2.626  0.00  0.00     0.048 A 
ATOM      4  C3  UNL d   1       4.010  -3.513   2.990  0.00  0.00     0.023 A 
ATOM      5  C4  UNL d   1       3.591  -4.610   3.746  0.00  0.00     0.048 A 
ATOM      6  C5  UNL d   1       2.255  -4.708   4.139  0.00  0.00     0.003 A 
ATOM      7  I   UNL d   1       5.998  -3.362   2.404  0.00  0.00    -0.146 I 
ENDROOT
TORSDOF 0
ENDMDL
