MODEL 1
REMARK minimizedAffinity 10.107048
REMARK minimizedRMSD -1
REMARK  0 active torsions:
REMARK  status: ('A' for Active; 'I' for Inactive)
ROOT
ATOM      1  C   UNL d   1       2.492  -5.353  -2.091  0.00  0.00     0.023 A 
ATOM      2  C1  UNL d   1       2.036  -5.827  -3.321  0.00  0.00     0.003 A 
ATOM      3  C2  UNL d   1       2.930  -5.995  -4.381  0.00  0.00     0.048 A 
ATOM      4  C3  UNL d   1       4.278  -5.688  -4.203  0.00  0.00     0.023 A 
ATOM      5  C4  UNL d   1       4.740  -5.214  -2.974  0.00  0.00     0.048 A 
ATOM      6  C5  UNL d   1       3.842  -5.047  -1.917  0.00  0.00     0.003 A 
ATOM      7  I   UNL d   1       5.611  -5.937  -5.779  0.00  0.00    -0.146 I 
ENDROOT
TORSDOF 0
ENDMDL
