MODEL 1
REMARK minimizedAffinity 8.19031143
REMARK minimizedRMSD -1
REMARK  0 active torsions:
REMARK  status: ('A' for Active; 'I' for Inactive)
ROOT
ATOM      1  C   UNL d   1      -5.961  -3.962  -6.000  0.00  0.00     0.023 A 
ATOM      2  C1  UNL d   1      -5.331  -3.069  -5.133  0.00  0.00     0.003 A 
ATOM      3  C2  UNL d   1      -4.739  -3.534  -3.957  0.00  0.00     0.048 A 
ATOM      4  C3  UNL d   1      -4.780  -4.895  -3.655  0.00  0.00     0.023 A 
ATOM      5  C4  UNL d   1      -5.408  -5.793  -4.519  0.00  0.00     0.048 A 
ATOM      6  C5  UNL d   1      -6.000  -5.322  -5.693  0.00  0.00     0.003 A 
ATOM      7  I   UNL d   1      -3.899  -5.591  -1.905  0.00  0.00    -0.146 I 
ENDROOT
TORSDOF 0
ENDMDL
