MODEL 1
REMARK minimizedAffinity -5.23191595
REMARK minimizedRMSD -1
REMARK  0 active torsions:
REMARK  status: ('A' for Active; 'I' for Inactive)
ROOT
ATOM      1  C   UNL d   1      -0.477  -3.630  -1.761  0.00  0.00     0.077 C 
ATOM      2  C1  UNL d   1      -0.073  -2.282  -1.242  0.00  0.00    -0.074 A 
ATOM      3  C2  UNL d   1       1.214  -1.782  -1.465  0.00  0.00    -0.005 A 
ATOM      4  C3  UNL d   1       1.571  -0.522  -0.984  0.00  0.00     0.006 A 
ATOM      5  C4  UNL d   1       0.648   0.248  -0.276  0.00  0.00    -0.005 A 
ATOM      6  C5  UNL d   1      -0.644  -0.236  -0.044  0.00  0.00    -0.074 A 
ATOM      7  C6  UNL d   1      -1.651   0.583   0.707  0.00  0.00     0.077 C 
ATOM      8  C7  UNL d   1      -0.998  -1.499  -0.536  0.00  0.00    -0.001 A 
ENDROOT
TORSDOF 0
ENDMDL
