MODEL 1
REMARK minimizedAffinity -3.89481544
REMARK minimizedRMSD -1
REMARK  0 active torsions:
REMARK  status: ('A' for Active; 'I' for Inactive)
ROOT
ATOM      1  C   UNL d   1       0.830  -1.348   2.427  0.00  0.00     0.077 C 
ATOM      2  C1  UNL d   1       0.252  -0.437   1.385  0.00  0.00    -0.074 A 
ATOM      3  C2  UNL d   1       0.718  -0.465   0.067  0.00  0.00    -0.005 A 
ATOM      4  C3  UNL d   1       0.163   0.382  -0.893  0.00  0.00     0.006 A 
ATOM      5  C4  UNL d   1      -0.861   1.264  -0.545  0.00  0.00    -0.005 A 
ATOM      6  C5  UNL d   1      -1.340   1.305   0.768  0.00  0.00    -0.074 A 
ATOM      7  C6  UNL d   1      -2.447   2.240   1.157  0.00  0.00     0.077 C 
ATOM      8  C7  UNL d   1      -0.783   0.446   1.725  0.00  0.00    -0.001 A 
ENDROOT
TORSDOF 0
ENDMDL
