MODEL 1
REMARK minimizedAffinity -5.99743271
REMARK minimizedRMSD -1
REMARK  0 active torsions:
REMARK  status: ('A' for Active; 'I' for Inactive)
ROOT
ATOM      1  C   UNL d   1      -1.156   1.650   2.301  0.00  0.00     0.077 C 
ATOM      2  C1  UNL d   1      -0.773   1.929   0.878  0.00  0.00    -0.074 A 
ATOM      3  C2  UNL d   1      -0.810   3.230   0.365  0.00  0.00    -0.005 A 
ATOM      4  C3  UNL d   1      -0.442   3.475  -0.957  0.00  0.00     0.006 A 
ATOM      5  C4  UNL d   1      -0.034   2.424  -1.779  0.00  0.00    -0.005 A 
ATOM      6  C5  UNL d   1       0.011   1.117  -1.284  0.00  0.00    -0.074 A 
ATOM      7  C6  UNL d   1       0.457  -0.022  -2.151  0.00  0.00     0.077 C 
ATOM      8  C7  UNL d   1      -0.354   0.880   0.048  0.00  0.00    -0.001 A 
ENDROOT
TORSDOF 0
ENDMDL
