MODEL 1
REMARK minimizedAffinity -3.23443842
REMARK minimizedRMSD -1
REMARK  0 active torsions:
REMARK  status: ('A' for Active; 'I' for Inactive)
ROOT
ATOM      1  C   UNL d   1       1.407   0.923  -1.605  0.00  0.00     0.077 C 
ATOM      2  C1  UNL d   1       0.647   0.620  -0.348  0.00  0.00    -0.074 A 
ATOM      3  C2  UNL d   1       0.567  -0.686   0.147  0.00  0.00    -0.005 A 
ATOM      4  C3  UNL d   1      -0.136  -0.950   1.322  0.00  0.00     0.006 A 
ATOM      5  C4  UNL d   1      -0.765   0.086   2.013  0.00  0.00    -0.005 A 
ATOM      6  C5  UNL d   1      -0.696   1.398   1.534  0.00  0.00    -0.074 A 
ATOM      7  C6  UNL d   1      -1.358   2.524   2.269  0.00  0.00     0.077 C 
ATOM      8  C7  UNL d   1       0.018   1.657   0.356  0.00  0.00    -0.001 A 
ENDROOT
TORSDOF 0
ENDMDL
