MODEL 1
REMARK minimizedAffinity -6.40102911
REMARK minimizedRMSD -1
REMARK  0 active torsions:
REMARK  status: ('A' for Active; 'I' for Inactive)
ROOT
ATOM      1  C   UNL d   1      -0.056   4.241  -0.469  0.00  0.00     0.077 C 
ATOM      2  C1  UNL d   1      -0.539   2.942   0.104  0.00  0.00    -0.074 A 
ATOM      3  C2  UNL d   1      -1.560   2.913   1.060  0.00  0.00    -0.005 A 
ATOM      4  C3  UNL d   1      -2.005   1.697   1.577  0.00  0.00     0.006 A 
ATOM      5  C4  UNL d   1      -1.436   0.499   1.144  0.00  0.00    -0.005 A 
ATOM      6  C5  UNL d   1      -0.415   0.507   0.188  0.00  0.00    -0.074 A 
ATOM      7  C6  UNL d   1       0.200  -0.772  -0.295  0.00  0.00     0.077 C 
ATOM      8  C7  UNL d   1       0.022   1.733  -0.332  0.00  0.00    -0.001 A 
ENDROOT
TORSDOF 0
ENDMDL
