MODEL 1
REMARK minimizedAffinity -6.36591482
REMARK minimizedRMSD -1
REMARK  0 active torsions:
REMARK  status: ('A' for Active; 'I' for Inactive)
ROOT
ATOM      1  C   UNL d   1       0.042   3.991  -0.564  0.00  0.00     0.077 C 
ATOM      2  C1  UNL d   1      -0.507   2.752   0.078  0.00  0.00    -0.074 A 
ATOM      3  C2  UNL d   1      -1.512   2.830   1.048  0.00  0.00    -0.005 A 
ATOM      4  C3  UNL d   1      -2.020   1.669   1.630  0.00  0.00     0.006 A 
ATOM      5  C4  UNL d   1      -1.530   0.419   1.248  0.00  0.00    -0.005 A 
ATOM      6  C5  UNL d   1      -0.526   0.322   0.279  0.00  0.00    -0.074 A 
ATOM      7  C6  UNL d   1       0.005  -1.014  -0.151  0.00  0.00     0.077 C 
ATOM      8  C7  UNL d   1      -0.026   1.493  -0.306  0.00  0.00    -0.001 A 
ENDROOT
TORSDOF 0
ENDMDL
