MODEL 1
REMARK minimizedAffinity -4.02298212
REMARK minimizedRMSD -1
REMARK  0 active torsions:
REMARK  status: ('A' for Active; 'I' for Inactive)
ROOT
ATOM      1  C   UNL d   1      -2.678   2.224   1.130  0.00  0.00     0.077 C 
ATOM      2  C1  UNL d   1      -1.524   1.385   0.670  0.00  0.00    -0.074 A 
ATOM      3  C2  UNL d   1      -1.010   1.516  -0.624  0.00  0.00    -0.005 A 
ATOM      4  C3  UNL d   1       0.071   0.735  -1.034  0.00  0.00     0.006 A 
ATOM      5  C4  UNL d   1       0.647  -0.184  -0.156  0.00  0.00    -0.005 A 
ATOM      6  C5  UNL d   1       0.147  -0.328   1.142  0.00  0.00    -0.074 A 
ATOM      7  C6  UNL d   1       0.761  -1.304   2.101  0.00  0.00     0.077 C 
ATOM      8  C7  UNL d   1      -0.934   0.465   1.549  0.00  0.00    -0.001 A 
ENDROOT
TORSDOF 0
ENDMDL
