MODEL 1
REMARK minimizedAffinity -3.67662406
REMARK minimizedRMSD -1
REMARK  0 active torsions:
REMARK  status: ('A' for Active; 'I' for Inactive)
ROOT
ATOM      1  C   UNL d   1       0.973  -0.112  -0.815  0.00  0.00     0.077 C 
ATOM      2  C1  UNL d   1      -0.023   0.186   0.266  0.00  0.00    -0.074 A 
ATOM      3  C2  UNL d   1      -0.297  -0.749   1.269  0.00  0.00    -0.005 A 
ATOM      4  C3  UNL d   1      -1.219  -0.454   2.273  0.00  0.00     0.006 A 
ATOM      5  C4  UNL d   1      -1.875   0.777   2.285  0.00  0.00    -0.005 A 
ATOM      6  C5  UNL d   1      -1.614   1.725   1.290  0.00  0.00    -0.074 A 
ATOM      7  C6  UNL d   1      -2.304   3.057   1.293  0.00  0.00     0.077 C 
ATOM      8  C7  UNL d   1      -0.681   1.424   0.289  0.00  0.00    -0.001 A 
ENDROOT
TORSDOF 0
ENDMDL
