MODEL 1
REMARK minimizedAffinity -4.53292608
REMARK minimizedRMSD -1
REMARK  0 active torsions:
REMARK  status: ('A' for Active; 'I' for Inactive)
ROOT
ATOM      1  C   UNL d   1       1.210   0.849  -1.304  0.00  0.00     0.077 C 
ATOM      2  C1  UNL d   1       0.350   0.639  -0.093  0.00  0.00    -0.074 A 
ATOM      3  C2  UNL d   1       0.377  -0.572   0.606  0.00  0.00    -0.005 A 
ATOM      4  C3  UNL d   1      -0.421  -0.750   1.736  0.00  0.00     0.006 A 
ATOM      5  C4  UNL d   1      -1.252   0.280   2.178  0.00  0.00    -0.005 A 
ATOM      6  C5  UNL d   1      -1.292   1.498   1.493  0.00  0.00    -0.074 A 
ATOM      7  C6  UNL d   1      -2.172   2.619   1.960  0.00  0.00     0.077 C 
ATOM      8  C7  UNL d   1      -0.482   1.672   0.362  0.00  0.00    -0.001 A 
ENDROOT
TORSDOF 0
ENDMDL
