MODEL 1
REMARK minimizedAffinity -3.40019178
REMARK minimizedRMSD -1
REMARK  0 active torsions:
REMARK  status: ('A' for Active; 'I' for Inactive)
ROOT
ATOM      1  C   UNL d   1      -1.016   0.466   1.719  0.00  0.00     0.077 C 
ATOM      2  C1  UNL d   1      -0.049  -0.128   0.739  0.00  0.00    -0.074 A 
ATOM      3  C2  UNL d   1       1.327   0.088   0.867  0.00  0.00    -0.005 A 
ATOM      4  C3  UNL d   1       2.216  -0.480  -0.047  0.00  0.00     0.006 A 
ATOM      5  C4  UNL d   1       1.738  -1.267  -1.095  0.00  0.00    -0.005 A 
ATOM      6  C5  UNL d   1       0.366  -1.495  -1.238  0.00  0.00    -0.074 A 
ATOM      7  C6  UNL d   1      -0.163  -2.347  -2.353  0.00  0.00     0.077 C 
ATOM      8  C7  UNL d   1      -0.520  -0.927  -0.312  0.00  0.00    -0.001 A 
ENDROOT
TORSDOF 0
ENDMDL
