MODEL 1
REMARK minimizedAffinity -2.46255612
REMARK minimizedRMSD -1
REMARK  0 active torsions:
REMARK  status: ('A' for Active; 'I' for Inactive)
ROOT
ATOM      1  C   UNL d   1      -2.212   1.610   1.458  0.00  0.00     0.077 C 
ATOM      2  C1  UNL d   1      -0.915   0.856   1.440  0.00  0.00    -0.074 A 
ATOM      3  C2  UNL d   1      -0.148   0.717   2.602  0.00  0.00    -0.005 A 
ATOM      4  C3  UNL d   1       1.051   0.005   2.572  0.00  0.00     0.006 A 
ATOM      5  C4  UNL d   1       1.495  -0.574   1.382  0.00  0.00    -0.005 A 
ATOM      6  C5  UNL d   1       0.741  -0.447   0.211  0.00  0.00    -0.074 A 
ATOM      7  C6  UNL d   1       1.198  -1.071  -1.073  0.00  0.00     0.077 C 
ATOM      8  C7  UNL d   1      -0.466   0.264   0.251  0.00  0.00    -0.001 A 
ENDROOT
TORSDOF 0
ENDMDL
