MODEL 1
REMARK minimizedAffinity -4.74364185
REMARK minimizedRMSD -1
REMARK  0 active torsions:
REMARK  status: ('A' for Active; 'I' for Inactive)
ROOT
ATOM      1  C   UNL d   1      -0.387   3.487  -0.569  0.00  0.00     0.077 C 
ATOM      2  C1  UNL d   1      -0.506   2.121   0.041  0.00  0.00    -0.074 A 
ATOM      3  C2  UNL d   1      -1.235   1.921   1.218  0.00  0.00    -0.005 A 
ATOM      4  C3  UNL d   1      -1.345   0.644   1.768  0.00  0.00     0.006 A 
ATOM      5  C4  UNL d   1      -0.728  -0.444   1.148  0.00  0.00    -0.005 A 
ATOM      6  C5  UNL d   1       0.004  -0.263  -0.030  0.00  0.00    -0.074 A 
ATOM      7  C6  UNL d   1       0.664  -1.422  -0.714  0.00  0.00     0.077 C 
ATOM      8  C7  UNL d   1       0.104   1.022  -0.580  0.00  0.00    -0.001 A 
ENDROOT
TORSDOF 0
ENDMDL
