MODEL 1
REMARK minimizedAffinity -4.76129961
REMARK minimizedRMSD -1
REMARK  0 active torsions:
REMARK  status: ('A' for Active; 'I' for Inactive)
ROOT
ATOM      1  C   UNL d   1      -0.304  -1.774   2.678  0.00  0.00     0.077 C 
ATOM      2  C1  UNL d   1      -0.400  -0.647   1.693  0.00  0.00    -0.074 A 
ATOM      3  C2  UNL d   1       0.337  -0.668   0.504  0.00  0.00    -0.005 A 
ATOM      4  C3  UNL d   1       0.230   0.383  -0.407  0.00  0.00     0.006 A 
ATOM      5  C4  UNL d   1      -0.612   1.463  -0.140  0.00  0.00    -0.005 A 
ATOM      6  C5  UNL d   1      -1.357   1.500   1.044  0.00  0.00    -0.074 A 
ATOM      7  C6  UNL d   1      -2.274   2.649   1.342  0.00  0.00     0.077 C 
ATOM      8  C7  UNL d   1      -1.250   0.438   1.951  0.00  0.00    -0.001 A 
ENDROOT
TORSDOF 0
ENDMDL
