MODEL 1
REMARK minimizedAffinity -5.68009043
REMARK minimizedRMSD -1
REMARK  0 active torsions:
REMARK  status: ('A' for Active; 'I' for Inactive)
ROOT
ATOM      1  C   UNL d   1      -0.010   4.117  -1.141  0.00  0.00     0.077 C 
ATOM      2  C1  UNL d   1      -0.417   2.913  -0.344  0.00  0.00    -0.074 A 
ATOM      3  C2  UNL d   1      -1.345   3.021   0.697  0.00  0.00    -0.005 A 
ATOM      4  C3  UNL d   1      -1.721   1.891   1.423  0.00  0.00     0.006 A 
ATOM      5  C4  UNL d   1      -1.174   0.645   1.117  0.00  0.00    -0.005 A 
ATOM      6  C5  UNL d   1      -0.245   0.518   0.080  0.00  0.00    -0.074 A 
ATOM      7  C6  UNL d   1       0.346  -0.816  -0.268  0.00  0.00     0.077 C 
ATOM      8  C7  UNL d   1       0.123   1.656  -0.650  0.00  0.00    -0.001 A 
ENDROOT
TORSDOF 0
ENDMDL
