MODEL 1
REMARK minimizedAffinity -5.85987568
REMARK minimizedRMSD -1
REMARK  0 active torsions:
REMARK  status: ('A' for Active; 'I' for Inactive)
ROOT
ATOM      1  C   UNL d   1      -0.113   3.450  -1.271  0.00  0.00     0.077 C 
ATOM      2  C1  UNL d   1      -0.753   2.745  -0.113  0.00  0.00    -0.074 A 
ATOM      3  C2  UNL d   1      -1.705   3.388   0.684  0.00  0.00    -0.005 A 
ATOM      4  C3  UNL d   1      -2.300   2.716   1.751  0.00  0.00     0.006 A 
ATOM      5  C4  UNL d   1      -1.949   1.395   2.033  0.00  0.00    -0.005 A 
ATOM      6  C5  UNL d   1      -0.999   0.735   1.246  0.00  0.00    -0.074 A 
ATOM      7  C6  UNL d   1      -0.618  -0.688   1.529  0.00  0.00     0.077 C 
ATOM      8  C7  UNL d   1      -0.412   1.415   0.171  0.00  0.00    -0.001 A 
ENDROOT
TORSDOF 0
ENDMDL
