MODEL 1
REMARK minimizedAffinity -1.76035476
REMARK minimizedRMSD -1
REMARK  0 active torsions:
REMARK  status: ('A' for Active; 'I' for Inactive)
ROOT
ATOM      1  C   UNL d   1      -0.175  -1.278  -1.716  0.00  0.00     0.077 C 
ATOM      2  C1  UNL d   1      -0.354  -0.490  -0.453  0.00  0.00    -0.074 A 
ATOM      3  C2  UNL d   1       0.492  -0.687   0.643  0.00  0.00    -0.005 A 
ATOM      4  C3  UNL d   1       0.320   0.060   1.808  0.00  0.00     0.006 A 
ATOM      5  C4  UNL d   1      -0.699   1.009   1.890  0.00  0.00    -0.005 A 
ATOM      6  C5  UNL d   1      -1.555   1.221   0.804  0.00  0.00    -0.074 A 
ATOM      7  C6  UNL d   1      -2.650   2.244   0.871  0.00  0.00     0.077 C 
ATOM      8  C7  UNL d   1      -1.371   0.471  -0.366  0.00  0.00    -0.001 A 
ENDROOT
TORSDOF 0
ENDMDL
