MODEL 1
REMARK minimizedAffinity -1.2694689
REMARK minimizedRMSD -1
REMARK  0 active torsions:
REMARK  status: ('A' for Active; 'I' for Inactive)
ROOT
ATOM      1  C   UNL d   1      -1.610  -0.023  -1.541  0.00  0.00     0.124 A 
ATOM      2  C1  UNL d   1      -1.423  -0.470  -0.240  0.00  0.00     0.062 A 
ATOM      3  C2  UNL d   1      -0.172  -0.371   0.361  0.00  0.00     0.162 A 
ATOM      4  C3  UNL d   1       0.903   0.179  -0.338  0.00  0.00    -0.034 A 
ATOM      5  C4  UNL d   1       0.707   0.625  -1.646  0.00  0.00     0.162 A 
ATOM      6  C5  UNL d   1      -0.545   0.524  -2.242  0.00  0.00     0.062 A 
ATOM      7  F   UNL d   1      -0.724   0.957  -3.499  0.00  0.00    -0.097 F 
ATOM      8  F1  UNL d   1       1.719   1.159  -2.346  0.00  0.00    -0.096 F 
ATOM      9  I   UNL d   1       2.775   0.329   0.558  0.00  0.00    -0.060 I 
ATOM     10  F2  UNL d   1      -0.020  -0.811   1.619  0.00  0.00    -0.096 F 
ATOM     11  F3  UNL d   1      -2.451  -1.000   0.439  0.00  0.00    -0.097 F 
ATOM     12  F4  UNL d   1      -2.815  -0.120  -2.118  0.00  0.00    -0.092 F 
ENDROOT
TORSDOF 0
ENDMDL
