MODEL 1
REMARK minimizedAffinity -1.8295294
REMARK minimizedRMSD -1
REMARK  0 active torsions:
REMARK  status: ('A' for Active; 'I' for Inactive)
ROOT
ATOM      1  C   UNL d   1       2.230  -0.577   0.640  0.00  0.00     0.124 A 
ATOM      2  C1  UNL d   1       2.001   0.755   0.324  0.00  0.00     0.062 A 
ATOM      3  C2  UNL d   1       0.778   1.146  -0.214  0.00  0.00     0.162 A 
ATOM      4  C3  UNL d   1      -0.225   0.204  -0.439  0.00  0.00    -0.034 A 
ATOM      5  C4  UNL d   1       0.013  -1.134  -0.120  0.00  0.00     0.162 A 
ATOM      6  C5  UNL d   1       1.236  -1.520   0.418  0.00  0.00     0.062 A 
ATOM      7  F   UNL d   1       1.456  -2.807   0.722  0.00  0.00    -0.097 F 
ATOM      8  F1  UNL d   1      -0.930  -2.065  -0.323  0.00  0.00    -0.096 F 
ATOM      9  I   UNL d   1      -2.055   0.786  -1.243  0.00  0.00    -0.060 I 
ATOM     10  F2  UNL d   1       0.584   2.440  -0.509  0.00  0.00    -0.096 F 
ATOM     11  F3  UNL d   1       2.960   1.667   0.537  0.00  0.00    -0.097 F 
ATOM     12  F4  UNL d   1       3.408  -0.951   1.157  0.00  0.00    -0.092 F 
ENDROOT
TORSDOF 0
ENDMDL
