MODEL 1
REMARK minimizedAffinity 3.19238925
REMARK minimizedRMSD -1
REMARK  0 active torsions:
REMARK  status: ('A' for Active; 'I' for Inactive)
ROOT
ATOM      1  C   UNL d   1      -0.845   1.129   0.097  0.00  0.00     0.124 A 
ATOM      2  C1  UNL d   1      -0.617  -0.228   0.274  0.00  0.00     0.062 A 
ATOM      3  C2  UNL d   1       0.673  -0.696   0.509  0.00  0.00     0.162 A 
ATOM      4  C3  UNL d   1       1.745   0.194   0.569  0.00  0.00    -0.034 A 
ATOM      5  C4  UNL d   1       1.508   1.558   0.388  0.00  0.00     0.162 A 
ATOM      6  C5  UNL d   1       0.217   2.021   0.154  0.00  0.00     0.062 A 
ATOM      7  F   UNL d   1      -0.002   3.333  -0.018  0.00  0.00    -0.097 F 
ATOM      8  F1  UNL d   1       2.515   2.442   0.439  0.00  0.00    -0.096 F 
ATOM      9  I   UNL d   1       3.675  -0.502   0.920  0.00  0.00    -0.060 I 
ATOM     10  F2  UNL d   1       0.864  -2.013   0.677  0.00  0.00    -0.096 F 
ATOM     11  F3  UNL d   1      -1.641  -1.092   0.219  0.00  0.00    -0.097 F 
ATOM     12  F4  UNL d   1      -2.087   1.577  -0.130  0.00  0.00    -0.092 F 
ENDROOT
TORSDOF 0
ENDMDL
