MODEL 1
REMARK minimizedAffinity 1.82514024
REMARK minimizedRMSD -1
REMARK  0 active torsions:
REMARK  status: ('A' for Active; 'I' for Inactive)
ROOT
ATOM      1  C   UNL d   1       1.828  -0.495   2.572  0.00  0.00     0.124 A 
ATOM      2  C1  UNL d   1       0.806  -1.395   2.304  0.00  0.00     0.062 A 
ATOM      3  C2  UNL d   1      -0.126  -1.120   1.307  0.00  0.00     0.162 A 
ATOM      4  C3  UNL d   1      -0.039   0.061   0.569  0.00  0.00    -0.034 A 
ATOM      5  C4  UNL d   1       0.992   0.961   0.845  0.00  0.00     0.162 A 
ATOM      6  C5  UNL d   1       1.920   0.682   1.842  0.00  0.00     0.062 A 
ATOM      7  F   UNL d   1       2.907   1.553   2.099  0.00  0.00    -0.097 F 
ATOM      8  F1  UNL d   1       1.105   2.106   0.154  0.00  0.00    -0.096 F 
ATOM      9  I   UNL d   1      -1.430   0.475  -0.923  0.00  0.00    -0.060 I 
ATOM     10  F2  UNL d   1      -1.103  -2.007   1.070  0.00  0.00    -0.096 F 
ATOM     11  F3  UNL d   1       0.714  -2.532   3.009  0.00  0.00    -0.097 F 
ATOM     12  F4  UNL d   1       2.722  -0.761   3.532  0.00  0.00    -0.092 F 
ENDROOT
TORSDOF 0
ENDMDL
