MODEL 1
REMARK minimizedAffinity -1.64810586
REMARK minimizedRMSD -1
REMARK  0 active torsions:
REMARK  status: ('A' for Active; 'I' for Inactive)
ROOT
ATOM      1  C   UNL d   1       1.639  -0.470   1.740  0.00  0.00     0.124 A 
ATOM      2  C1  UNL d   1       0.455  -1.194   1.784  0.00  0.00     0.062 A 
ATOM      3  C2  UNL d   1      -0.640  -0.792   1.025  0.00  0.00     0.162 A 
ATOM      4  C3  UNL d   1      -0.557   0.340   0.214  0.00  0.00    -0.034 A 
ATOM      5  C4  UNL d   1       0.636   1.063   0.176  0.00  0.00     0.162 A 
ATOM      6  C5  UNL d   1       1.728   0.657   0.937  0.00  0.00     0.062 A 
ATOM      7  F   UNL d   1       2.871   1.358   0.893  0.00  0.00    -0.097 F 
ATOM      8  F1  UNL d   1       0.751   2.156  -0.593  0.00  0.00    -0.096 F 
ATOM      9  I   UNL d   1      -2.192   0.944  -0.922  0.00  0.00    -0.060 I 
ATOM     10  F2  UNL d   1      -1.771  -1.511   1.087  0.00  0.00    -0.096 F 
ATOM     11  F3  UNL d   1       0.366  -2.284   2.561  0.00  0.00    -0.097 F 
ATOM     12  F4  UNL d   1       2.691  -0.859   2.473  0.00  0.00    -0.092 F 
ENDROOT
TORSDOF 0
ENDMDL
