MODEL 1
REMARK minimizedAffinity -4.47667837
REMARK minimizedRMSD -1
REMARK  0 active torsions:
REMARK  status: ('A' for Active; 'I' for Inactive)
ROOT
ATOM      1  C   UNL d   1       1.457  -2.114   1.657  0.00  0.00     0.124 A 
ATOM      2  C1  UNL d   1       2.391  -1.130   1.364  0.00  0.00     0.062 A 
ATOM      3  C2  UNL d   1       1.975   0.111   0.890  0.00  0.00     0.162 A 
ATOM      4  C3  UNL d   1       0.618   0.374   0.705  0.00  0.00    -0.034 A 
ATOM      5  C4  UNL d   1      -0.315  -0.621   1.000  0.00  0.00     0.162 A 
ATOM      6  C5  UNL d   1       0.106  -1.859   1.475  0.00  0.00     0.062 A 
ATOM      7  F   UNL d   1      -0.798  -2.809   1.756  0.00  0.00    -0.097 F 
ATOM      8  F1  UNL d   1      -1.628  -0.401   0.834  0.00  0.00    -0.096 F 
ATOM      9  I   UNL d   1      -0.009   2.228  -0.005  0.00  0.00    -0.060 I 
ATOM     10  F2  UNL d   1       2.899   1.043   0.615  0.00  0.00    -0.096 F 
ATOM     11  F3  UNL d   1       3.698  -1.374   1.539  0.00  0.00    -0.097 F 
ATOM     12  F4  UNL d   1       1.861  -3.307   2.113  0.00  0.00    -0.092 F 
ENDROOT
TORSDOF 0
ENDMDL
