MODEL 1
REMARK minimizedAffinity 0.456341445
REMARK minimizedRMSD -1
REMARK  0 active torsions:
REMARK  status: ('A' for Active; 'I' for Inactive)
ROOT
ATOM      1  C   UNL d   1       2.505   0.598   0.744  0.00  0.00     0.124 A 
ATOM      2  C1  UNL d   1       1.446   1.418   0.376  0.00  0.00     0.062 A 
ATOM      3  C2  UNL d   1       0.182   0.875   0.164  0.00  0.00     0.162 A 
ATOM      4  C3  UNL d   1      -0.031  -0.495   0.318  0.00  0.00    -0.034 A 
ATOM      5  C4  UNL d   1       1.039  -1.312   0.687  0.00  0.00     0.162 A 
ATOM      6  C5  UNL d   1       2.300  -0.766   0.899  0.00  0.00     0.062 A 
ATOM      7  F   UNL d   1       3.321  -1.559   1.253  0.00  0.00    -0.097 F 
ATOM      8  F1  UNL d   1       0.869  -2.634   0.845  0.00  0.00    -0.096 F 
ATOM      9  I   UNL d   1      -1.920  -1.309   0.001  0.00  0.00    -0.060 I 
ATOM     10  F2  UNL d   1      -0.822   1.691  -0.191  0.00  0.00    -0.096 F 
ATOM     11  F3  UNL d   1       1.642   2.735   0.225  0.00  0.00    -0.097 F 
ATOM     12  F4  UNL d   1       3.720   1.123   0.947  0.00  0.00    -0.092 F 
ENDROOT
TORSDOF 0
ENDMDL
