MODEL 1
REMARK minimizedAffinity -3.4008112
REMARK minimizedRMSD -1
REMARK  0 active torsions:
REMARK  status: ('A' for Active; 'I' for Inactive)
ROOT
ATOM      1  C   UNL d   1       1.926   0.795   0.685  0.00  0.00     0.124 A 
ATOM      2  C1  UNL d   1       2.131  -0.574   0.586  0.00  0.00     0.062 A 
ATOM      3  C2  UNL d   1       1.044  -1.443   0.544  0.00  0.00     0.162 A 
ATOM      4  C3  UNL d   1      -0.258  -0.945   0.599  0.00  0.00    -0.034 A 
ATOM      5  C4  UNL d   1      -0.456   0.433   0.700  0.00  0.00     0.162 A 
ATOM      6  C5  UNL d   1       0.634   1.298   0.742  0.00  0.00     0.062 A 
ATOM      7  F   UNL d   1       0.434   2.620   0.838  0.00  0.00    -0.097 F 
ATOM      8  F1  UNL d   1      -1.694   0.946   0.756  0.00  0.00    -0.096 F 
ATOM      9  I   UNL d   1      -1.885  -2.241   0.536  0.00  0.00    -0.060 I 
ATOM     10  F2  UNL d   1       1.271  -2.761   0.447  0.00  0.00    -0.096 F 
ATOM     11  F3  UNL d   1       3.378  -1.062   0.532  0.00  0.00    -0.097 F 
ATOM     12  F4  UNL d   1       2.973   1.629   0.727  0.00  0.00    -0.092 F 
ENDROOT
TORSDOF 0
ENDMDL
