MODEL 1
REMARK minimizedAffinity 0.219036952
REMARK minimizedRMSD -1
REMARK  0 active torsions:
REMARK  status: ('A' for Active; 'I' for Inactive)
ROOT
ATOM      1  C   UNL d   1      -1.001  -0.514   2.150  0.00  0.00     0.020 A 
ATOM      2  C1  UNL d   1      -0.116  -1.584   2.276  0.00  0.00     0.020 A 
ATOM      3  C2  UNL d   1       0.754  -1.897   1.231  0.00  0.00     0.034 A 
ATOM      4  C3  UNL d   1       0.742  -1.140   0.053  0.00  0.00     0.017 A 
ATOM      5  C4  UNL d   1      -0.146  -0.066  -0.073  0.00  0.00     0.017 A 
ATOM      6  C5  UNL d   1      -1.016   0.243   0.977  0.00  0.00     0.034 A 
ATOM      7 Cl   UNL d   1      -0.220   0.914  -1.495  0.00  0.00    -0.070 Cl
ATOM      8 Cl1  UNL d   1       1.847  -1.584  -1.199  0.00  0.00    -0.070 Cl
ENDROOT
TORSDOF 0
ENDMDL
