MODEL 1
REMARK minimizedAffinity -4.74099588
REMARK minimizedRMSD -1
REMARK  0 active torsions:
REMARK  status: ('A' for Active; 'I' for Inactive)
ROOT
ATOM      1  C   UNL d   1      -1.235   0.407   0.054  0.00  0.00     0.020 A 
ATOM      2  C1  UNL d   1      -0.664   0.149  -1.191  0.00  0.00     0.020 A 
ATOM      3  C2  UNL d   1       0.636  -0.354  -1.273  0.00  0.00     0.034 A 
ATOM      4  C3  UNL d   1       1.370  -0.602  -0.107  0.00  0.00     0.017 A 
ATOM      5  C4  UNL d   1       0.796  -0.343   1.143  0.00  0.00     0.017 A 
ATOM      6  C5  UNL d   1      -0.506   0.161   1.219  0.00  0.00     0.034 A 
ATOM      7 Cl   UNL d   1       1.638  -0.624   2.626  0.00  0.00    -0.070 Cl
ATOM      8 Cl1  UNL d   1       2.972  -1.225  -0.283  0.00  0.00    -0.070 Cl
ENDROOT
TORSDOF 0
ENDMDL
