MODEL 1
REMARK minimizedAffinity -1.31252193
REMARK minimizedRMSD -1
REMARK  0 active torsions:
REMARK  status: ('A' for Active; 'I' for Inactive)
ROOT
ATOM      1  C   UNL d   1      -1.324   0.285  -0.345  0.00  0.00     0.020 A 
ATOM      2  C1  UNL d   1      -0.734   0.058  -1.588  0.00  0.00     0.020 A 
ATOM      3  C2  UNL d   1       0.588  -0.386  -1.663  0.00  0.00     0.034 A 
ATOM      4  C3  UNL d   1       1.324  -0.604  -0.493  0.00  0.00     0.017 A 
ATOM      5  C4  UNL d   1       0.731  -0.376   0.754  0.00  0.00     0.017 A 
ATOM      6  C5  UNL d   1      -0.593   0.069   0.823  0.00  0.00     0.034 A 
ATOM      7 Cl   UNL d   1       1.577  -0.622   2.241  0.00  0.00    -0.070 Cl
ATOM      8 Cl1  UNL d   1       2.954  -1.154  -0.660  0.00  0.00    -0.070 Cl
ENDROOT
TORSDOF 0
ENDMDL
