MODEL 1
REMARK minimizedAffinity -3.07982326
REMARK minimizedRMSD -1
REMARK  0 active torsions:
REMARK  status: ('A' for Active; 'I' for Inactive)
ROOT
ATOM      1  C   UNL d   1      -0.510  -0.266   2.390  0.00  0.00     0.020 A 
ATOM      2  C1  UNL d   1       0.688  -0.944   2.614  0.00  0.00     0.020 A 
ATOM      3  C2  UNL d   1       1.556  -1.197   1.549  0.00  0.00     0.034 A 
ATOM      4  C3  UNL d   1       1.227  -0.773   0.257  0.00  0.00     0.017 A 
ATOM      5  C4  UNL d   1       0.025  -0.093   0.033  0.00  0.00     0.017 A 
ATOM      6  C5  UNL d   1      -0.841   0.159   1.103  0.00  0.00     0.034 A 
ATOM      7 Cl   UNL d   1      -0.449   0.462  -1.534  0.00  0.00    -0.070 Cl
ATOM      8 Cl1  UNL d   1       2.348  -1.120  -1.012  0.00  0.00    -0.070 Cl
ENDROOT
TORSDOF 0
ENDMDL
