MODEL 1
REMARK minimizedAffinity -3.04010081
REMARK minimizedRMSD -1
REMARK  0 active torsions:
REMARK  status: ('A' for Active; 'I' for Inactive)
ROOT
ATOM      1  C   UNL d   1       0.849  -1.286   2.909  0.00  0.00     0.020 A 
ATOM      2  C1  UNL d   1       1.805  -0.752   2.045  0.00  0.00     0.020 A 
ATOM      3  C2  UNL d   1       1.404  -0.120   0.865  0.00  0.00     0.034 A 
ATOM      4  C3  UNL d   1       0.045  -0.020   0.547  0.00  0.00     0.017 A 
ATOM      5  C4  UNL d   1      -0.913  -0.556   1.415  0.00  0.00     0.017 A 
ATOM      6  C5  UNL d   1      -0.507  -1.188   2.594  0.00  0.00     0.034 A 
ATOM      7 Cl   UNL d   1      -2.609  -0.471   1.089  0.00  0.00    -0.070 Cl
ATOM      8 Cl1  UNL d   1      -0.378   0.775  -0.928  0.00  0.00    -0.070 Cl
ENDROOT
TORSDOF 0
ENDMDL
