MODEL 1
REMARK minimizedAffinity -4.77887344
REMARK minimizedRMSD -1
REMARK  0 active torsions:
REMARK  status: ('A' for Active; 'I' for Inactive)
ROOT
ATOM      1  C   UNL d   1      -0.211  -0.253   2.659  0.00  0.00     0.020 A 
ATOM      2  C1  UNL d   1       0.784  -1.173   2.988  0.00  0.00     0.020 A 
ATOM      3  C2  UNL d   1       1.613  -1.691   1.990  0.00  0.00     0.034 A 
ATOM      4  C3  UNL d   1       1.448  -1.290   0.659  0.00  0.00     0.017 A 
ATOM      5  C4  UNL d   1       0.448  -0.367   0.331  0.00  0.00     0.017 A 
ATOM      6  C5  UNL d   1      -0.379   0.149   1.333  0.00  0.00     0.034 A 
ATOM      7 Cl   UNL d   1       0.184   0.175  -1.289  0.00  0.00    -0.070 Cl
ATOM      8 Cl1  UNL d   1       2.508  -1.971  -0.523  0.00  0.00    -0.070 Cl
ENDROOT
TORSDOF 0
ENDMDL
