MODEL 1
REMARK minimizedAffinity 0.503332078
REMARK minimizedRMSD -1
REMARK  0 active torsions:
REMARK  status: ('A' for Active; 'I' for Inactive)
ROOT
ATOM      1  C   UNL d   1      -3.323   0.991  -2.945  0.00  0.00     0.020 A 
ATOM      2  C1  UNL d   1      -1.936   0.859  -2.989  0.00  0.00     0.020 A 
ATOM      3  C2  UNL d   1      -1.126   1.996  -2.971  0.00  0.00     0.034 A 
ATOM      4  C3  UNL d   1      -1.702   3.270  -2.910  0.00  0.00     0.017 A 
ATOM      5  C4  UNL d   1      -3.095   3.401  -2.867  0.00  0.00     0.017 A 
ATOM      6  C5  UNL d   1      -3.901   2.259  -2.885  0.00  0.00     0.034 A 
ATOM      7 Cl   UNL d   1      -3.879   4.940  -2.790  0.00  0.00    -0.070 Cl
ATOM      8 Cl1  UNL d   1      -0.640   4.633  -2.891  0.00  0.00    -0.070 Cl
ENDROOT
TORSDOF 0
ENDMDL
