MODEL 1
REMARK minimizedAffinity -1.57638836
REMARK minimizedRMSD -1
REMARK  0 active torsions:
REMARK  status: ('A' for Active; 'I' for Inactive)
ROOT
ATOM      1  C   UNL d   1      -1.516   0.725   0.029  0.00  0.00     0.020 A 
ATOM      2  C1  UNL d   1      -0.815   0.690  -1.176  0.00  0.00     0.020 A 
ATOM      3  C2  UNL d   1       0.400   0.006  -1.257  0.00  0.00     0.034 A 
ATOM      4  C3  UNL d   1       0.917  -0.645  -0.131  0.00  0.00     0.017 A 
ATOM      5  C4  UNL d   1       0.212  -0.609   1.078  0.00  0.00     0.017 A 
ATOM      6  C5  UNL d   1      -1.004   0.077   1.153  0.00  0.00     0.034 A 
ATOM      7 Cl   UNL d   1       0.787  -1.389   2.509  0.00  0.00    -0.070 Cl
ATOM      8 Cl1  UNL d   1       2.424  -1.472  -0.303  0.00  0.00    -0.070 Cl
ENDROOT
TORSDOF 0
ENDMDL
