MODEL 1
REMARK minimizedAffinity -1.64981222
REMARK minimizedRMSD -1
REMARK  0 active torsions:
REMARK  status: ('A' for Active; 'I' for Inactive)
ROOT
ATOM      1  C   UNL d   1      -0.362   0.192  -1.258  0.00  0.00     0.020 A 
ATOM      2  C1  UNL d   1      -0.885   0.498  -0.002  0.00  0.00     0.020 A 
ATOM      3  C2  UNL d   1      -0.191   0.131   1.152  0.00  0.00     0.034 A 
ATOM      4  C3  UNL d   1       1.032  -0.544   1.054  0.00  0.00     0.017 A 
ATOM      5  C4  UNL d   1       1.556  -0.850  -0.207  0.00  0.00     0.017 A 
ATOM      6  C5  UNL d   1       0.856  -0.481  -1.360  0.00  0.00     0.034 A 
ATOM      7 Cl   UNL d   1       3.059  -1.681  -0.409  0.00  0.00    -0.070 Cl
ATOM      8 Cl1  UNL d   1       1.837  -0.966   2.523  0.00  0.00    -0.070 Cl
ENDROOT
TORSDOF 0
ENDMDL
