MODEL 1
REMARK minimizedAffinity -2.69731092
REMARK minimizedRMSD -1
REMARK  0 active torsions:
REMARK  status: ('A' for Active; 'I' for Inactive)
ROOT
ATOM      1  C   UNL d   1       0.443   2.709  -1.901  0.00  0.00     0.020 A 
ATOM      2  C1  UNL d   1      -0.922   2.450  -2.014  0.00  0.00     0.020 A 
ATOM      3  C2  UNL d   1      -1.495   1.401  -1.292  0.00  0.00     0.034 A 
ATOM      4  C3  UNL d   1      -0.703   0.607  -0.454  0.00  0.00     0.017 A 
ATOM      5  C4  UNL d   1       0.668   0.869  -0.342  0.00  0.00     0.017 A 
ATOM      6  C5  UNL d   1       1.236   1.920  -1.067  0.00  0.00     0.034 A 
ATOM      7 Cl   UNL d   1       1.710  -0.067   0.671  0.00  0.00    -0.070 Cl
ATOM      8 Cl1  UNL d   1      -1.478  -0.673   0.409  0.00  0.00    -0.070 Cl
ENDROOT
TORSDOF 0
ENDMDL
