MODEL 1
REMARK minimizedAffinity -4.40826988
REMARK minimizedRMSD -1
REMARK  0 active torsions:
REMARK  status: ('A' for Active; 'I' for Inactive)
ROOT
ATOM      1  C   UNL d   1       1.158  -0.567   2.662  0.00  0.00     0.020 A 
ATOM      2  C1  UNL d   1       1.902  -0.027   1.614  0.00  0.00     0.020 A 
ATOM      3  C2  UNL d   1       1.257   0.432   0.464  0.00  0.00     0.034 A 
ATOM      4  C3  UNL d   1      -0.136   0.352   0.359  0.00  0.00     0.017 A 
ATOM      5  C4  UNL d   1      -0.882  -0.190   1.412  0.00  0.00     0.017 A 
ATOM      6  C5  UNL d   1      -0.231  -0.648   2.561  0.00  0.00     0.034 A 
ATOM      7 Cl   UNL d   1      -2.605  -0.321   1.356  0.00  0.00    -0.070 Cl
ATOM      8 Cl1  UNL d   1      -0.868   0.940  -1.092  0.00  0.00    -0.070 Cl
ENDROOT
TORSDOF 0
ENDMDL
