MODEL 1
REMARK minimizedAffinity -3.38161778
REMARK minimizedRMSD -1
REMARK  0 active torsions:
REMARK  status: ('A' for Active; 'I' for Inactive)
ROOT
ATOM      1  C   UNL d   1      -0.684  -0.062   2.391  0.00  0.00     0.020 A 
ATOM      2  C1  UNL d   1       0.458  -0.753   2.793  0.00  0.00     0.020 A 
ATOM      3  C2  UNL d   1       1.423  -1.115   1.851  0.00  0.00     0.034 A 
ATOM      4  C3  UNL d   1       1.249  -0.786   0.502  0.00  0.00     0.017 A 
ATOM      5  C4  UNL d   1       0.102  -0.092   0.099  0.00  0.00     0.017 A 
ATOM      6  C5  UNL d   1      -0.862   0.268   1.046  0.00  0.00     0.034 A 
ATOM      7 Cl   UNL d   1      -0.184   0.349  -1.547  0.00  0.00    -0.070 Cl
ATOM      8 Cl1  UNL d   1       2.483  -1.265  -0.608  0.00  0.00    -0.070 Cl
ENDROOT
TORSDOF 0
ENDMDL
