MODEL 1
REMARK minimizedAffinity -3.7851572
REMARK minimizedRMSD -1
REMARK  0 active torsions:
REMARK  status: ('A' for Active; 'I' for Inactive)
ROOT
ATOM      1  C   UNL d   1      -1.798  -0.233   2.463  0.00  0.00     0.077 C 
ATOM      2  C1  UNL d   1      -0.957  -0.748   1.334  0.00  0.00    -0.074 A 
ATOM      3  C2  UNL d   1      -0.500   0.111   0.328  0.00  0.00    -0.005 A 
ATOM      4  C3  UNL d   1       0.290  -0.381  -0.711  0.00  0.00     0.006 A 
ATOM      5  C4  UNL d   1       0.631  -1.734  -0.755  0.00  0.00    -0.005 A 
ATOM      6  C5  UNL d   1       0.184  -2.606   0.242  0.00  0.00    -0.074 A 
ATOM      7  C6  UNL d   1       0.550  -4.061   0.215  0.00  0.00     0.077 C 
ATOM      8  C7  UNL d   1      -0.603  -2.103   1.287  0.00  0.00    -0.001 A 
ENDROOT
TORSDOF 0
ENDMDL
