MODEL 1
REMARK minimizedAffinity -4.71240902
REMARK minimizedRMSD -1
REMARK  0 active torsions:
REMARK  status: ('A' for Active; 'I' for Inactive)
ROOT
ATOM      1  C   UNL d   1       0.348  -3.391   0.812  0.00  0.00     0.077 C 
ATOM      2  C1  UNL d   1       0.186  -1.983   0.319  0.00  0.00    -0.074 A 
ATOM      3  C2  UNL d   1      -0.087  -0.938   1.208  0.00  0.00    -0.005 A 
ATOM      4  C3  UNL d   1      -0.226   0.367   0.736  0.00  0.00     0.006 A 
ATOM      5  C4  UNL d   1      -0.093   0.641  -0.626  0.00  0.00    -0.005 A 
ATOM      6  C5  UNL d   1       0.181  -0.392  -1.529  0.00  0.00    -0.074 A 
ATOM      7  C6  UNL d   1       0.337  -0.114  -2.994  0.00  0.00     0.077 C 
ATOM      8  C7  UNL d   1       0.326  -1.700  -1.046  0.00  0.00    -0.001 A 
ENDROOT
TORSDOF 0
ENDMDL
