MODEL 1
REMARK minimizedAffinity -4.86532116
REMARK minimizedRMSD -1
REMARK  0 active torsions:
REMARK  status: ('A' for Active; 'I' for Inactive)
ROOT
ATOM      1  C   UNL d   1      -1.131   0.413   2.019  0.00  0.00     0.077 C 
ATOM      2  C1  UNL d   1      -0.512  -0.326   0.871  0.00  0.00    -0.074 A 
ATOM      3  C2  UNL d   1       0.065   0.363  -0.201  0.00  0.00    -0.005 A 
ATOM      4  C3  UNL d   1       0.645  -0.338  -1.258  0.00  0.00     0.006 A 
ATOM      5  C4  UNL d   1       0.654  -1.734  -1.254  0.00  0.00    -0.005 A 
ATOM      6  C5  UNL d   1       0.082  -2.440  -0.191  0.00  0.00    -0.074 A 
ATOM      7  C6  UNL d   1       0.092  -3.940  -0.167  0.00  0.00     0.077 C 
ATOM      8  C7  UNL d   1      -0.493  -1.728   0.871  0.00  0.00    -0.001 A 
ENDROOT
TORSDOF 0
ENDMDL
