MODEL 1
REMARK minimizedAffinity -5.55082893
REMARK minimizedRMSD -1
REMARK  0 active torsions:
REMARK  status: ('A' for Active; 'I' for Inactive)
ROOT
ATOM      1  C   UNL d   1       0.237  -2.304   0.892  0.00  0.00     0.077 C 
ATOM      2  C1  UNL d   1       0.222  -1.065   0.048  0.00  0.00    -0.074 A 
ATOM      3  C2  UNL d   1       0.120  -1.145  -1.344  0.00  0.00    -0.005 A 
ATOM      4  C3  UNL d   1       0.098   0.017  -2.116  0.00  0.00     0.006 A 
ATOM      5  C4  UNL d   1       0.178   1.269  -1.504  0.00  0.00    -0.005 A 
ATOM      6  C5  UNL d   1       0.280   1.368  -0.113  0.00  0.00    -0.074 A 
ATOM      7  C6  UNL d   1       0.357   2.706   0.561  0.00  0.00     0.077 C 
ATOM      8  C7  UNL d   1       0.294   0.197   0.656  0.00  0.00    -0.001 A 
ENDROOT
TORSDOF 0
ENDMDL
