MODEL 1
REMARK minimizedAffinity -4.74581242
REMARK minimizedRMSD -1
REMARK  0 active torsions:
REMARK  status: ('A' for Active; 'I' for Inactive)
ROOT
ATOM      1  C   UNL d   1       0.081   1.348  -0.716  0.00  0.00     0.077 C 
ATOM      2  C1  UNL d   1      -0.438   0.112  -0.044  0.00  0.00    -0.074 A 
ATOM      3  C2  UNL d   1      -1.393   0.194   0.974  0.00  0.00    -0.005 A 
ATOM      4  C3  UNL d   1      -1.874  -0.966   1.582  0.00  0.00     0.006 A 
ATOM      5  C4  UNL d   1      -1.405  -2.217   1.180  0.00  0.00    -0.005 A 
ATOM      6  C5  UNL d   1      -0.450  -2.318   0.163  0.00  0.00    -0.074 A 
ATOM      7  C6  UNL d   1       0.058  -3.656  -0.288  0.00  0.00     0.077 C 
ATOM      8  C7  UNL d   1       0.023  -1.149  -0.448  0.00  0.00    -0.001 A 
ENDROOT
TORSDOF 0
ENDMDL
