MODEL 1
REMARK minimizedAffinity -0.40380004
REMARK minimizedRMSD -1
REMARK  0 active torsions:
REMARK  status: ('A' for Active; 'I' for Inactive)
ROOT
ATOM      1  C   UNL d   1      -0.177   4.618   2.159  0.00  0.00     0.077 C 
ATOM      2  C1  UNL d   1       0.660   3.712   1.307  0.00  0.00    -0.074 A 
ATOM      3  C2  UNL d   1       2.027   3.949   1.132  0.00  0.00    -0.005 A 
ATOM      4  C3  UNL d   1       2.795   3.092   0.344  0.00  0.00     0.006 A 
ATOM      5  C4  UNL d   1       2.205   1.990  -0.276  0.00  0.00    -0.005 A 
ATOM      6  C5  UNL d   1       0.840   1.736  -0.112  0.00  0.00    -0.074 A 
ATOM      7  C6  UNL d   1       0.192   0.551  -0.764  0.00  0.00     0.077 C 
ATOM      8  C7  UNL d   1       0.076   2.598   0.687  0.00  0.00    -0.001 A 
ENDROOT
TORSDOF 0
ENDMDL
