MODEL 1
REMARK minimizedAffinity -3.30020332
REMARK minimizedRMSD -1
REMARK  0 active torsions:
REMARK  status: ('A' for Active; 'I' for Inactive)
ROOT
ATOM      1  C   UNL d   1       0.413  -3.674   0.216  0.00  0.00     0.077 C 
ATOM      2  C1  UNL d   1       0.106  -2.208   0.141  0.00  0.00    -0.074 A 
ATOM      3  C2  UNL d   1       0.748  -1.385  -0.791  0.00  0.00    -0.005 A 
ATOM      4  C3  UNL d   1       0.445  -0.025  -0.855  0.00  0.00     0.006 A 
ATOM      5  C4  UNL d   1      -0.501   0.525   0.010  0.00  0.00    -0.005 A 
ATOM      6  C5  UNL d   1      -1.154  -0.281   0.947  0.00  0.00    -0.074 A 
ATOM      7  C6  UNL d   1      -2.181   0.293   1.878  0.00  0.00     0.077 C 
ATOM      8  C7  UNL d   1      -0.849  -1.648   1.001  0.00  0.00    -0.001 A 
ENDROOT
TORSDOF 0
ENDMDL
