MODEL 1
REMARK minimizedAffinity -5.89169121
REMARK minimizedRMSD -1
REMARK  0 active torsions:
REMARK  status: ('A' for Active; 'I' for Inactive)
ROOT
ATOM      1  C   UNL d   1       0.001   0.757  -1.558  0.00  0.00     0.077 C 
ATOM      2  C1  UNL d   1      -0.343  -0.219  -0.472  0.00  0.00    -0.074 A 
ATOM      3  C2  UNL d   1      -1.062   0.187   0.657  0.00  0.00    -0.005 A 
ATOM      4  C3  UNL d   1      -1.384  -0.734   1.655  0.00  0.00     0.006 A 
ATOM      5  C4  UNL d   1      -0.990  -2.067   1.533  0.00  0.00    -0.005 A 
ATOM      6  C5  UNL d   1      -0.272  -2.491   0.411  0.00  0.00    -0.074 A 
ATOM      7  C6  UNL d   1       0.150  -3.923   0.260  0.00  0.00     0.077 C 
ATOM      8  C7  UNL d   1       0.041  -1.562  -0.590  0.00  0.00    -0.001 A 
ENDROOT
TORSDOF 0
ENDMDL
