MODEL 1
REMARK minimizedAffinity -4.64591694
REMARK minimizedRMSD -1
REMARK  0 active torsions:
REMARK  status: ('A' for Active; 'I' for Inactive)
ROOT
ATOM      1  C   UNL d   1       0.169  -3.240   0.557  0.00  0.00     0.077 C 
ATOM      2  C1  UNL d   1      -0.359  -1.837   0.604  0.00  0.00    -0.074 A 
ATOM      3  C2  UNL d   1      -1.384  -1.483   1.487  0.00  0.00    -0.005 A 
ATOM      4  C3  UNL d   1      -1.859  -0.172   1.525  0.00  0.00     0.006 A 
ATOM      5  C4  UNL d   1      -1.314   0.797   0.682  0.00  0.00    -0.005 A 
ATOM      6  C5  UNL d   1      -0.287   0.462  -0.207  0.00  0.00    -0.074 A 
ATOM      7  C6  UNL d   1       0.317   1.494  -1.113  0.00  0.00     0.077 C 
ATOM      8  C7  UNL d   1       0.189  -0.856  -0.235  0.00  0.00    -0.001 A 
ENDROOT
TORSDOF 0
ENDMDL
