MODEL 1
REMARK minimizedAffinity -6.2740674
REMARK minimizedRMSD -1
REMARK  0 active torsions:
REMARK  status: ('A' for Active; 'I' for Inactive)
ROOT
ATOM      1  C   UNL d   1      -0.051   1.391  -0.117  0.00  0.00     0.077 C 
ATOM      2  C1  UNL d   1      -0.187  -0.097   0.012  0.00  0.00    -0.074 A 
ATOM      3  C2  UNL d   1      -0.693  -0.674   1.181  0.00  0.00    -0.005 A 
ATOM      4  C3  UNL d   1      -0.822  -2.059   1.284  0.00  0.00     0.006 A 
ATOM      5  C4  UNL d   1      -0.446  -2.880   0.220  0.00  0.00    -0.005 A 
ATOM      6  C5  UNL d   1       0.061  -2.322  -0.957  0.00  0.00    -0.074 A 
ATOM      7  C6  UNL d   1       0.461  -3.189  -2.114  0.00  0.00     0.077 C 
ATOM      8  C7  UNL d   1       0.181  -0.928  -1.055  0.00  0.00    -0.001 A 
ENDROOT
TORSDOF 0
ENDMDL
