MODEL 1
REMARK minimizedAffinity -3.30728269
REMARK minimizedRMSD -1
REMARK  0 active torsions:
REMARK  status: ('A' for Active; 'I' for Inactive)
ROOT
ATOM      1  C   UNL d   1      -1.024  -1.384   1.292  0.00  0.00     0.077 C 
ATOM      2  C1  UNL d   1      -0.476  -0.353   0.350  0.00  0.00    -0.074 A 
ATOM      3  C2  UNL d   1      -0.772  -0.399  -1.017  0.00  0.00    -0.005 A 
ATOM      4  C3  UNL d   1      -0.263   0.572  -1.879  0.00  0.00     0.006 A 
ATOM      5  C4  UNL d   1       0.544   1.597  -1.385  0.00  0.00    -0.005 A 
ATOM      6  C5  UNL d   1       0.850   1.660  -0.022  0.00  0.00    -0.074 A 
ATOM      7  C6  UNL d   1       1.709   2.761   0.527  0.00  0.00     0.077 C 
ATOM      8  C7  UNL d   1       0.330   0.685   0.839  0.00  0.00    -0.001 A 
ENDROOT
TORSDOF 0
ENDMDL
