MODEL 1
REMARK minimizedAffinity -4.21399736
REMARK minimizedRMSD -1
REMARK  0 active torsions:
REMARK  status: ('A' for Active; 'I' for Inactive)
ROOT
ATOM      1  C   UNL d   1       1.057   1.377  -0.993  0.00  0.00     0.077 C 
ATOM      2  C1  UNL d   1       0.362   0.302  -0.212  0.00  0.00    -0.074 A 
ATOM      3  C2  UNL d   1      -0.882   0.536   0.382  0.00  0.00    -0.005 A 
ATOM      4  C3  UNL d   1      -1.522  -0.476   1.098  0.00  0.00     0.006 A 
ATOM      5  C4  UNL d   1      -0.924  -1.731   1.226  0.00  0.00    -0.005 A 
ATOM      6  C5  UNL d   1       0.319  -1.984   0.638  0.00  0.00    -0.074 A 
ATOM      7  C6  UNL d   1       0.970  -3.330   0.758  0.00  0.00     0.077 C 
ATOM      8  C7  UNL d   1       0.952  -0.964  -0.085  0.00  0.00    -0.001 A 
ENDROOT
TORSDOF 0
ENDMDL
