MODEL 1
REMARK minimizedAffinity -4.6911521
REMARK minimizedRMSD -1
REMARK  0 active torsions:
REMARK  status: ('A' for Active; 'I' for Inactive)
ROOT
ATOM      1  C   UNL d   1       0.399  -2.812   0.669  0.00  0.00     0.077 C 
ATOM      2  C1  UNL d   1       0.358  -1.578  -0.183  0.00  0.00    -0.074 A 
ATOM      3  C2  UNL d   1       0.392  -1.666  -1.578  0.00  0.00    -0.005 A 
ATOM      4  C3  UNL d   1       0.343  -0.511  -2.358  0.00  0.00     0.006 A 
ATOM      5  C4  UNL d   1       0.261   0.743  -1.751  0.00  0.00    -0.005 A 
ATOM      6  C5  UNL d   1       0.226   0.851  -0.357  0.00  0.00    -0.074 A 
ATOM      7  C6  UNL d   1       0.127   2.190   0.311  0.00  0.00     0.077 C 
ATOM      8  C7  UNL d   1       0.268  -0.315   0.419  0.00  0.00    -0.001 A 
ENDROOT
TORSDOF 0
ENDMDL
