MODEL 1
REMARK minimizedAffinity -3.08060455
REMARK minimizedRMSD -1
REMARK  0 active torsions:
REMARK  status: ('A' for Active; 'I' for Inactive)
ROOT
ATOM      1  C   UNL d   1       0.418  -3.144  -0.099  0.00  0.00     0.077 C 
ATOM      2  C1  UNL d   1       0.021  -1.834   0.514  0.00  0.00    -0.074 A 
ATOM      3  C2  UNL d   1      -1.072  -1.749   1.383  0.00  0.00    -0.005 A 
ATOM      4  C3  UNL d   1      -1.423  -0.526   1.953  0.00  0.00     0.006 A 
ATOM      5  C4  UNL d   1      -0.687   0.623   1.661  0.00  0.00    -0.005 A 
ATOM      6  C5  UNL d   1       0.410   0.557   0.796  0.00  0.00    -0.074 A 
ATOM      7  C6  UNL d   1       1.218   1.780   0.480  0.00  0.00     0.077 C 
ATOM      8  C7  UNL d   1       0.761  -0.677   0.232  0.00  0.00    -0.001 A 
ENDROOT
TORSDOF 0
ENDMDL
