MODEL 1
REMARK minimizedAffinity 1.58333194
REMARK minimizedRMSD -1
REMARK  0 active torsions:
REMARK  status: ('A' for Active; 'I' for Inactive)
ROOT
ATOM      1  O1  BZF d   1       2.123  -1.763  -3.839  0.00  0.00    -0.204 OA
ATOM      2  C2  BZF d   1       2.248  -2.745  -2.875  0.00  0.00     0.174 A 
ATOM      3  C3  BZF d   1       3.547  -3.010  -2.628  0.00  0.00    -0.012 A 
ATOM      4  C3A BZF d   1       4.280  -2.075  -3.425  0.00  0.00    -0.107 A 
ATOM      5  C4  BZF d   1       5.612  -1.830  -3.598  0.00  0.00     0.055 A 
ATOM      6  C5  BZF d   1       6.000  -0.895  -4.505  0.00  0.00    -0.016 A 
ATOM      7  C6  BZF d   1       5.084  -0.191  -5.258  0.00  0.00     0.022 A 
ATOM      8  C7  BZF d   1       3.751  -0.395  -5.118  0.00  0.00     0.029 A 
ATOM      9  C7A BZF d   1       3.355  -1.316  -4.179  0.00  0.00     0.058 A 
ENDROOT
TORSDOF 0
ENDMDL
