MODEL 1
REMARK minimizedAffinity 2.99409056
REMARK minimizedRMSD -1
REMARK  0 active torsions:
REMARK  status: ('A' for Active; 'I' for Inactive)
ROOT
ATOM      1  O1  BZF d   1       2.602  -1.077  -3.496  0.00  0.00    -0.204 OA
ATOM      2  C2  BZF d   1       3.111  -1.993  -2.596  0.00  0.00     0.174 A 
ATOM      3  C3  BZF d   1       4.450  -2.098  -2.726  0.00  0.00    -0.012 A 
ATOM      4  C3A BZF d   1       4.810  -1.122  -3.709  0.00  0.00    -0.107 A 
ATOM      5  C4  BZF d   1       6.000  -0.736  -4.256  0.00  0.00     0.055 A 
ATOM      6  C5  BZF d   1       6.000   0.194  -5.246  0.00  0.00    -0.016 A 
ATOM      7  C6  BZF d   1       4.830   0.755  -5.716  0.00  0.00     0.022 A 
ATOM      8  C7  BZF d   1       3.626   0.408  -5.201  0.00  0.00     0.029 A 
ATOM      9  C7A BZF d   1       3.625  -0.508  -4.177  0.00  0.00     0.058 A 
ENDROOT
TORSDOF 0
ENDMDL
