MODEL 1
REMARK minimizedAffinity 9.11444187
REMARK minimizedRMSD -1
REMARK  0 active torsions:
REMARK  status: ('A' for Active; 'I' for Inactive)
ROOT
ATOM      1  O1  BZF d   1       3.056  -0.296  -3.225  0.00  0.00    -0.204 OA
ATOM      2  C2  BZF d   1       3.721  -1.337  -2.605  0.00  0.00     0.174 A 
ATOM      3  C3  BZF d   1       4.907  -1.570  -3.202  0.00  0.00    -0.012 A 
ATOM      4  C3A BZF d   1       5.031  -0.554  -4.203  0.00  0.00    -0.107 A 
ATOM      5  C4  BZF d   1       6.000  -0.249  -5.115  0.00  0.00     0.055 A 
ATOM      6  C5  BZF d   1       5.781   0.761  -5.998  0.00  0.00    -0.016 A 
ATOM      7  C6  BZF d   1       4.604   1.482  -5.999  0.00  0.00     0.022 A 
ATOM      8  C7  BZF d   1       3.616   1.218  -5.110  0.00  0.00     0.029 A 
ATOM      9  C7A BZF d   1       3.848   0.220  -4.196  0.00  0.00     0.058 A 
ENDROOT
TORSDOF 0
ENDMDL
