MODEL 1
REMARK minimizedAffinity 0.998185515
REMARK minimizedRMSD -1
REMARK  0 active torsions:
REMARK  status: ('A' for Active; 'I' for Inactive)
ROOT
ATOM      1  O1  BZF d   1      -5.813  -5.280  -2.125  0.00  0.00    -0.204 OA
ATOM      2  C2  BZF d   1      -5.975  -4.055  -1.507  0.00  0.00     0.174 A 
ATOM      3  C3  BZF d   1      -5.988  -3.059  -2.416  0.00  0.00    -0.012 A 
ATOM      4  C3A BZF d   1      -5.916  -3.709  -3.688  0.00  0.00    -0.107 A 
ATOM      5  C4  BZF d   1      -5.908  -3.254  -4.976  0.00  0.00     0.055 A 
ATOM      6  C5  BZF d   1      -5.755  -4.146  -5.990  0.00  0.00    -0.016 A 
ATOM      7  C6  BZF d   1      -5.603  -5.496  -5.753  0.00  0.00     0.022 A 
ATOM      8  C7  BZF d   1      -5.610  -5.995  -4.493  0.00  0.00     0.029 A 
ATOM      9  C7A BZF d   1      -5.798  -5.101  -3.468  0.00  0.00     0.058 A 
ENDROOT
TORSDOF 0
ENDMDL
