MODEL 1
REMARK minimizedAffinity 6.29839516
REMARK minimizedRMSD -1
REMARK  0 active torsions:
REMARK  status: ('A' for Active; 'I' for Inactive)
ROOT
ATOM      1  O1  BZF d   1      -5.937  -5.999  -3.712  0.00  0.00    -0.204 OA
ATOM      2  C2  BZF d   1      -5.668  -5.934  -2.358  0.00  0.00     0.174 A 
ATOM      3  C3  BZF d   1      -5.342  -4.677  -1.996  0.00  0.00    -0.012 A 
ATOM      4  C3A BZF d   1      -5.500  -3.890  -3.180  0.00  0.00    -0.107 A 
ATOM      5  C4  BZF d   1      -5.339  -2.562  -3.453  0.00  0.00     0.055 A 
ATOM      6  C5  BZF d   1      -5.503  -2.126  -4.730  0.00  0.00    -0.016 A 
ATOM      7  C6  BZF d   1      -5.822  -2.990  -5.757  0.00  0.00     0.022 A 
ATOM      8  C7  BZF d   1      -5.997  -4.315  -5.534  0.00  0.00     0.029 A 
ATOM      9  C7A BZF d   1      -5.864  -4.754  -4.239  0.00  0.00     0.058 A 
ENDROOT
TORSDOF 0
ENDMDL
