MODEL 1
REMARK minimizedAffinity -2.2711215
REMARK minimizedRMSD -1
REMARK  0 active torsions:
REMARK  status: ('A' for Active; 'I' for Inactive)
ROOT
ATOM      1  O1  BZF d   1      -5.997  -5.314  -2.429  0.00  0.00    -0.204 OA
ATOM      2  C2  BZF d   1      -5.019  -5.445  -1.462  0.00  0.00     0.174 A 
ATOM      3  C3  BZF d   1      -3.836  -5.775  -2.019  0.00  0.00    -0.012 A 
ATOM      4  C3A BZF d   1      -4.070  -5.765  -3.431  0.00  0.00    -0.107 A 
ATOM      5  C4  BZF d   1      -3.273  -5.997  -4.516  0.00  0.00     0.055 A 
ATOM      6  C5  BZF d   1      -3.826  -5.979  -5.757  0.00  0.00    -0.016 A 
ATOM      7  C6  BZF d   1      -5.171  -5.738  -5.949  0.00  0.00     0.022 A 
ATOM      8  C7  BZF d   1      -6.000  -5.497  -4.904  0.00  0.00     0.029 A 
ATOM      9  C7A BZF d   1      -5.437  -5.482  -3.651  0.00  0.00     0.058 A 
ENDROOT
TORSDOF 0
ENDMDL
