MODEL 1
REMARK minimizedAffinity -1.18924952
REMARK minimizedRMSD -1
REMARK  0 active torsions:
REMARK  status: ('A' for Active; 'I' for Inactive)
ROOT
ATOM      1  O1  BZF d   1      -5.969  -3.478  -5.101  0.00  0.00    -0.204 OA
ATOM      2  C2  BZF d   1      -5.999  -4.527  -6.000  0.00  0.00     0.174 A 
ATOM      3  C3  BZF d   1      -5.496  -5.648  -5.445  0.00  0.00    -0.012 A 
ATOM      4  C3A BZF d   1      -5.213  -5.301  -4.086  0.00  0.00    -0.107 A 
ATOM      5  C4  BZF d   1      -4.711  -5.998  -3.024  0.00  0.00     0.055 A 
ATOM      6  C5  BZF d   1      -4.488  -5.347  -1.853  0.00  0.00    -0.016 A 
ATOM      7  C6  BZF d   1      -4.751  -4.000  -1.709  0.00  0.00     0.022 A 
ATOM      8  C7  BZF d   1      -5.255  -3.268  -2.733  0.00  0.00     0.029 A 
ATOM      9  C7A BZF d   1      -5.512  -3.931  -3.908  0.00  0.00     0.058 A 
ENDROOT
TORSDOF 0
ENDMDL
