MODEL 1
REMARK minimizedAffinity -0.451716244
REMARK minimizedRMSD -1
REMARK  0 active torsions:
REMARK  status: ('A' for Active; 'I' for Inactive)
ROOT
ATOM      1  O1  BZF d   1      -4.855  -3.725  -2.380  0.00  0.00    -0.204 OA
ATOM      2  C2  BZF d   1      -4.460  -4.880  -1.732  0.00  0.00     0.174 A 
ATOM      3  C3  BZF d   1      -4.614  -5.954  -2.533  0.00  0.00    -0.012 A 
ATOM      4  C3A BZF d   1      -5.051  -5.428  -3.789  0.00  0.00    -0.107 A 
ATOM      5  C4  BZF d   1      -5.359  -6.000  -4.991  0.00  0.00     0.055 A 
ATOM      6  C5  BZF d   1      -5.825  -5.213  -5.996  0.00  0.00    -0.016 A 
ATOM      7  C6  BZF d   1      -6.000  -3.855  -5.834  0.00  0.00     0.022 A 
ATOM      8  C7  BZF d   1      -5.703  -3.242  -4.662  0.00  0.00     0.029 A 
ATOM      9  C7A BZF d   1      -5.201  -4.028  -3.655  0.00  0.00     0.058 A 
ENDROOT
TORSDOF 0
ENDMDL
