MODEL 1
REMARK minimizedAffinity 3.15329361
REMARK minimizedRMSD -1
REMARK  0 active torsions:
REMARK  status: ('A' for Active; 'I' for Inactive)
ROOT
ATOM      1  O1  BZF d   1      -5.197  -2.562  -4.755  0.00  0.00    -0.204 OA
ATOM      2  C2  BZF d   1      -5.606  -3.002  -6.000  0.00  0.00     0.174 A 
ATOM      3  C3  BZF d   1      -5.830  -4.332  -5.987  0.00  0.00    -0.012 A 
ATOM      4  C3A BZF d   1      -5.633  -4.734  -4.628  0.00  0.00    -0.107 A 
ATOM      5  C4  BZF d   1      -5.726  -5.932  -3.980  0.00  0.00     0.055 A 
ATOM      6  C5  BZF d   1      -5.398  -5.999  -2.663  0.00  0.00    -0.016 A 
ATOM      7  C6  BZF d   1      -4.969  -4.889  -1.965  0.00  0.00     0.022 A 
ATOM      8  C7  BZF d   1      -4.865  -3.677  -2.563  0.00  0.00     0.029 A 
ATOM      9  C7A BZF d   1      -5.227  -3.600  -3.886  0.00  0.00     0.058 A 
ENDROOT
TORSDOF 0
ENDMDL
