MODEL 1
REMARK minimizedAffinity -2.43485808
REMARK minimizedRMSD -1
REMARK  0 active torsions:
REMARK  status: ('A' for Active; 'I' for Inactive)
ROOT
ATOM      1  O1  BZF d   1      -5.995  -3.839  -2.421  0.00  0.00    -0.204 OA
ATOM      2  C2  BZF d   1      -5.687  -4.909  -1.604  0.00  0.00     0.174 A 
ATOM      3  C3  BZF d   1      -5.199  -5.938  -2.326  0.00  0.00    -0.012 A 
ATOM      4  C3A BZF d   1      -5.114  -5.449  -3.668  0.00  0.00    -0.107 A 
ATOM      5  C4  BZF d   1      -4.689  -6.000  -4.843  0.00  0.00     0.055 A 
ATOM      6  C5  BZF d   1      -4.805  -5.280  -5.990  0.00  0.00    -0.016 A 
ATOM      7  C6  BZF d   1      -5.347  -4.012  -6.000  0.00  0.00     0.022 A 
ATOM      8  C7  BZF d   1      -5.778  -3.421  -4.858  0.00  0.00     0.029 A 
ATOM      9  C7A BZF d   1      -5.631  -4.133  -3.693  0.00  0.00     0.058 A 
ENDROOT
TORSDOF 0
ENDMDL
