MODEL 1
REMARK minimizedAffinity -5.03316784
REMARK minimizedRMSD -1
REMARK  1 active torsions:
REMARK  status: ('A' for Active; 'I' for Inactive)
REMARK    1  A    between atoms: C1_2  and  C2_3 
ROOT
ATOM      1  C2  UNL d   1       0.043  -0.075  -0.886  0.00  0.00    -0.073 A 
ATOM      2  C3  UNL d   1       0.991  -0.828  -1.589  0.00  0.00    -0.002 A 
ATOM      3  C4  UNL d   1       2.099  -1.360  -0.928  0.00  0.00     0.004 A 
ATOM      4  C5  UNL d   1       2.267  -1.151   0.441  0.00  0.00    -0.004 A 
ATOM      5  C6  UNL d   1       1.325  -0.411   1.163  0.00  0.00    -0.075 A 
ATOM      6  C7  UNL d   1       1.492  -0.175   2.635  0.00  0.00     0.076 C 
ATOM      7  C8  UNL d   1       0.216   0.122   0.491  0.00  0.00     0.001 A 
ENDROOT
BRANCH   1   8
ATOM      8  C1  UNL d   1      -1.158   0.496  -1.594  0.00  0.00     0.053 C 
ATOM      9  C   UNL d   1      -0.873   1.868  -2.185  0.00  0.00     0.018 C 
ENDBRANCH   1   8
TORSDOF 1
ENDMDL
