MODEL 1
REMARK minimizedAffinity 0.551244378
REMARK minimizedRMSD -1
REMARK  1 active torsions:
REMARK  status: ('A' for Active; 'I' for Inactive)
REMARK    1  A    between atoms: C1_2  and  C2_3 
ROOT
ATOM      1  C2  UNL d   1       0.025   2.500  -1.362  0.00  0.00    -0.073 A 
ATOM      2  C3  UNL d   1       0.943   3.104  -2.228  0.00  0.00    -0.002 A 
ATOM      3  C4  UNL d   1       0.545   3.522  -3.498  0.00  0.00     0.004 A 
ATOM      4  C5  UNL d   1      -0.775   3.346  -3.913  0.00  0.00    -0.004 A 
ATOM      5  C6  UNL d   1      -1.711   2.755  -3.058  0.00  0.00    -0.075 A 
ATOM      6  C7  UNL d   1      -3.134   2.556  -3.490  0.00  0.00     0.076 C 
ATOM      7  C8  UNL d   1      -1.302   2.336  -1.785  0.00  0.00     0.001 A 
ENDROOT
BRANCH   1   8
ATOM      8  C1  UNL d   1       0.449   2.053   0.013  0.00  0.00     0.053 C 
ATOM      9  C   UNL d   1       0.478   0.538   0.137  0.00  0.00     0.018 C 
ENDBRANCH   1   8
TORSDOF 1
ENDMDL
