MODEL 1
REMARK minimizedAffinity -3.67673111
REMARK minimizedRMSD -1
REMARK  1 active torsions:
REMARK  status: ('A' for Active; 'I' for Inactive)
REMARK    1  A    between atoms: C1_2  and  C2_3 
ROOT
ATOM      1  C2  UNL d   1      -0.150   1.377  -1.959  0.00  0.00    -0.073 A 
ATOM      2  C3  UNL d   1      -0.477   2.680  -1.566  0.00  0.00    -0.002 A 
ATOM      3  C4  UNL d   1      -0.331   3.743  -2.459  0.00  0.00     0.004 A 
ATOM      4  C5  UNL d   1       0.136   3.514  -3.753  0.00  0.00    -0.004 A 
ATOM      5  C6  UNL d   1       0.457   2.217  -4.168  0.00  0.00    -0.075 A 
ATOM      6  C7  UNL d   1       0.963   1.955  -5.556  0.00  0.00     0.076 C 
ATOM      7  C8  UNL d   1       0.311   1.155  -3.265  0.00  0.00     0.001 A 
ENDROOT
BRANCH   1   8
ATOM      8  C1  UNL d   1      -0.311   0.225  -1.001  0.00  0.00     0.053 C 
ATOM      9  C   UNL d   1       0.841   0.139  -0.013  0.00  0.00     0.018 C 
ENDBRANCH   1   8
TORSDOF 1
ENDMDL
