MODEL 1
REMARK minimizedAffinity 4.29088163
REMARK minimizedRMSD -1
REMARK  0 active torsions:
REMARK  status: ('A' for Active; 'I' for Inactive)
ROOT
ATOM      1  O1  BZF d   1      -2.921   0.996   2.070  0.00  0.00    -0.204 OA
ATOM      2  C2  BZF d   1      -3.766   2.050   1.783  0.00  0.00     0.174 A 
ATOM      3  C3  BZF d   1      -3.881   2.874   2.845  0.00  0.00    -0.012 A 
ATOM      4  C3A BZF d   1      -2.983   2.348   3.828  0.00  0.00    -0.107 A 
ATOM      5  C4  BZF d   1      -2.640   2.739   5.090  0.00  0.00     0.055 A 
ATOM      6  C5  BZF d   1      -1.787   1.965   5.812  0.00  0.00    -0.016 A 
ATOM      7  C6  BZF d   1      -1.263   0.794   5.305  0.00  0.00     0.022 A 
ATOM      8  C7  BZF d   1      -1.570   0.369   4.055  0.00  0.00     0.029 A 
ATOM      9  C7A BZF d   1      -2.406   1.165   3.311  0.00  0.00     0.058 A 
ENDROOT
TORSDOF 0
ENDMDL
