MODEL 1
REMARK minimizedAffinity 0.623943865
REMARK minimizedRMSD -1
REMARK  0 active torsions:
REMARK  status: ('A' for Active; 'I' for Inactive)
ROOT
ATOM      1  O1  BZF d   1       0.804   3.375  -0.509  0.00  0.00    -0.204 OA
ATOM      2  C2  BZF d   1       0.676   3.670  -1.853  0.00  0.00     0.174 A 
ATOM      3  C3  BZF d   1       0.779   2.552  -2.600  0.00  0.00    -0.012 A 
ATOM      4  C3A BZF d   1       0.892   1.480  -1.660  0.00  0.00    -0.107 A 
ATOM      5  C4  BZF d   1       1.008   0.125  -1.790  0.00  0.00     0.055 A 
ATOM      6  C5  BZF d   1       1.172  -0.634  -0.675  0.00  0.00    -0.016 A 
ATOM      7  C6  BZF d   1       1.229  -0.072   0.584  0.00  0.00     0.022 A 
ATOM      8  C7  BZF d   1       1.113   1.266   0.764  0.00  0.00     0.029 A 
ATOM      9  C7A BZF d   1       0.914   2.033  -0.359  0.00  0.00     0.058 A 
ENDROOT
TORSDOF 0
ENDMDL
