MODEL 1
REMARK minimizedAffinity -2.67841339
REMARK minimizedRMSD -1
REMARK  0 active torsions:
REMARK  status: ('A' for Active; 'I' for Inactive)
ROOT
ATOM      1  O1  BZF d   1       0.980   0.041   0.861  0.00  0.00    -0.204 OA
ATOM      2  C2  BZF d   1       1.008  -0.859  -0.186  0.00  0.00     0.174 A 
ATOM      3  C3  BZF d   1       0.958  -0.215  -1.371  0.00  0.00    -0.012 A 
ATOM      4  C3A BZF d   1       0.988   1.177  -1.044  0.00  0.00    -0.107 A 
ATOM      5  C4  BZF d   1       0.979   2.318  -1.795  0.00  0.00     0.055 A 
ATOM      6  C5  BZF d   1       0.942   3.522  -1.166  0.00  0.00    -0.016 A 
ATOM      7  C6  BZF d   1       0.908   3.622   0.210  0.00  0.00     0.022 A 
ATOM      8  C7  BZF d   1       0.921   2.519   0.996  0.00  0.00     0.029 A 
ATOM      9  C7A BZF d   1       0.991   1.301   0.364  0.00  0.00     0.058 A 
ENDROOT
TORSDOF 0
ENDMDL
