MODEL 1
REMARK minimizedAffinity 7.8326993
REMARK minimizedRMSD -1
REMARK  0 active torsions:
REMARK  status: ('A' for Active; 'I' for Inactive)
ROOT
ATOM      1  O1  BZF d   1      -4.078   1.489   5.162  0.00  0.00    -0.204 OA
ATOM      2  C2  BZF d   1      -2.979   1.471   5.998  0.00  0.00     0.174 A 
ATOM      3  C3  BZF d   1      -1.848   1.721   5.307  0.00  0.00    -0.012 A 
ATOM      4  C3A BZF d   1      -2.277   1.997   3.971  0.00  0.00    -0.107 A 
ATOM      5  C4  BZF d   1      -1.617   2.331   2.823  0.00  0.00     0.055 A 
ATOM      6  C5  BZF d   1      -2.322   2.461   1.669  0.00  0.00    -0.016 A 
ATOM      7  C6  BZF d   1      -3.686   2.260   1.626  0.00  0.00     0.022 A 
ATOM      8  C7  BZF d   1      -4.386   1.933   2.739  0.00  0.00     0.029 A 
ATOM      9  C7A BZF d   1      -3.680   1.833   3.914  0.00  0.00     0.058 A 
ENDROOT
TORSDOF 0
ENDMDL
