MODEL 1
REMARK minimizedAffinity 3.55237675
REMARK minimizedRMSD -1
REMARK  0 active torsions:
REMARK  status: ('A' for Active; 'I' for Inactive)
ROOT
ATOM      1  O1  BZF d   1       1.247   2.901  -0.418  0.00  0.00    -0.204 OA
ATOM      2  C2  BZF d   1       1.149   3.095  -1.783  0.00  0.00     0.174 A 
ATOM      3  C3  BZF d   1       0.938   1.924  -2.418  0.00  0.00    -0.012 A 
ATOM      4  C3A BZF d   1       0.810   0.949  -1.379  0.00  0.00    -0.107 A 
ATOM      5  C4  BZF d   1       0.575  -0.396  -1.377  0.00  0.00     0.055 A 
ATOM      6  C5  BZF d   1       0.583  -1.066  -0.195  0.00  0.00    -0.016 A 
ATOM      7  C6  BZF d   1       0.826  -0.425   1.002  0.00  0.00     0.022 A 
ATOM      8  C7  BZF d   1       1.059   0.910   1.051  0.00  0.00     0.029 A 
ATOM      9  C7A BZF d   1       1.020   1.595  -0.138  0.00  0.00     0.058 A 
ENDROOT
TORSDOF 0
ENDMDL
