MODEL 1
REMARK minimizedAffinity -5.01063395
REMARK minimizedRMSD -1
REMARK  0 active torsions:
REMARK  status: ('A' for Active; 'I' for Inactive)
ROOT
ATOM      1  O1  BZF d   1       1.882   2.015   1.091  0.00  0.00    -0.204 OA
ATOM      2  C2  BZF d   1       1.452   3.320   0.949  0.00  0.00     0.174 A 
ATOM      3  C3  BZF d   1       1.075   3.564  -0.323  0.00  0.00    -0.012 A 
ATOM      4  C3A BZF d   1       1.195   2.308  -0.999  0.00  0.00    -0.107 A 
ATOM      5  C4  BZF d   1       0.951   1.904  -2.280  0.00  0.00     0.055 A 
ATOM      6  C5  BZF d   1       1.241   0.625  -2.636  0.00  0.00    -0.016 A 
ATOM      7  C6  BZF d   1       1.781  -0.273  -1.739  0.00  0.00     0.022 A 
ATOM      8  C7  BZF d   1       2.037   0.080  -0.456  0.00  0.00     0.029 A 
ATOM      9  C7A BZF d   1       1.714   1.362  -0.084  0.00  0.00     0.058 A 
ENDROOT
TORSDOF 0
ENDMDL
