MODEL 1
REMARK minimizedAffinity -0.0897793397
REMARK minimizedRMSD -1
REMARK  0 active torsions:
REMARK  status: ('A' for Active; 'I' for Inactive)
ROOT
ATOM      1  O1  BZF d   1       0.674   2.214  -2.506  0.00  0.00    -0.204 OA
ATOM      2  C2  BZF d   1       0.700   3.152  -1.491  0.00  0.00     0.174 A 
ATOM      3  C3  BZF d   1       0.976   2.568  -0.308  0.00  0.00    -0.012 A 
ATOM      4  C3A BZF d   1       1.224   1.192  -0.615  0.00  0.00    -0.107 A 
ATOM      5  C4  BZF d   1       1.564   0.108   0.142  0.00  0.00     0.055 A 
ATOM      6  C5  BZF d   1       1.659  -1.110  -0.454  0.00  0.00    -0.016 A 
ATOM      7  C6  BZF d   1       1.416  -1.280  -1.801  0.00  0.00     0.022 A 
ATOM      8  C7  BZF d   1       1.080  -0.233  -2.594  0.00  0.00     0.029 A 
ATOM      9  C7A BZF d   1       1.015   1.004  -2.001  0.00  0.00     0.058 A 
ENDROOT
TORSDOF 0
ENDMDL
