MODEL 1
REMARK minimizedAffinity 1.13432097
REMARK minimizedRMSD -1
REMARK  0 active torsions:
REMARK  status: ('A' for Active; 'I' for Inactive)
ROOT
ATOM      1  O1  BZF d   1       1.055  -1.375   0.646  0.00  0.00    -0.204 OA
ATOM      2  C2  BZF d   1       1.023  -2.166  -0.486  0.00  0.00     0.174 A 
ATOM      3  C3  BZF d   1       0.859  -1.412  -1.592  0.00  0.00    -0.012 A 
ATOM      4  C3A BZF d   1       0.875  -0.058  -1.131  0.00  0.00    -0.107 A 
ATOM      5  C4  BZF d   1       0.772   1.149  -1.760  0.00  0.00     0.055 A 
ATOM      6  C5  BZF d   1       0.752   2.284  -1.012  0.00  0.00    -0.016 A 
ATOM      7  C6  BZF d   1       0.827   2.248   0.365  0.00  0.00     0.022 A 
ATOM      8  C7  BZF d   1       0.936   1.074   1.033  0.00  0.00     0.029 A 
ATOM      9  C7A BZF d   1       0.990  -0.072   0.279  0.00  0.00     0.058 A 
ENDROOT
TORSDOF 0
ENDMDL
