MODEL 1
REMARK minimizedAffinity 5.64259958
REMARK minimizedRMSD -1
REMARK  0 active torsions:
REMARK  status: ('A' for Active; 'I' for Inactive)
ROOT
ATOM      1  O1  BZF d   1       1.625   4.812   0.555  0.00  0.00    -0.204 OA
ATOM      2  C2  BZF d   1       1.739   5.792  -0.412  0.00  0.00     0.174 A 
ATOM      3  C3  BZF d   1       1.567   5.272  -1.644  0.00  0.00    -0.012 A 
ATOM      4  C3A BZF d   1       1.239   3.896  -1.429  0.00  0.00    -0.107 A 
ATOM      5  C4  BZF d   1       0.939   2.860  -2.266  0.00  0.00     0.055 A 
ATOM      6  C5  BZF d   1       0.738   1.623  -1.741  0.00  0.00    -0.016 A 
ATOM      7  C6  BZF d   1       0.833   1.385  -0.386  0.00  0.00     0.022 A 
ATOM      8  C7  BZF d   1       1.123   2.382   0.485  0.00  0.00     0.029 A 
ATOM      9  C7A BZF d   1       1.294   3.640  -0.039  0.00  0.00     0.058 A 
ENDROOT
TORSDOF 0
ENDMDL
