MODEL 1
REMARK minimizedAffinity 2.54488873
REMARK minimizedRMSD -1
REMARK  0 active torsions:
REMARK  status: ('A' for Active; 'I' for Inactive)
ROOT
ATOM      1  O1  BZF d   1       0.994   1.826  -3.019  0.00  0.00    -0.204 OA
ATOM      2  C2  BZF d   1       1.226   0.475  -2.840  0.00  0.00     0.174 A 
ATOM      3  C3  BZF d   1       1.439   0.195  -1.538  0.00  0.00    -0.012 A 
ATOM      4  C3A BZF d   1       1.242   1.433  -0.849  0.00  0.00    -0.107 A 
ATOM      5  C4  BZF d   1       1.298   1.795   0.466  0.00  0.00     0.055 A 
ATOM      6  C5  BZF d   1       1.128   3.101   0.800  0.00  0.00    -0.016 A 
ATOM      7  C6  BZF d   1       0.905   4.071  -0.155  0.00  0.00     0.022 A 
ATOM      8  C7  BZF d   1       0.836   3.760  -1.472  0.00  0.00     0.029 A 
ATOM      9  C7A BZF d   1       0.975   2.436  -1.810  0.00  0.00     0.058 A 
ENDROOT
TORSDOF 0
ENDMDL
