MODEL 1
REMARK minimizedAffinity 7.10189295
REMARK minimizedRMSD -1
REMARK  0 active torsions:
REMARK  status: ('A' for Active; 'I' for Inactive)
ROOT
ATOM      1  O1  BZF d   1       1.038   3.594  -0.663  0.00  0.00    -0.204 OA
ATOM      2  C2  BZF d   1       0.552   3.953  -1.905  0.00  0.00     0.174 A 
ATOM      3  C3  BZF d   1       0.361   2.864  -2.677  0.00  0.00    -0.012 A 
ATOM      4  C3A BZF d   1       0.666   1.748  -1.835  0.00  0.00    -0.107 A 
ATOM      5  C4  BZF d   1       0.649   0.396  -2.025  0.00  0.00     0.055 A 
ATOM      6  C5  BZF d   1       1.074  -0.418  -1.023  0.00  0.00    -0.016 A 
ATOM      7  C6  BZF d   1       1.525   0.086   0.179  0.00  0.00     0.022 A 
ATOM      8  C7  BZF d   1       1.556   1.420   0.417  0.00  0.00     0.029 A 
ATOM      9  C7A BZF d   1       1.097   2.243  -0.582  0.00  0.00     0.058 A 
ENDROOT
TORSDOF 0
ENDMDL
