MODEL 1
REMARK minimizedAffinity 7.56490088
REMARK minimizedRMSD -1
REMARK  0 active torsions:
REMARK  status: ('A' for Active; 'I' for Inactive)
ROOT
ATOM      1  O1  BZF d   1       0.138   2.607  -2.578  0.00  0.00    -0.204 OA
ATOM      2  C2  BZF d   1       0.407   3.726  -1.814  0.00  0.00     0.174 A 
ATOM      3  C3  BZF d   1       0.986   3.381  -0.646  0.00  0.00    -0.012 A 
ATOM      4  C3A BZF d   1       1.170   1.964  -0.722  0.00  0.00    -0.107 A 
ATOM      5  C4  BZF d   1       1.710   1.041   0.127  0.00  0.00     0.055 A 
ATOM      6  C5  BZF d   1       1.670  -0.274  -0.214  0.00  0.00    -0.016 A 
ATOM      7  C6  BZF d   1       1.093  -0.700  -1.393  0.00  0.00     0.022 A 
ATOM      8  C7  BZF d   1       0.548   0.179  -2.269  0.00  0.00     0.029 A 
ATOM      9  C7A BZF d   1       0.617   1.511  -1.942  0.00  0.00     0.058 A 
ENDROOT
TORSDOF 0
ENDMDL
