MODEL 1
REMARK minimizedAffinity 6.05989027
REMARK minimizedRMSD -1
REMARK  0 active torsions:
REMARK  status: ('A' for Active; 'I' for Inactive)
ROOT
ATOM      1  O1  BZF d   1       1.669  -0.460   0.204  0.00  0.00    -0.204 OA
ATOM      2  C2  BZF d   1       1.927  -1.231  -0.913  0.00  0.00     0.174 A 
ATOM      3  C3  BZF d   1       1.669  -0.540  -2.042  0.00  0.00    -0.012 A 
ATOM      4  C3A BZF d   1       1.310   0.774  -1.604  0.00  0.00    -0.107 A 
ATOM      5  C4  BZF d   1       0.960   1.920  -2.260  0.00  0.00     0.055 A 
ATOM      6  C5  BZF d   1       0.597   3.011  -1.537  0.00  0.00    -0.016 A 
ATOM      7  C6  BZF d   1       0.568   2.991  -0.158  0.00  0.00     0.022 A 
ATOM      8  C7  BZF d   1       0.912   1.880   0.538  0.00  0.00     0.029 A 
ATOM      9  C7A BZF d   1       1.311   0.785  -0.190  0.00  0.00     0.058 A 
ENDROOT
TORSDOF 0
ENDMDL
