MODEL 1
REMARK minimizedAffinity 16.0558758
REMARK minimizedRMSD -1
REMARK  0 active torsions:
REMARK  status: ('A' for Active; 'I' for Inactive)
ROOT
ATOM      1  O1  BZF d   1       1.869   1.106  -1.110  0.00  0.00    -0.204 OA
ATOM      2  C2  BZF d   1       1.356   0.034  -1.814  0.00  0.00     0.174 A 
ATOM      3  C3  BZF d   1       0.331   0.423  -2.598  0.00  0.00    -0.012 A 
ATOM      4  C3A BZF d   1       0.254   1.843  -2.441  0.00  0.00    -0.107 A 
ATOM      5  C4  BZF d   1      -0.554   2.805  -2.976  0.00  0.00     0.055 A 
ATOM      6  C5  BZF d   1      -0.416   4.091  -2.559  0.00  0.00    -0.016 A 
ATOM      7  C6  BZF d   1       0.514   4.449  -1.605  0.00  0.00     0.022 A 
ATOM      8  C7  BZF d   1       1.341   3.531  -1.048  0.00  0.00     0.029 A 
ATOM      9  C7A BZF d   1       1.227   2.236  -1.492  0.00  0.00     0.058 A 
ENDROOT
TORSDOF 0
ENDMDL
