MODEL 1
REMARK minimizedAffinity 4.67584181
REMARK minimizedRMSD -1
REMARK  0 active torsions:
REMARK  status: ('A' for Active; 'I' for Inactive)
ROOT
ATOM      1  O1  BZF d   1       1.462   2.854  -2.416  0.00  0.00    -0.204 OA
ATOM      2  C2  BZF d   1       1.445   1.554  -1.949  0.00  0.00     0.174 A 
ATOM      3  C3  BZF d   1       1.368   1.530  -0.603  0.00  0.00    -0.012 A 
ATOM      4  C3A BZF d   1       1.241   2.900  -0.209  0.00  0.00    -0.107 A 
ATOM      5  C4  BZF d   1       1.107   3.520   1.000  0.00  0.00     0.055 A 
ATOM      6  C5  BZF d   1       1.081   4.878   1.046  0.00  0.00    -0.016 A 
ATOM      7  C6  BZF d   1       1.191   5.646  -0.095  0.00  0.00     0.022 A 
ATOM      8  C7  BZF d   1       1.320   5.075  -1.318  0.00  0.00     0.029 A 
ATOM      9  C7A BZF d   1       1.313   3.702  -1.371  0.00  0.00     0.058 A 
ENDROOT
TORSDOF 0
ENDMDL
