MODEL 1
REMARK minimizedAffinity 12.5993967
REMARK minimizedRMSD -1
REMARK  0 active torsions:
REMARK  status: ('A' for Active; 'I' for Inactive)
ROOT
ATOM      1  O1  BZF d   1       1.386   2.691  -2.454  0.00  0.00    -0.204 OA
ATOM      2  C2  BZF d   1       1.644   1.536  -1.743  0.00  0.00     0.174 A 
ATOM      3  C3  BZF d   1       0.526   1.089  -1.135  0.00  0.00    -0.012 A 
ATOM      4  C3A BZF d   1      -0.514   1.972  -1.564  0.00  0.00    -0.107 A 
ATOM      5  C4  BZF d   1      -1.855   2.036  -1.312  0.00  0.00     0.055 A 
ATOM      6  C5  BZF d   1      -2.575   3.066  -1.827  0.00  0.00    -0.016 A 
ATOM      7  C6  BZF d   1      -1.988   4.052  -2.593  0.00  0.00     0.022 A 
ATOM      8  C7  BZF d   1      -0.662   4.029  -2.873  0.00  0.00     0.029 A 
ATOM      9  C7A BZF d   1       0.063   2.971  -2.382  0.00  0.00     0.058 A 
ENDROOT
TORSDOF 0
ENDMDL
