MODEL 1
REMARK minimizedAffinity -0.294600666
REMARK minimizedRMSD -1
REMARK  0 active torsions:
REMARK  status: ('A' for Active; 'I' for Inactive)
ROOT
ATOM      1  C   UNL d   1      -2.456  -1.150  -5.577  0.00  0.00     0.077 C 
ATOM      2  C1  UNL d   1      -1.276  -1.918  -5.062  0.00  0.00    -0.074 A 
ATOM      3  C2  UNL d   1      -0.014  -1.777  -5.650  0.00  0.00    -0.005 A 
ATOM      4  C3  UNL d   1       1.077  -2.490  -5.154  0.00  0.00     0.006 A 
ATOM      5  C4  UNL d   1       0.918  -3.351  -4.067  0.00  0.00    -0.005 A 
ATOM      6  C5  UNL d   1      -0.336  -3.504  -3.466  0.00  0.00    -0.074 A 
ATOM      7  C6  UNL d   1      -0.522  -4.417  -2.290  0.00  0.00     0.077 C 
ATOM      8  C7  UNL d   1      -1.425  -2.778  -3.965  0.00  0.00    -0.001 A 
ENDROOT
TORSDOF 0
ENDMDL
