MODEL 1
REMARK minimizedAffinity -0.699034095
REMARK minimizedRMSD -1
REMARK  0 active torsions:
REMARK  status: ('A' for Active; 'I' for Inactive)
ROOT
ATOM      1  C   UNL d   1       0.759   0.001  -2.248  0.00  0.00     0.077 C 
ATOM      2  C1  UNL d   1       0.143  -1.314  -2.622  0.00  0.00    -0.074 A 
ATOM      3  C2  UNL d   1      -0.688  -1.426  -3.741  0.00  0.00    -0.005 A 
ATOM      4  C3  UNL d   1      -1.246  -2.658  -4.082  0.00  0.00     0.006 A 
ATOM      5  C4  UNL d   1      -0.979  -3.789  -3.308  0.00  0.00    -0.005 A 
ATOM      6  C5  UNL d   1      -0.149  -3.696  -2.186  0.00  0.00    -0.074 A 
ATOM      7  C6  UNL d   1       0.156  -4.903  -1.350  0.00  0.00     0.077 C 
ATOM      8  C7  UNL d   1       0.413  -2.456  -1.854  0.00  0.00    -0.001 A 
ENDROOT
TORSDOF 0
ENDMDL
