MODEL 1
REMARK minimizedAffinity 10.2971535
REMARK minimizedRMSD -1
REMARK  0 active torsions:
REMARK  status: ('A' for Active; 'I' for Inactive)
ROOT
ATOM      1  C   UNL d   1      -2.510  -1.366  -3.379  0.00  0.00     0.077 C 
ATOM      2  C1  UNL d   1      -3.048  -0.208  -2.593  0.00  0.00    -0.074 A 
ATOM      3  C2  UNL d   1      -4.305  -0.275  -1.983  0.00  0.00    -0.005 A 
ATOM      4  C3  UNL d   1      -4.788   0.807  -1.247  0.00  0.00     0.006 A 
ATOM      5  C4  UNL d   1      -4.021   1.965  -1.114  0.00  0.00    -0.005 A 
ATOM      6  C5  UNL d   1      -2.762   2.050  -1.716  0.00  0.00    -0.074 A 
ATOM      7  C6  UNL d   1      -1.920   3.283  -1.574  0.00  0.00     0.077 C 
ATOM      8  C7  UNL d   1      -2.280   0.956  -2.448  0.00  0.00    -0.001 A 
ENDROOT
TORSDOF 0
ENDMDL
