MODEL 1
REMARK minimizedAffinity 3.16382456
REMARK minimizedRMSD -1
REMARK  0 active torsions:
REMARK  status: ('A' for Active; 'I' for Inactive)
ROOT
ATOM      1  C   UNL d   1      -3.915   0.670  -2.277  0.00  0.00     0.077 C 
ATOM      2  C1  UNL d   1      -2.549   0.188  -2.665  0.00  0.00    -0.074 A 
ATOM      3  C2  UNL d   1      -1.498   1.090  -2.863  0.00  0.00    -0.005 A 
ATOM      4  C3  UNL d   1      -0.231   0.626  -3.215  0.00  0.00     0.006 A 
ATOM      5  C4  UNL d   1      -0.001  -0.741  -3.371  0.00  0.00    -0.005 A 
ATOM      6  C5  UNL d   1      -1.039  -1.658  -3.175  0.00  0.00    -0.074 A 
ATOM      7  C6  UNL d   1      -0.807  -3.132  -3.330  0.00  0.00     0.077 C 
ATOM      8  C7  UNL d   1      -2.308  -1.185  -2.816  0.00  0.00    -0.001 A 
ENDROOT
TORSDOF 0
ENDMDL
