MODEL 1
REMARK minimizedAffinity 11.180625
REMARK minimizedRMSD -1
REMARK  0 active torsions:
REMARK  status: ('A' for Active; 'I' for Inactive)
ROOT
ATOM      1  C   UNL d   1      -2.973  -2.548  -3.107  0.00  0.00     0.077 C 
ATOM      2  C1  UNL d   1      -2.625  -1.127  -2.776  0.00  0.00    -0.074 A 
ATOM      3  C2  UNL d   1      -3.626  -0.174  -2.561  0.00  0.00    -0.005 A 
ATOM      4  C3  UNL d   1      -3.287   1.142  -2.244  0.00  0.00     0.006 A 
ATOM      5  C4  UNL d   1      -1.947   1.517  -2.138  0.00  0.00    -0.005 A 
ATOM      6  C5  UNL d   1      -0.933   0.577  -2.349  0.00  0.00    -0.074 A 
ATOM      7  C6  UNL d   1       0.512   0.961  -2.230  0.00  0.00     0.077 C 
ATOM      8  C7  UNL d   1      -1.282  -0.745  -2.660  0.00  0.00    -0.001 A 
ENDROOT
TORSDOF 0
ENDMDL
