MODEL 1
REMARK minimizedAffinity 1.53467309
REMARK minimizedRMSD -1
REMARK  0 active torsions:
REMARK  status: ('A' for Active; 'I' for Inactive)
ROOT
ATOM      1  C   UNL d   1       4.808  -5.999   0.582  0.00  0.00     0.077 C 
ATOM      2  C1  UNL d   1       4.943  -5.343  -0.760  0.00  0.00    -0.074 A 
ATOM      3  C2  UNL d   1       5.876  -4.323  -0.971  0.00  0.00    -0.005 A 
ATOM      4  C3  UNL d   1       5.997  -3.729  -2.228  0.00  0.00     0.006 A 
ATOM      5  C4  UNL d   1       5.188  -4.149  -3.284  0.00  0.00    -0.005 A 
ATOM      6  C5  UNL d   1       4.249  -5.168  -3.092  0.00  0.00    -0.074 A 
ATOM      7  C6  UNL d   1       3.378  -5.638  -4.219  0.00  0.00     0.077 C 
ATOM      8  C7  UNL d   1       4.139  -5.764  -1.829  0.00  0.00    -0.001 A 
ENDROOT
TORSDOF 0
ENDMDL
