MODEL 1
REMARK minimizedAffinity 3.83929515
REMARK minimizedRMSD -1
REMARK  0 active torsions:
REMARK  status: ('A' for Active; 'I' for Inactive)
ROOT
ATOM      1  C   UNL d   1      -0.879   1.129  -3.808  0.00  0.00     0.077 C 
ATOM      2  C1  UNL d   1      -0.235   1.247  -2.458  0.00  0.00    -0.074 A 
ATOM      3  C2  UNL d   1      -0.560   2.299  -1.596  0.00  0.00    -0.005 A 
ATOM      4  C3  UNL d   1       0.040   2.391  -0.340  0.00  0.00     0.006 A 
ATOM      5  C4  UNL d   1       0.970   1.433   0.065  0.00  0.00    -0.005 A 
ATOM      6  C5  UNL d   1       1.307   0.373  -0.783  0.00  0.00    -0.074 A 
ATOM      7  C6  UNL d   1       2.298  -0.670  -0.359  0.00  0.00     0.077 C 
ATOM      8  C7  UNL d   1       0.695   0.284  -2.040  0.00  0.00    -0.001 A 
ENDROOT
TORSDOF 0
ENDMDL
