MODEL 1
REMARK minimizedAffinity 5.01500559
REMARK minimizedRMSD -1
REMARK  0 active torsions:
REMARK  status: ('A' for Active; 'I' for Inactive)
ROOT
ATOM      1  C   UNL d   1      -2.398   5.366  -3.738  0.00  0.00     0.077 C 
ATOM      2  C1  UNL d   1      -3.658   4.813  -4.336  0.00  0.00    -0.074 A 
ATOM      3  C2  UNL d   1      -4.265   5.433  -5.433  0.00  0.00    -0.005 A 
ATOM      4  C3  UNL d   1      -5.431   4.901  -5.985  0.00  0.00     0.006 A 
ATOM      5  C4  UNL d   1      -6.000   3.747  -5.447  0.00  0.00    -0.005 A 
ATOM      6  C5  UNL d   1      -5.406   3.112  -4.351  0.00  0.00    -0.074 A 
ATOM      7  C6  UNL d   1      -5.999   1.865  -3.767  0.00  0.00     0.077 C 
ATOM      8  C7  UNL d   1      -4.231   3.648  -3.806  0.00  0.00    -0.001 A 
ENDROOT
TORSDOF 0
ENDMDL
