MODEL 1
REMARK minimizedAffinity 9.09206867
REMARK minimizedRMSD -1
REMARK  0 active torsions:
REMARK  status: ('A' for Active; 'I' for Inactive)
ROOT
ATOM      1  C   UNL d   1       0.750  -1.762   2.532  0.00  0.00     0.077 C 
ATOM      2  C1  UNL d   1       0.973  -0.992   1.264  0.00  0.00    -0.074 A 
ATOM      3  C2  UNL d   1       1.905  -1.425   0.315  0.00  0.00    -0.005 A 
ATOM      4  C3  UNL d   1       2.094  -0.704  -0.864  0.00  0.00     0.006 A 
ATOM      5  C4  UNL d   1       1.355   0.455  -1.105  0.00  0.00    -0.005 A 
ATOM      6  C5  UNL d   1       0.418   0.902  -0.169  0.00  0.00    -0.074 A 
ATOM      7  C6  UNL d   1      -0.391   2.140  -0.417  0.00  0.00     0.077 C 
ATOM      8  C7  UNL d   1       0.229   0.169   1.010  0.00  0.00    -0.001 A 
ENDROOT
TORSDOF 0
ENDMDL
