MODEL 1
REMARK minimizedAffinity 6.08687496
REMARK minimizedRMSD -1
REMARK  0 active torsions:
REMARK  status: ('A' for Active; 'I' for Inactive)
ROOT
ATOM      1  C   UNL d   1       2.492   5.997  -1.892  0.00  0.00     0.077 C 
ATOM      2  C1  UNL d   1       1.464   5.206  -1.140  0.00  0.00    -0.074 A 
ATOM      3  C2  UNL d   1       0.134   5.635  -1.073  0.00  0.00    -0.005 A 
ATOM      4  C3  UNL d   1      -0.813   4.883  -0.378  0.00  0.00     0.006 A 
ATOM      5  C4  UNL d   1      -0.441   3.697   0.256  0.00  0.00    -0.005 A 
ATOM      6  C5  UNL d   1       0.883   3.252   0.199  0.00  0.00    -0.074 A 
ATOM      7  C6  UNL d   1       1.297   1.974   0.867  0.00  0.00     0.077 C 
ATOM      8  C7  UNL d   1       1.828   4.009  -0.507  0.00  0.00    -0.001 A 
ENDROOT
TORSDOF 0
ENDMDL
