MODEL 1
REMARK minimizedAffinity 20.3050461
REMARK minimizedRMSD -1
REMARK  0 active torsions:
REMARK  status: ('A' for Active; 'I' for Inactive)
ROOT
ATOM      1  N1  IND d   1      -0.538  -4.465   4.085  0.00  0.00    -0.196 N 
ATOM      2  C2  IND d   1       0.326  -4.252   5.123  0.00  0.00     0.054 A 
ATOM      3  C3  IND d   1      -0.200  -3.367   5.999  0.00  0.00    -0.031 A 
ATOM      4  C4  IND d   1      -2.506  -2.221   5.980  0.00  0.00     0.051 A 
ATOM      5  C5  IND d   1      -3.629  -2.074   5.216  0.00  0.00    -0.031 A 
ATOM      6  C6  IND d   1      -3.784  -2.732   4.013  0.00  0.00     0.015 A 
ATOM      7  C7  IND d   1      -2.822  -3.574   3.532  0.00  0.00    -0.016 A 
ATOM      8  C8  IND d   1      -1.676  -3.720   4.302  0.00  0.00    -0.047 A 
ATOM      9  C9  IND d   1      -1.495  -3.022   5.503  0.00  0.00    -0.096 A 
ATOM     10  HN1 IND d   1      -0.394  -4.978   3.409  0.00  0.00     0.298 HD
ENDROOT
TORSDOF 0
ENDMDL
