MODEL 1
REMARK minimizedAffinity 22.7245293
REMARK minimizedRMSD -1
REMARK  0 active torsions:
REMARK  status: ('A' for Active; 'I' for Inactive)
ROOT
ATOM      1  N1  IND d   1      -1.266   4.316  -3.176  0.00  0.00    -0.196 N 
ATOM      2  C2  IND d   1      -0.396   3.312  -3.500  0.00  0.00     0.054 A 
ATOM      3  C3  IND d   1      -1.074   2.183  -3.805  0.00  0.00    -0.031 A 
ATOM      4  C4  IND d   1      -3.614   1.785  -3.937  0.00  0.00     0.051 A 
ATOM      5  C5  IND d   1      -4.814   2.393  -3.694  0.00  0.00    -0.031 A 
ATOM      6  C6  IND d   1      -4.894   3.701  -3.259  0.00  0.00     0.015 A 
ATOM      7  C7  IND d   1      -3.772   4.455  -3.062  0.00  0.00    -0.016 A 
ATOM      8  C8  IND d   1      -2.552   3.839  -3.301  0.00  0.00    -0.047 A 
ATOM      9  C9  IND d   1      -2.463   2.500  -3.701  0.00  0.00    -0.096 A 
ATOM     10  HN1 IND d   1      -1.046   5.111  -2.934  0.00  0.00     0.298 HD
ENDROOT
TORSDOF 0
ENDMDL
