MODEL 1
REMARK minimizedAffinity 20.3411503
REMARK minimizedRMSD -1
REMARK  0 active torsions:
REMARK  status: ('A' for Active; 'I' for Inactive)
ROOT
ATOM      1  N1  IND d   1      -0.227  -2.127  -5.971  0.00  0.00    -0.196 N 
ATOM      2  C2  IND d   1      -0.514  -3.463  -5.968  0.00  0.00     0.054 A 
ATOM      3  C3  IND d   1       0.627  -4.189  -5.989  0.00  0.00    -0.031 A 
ATOM      4  C4  IND d   1       3.074  -3.392  -5.927  0.00  0.00     0.051 A 
ATOM      5  C5  IND d   1       3.839  -2.260  -5.961  0.00  0.00    -0.031 A 
ATOM      6  C6  IND d   1       3.277  -1.001  -5.997  0.00  0.00     0.015 A 
ATOM      7  C7  IND d   1       1.922  -0.825  -5.991  0.00  0.00    -0.016 A 
ATOM      8  C8  IND d   1       1.142  -1.972  -5.964  0.00  0.00    -0.047 A 
ATOM      9  C9  IND d   1       1.707  -3.254  -5.969  0.00  0.00    -0.096 A 
ATOM     10  HN1 IND d   1      -0.804  -1.490  -5.977  0.00  0.00     0.298 HD
ENDROOT
TORSDOF 0
ENDMDL
