MODEL 1
REMARK minimizedAffinity 23.2339764
REMARK minimizedRMSD -1
REMARK  0 active torsions:
REMARK  status: ('A' for Active; 'I' for Inactive)
ROOT
ATOM      1  N1  IND d   1       2.673  -1.920  -4.782  0.00  0.00    -0.196 N 
ATOM      2  C2  IND d   1       2.068  -2.085  -5.997  0.00  0.00     0.054 A 
ATOM      3  C3  IND d   1       1.318  -3.209  -6.000  0.00  0.00    -0.031 A 
ATOM      4  C4  IND d   1       0.859  -4.874  -4.090  0.00  0.00     0.051 A 
ATOM      5  C5  IND d   1       1.218  -5.164  -2.804  0.00  0.00    -0.031 A 
ATOM      6  C6  IND d   1       2.097  -4.370  -2.096  0.00  0.00     0.015 A 
ATOM      7  C7  IND d   1       2.642  -3.245  -2.647  0.00  0.00    -0.016 A 
ATOM      8  C8  IND d   1       2.285  -2.951  -3.955  0.00  0.00    -0.047 A 
ATOM      9  C9  IND d   1       1.427  -3.777  -4.693  0.00  0.00    -0.096 A 
ATOM     10  HN1 IND d   1       3.207  -1.280  -4.570  0.00  0.00     0.298 HD
ENDROOT
TORSDOF 0
ENDMDL
