MODEL 1
REMARK minimizedAffinity 12.9935541
REMARK minimizedRMSD -1
REMARK  0 active torsions:
REMARK  status: ('A' for Active; 'I' for Inactive)
ROOT
ATOM      1  N1  IND d   1      -3.366   5.267  -2.380  0.00  0.00    -0.196 N 
ATOM      2  C2  IND d   1      -4.594   5.335  -2.977  0.00  0.00     0.054 A 
ATOM      3  C3  IND d   1      -5.552   5.577  -2.055  0.00  0.00    -0.031 A 
ATOM      4  C4  IND d   1      -5.320   5.996   0.474  0.00  0.00     0.051 A 
ATOM      5  C5  IND d   1      -4.401   6.000   1.485  0.00  0.00    -0.031 A 
ATOM      6  C6  IND d   1      -3.062   5.756   1.255  0.00  0.00     0.015 A 
ATOM      7  C7  IND d   1      -2.589   5.511  -0.003  0.00  0.00    -0.016 A 
ATOM      8  C8  IND d   1      -3.521   5.500  -1.032  0.00  0.00    -0.047 A 
ATOM      9  C9  IND d   1      -4.887   5.704  -0.798  0.00  0.00    -0.096 A 
ATOM     10  HN1 IND d   1      -2.622   5.105  -2.780  0.00  0.00     0.298 HD
ENDROOT
TORSDOF 0
ENDMDL
