MODEL 1
REMARK minimizedAffinity 13.9484386
REMARK minimizedRMSD -1
REMARK  0 active torsions:
REMARK  status: ('A' for Active; 'I' for Inactive)
ROOT
ATOM      1  N1  IND d   1      -2.924  -1.860   5.764  0.00  0.00    -0.196 N 
ATOM      2  C2  IND d   1      -1.880  -2.069   4.906  0.00  0.00     0.054 A 
ATOM      3  C3  IND d   1      -2.180  -3.054   4.031  0.00  0.00    -0.031 A 
ATOM      4  C4  IND d   1      -4.363  -4.391   3.757  0.00  0.00     0.051 A 
ATOM      5  C5  IND d   1      -5.588  -4.582   4.331  0.00  0.00    -0.031 A 
ATOM      6  C6  IND d   1      -5.998  -3.858   5.433  0.00  0.00     0.015 A 
ATOM      7  C7  IND d   1      -5.198  -2.905   5.997  0.00  0.00    -0.016 A 
ATOM      8  C8  IND d   1      -3.950  -2.714   5.421  0.00  0.00    -0.047 A 
ATOM      9  C9  IND d   1      -3.512  -3.475   4.329  0.00  0.00    -0.096 A 
ATOM     10  HN1 IND d   1      -2.938  -1.292   6.408  0.00  0.00     0.298 HD
ENDROOT
TORSDOF 0
ENDMDL
