MODEL 1
REMARK minimizedAffinity 17.145422
REMARK minimizedRMSD -1
REMARK  0 active torsions:
REMARK  status: ('A' for Active; 'I' for Inactive)
ROOT
ATOM      1  N1  IND d   1      -5.999   5.962   3.790  0.00  0.00    -0.196 N 
ATOM      2  C2  IND d   1      -5.008   5.997   4.731  0.00  0.00     0.054 A 
ATOM      3  C3  IND d   1      -3.794   5.941   4.139  0.00  0.00    -0.031 A 
ATOM      4  C4  IND d   1      -3.197   5.892   1.635  0.00  0.00     0.051 A 
ATOM      5  C5  IND d   1      -3.764   5.810   0.394  0.00  0.00    -0.031 A 
ATOM      6  C6  IND d   1      -5.132   5.777   0.218  0.00  0.00     0.015 A 
ATOM      7  C7  IND d   1      -5.989   5.836   1.281  0.00  0.00    -0.016 A 
ATOM      8  C8  IND d   1      -5.417   5.912   2.543  0.00  0.00    -0.047 A 
ATOM      9  C9  IND d   1      -4.028   5.903   2.730  0.00  0.00    -0.096 A 
ATOM     10  HN1 IND d   1      -6.843   5.970   3.951  0.00  0.00     0.298 HD
ENDROOT
TORSDOF 0
ENDMDL
