MODEL 1
REMARK minimizedAffinity 18.8353062
REMARK minimizedRMSD -1
REMARK  0 active torsions:
REMARK  status: ('A' for Active; 'I' for Inactive)
ROOT
ATOM      1  N1  IND d   1       0.896   2.740   0.032  0.00  0.00    -0.196 N 
ATOM      2  C2  IND d   1      -0.153   1.999   0.500  0.00  0.00     0.054 A 
ATOM      3  C3  IND d   1      -1.190   2.053  -0.365  0.00  0.00    -0.031 A 
ATOM      4  C4  IND d   1      -1.349   3.214  -2.657  0.00  0.00     0.051 A 
ATOM      5  C5  IND d   1      -0.657   4.044  -3.495  0.00  0.00    -0.031 A 
ATOM      6  C6  IND d   1       0.615   4.487  -3.195  0.00  0.00     0.015 A 
ATOM      7  C7  IND d   1       1.249   4.108  -2.046  0.00  0.00    -0.016 A 
ATOM      8  C8  IND d   1       0.547   3.271  -1.190  0.00  0.00    -0.047 A 
ATOM      9  C9  IND d   1      -0.760   2.852  -1.469  0.00  0.00    -0.096 A 
ATOM     10  HN1 IND d   1       1.648   2.854   0.434  0.00  0.00     0.298 HD
ENDROOT
TORSDOF 0
ENDMDL
