MODEL 1
REMARK minimizedAffinity 11.0386839
REMARK minimizedRMSD -1
REMARK  0 active torsions:
REMARK  status: ('A' for Active; 'I' for Inactive)
ROOT
ATOM      1  N1  IND d   1      -1.391   1.828   0.155  0.00  0.00    -0.196 N 
ATOM      2  C2  IND d   1      -0.757   1.825   1.365  0.00  0.00     0.054 A 
ATOM      3  C3  IND d   1       0.176   2.803   1.409  0.00  0.00    -0.031 A 
ATOM      4  C4  IND d   1       0.759   4.588  -0.352  0.00  0.00     0.051 A 
ATOM      5  C5  IND d   1       0.474   4.971  -1.632  0.00  0.00    -0.031 A 
ATOM      6  C6  IND d   1      -0.468   4.315  -2.397  0.00  0.00     0.015 A 
ATOM      7  C7  IND d   1      -1.172   3.253  -1.904  0.00  0.00    -0.016 A 
ATOM      8  C8  IND d   1      -0.880   2.856  -0.606  0.00  0.00    -0.047 A 
ATOM      9  C9  IND d   1       0.105   3.492   0.160  0.00  0.00    -0.096 A 
ATOM     10  HN1 IND d   1      -2.006   1.279  -0.090  0.00  0.00     0.298 HD
ENDROOT
TORSDOF 0
ENDMDL
