MODEL 1
REMARK minimizedAffinity 7.39409924
REMARK minimizedRMSD -1
REMARK  0 active torsions:
REMARK  status: ('A' for Active; 'I' for Inactive)
ROOT
ATOM      1  N1  IND d   1       0.168   3.090   1.065  0.00  0.00    -0.196 N 
ATOM      2  C2  IND d   1      -0.468   1.883   1.147  0.00  0.00     0.054 A 
ATOM      3  C3  IND d   1      -1.182   1.651   0.022  0.00  0.00    -0.031 A 
ATOM      4  C4  IND d   1      -1.368   3.068  -2.119  0.00  0.00     0.051 A 
ATOM      5  C5  IND d   1      -0.995   4.271  -2.651  0.00  0.00    -0.031 A 
ATOM      6  C6  IND d   1      -0.197   5.158  -1.958  0.00  0.00     0.015 A 
ATOM      7  C7  IND d   1       0.270   4.870  -0.707  0.00  0.00    -0.016 A 
ATOM      8  C8  IND d   1      -0.113   3.652  -0.161  0.00  0.00    -0.047 A 
ATOM      9  C9  IND d   1      -0.957   2.766  -0.842  0.00  0.00    -0.096 A 
ATOM     10  HN1 IND d   1       0.662   3.440   1.677  0.00  0.00     0.298 HD
ENDROOT
TORSDOF 0
ENDMDL
