MODEL 1
REMARK minimizedAffinity 2.54861093
REMARK minimizedRMSD -1
REMARK  0 active torsions:
REMARK  status: ('A' for Active; 'I' for Inactive)
ROOT
ATOM      1  N1  IND d   1       1.314   4.137   2.476  0.00  0.00    -0.196 N 
ATOM      2  C2  IND d   1       1.867   5.387   2.488  0.00  0.00     0.054 A 
ATOM      3  C3  IND d   1       1.669   6.000   1.299  0.00  0.00    -0.031 A 
ATOM      4  C4  IND d   1       0.376   5.178  -0.769  0.00  0.00     0.051 A 
ATOM      5  C5  IND d   1      -0.275   4.085  -1.269  0.00  0.00    -0.031 A 
ATOM      6  C6  IND d   1      -0.436   2.931  -0.529  0.00  0.00     0.015 A 
ATOM      7  C7  IND d   1       0.041   2.831   0.747  0.00  0.00    -0.016 A 
ATOM      8  C8  IND d   1       0.709   3.936   1.255  0.00  0.00    -0.047 A 
ATOM      9  C9  IND d   1       0.912   5.095   0.494  0.00  0.00    -0.096 A 
ATOM     10  HN1 IND d   1       1.338   3.571   3.123  0.00  0.00     0.298 HD
ENDROOT
TORSDOF 0
ENDMDL
