MODEL 1
REMARK minimizedAffinity 0.382764012
REMARK minimizedRMSD -1
REMARK  0 active torsions:
REMARK  status: ('A' for Active; 'I' for Inactive)
ROOT
ATOM      1  N1  IND d   1      -0.471   4.355  -2.877  0.00  0.00    -0.196 N 
ATOM      2  C2  IND d   1      -0.954   3.236  -3.496  0.00  0.00     0.054 A 
ATOM      3  C3  IND d   1      -1.107   2.233  -2.603  0.00  0.00    -0.031 A 
ATOM      4  C4  IND d   1      -0.723   2.237  -0.057  0.00  0.00     0.051 A 
ATOM      5  C5  IND d   1      -0.249   3.018   0.959  0.00  0.00    -0.031 A 
ATOM      6  C6  IND d   1       0.181   4.312   0.745  0.00  0.00     0.015 A 
ATOM      7  C7  IND d   1       0.142   4.879  -0.497  0.00  0.00    -0.016 A 
ATOM      8  C8  IND d   1      -0.332   4.086  -1.533  0.00  0.00    -0.047 A 
ATOM      9  C9  IND d   1      -0.729   2.759  -1.329  0.00  0.00    -0.096 A 
ATOM     10  HN1 IND d   1      -0.286   5.101  -3.262  0.00  0.00     0.298 HD
ENDROOT
TORSDOF 0
ENDMDL
