MODEL 1
REMARK minimizedAffinity 6.30819273
REMARK minimizedRMSD -1
REMARK  0 active torsions:
REMARK  status: ('A' for Active; 'I' for Inactive)
ROOT
ATOM      1  N1  IND d   1      -4.405  -3.263   2.242  0.00  0.00    -0.196 N 
ATOM      2  C2  IND d   1      -5.274  -3.997   1.483  0.00  0.00     0.054 A 
ATOM      3  C3  IND d   1      -5.998  -4.827   2.266  0.00  0.00    -0.031 A 
ATOM      4  C4  IND d   1      -5.996  -5.074   4.829  0.00  0.00     0.051 A 
ATOM      5  C5  IND d   1      -5.348  -4.643   5.952  0.00  0.00    -0.031 A 
ATOM      6  C6  IND d   1      -4.334  -3.710   5.895  0.00  0.00     0.015 A 
ATOM      7  C7  IND d   1      -3.936  -3.161   4.709  0.00  0.00    -0.016 A 
ATOM      8  C8  IND d   1      -4.587  -3.601   3.566  0.00  0.00    -0.047 A 
ATOM      9  C9  IND d   1      -5.588  -4.580   3.612  0.00  0.00    -0.096 A 
ATOM     10  HN1 IND d   1      -3.840  -2.688   1.944  0.00  0.00     0.298 HD
ENDROOT
TORSDOF 0
ENDMDL
