MODEL 1
REMARK minimizedAffinity 5.64104223
REMARK minimizedRMSD -1
REMARK  0 active torsions:
REMARK  status: ('A' for Active; 'I' for Inactive)
ROOT
ATOM      1  N1  IND d   1      -0.057   2.601  -0.705  0.00  0.00    -0.196 N 
ATOM      2  C2  IND d   1       0.465   3.840  -0.457  0.00  0.00     0.054 A 
ATOM      3  C3  IND d   1       0.491   4.082   0.873  0.00  0.00    -0.031 A 
ATOM      4  C4  IND d   1      -0.176   2.546   2.828  0.00  0.00     0.051 A 
ATOM      5  C5  IND d   1      -0.742   1.331   3.099  0.00  0.00    -0.031 A 
ATOM      6  C6  IND d   1      -1.113   0.460   2.096  0.00  0.00     0.015 A 
ATOM      7  C7  IND d   1      -0.921   0.766   0.779  0.00  0.00    -0.016 A 
ATOM      8  C8  IND d   1      -0.354   2.001   0.499  0.00  0.00    -0.047 A 
ATOM      9  C9  IND d   1      -0.014   2.908   1.512  0.00  0.00    -0.096 A 
ATOM     10  HN1 IND d   1      -0.179   2.255  -1.482  0.00  0.00     0.298 HD
ENDROOT
TORSDOF 0
ENDMDL
