MODEL 1
REMARK minimizedAffinity 20.2118816
REMARK minimizedRMSD -1
REMARK  0 active torsions:
REMARK  status: ('A' for Active; 'I' for Inactive)
ROOT
ATOM      1  N1  IND d   1      -0.255  -4.276   2.877  0.00  0.00    -0.196 N 
ATOM      2  C2  IND d   1      -1.004  -3.793   3.914  0.00  0.00     0.054 A 
ATOM      3  C3  IND d   1      -0.717  -2.490   4.133  0.00  0.00    -0.031 A 
ATOM      4  C4  IND d   1       0.871  -0.926   2.846  0.00  0.00     0.051 A 
ATOM      5  C5  IND d   1       1.801  -0.921   1.844  0.00  0.00    -0.031 A 
ATOM      6  C6  IND d   1       2.096  -2.057   1.118  0.00  0.00     0.015 A 
ATOM      7  C7  IND d   1       1.462  -3.243   1.362  0.00  0.00    -0.016 A 
ATOM      8  C8  IND d   1       0.523  -3.253   2.383  0.00  0.00    -0.047 A 
ATOM      9  C9  IND d   1       0.250  -2.113   3.151  0.00  0.00    -0.096 A 
ATOM     10  HN1 IND d   1      -0.268  -5.084   2.583  0.00  0.00     0.298 HD
ENDROOT
TORSDOF 0
ENDMDL
