MODEL 1
REMARK minimizedAffinity 14.6940804
REMARK minimizedRMSD -1
REMARK  0 active torsions:
REMARK  status: ('A' for Active; 'I' for Inactive)
ROOT
ATOM      1  N1  IND d   1       3.659  -3.550  -2.801  0.00  0.00    -0.196 N 
ATOM      2  C2  IND d   1       2.697  -4.218  -2.096  0.00  0.00     0.054 A 
ATOM      3  C3  IND d   1       1.507  -4.141  -2.734  0.00  0.00    -0.031 A 
ATOM      4  C4  IND d   1       0.933  -3.059  -4.999  0.00  0.00     0.051 A 
ATOM      5  C5  IND d   1       1.474  -2.299  -5.997  0.00  0.00    -0.031 A 
ATOM      6  C6  IND d   1       2.798  -1.910  -5.982  0.00  0.00     0.015 A 
ATOM      7  C7  IND d   1       3.637  -2.280  -4.969  0.00  0.00    -0.016 A 
ATOM      8  C8  IND d   1       3.090  -3.047  -3.950  0.00  0.00    -0.047 A 
ATOM      9  C9  IND d   1       1.737  -3.408  -3.939  0.00  0.00    -0.096 A 
ATOM     10  HN1 IND d   1       4.481  -3.460  -2.566  0.00  0.00     0.298 HD
ENDROOT
TORSDOF 0
ENDMDL
