MODEL 1
REMARK minimizedAffinity 5.09482574
REMARK minimizedRMSD -1
REMARK  0 active torsions:
REMARK  status: ('A' for Active; 'I' for Inactive)
ROOT
ATOM      1  N1  IND d   1      -5.185  -3.914  -0.409  0.00  0.00    -0.196 N 
ATOM      2  C2  IND d   1      -5.649  -4.312   0.814  0.00  0.00     0.054 A 
ATOM      3  C3  IND d   1      -6.000  -3.238   1.556  0.00  0.00    -0.031 A 
ATOM      4  C4  IND d   1      -5.993  -0.742   0.926  0.00  0.00     0.051 A 
ATOM      5  C5  IND d   1      -5.620   0.117  -0.070  0.00  0.00    -0.031 A 
ATOM      6  C6  IND d   1      -5.075  -0.334  -1.255  0.00  0.00     0.015 A 
ATOM      7  C7  IND d   1      -4.892  -1.667  -1.493  0.00  0.00    -0.016 A 
ATOM      8  C8  IND d   1      -5.263  -2.541  -0.482  0.00  0.00    -0.047 A 
ATOM      9  C9  IND d   1      -5.777  -2.087   0.740  0.00  0.00    -0.096 A 
ATOM     10  HN1 IND d   1      -4.895  -4.435  -1.028  0.00  0.00     0.298 HD
ENDROOT
TORSDOF 0
ENDMDL
