MODEL 1
REMARK minimizedAffinity -2.23647904
REMARK minimizedRMSD -1
REMARK  0 active torsions:
REMARK  status: ('A' for Active; 'I' for Inactive)
ROOT
ATOM      1  O1  BZF d   1       1.988  -1.313  -0.230  0.00  0.00    -0.204 OA
ATOM      2  C2  BZF d   1       1.342  -1.507  -1.436  0.00  0.00     0.174 A 
ATOM      3  C3  BZF d   1       0.252  -0.719  -1.527  0.00  0.00    -0.012 A 
ATOM      4  C3A BZF d   1       0.265   0.080  -0.340  0.00  0.00    -0.107 A 
ATOM      5  C4  BZF d   1      -0.552   1.065   0.138  0.00  0.00     0.055 A 
ATOM      6  C5  BZF d   1      -0.302   1.592   1.365  0.00  0.00    -0.016 A 
ATOM      7  C6  BZF d   1       0.751   1.157   2.142  0.00  0.00     0.022 A 
ATOM      8  C7  BZF d   1       1.592   0.186   1.708  0.00  0.00     0.029 A 
ATOM      9  C7A BZF d   1       1.361  -0.326   0.455  0.00  0.00     0.058 A 
ENDROOT
TORSDOF 0
ENDMDL
