MODEL 1
REMARK minimizedAffinity -4.77898884
REMARK minimizedRMSD -1
REMARK  0 active torsions:
REMARK  status: ('A' for Active; 'I' for Inactive)
ROOT
ATOM      1  O1  BZF d   1       1.294  -1.286  -1.172  0.00  0.00    -0.204 OA
ATOM      2  C2  BZF d   1       0.233  -0.967  -0.346  0.00  0.00     0.174 A 
ATOM      3  C3  BZF d   1      -0.512   0.021  -0.883  0.00  0.00    -0.012 A 
ATOM      4  C3A BZF d   1       0.069   0.276  -2.165  0.00  0.00    -0.107 A 
ATOM      5  C4  BZF d   1      -0.236   1.138  -3.179  0.00  0.00     0.055 A 
ATOM      6  C5  BZF d   1       0.575   1.190  -4.268  0.00  0.00    -0.016 A 
ATOM      7  C6  BZF d   1       1.700   0.399  -4.374  0.00  0.00     0.022 A 
ATOM      8  C7  BZF d   1       2.041  -0.476  -3.396  0.00  0.00     0.029 A 
ATOM      9  C7A BZF d   1       1.205  -0.554  -2.309  0.00  0.00     0.058 A 
ENDROOT
TORSDOF 0
ENDMDL
