MODEL 1
REMARK minimizedAffinity -3.51594734
REMARK minimizedRMSD -1
REMARK  0 active torsions:
REMARK  status: ('A' for Active; 'I' for Inactive)
ROOT
ATOM      1  O1  BZF d   1      -1.299  -0.626  -0.397  0.00  0.00    -0.204 OA
ATOM      2  C2  BZF d   1      -0.128  -0.742  -1.122  0.00  0.00     0.174 A 
ATOM      3  C3  BZF d   1       0.841   0.033  -0.592  0.00  0.00    -0.012 A 
ATOM      4  C3A BZF d   1       0.265   0.601   0.588  0.00  0.00    -0.107 A 
ATOM      5  C4  BZF d   1       0.739   1.445   1.551  0.00  0.00     0.055 A 
ATOM      6  C5  BZF d   1      -0.101   1.867   2.532  0.00  0.00    -0.016 A 
ATOM      7  C6  BZF d   1      -1.421   1.469   2.578  0.00  0.00     0.022 A 
ATOM      8  C7  BZF d   1      -1.936   0.628   1.647  0.00  0.00     0.029 A 
ATOM      9  C7A BZF d   1      -1.080   0.174   0.673  0.00  0.00     0.058 A 
ENDROOT
TORSDOF 0
ENDMDL
