MODEL 1
REMARK minimizedAffinity -2.74494839
REMARK minimizedRMSD -1
REMARK  0 active torsions:
REMARK  status: ('A' for Active; 'I' for Inactive)
ROOT
ATOM      1  O1  BZF d   1      -1.656   1.785   2.442  0.00  0.00    -0.204 OA
ATOM      2  C2  BZF d   1      -0.451   1.728   3.116  0.00  0.00     0.174 A 
ATOM      3  C3  BZF d   1       0.441   0.977   2.438  0.00  0.00    -0.012 A 
ATOM      4  C3A BZF d   1      -0.220   0.612   1.223  0.00  0.00    -0.107 A 
ATOM      5  C4  BZF d   1       0.156  -0.118   0.132  0.00  0.00     0.055 A 
ATOM      6  C5  BZF d   1      -0.751  -0.349  -0.853  0.00  0.00    -0.016 A 
ATOM      7  C6  BZF d   1      -2.042   0.131  -0.778  0.00  0.00     0.022 A 
ATOM      8  C7  BZF d   1      -2.460   0.865   0.282  0.00  0.00     0.029 A 
ATOM      9  C7A BZF d   1      -1.536   1.127   1.264  0.00  0.00     0.058 A 
ENDROOT
TORSDOF 0
ENDMDL
