MODEL 1
REMARK minimizedAffinity -3.20039964
REMARK minimizedRMSD -1
REMARK  0 active torsions:
REMARK  status: ('A' for Active; 'I' for Inactive)
ROOT
ATOM      1  O1  BZF d   1       0.812  -0.348  -0.053  0.00  0.00    -0.204 OA
ATOM      2  C2  BZF d   1      -0.287   0.011  -0.810  0.00  0.00     0.174 A 
ATOM      3  C3  BZF d   1      -1.311   0.389  -0.019  0.00  0.00    -0.012 A 
ATOM      4  C3A BZF d   1      -0.791   0.348   1.314  0.00  0.00    -0.107 A 
ATOM      5  C4  BZF d   1      -1.324   0.631   2.539  0.00  0.00     0.055 A 
ATOM      6  C5  BZF d   1      -0.574   0.417   3.651  0.00  0.00    -0.016 A 
ATOM      7  C6  BZF d   1       0.710  -0.083   3.576  0.00  0.00     0.022 A 
ATOM      8  C7  BZF d   1       1.283  -0.375   2.383  0.00  0.00     0.029 A 
ATOM      9  C7A BZF d   1       0.539  -0.128   1.255  0.00  0.00     0.058 A 
ENDROOT
TORSDOF 0
ENDMDL
