MODEL 1
REMARK minimizedAffinity -4.51017618
REMARK minimizedRMSD -1
REMARK  0 active torsions:
REMARK  status: ('A' for Active; 'I' for Inactive)
ROOT
ATOM      1  O1  BZF d   1      -1.389  -1.220  -0.116  0.00  0.00    -0.204 OA
ATOM      2  C2  BZF d   1      -0.255  -1.367  -0.891  0.00  0.00     0.174 A 
ATOM      3  C3  BZF d   1       0.737  -0.572  -0.441  0.00  0.00    -0.012 A 
ATOM      4  C3A BZF d   1       0.219   0.044   0.741  0.00  0.00    -0.107 A 
ATOM      5  C4  BZF d   1       0.739   0.927   1.644  0.00  0.00     0.055 A 
ATOM      6  C5  BZF d   1      -0.054   1.389   2.647  0.00  0.00    -0.016 A 
ATOM      7  C6  BZF d   1      -1.370   0.995   2.773  0.00  0.00     0.022 A 
ATOM      8  C7  BZF d   1      -1.928   0.118   1.904  0.00  0.00     0.029 A 
ATOM      9  C7A BZF d   1      -1.120  -0.377   0.909  0.00  0.00     0.058 A 
ENDROOT
TORSDOF 0
ENDMDL
