MODEL 1
REMARK minimizedAffinity -3.11907291
REMARK minimizedRMSD -1
REMARK  0 active torsions:
REMARK  status: ('A' for Active; 'I' for Inactive)
ROOT
ATOM      1  O1  BZF d   1       1.316  -0.606   0.317  0.00  0.00    -0.204 OA
ATOM      2  C2  BZF d   1       2.254  -0.394   1.309  0.00  0.00     0.174 A 
ATOM      3  C3  BZF d   1       1.739   0.363   2.300  0.00  0.00    -0.012 A 
ATOM      4  C3A BZF d   1       0.368   0.565   1.945  0.00  0.00    -0.107 A 
ATOM      5  C4  BZF d   1      -0.669   1.225   2.541  0.00  0.00     0.055 A 
ATOM      6  C5  BZF d   1      -1.864   1.294   1.898  0.00  0.00    -0.016 A 
ATOM      7  C6  BZF d   1      -2.056   0.722   0.658  0.00  0.00     0.022 A 
ATOM      8  C7  BZF d   1      -1.059   0.053   0.029  0.00  0.00     0.029 A 
ATOM      9  C7A BZF d   1       0.140  -0.048   0.691  0.00  0.00     0.058 A 
ENDROOT
TORSDOF 0
ENDMDL
