MODEL 1
REMARK minimizedAffinity -6.46074295
REMARK minimizedRMSD -1
REMARK  0 active torsions:
REMARK  status: ('A' for Active; 'I' for Inactive)
ROOT
ATOM      1  O1  BZF d   1       1.780  -0.470   2.120  0.00  0.00    -0.204 OA
ATOM      2  C2  BZF d   1       1.545   0.089   3.361  0.00  0.00     0.174 A 
ATOM      3  C3  BZF d   1       0.348   0.709   3.388  0.00  0.00    -0.012 A 
ATOM      4  C3A BZF d   1      -0.240   0.448   2.109  0.00  0.00    -0.107 A 
ATOM      5  C4  BZF d   1      -1.433   0.786   1.538  0.00  0.00     0.055 A 
ATOM      6  C5  BZF d   1      -1.669   0.436   0.246  0.00  0.00    -0.016 A 
ATOM      7  C6  BZF d   1      -0.734  -0.247  -0.504  0.00  0.00     0.022 A 
ATOM      8  C7  BZF d   1       0.462  -0.609   0.021  0.00  0.00     0.029 A 
ATOM      9  C7A BZF d   1       0.690  -0.285   1.337  0.00  0.00     0.058 A 
ENDROOT
TORSDOF 0
ENDMDL
