MODEL 1
REMARK minimizedAffinity -5.2091465
REMARK minimizedRMSD -1
REMARK  0 active torsions:
REMARK  status: ('A' for Active; 'I' for Inactive)
ROOT
ATOM      1  O1  BZF d   1       1.423  -0.816   0.290  0.00  0.00    -0.204 OA
ATOM      2  C2  BZF d   1       2.433  -1.099   1.188  0.00  0.00     0.174 A 
ATOM      3  C3  BZF d   1       2.084  -0.724   2.435  0.00  0.00    -0.012 A 
ATOM      4  C3A BZF d   1       0.737  -0.255   2.324  0.00  0.00    -0.107 A 
ATOM      5  C4  BZF d   1      -0.164   0.236   3.225  0.00  0.00     0.055 A 
ATOM      6  C5  BZF d   1      -1.372   0.673   2.780  0.00  0.00    -0.016 A 
ATOM      7  C6  BZF d   1      -1.709   0.639   1.443  0.00  0.00     0.022 A 
ATOM      8  C7  BZF d   1      -0.850   0.155   0.512  0.00  0.00     0.029 A 
ATOM      9  C7A BZF d   1       0.358  -0.318   0.963  0.00  0.00     0.058 A 
ENDROOT
TORSDOF 0
ENDMDL
