MODEL 1
REMARK minimizedAffinity 5.69887829
REMARK minimizedRMSD -1
REMARK  2 active torsions:
REMARK  status: ('A' for Active; 'I' for Inactive)
REMARK    1  A    between atoms: C1_2  and  C2_3 
REMARK    2  A    between atoms: C2_3  and  C3_4 
ROOT
ATOM      1  C3  UNL d   1       2.212  -0.787   0.736  0.00  0.00    -0.075 A 
ATOM      2  C4  UNL d   1       3.463  -0.987   1.337  0.00  0.00     0.002 A 
ATOM      3  C5  UNL d   1       4.631  -0.935   0.575  0.00  0.00     0.002 A 
ATOM      4  C6  UNL d   1       4.562  -0.692  -0.795  0.00  0.00    -0.004 A 
ATOM      5  C7  UNL d   1       3.323  -0.508  -1.405  0.00  0.00     0.002 A 
ATOM      6  C8  UNL d   1       2.154  -0.556  -0.645  0.00  0.00     0.002 A 
ENDROOT
BRANCH   1   7
ATOM      7  C2  UNL d   1       0.946  -0.814   1.560  0.00  0.00     0.056 C 
BRANCH   7   8
ATOM      8  C1  UNL d   1       0.573   0.539   2.174  0.00  0.00     0.007 C 
ATOM      9  C   UNL d   1      -0.930   0.745   2.306  0.00  0.00     0.009 C 
ENDBRANCH   7   8
ENDBRANCH   1   7
TORSDOF 2
ENDMDL
