MODEL 1
REMARK minimizedAffinity 10.6660995
REMARK minimizedRMSD -1
REMARK  2 active torsions:
REMARK  status: ('A' for Active; 'I' for Inactive)
REMARK    1  A    between atoms: C1_2  and  C2_3 
REMARK    2  A    between atoms: C2_3  and  C3_4 
ROOT
ATOM      1  C3  UNL d   1       1.089  -0.388   3.748  0.00  0.00    -0.075 A 
ATOM      2  C4  UNL d   1       1.038  -1.750   4.080  0.00  0.00     0.002 A 
ATOM      3  C5  UNL d   1       1.922  -2.284   5.017  0.00  0.00     0.002 A 
ATOM      4  C6  UNL d   1       2.874  -1.469   5.625  0.00  0.00    -0.004 A 
ATOM      5  C7  UNL d   1       2.945  -0.118   5.290  0.00  0.00     0.002 A 
ATOM      6  C8  UNL d   1       2.059   0.420   4.356  0.00  0.00     0.002 A 
ENDROOT
BRANCH   1   7
ATOM      7  C2  UNL d   1       0.115   0.202   2.756  0.00  0.00     0.056 C 
BRANCH   7   8
ATOM      8  C1  UNL d   1      -0.646  -0.841   1.932  0.00  0.00     0.007 C 
ATOM      9  C   UNL d   1      -2.153  -0.791   2.143  0.00  0.00     0.009 C 
ENDBRANCH   7   8
ENDBRANCH   1   7
TORSDOF 2
ENDMDL
