MODEL 1
REMARK minimizedAffinity 6.97991467
REMARK minimizedRMSD -1
REMARK  2 active torsions:
REMARK  status: ('A' for Active; 'I' for Inactive)
REMARK    1  A    between atoms: C1_2  and  C2_3 
REMARK    2  A    between atoms: C2_3  and  C3_4 
ROOT
ATOM      1  C3  UNL d   1       0.917   0.522   2.376  0.00  0.00    -0.075 A 
ATOM      2  C4  UNL d   1      -0.144  -0.390   2.285  0.00  0.00     0.002 A 
ATOM      3  C5  UNL d   1      -1.394  -0.078   2.820  0.00  0.00     0.002 A 
ATOM      4  C6  UNL d   1      -1.596   1.142   3.461  0.00  0.00    -0.004 A 
ATOM      5  C7  UNL d   1      -0.544   2.049   3.572  0.00  0.00     0.002 A 
ATOM      6  C8  UNL d   1       0.706   1.742   3.033  0.00  0.00     0.002 A 
ENDROOT
BRANCH   1   7
ATOM      7  C2  UNL d   1       2.264   0.203   1.773  0.00  0.00     0.056 C 
BRANCH   7   8
ATOM      8  C1  UNL d   1       2.197  -0.713   0.546  0.00  0.00     0.007 C 
ATOM      9  C   UNL d   1       2.121   0.050  -0.770  0.00  0.00     0.009 C 
ENDBRANCH   7   8
ENDBRANCH   1   7
TORSDOF 2
ENDMDL
