MODEL 1
REMARK minimizedAffinity 6.63394451
REMARK minimizedRMSD -1
REMARK  2 active torsions:
REMARK  status: ('A' for Active; 'I' for Inactive)
REMARK    1  A    between atoms: C1_2  and  C2_3 
REMARK    2  A    between atoms: C2_3  and  C3_4 
ROOT
ATOM      1  C3  UNL d   1      -1.195  -3.551  -2.552  0.00  0.00    -0.075 A 
ATOM      2  C4  UNL d   1      -1.836  -2.845  -3.580  0.00  0.00     0.002 A 
ATOM      3  C5  UNL d   1      -2.174  -3.484  -4.774  0.00  0.00     0.002 A 
ATOM      4  C6  UNL d   1      -1.867  -4.831  -4.958  0.00  0.00    -0.004 A 
ATOM      5  C7  UNL d   1      -1.215  -5.537  -3.949  0.00  0.00     0.002 A 
ATOM      6  C8  UNL d   1      -0.880  -4.901  -2.752  0.00  0.00     0.002 A 
ENDROOT
BRANCH   1   7
ATOM      7  C2  UNL d   1      -0.853  -2.872  -1.246  0.00  0.00     0.056 C 
BRANCH   7   8
ATOM      8  C1  UNL d   1      -2.007  -2.841  -0.239  0.00  0.00     0.007 C 
ATOM      9  C   UNL d   1      -1.901  -1.697   0.760  0.00  0.00     0.009 C 
ENDBRANCH   7   8
ENDBRANCH   1   7
TORSDOF 2
ENDMDL
