MODEL 1
REMARK minimizedAffinity -3.41079164
REMARK minimizedRMSD -1
REMARK  0 active torsions:
REMARK  status: ('A' for Active; 'I' for Inactive)
ROOT
ATOM      1  C   UNL d   1       1.629  -2.460   0.725  0.00  0.00     0.124 A 
ATOM      2  C1  UNL d   1       0.279  -2.611   0.440  0.00  0.00     0.062 A 
ATOM      3  C2  UNL d   1      -0.458  -1.535  -0.048  0.00  0.00     0.162 A 
ATOM      4  C3  UNL d   1       0.154  -0.299  -0.254  0.00  0.00    -0.034 A 
ATOM      5  C4  UNL d   1       1.512  -0.155   0.035  0.00  0.00     0.162 A 
ATOM      6  C5  UNL d   1       2.244  -1.232   0.522  0.00  0.00     0.062 A 
ATOM      7  F   UNL d   1       3.548  -1.085   0.797  0.00  0.00    -0.097 F 
ATOM      8  F1  UNL d   1       2.131   1.020  -0.152  0.00  0.00    -0.096 F 
ATOM      9  I   UNL d   1      -0.945   1.312  -0.983  0.00  0.00    -0.060 I 
ATOM     10  F2  UNL d   1      -1.761  -1.710  -0.314  0.00  0.00    -0.096 F 
ATOM     11  F3  UNL d   1      -0.317  -3.796   0.635  0.00  0.00    -0.097 F 
ATOM     12  F4  UNL d   1       2.336  -3.496   1.194  0.00  0.00    -0.092 F 
ENDROOT
TORSDOF 0
ENDMDL
