MODEL 1
REMARK minimizedAffinity -3.13924813
REMARK minimizedRMSD -1
REMARK  0 active torsions:
REMARK  status: ('A' for Active; 'I' for Inactive)
ROOT
ATOM      1  C   UNL d   1      -0.947   1.440  -1.251  0.00  0.00     0.124 A 
ATOM      2  C1  UNL d   1      -0.921   1.143   0.104  0.00  0.00     0.062 A 
ATOM      3  C2  UNL d   1      -0.188   0.055   0.569  0.00  0.00     0.162 A 
ATOM      4  C3  UNL d   1       0.527  -0.744  -0.323  0.00  0.00    -0.034 A 
ATOM      5  C4  UNL d   1       0.495  -0.440  -1.685  0.00  0.00     0.162 A 
ATOM      6  C5  UNL d   1      -0.239   0.649  -2.145  0.00  0.00     0.062 A 
ATOM      7  F   UNL d   1      -0.263   0.934  -3.455  0.00  0.00    -0.097 F 
ATOM      8  F1  UNL d   1       1.171  -1.188  -2.570  0.00  0.00    -0.096 F 
ATOM      9  I   UNL d   1       1.624  -2.372   0.367  0.00  0.00    -0.060 I 
ATOM     10  F2  UNL d   1      -0.181  -0.208   1.884  0.00  0.00    -0.096 F 
ATOM     11  F3  UNL d   1      -1.605   1.906   0.969  0.00  0.00    -0.097 F 
ATOM     12  F4  UNL d   1      -1.654   2.487  -1.696  0.00  0.00    -0.092 F 
ENDROOT
TORSDOF 0
ENDMDL
