MODEL 1
REMARK minimizedAffinity 0.728380859
REMARK minimizedRMSD -1
REMARK  0 active torsions:
REMARK  status: ('A' for Active; 'I' for Inactive)
ROOT
ATOM      1  C   UNL d   1       1.381  -1.702   1.967  0.00  0.00     0.124 A 
ATOM      2  C1  UNL d   1      -0.007  -1.677   1.975  0.00  0.00     0.062 A 
ATOM      3  C2  UNL d   1      -0.697  -0.810   1.133  0.00  0.00     0.162 A 
ATOM      4  C3  UNL d   1      -0.000   0.040   0.274  0.00  0.00    -0.034 A 
ATOM      5  C4  UNL d   1       1.395   0.010   0.272  0.00  0.00     0.162 A 
ATOM      6  C5  UNL d   1       2.080  -0.859   1.115  0.00  0.00     0.062 A 
ATOM      7  F   UNL d   1       3.421  -0.881   1.106  0.00  0.00    -0.097 F 
ATOM      8  F1  UNL d   1       2.097   0.813  -0.541  0.00  0.00    -0.096 F 
ATOM      9  I   UNL d   1      -1.028   1.338  -0.986  0.00  0.00    -0.060 I 
ATOM     10  F2  UNL d   1      -2.038  -0.808   1.163  0.00  0.00    -0.096 F 
ATOM     11  F3  UNL d   1      -0.686  -2.491   2.797  0.00  0.00    -0.097 F 
ATOM     12  F4  UNL d   1       2.042  -2.537   2.779  0.00  0.00    -0.092 F 
ENDROOT
TORSDOF 0
ENDMDL
