MODEL 1
REMARK minimizedAffinity -1.36958516
REMARK minimizedRMSD -1
REMARK  0 active torsions:
REMARK  status: ('A' for Active; 'I' for Inactive)
ROOT
ATOM      1  C   UNL d   1       1.499  -1.677   1.297  0.00  0.00     0.124 A 
ATOM      2  C1  UNL d   1       2.321  -0.851   0.543  0.00  0.00     0.062 A 
ATOM      3  C2  UNL d   1       1.778  -0.043  -0.452  0.00  0.00     0.162 A 
ATOM      4  C3  UNL d   1       0.405  -0.055  -0.698  0.00  0.00    -0.034 A 
ATOM      5  C4  UNL d   1      -0.415  -0.888   0.064  0.00  0.00     0.162 A 
ATOM      6  C5  UNL d   1       0.132  -1.695   1.057  0.00  0.00     0.062 A 
ATOM      7  F   UNL d   1      -0.664  -2.492   1.784  0.00  0.00    -0.097 F 
ATOM      8  F1  UNL d   1      -1.739  -0.925  -0.146  0.00  0.00    -0.096 F 
ATOM      9  I   UNL d   1      -0.410   1.153  -2.184  0.00  0.00    -0.060 I 
ATOM     10  F2  UNL d   1       2.597   0.745  -1.165  0.00  0.00    -0.096 F 
ATOM     11  F3  UNL d   1       3.642  -0.833   0.772  0.00  0.00    -0.097 F 
ATOM     12  F4  UNL d   1       2.023  -2.455   2.252  0.00  0.00    -0.092 F 
ENDROOT
TORSDOF 0
ENDMDL
