MODEL 1
REMARK minimizedAffinity -3.08148003
REMARK minimizedRMSD -1
REMARK  0 active torsions:
REMARK  status: ('A' for Active; 'I' for Inactive)
ROOT
ATOM      1  C   UNL d   1       1.500  -1.912   0.977  0.00  0.00     0.124 A 
ATOM      2  C1  UNL d   1       2.297  -0.956   0.362  0.00  0.00     0.062 A 
ATOM      3  C2  UNL d   1       1.714   0.086  -0.352  0.00  0.00     0.162 A 
ATOM      4  C3  UNL d   1       0.326   0.179  -0.456  0.00  0.00    -0.034 A 
ATOM      5  C4  UNL d   1      -0.469  -0.787   0.164  0.00  0.00     0.162 A 
ATOM      6  C5  UNL d   1       0.119  -1.827   0.878  0.00  0.00     0.062 A 
ATOM      7  F   UNL d   1      -0.652  -2.750   1.471  0.00  0.00    -0.097 F 
ATOM      8  F1  UNL d   1      -1.806  -0.728   0.085  0.00  0.00    -0.096 F 
ATOM      9  I   UNL d   1      -0.550   1.736  -1.523  0.00  0.00    -0.060 I 
ATOM     10  F2  UNL d   1       2.508   0.996  -0.936  0.00  0.00    -0.096 F 
ATOM     11  F3  UNL d   1       3.632  -1.037   0.456  0.00  0.00    -0.097 F 
ATOM     12  F4  UNL d   1       2.064  -2.915   1.663  0.00  0.00    -0.092 F 
ENDROOT
TORSDOF 0
ENDMDL
