MODEL 1
REMARK minimizedAffinity -2.87430596
REMARK minimizedRMSD -1
REMARK  0 active torsions:
REMARK  status: ('A' for Active; 'I' for Inactive)
ROOT
ATOM      1  C   UNL d   1       1.351  -1.095   1.352  0.00  0.00     0.124 A 
ATOM      2  C1  UNL d   1       1.945  -0.812   0.130  0.00  0.00     0.062 A 
ATOM      3  C2  UNL d   1       1.230  -0.137  -0.856  0.00  0.00     0.162 A 
ATOM      4  C3  UNL d   1      -0.086   0.260  -0.623  0.00  0.00    -0.034 A 
ATOM      5  C4  UNL d   1      -0.677  -0.029   0.608  0.00  0.00     0.162 A 
ATOM      6  C5  UNL d   1       0.041  -0.703   1.590  0.00  0.00     0.062 A 
ATOM      7  F   UNL d   1      -0.535  -0.976   2.770  0.00  0.00    -0.097 F 
ATOM      8  F1  UNL d   1      -1.941   0.339   0.865  0.00  0.00    -0.096 F 
ATOM      9  I   UNL d   1      -1.158   1.269  -2.095  0.00  0.00    -0.060 I 
ATOM     10  F2  UNL d   1       1.829   0.123  -2.027  0.00  0.00    -0.096 F 
ATOM     11  F3  UNL d   1       3.210  -1.190  -0.102  0.00  0.00    -0.097 F 
ATOM     12  F4  UNL d   1       2.040  -1.745   2.299  0.00  0.00    -0.092 F 
ENDROOT
TORSDOF 0
ENDMDL
