MODEL 1
REMARK minimizedAffinity -3.31558013
REMARK minimizedRMSD -1
REMARK  0 active torsions:
REMARK  status: ('A' for Active; 'I' for Inactive)
ROOT
ATOM      1  C   UNL d   1       0.248  -1.744   0.778  0.00  0.00     0.124 A 
ATOM      2  C1  UNL d   1       0.732  -1.740  -0.523  0.00  0.00     0.062 A 
ATOM      3  C2  UNL d   1       0.312  -0.765  -1.423  0.00  0.00     0.162 A 
ATOM      4  C3  UNL d   1      -0.596   0.216  -1.025  0.00  0.00    -0.034 A 
ATOM      5  C4  UNL d   1      -1.079   0.205   0.285  0.00  0.00     0.162 A 
ATOM      6  C5  UNL d   1      -0.656  -0.772   1.181  0.00  0.00     0.062 A 
ATOM      7  F   UNL d   1      -1.125  -0.774   2.437  0.00  0.00    -0.097 F 
ATOM      8  F1  UNL d   1      -1.953   1.133   0.700  0.00  0.00    -0.096 F 
ATOM      9  I   UNL d   1      -1.226   1.675  -2.368  0.00  0.00    -0.060 I 
ATOM     10  F2  UNL d   1       0.796  -0.786  -2.674  0.00  0.00    -0.096 F 
ATOM     11  F3  UNL d   1       1.606  -2.679  -0.914  0.00  0.00    -0.097 F 
ATOM     12  F4  UNL d   1       0.653  -2.684   1.642  0.00  0.00    -0.092 F 
ENDROOT
TORSDOF 0
ENDMDL
