MODEL 1
REMARK minimizedAffinity -0.550394595
REMARK minimizedRMSD -1
REMARK  0 active torsions:
REMARK  status: ('A' for Active; 'I' for Inactive)
ROOT
ATOM      1  C   UNL d   1       0.789  -0.971   0.823  0.00  0.00     0.124 A 
ATOM      2  C1  UNL d   1       1.323  -1.113  -0.450  0.00  0.00     0.062 A 
ATOM      3  C2  UNL d   1       0.908  -0.274  -1.481  0.00  0.00     0.162 A 
ATOM      4  C3  UNL d   1      -0.046   0.715  -1.243  0.00  0.00    -0.034 A 
ATOM      5  C4  UNL d   1      -0.579   0.851   0.040  0.00  0.00     0.162 A 
ATOM      6  C5  UNL d   1      -0.161   0.010   1.067  0.00  0.00     0.062 A 
ATOM      7  F   UNL d   1      -0.678   0.149   2.296  0.00  0.00    -0.097 F 
ATOM      8  F1  UNL d   1      -1.498   1.791   0.304  0.00  0.00    -0.096 F 
ATOM      9  I   UNL d   1      -0.669   1.970  -2.781  0.00  0.00    -0.060 I 
ATOM     10  F2  UNL d   1       1.442  -0.434  -2.701  0.00  0.00    -0.096 F 
ATOM     11  F3  UNL d   1       2.241  -2.061  -0.689  0.00  0.00    -0.097 F 
ATOM     12  F4  UNL d   1       1.190  -1.780   1.812  0.00  0.00    -0.092 F 
ENDROOT
TORSDOF 0
ENDMDL
