MODEL 1
REMARK minimizedAffinity -0.243319705
REMARK minimizedRMSD -1
REMARK  0 active torsions:
REMARK  status: ('A' for Active; 'I' for Inactive)
ROOT
ATOM      1  C   UNL d   1      -1.331   1.455  -0.174  0.00  0.00     0.124 A 
ATOM      2  C1  UNL d   1      -0.418   0.939  -1.083  0.00  0.00     0.062 A 
ATOM      3  C2  UNL d   1       0.429  -0.101  -0.711  0.00  0.00     0.162 A 
ATOM      4  C3  UNL d   1       0.366  -0.634   0.576  0.00  0.00    -0.034 A 
ATOM      5  C4  UNL d   1      -0.554  -0.110   1.485  0.00  0.00     0.162 A 
ATOM      6  C5  UNL d   1      -1.398   0.930   1.109  0.00  0.00     0.062 A 
ATOM      7  F   UNL d   1      -2.280   1.427   1.989  0.00  0.00    -0.097 F 
ATOM      8  F1  UNL d   1      -0.642  -0.599   2.731  0.00  0.00    -0.096 F 
ATOM      9  I   UNL d   1       1.630  -2.190   1.136  0.00  0.00    -0.060 I 
ATOM     10  F2  UNL d   1       1.301  -0.580  -1.611  0.00  0.00    -0.096 F 
ATOM     11  F3  UNL d   1      -0.350   1.445  -2.323  0.00  0.00    -0.097 F 
ATOM     12  F4  UNL d   1      -2.143   2.457  -0.533  0.00  0.00    -0.092 F 
ENDROOT
TORSDOF 0
ENDMDL
