MODEL 1
REMARK minimizedAffinity -3.57820749
REMARK minimizedRMSD -1
REMARK  0 active torsions:
REMARK  status: ('A' for Active; 'I' for Inactive)
ROOT
ATOM      1  C   UNL d   1       0.774   1.232  -0.248  0.00  0.00     0.124 A 
ATOM      2  C1  UNL d   1      -0.201   0.592   0.505  0.00  0.00     0.062 A 
ATOM      3  C2  UNL d   1       0.045  -0.666   1.046  0.00  0.00     0.162 A 
ATOM      4  C3  UNL d   1       1.273  -1.294   0.836  0.00  0.00    -0.034 A 
ATOM      5  C4  UNL d   1       2.249  -0.646   0.077  0.00  0.00     0.162 A 
ATOM      6  C5  UNL d   1       1.998   0.612  -0.461  0.00  0.00     0.062 A 
ATOM      7  F   UNL d   1       2.941   1.228  -1.188  0.00  0.00    -0.097 F 
ATOM      8  F1  UNL d   1       3.440  -1.221  -0.144  0.00  0.00    -0.096 F 
ATOM      9  I   UNL d   1       1.645  -3.176   1.643  0.00  0.00    -0.060 I 
ATOM     10  F2  UNL d   1      -0.915  -1.260   1.769  0.00  0.00    -0.096 F 
ATOM     11  F3  UNL d   1      -1.384   1.188   0.712  0.00  0.00    -0.097 F 
ATOM     12  F4  UNL d   1       0.534   2.442  -0.768  0.00  0.00    -0.092 F 
ENDROOT
TORSDOF 0
ENDMDL
