MODEL 1
REMARK minimizedAffinity 7.62691212
REMARK minimizedRMSD -1
REMARK  0 active torsions:
REMARK  status: ('A' for Active; 'I' for Inactive)
ROOT
ATOM      1  C   UNL d   1      -1.750   0.017  -0.094  0.00  0.00     0.124 A 
ATOM      2  C1  UNL d   1      -1.654  -0.173   1.278  0.00  0.00     0.062 A 
ATOM      3  C2  UNL d   1      -0.417  -0.420   1.865  0.00  0.00     0.162 A 
ATOM      4  C3  UNL d   1       0.736  -0.477   1.081  0.00  0.00    -0.034 A 
ATOM      5  C4  UNL d   1       0.631  -0.286  -0.298  0.00  0.00     0.162 A 
ATOM      6  C5  UNL d   1      -0.608  -0.040  -0.880  0.00  0.00     0.062 A 
ATOM      7  F   UNL d   1      -0.699   0.144  -2.206  0.00  0.00    -0.097 F 
ATOM      8  F1  UNL d   1       1.718  -0.334  -1.081  0.00  0.00    -0.096 F 
ATOM      9  I   UNL d   1       2.588  -0.846   1.955  0.00  0.00    -0.060 I 
ATOM     10  F2  UNL d   1      -0.353  -0.599   3.193  0.00  0.00    -0.096 F 
ATOM     11  F3  UNL d   1      -2.756  -0.119   2.039  0.00  0.00    -0.097 F 
ATOM     12  F4  UNL d   1      -2.943   0.253  -0.656  0.00  0.00    -0.092 F 
ENDROOT
TORSDOF 0
ENDMDL
