MODEL 1
REMARK minimizedAffinity 3.36913133
REMARK minimizedRMSD -1
REMARK  0 active torsions:
REMARK  status: ('A' for Active; 'I' for Inactive)
ROOT
ATOM      1  C   UNL d   1       2.253  -0.929   0.361  0.00  0.00     0.124 A 
ATOM      2  C1  UNL d   1       1.945   0.424   0.393  0.00  0.00     0.062 A 
ATOM      3  C2  UNL d   1       0.688   0.865  -0.011  0.00  0.00     0.162 A 
ATOM      4  C3  UNL d   1      -0.271  -0.048  -0.451  0.00  0.00    -0.034 A 
ATOM      5  C4  UNL d   1       0.047  -1.407  -0.481  0.00  0.00     0.162 A 
ATOM      6  C5  UNL d   1       1.305  -1.843  -0.076  0.00  0.00     0.062 A 
ATOM      7  F   UNL d   1       1.601  -3.150  -0.107  0.00  0.00    -0.097 F 
ATOM      8  F1  UNL d   1      -0.851  -2.312  -0.898  0.00  0.00    -0.096 F 
ATOM      9  I   UNL d   1      -2.151   0.607  -1.056  0.00  0.00    -0.060 I 
ATOM     10  F2  UNL d   1       0.417   2.178   0.030  0.00  0.00    -0.096 F 
ATOM     11  F3  UNL d   1       2.860   1.309   0.814  0.00  0.00    -0.097 F 
ATOM     12  F4  UNL d   1       3.463  -1.351   0.750  0.00  0.00    -0.092 F 
ENDROOT
TORSDOF 0
ENDMDL
