MODEL 1
REMARK minimizedAffinity 0.605442286
REMARK minimizedRMSD -1
REMARK  0 active torsions:
REMARK  status: ('A' for Active; 'I' for Inactive)
ROOT
ATOM      1  C   UNL d   1      -1.839   1.259  -1.673  0.00  0.00     0.124 A 
ATOM      2  C1  UNL d   1      -1.820   1.001  -0.310  0.00  0.00     0.062 A 
ATOM      3  C2  UNL d   1      -0.835   0.182   0.234  0.00  0.00     0.162 A 
ATOM      4  C3  UNL d   1       0.140  -0.386  -0.586  0.00  0.00    -0.034 A 
ATOM      5  C4  UNL d   1       0.114  -0.123  -1.957  0.00  0.00     0.162 A 
ATOM      6  C5  UNL d   1      -0.872   0.697  -2.495  0.00  0.00     0.062 A 
ATOM      7  F   UNL d   1      -0.889   0.945  -3.813  0.00  0.00    -0.097 F 
ATOM      8  F1  UNL d   1       1.036  -0.652  -2.774  0.00  0.00    -0.096 F 
ATOM      9  I   UNL d   1       1.615  -1.611   0.224  0.00  0.00    -0.060 I 
ATOM     10  F2  UNL d   1      -0.841  -0.050   1.555  0.00  0.00    -0.096 F 
ATOM     11  F3  UNL d   1      -2.753   1.542   0.486  0.00  0.00    -0.097 F 
ATOM     12  F4  UNL d   1      -2.788   2.047  -2.194  0.00  0.00    -0.092 F 
ENDROOT
TORSDOF 0
ENDMDL
