MODEL 1
REMARK minimizedAffinity 1.50815117
REMARK minimizedRMSD -1
REMARK  0 active torsions:
REMARK  status: ('A' for Active; 'I' for Inactive)
ROOT
ATOM      1  O1  BZF d   1      -2.291   0.905   2.743  0.00  0.00    -0.204 OA
ATOM      2  C2  BZF d   1      -2.564   2.240   2.512  0.00  0.00     0.174 A 
ATOM      3  C3  BZF d   1      -1.645   2.780   1.686  0.00  0.00    -0.012 A 
ATOM      4  C3A BZF d   1      -0.795   1.694   1.307  0.00  0.00    -0.107 A 
ATOM      5  C4  BZF d   1       0.294   1.595   0.488  0.00  0.00     0.055 A 
ATOM      6  C5  BZF d   1       0.941   0.404   0.390  0.00  0.00    -0.016 A 
ATOM      7  C6  BZF d   1       0.530  -0.705   1.099  0.00  0.00     0.022 A 
ATOM      8  C7  BZF d   1      -0.547  -0.657   1.920  0.00  0.00     0.029 A 
ATOM      9  C7A BZF d   1      -1.223   0.536   1.996  0.00  0.00     0.058 A 
ENDROOT
TORSDOF 0
ENDMDL
