MODEL 1
REMARK minimizedAffinity 2.09264088
REMARK minimizedRMSD -1
REMARK  0 active torsions:
REMARK  status: ('A' for Active; 'I' for Inactive)
ROOT
ATOM      1  O1  BZF d   1       1.535  -0.288   0.756  0.00  0.00    -0.204 OA
ATOM      2  C2  BZF d   1       2.239   0.602  -0.030  0.00  0.00     0.174 A 
ATOM      3  C3  BZF d   1       1.578   1.773  -0.136  0.00  0.00    -0.012 A 
ATOM      4  C3A BZF d   1       0.431   1.635   0.708  0.00  0.00    -0.107 A 
ATOM      5  C4  BZF d   1      -0.601   2.469   1.033  0.00  0.00     0.055 A 
ATOM      6  C5  BZF d   1      -1.600   2.004   1.828  0.00  0.00    -0.016 A 
ATOM      7  C6  BZF d   1      -1.602   0.711   2.311  0.00  0.00     0.022 A 
ATOM      8  C7  BZF d   1      -0.597  -0.151   2.020  0.00  0.00     0.029 A 
ATOM      9  C7A BZF d   1       0.430   0.327   1.243  0.00  0.00     0.058 A 
ENDROOT
TORSDOF 0
ENDMDL
