MODEL 1
REMARK minimizedAffinity 0.581407666
REMARK minimizedRMSD -1
REMARK  0 active torsions:
REMARK  status: ('A' for Active; 'I' for Inactive)
ROOT
ATOM      1  O1  BZF d   1       1.264   2.018   0.914  0.00  0.00    -0.204 OA
ATOM      2  C2  BZF d   1       2.150   0.959   0.972  0.00  0.00     0.174 A 
ATOM      3  C3  BZF d   1       1.528  -0.162   1.392  0.00  0.00    -0.012 A 
ATOM      4  C3A BZF d   1       0.150   0.198   1.521  0.00  0.00    -0.107 A 
ATOM      5  C4  BZF d   1      -0.970  -0.492   1.888  0.00  0.00     0.055 A 
ATOM      6  C5  BZF d   1      -2.153   0.170   1.983  0.00  0.00    -0.016 A 
ATOM      7  C6  BZF d   1      -2.251   1.522   1.725  0.00  0.00     0.022 A 
ATOM      8  C7  BZF d   1      -1.168   2.248   1.353  0.00  0.00     0.029 A 
ATOM      9  C7A BZF d   1       0.022   1.574   1.224  0.00  0.00     0.058 A 
ENDROOT
TORSDOF 0
ENDMDL
