MODEL 1
REMARK minimizedAffinity 0.624970436
REMARK minimizedRMSD -1
REMARK  0 active torsions:
REMARK  status: ('A' for Active; 'I' for Inactive)
ROOT
ATOM      1  O1  BZF d   1       1.878   2.014   0.402  0.00  0.00    -0.204 OA
ATOM      2  C2  BZF d   1       2.490   0.814   0.094  0.00  0.00     0.174 A 
ATOM      3  C3  BZF d   1       1.705  -0.226   0.439  0.00  0.00    -0.012 A 
ATOM      4  C3A BZF d   1       0.489   0.361   0.912  0.00  0.00    -0.107 A 
ATOM      5  C4  BZF d   1      -0.684  -0.159   1.382  0.00  0.00     0.055 A 
ATOM      6  C5  BZF d   1      -1.647   0.687   1.832  0.00  0.00    -0.016 A 
ATOM      7  C6  BZF d   1      -1.470   2.055   1.832  0.00  0.00     0.022 A 
ATOM      8  C7  BZF d   1      -0.326   2.617   1.371  0.00  0.00     0.029 A 
ATOM      9  C7A BZF d   1       0.636   1.767   0.885  0.00  0.00     0.058 A 
ENDROOT
TORSDOF 0
ENDMDL
