MODEL 1
REMARK minimizedAffinity 6.17618465
REMARK minimizedRMSD -1
REMARK  0 active torsions:
REMARK  status: ('A' for Active; 'I' for Inactive)
ROOT
ATOM      1  O1  BZF d   1       1.092  -0.492   1.099  0.00  0.00    -0.204 OA
ATOM      2  C2  BZF d   1       0.285  -1.324   1.851  0.00  0.00     0.174 A 
ATOM      3  C3  BZF d   1      -0.812  -0.666   2.279  0.00  0.00    -0.012 A 
ATOM      4  C3A BZF d   1      -0.728   0.633   1.685  0.00  0.00    -0.107 A 
ATOM      5  C4  BZF d   1      -1.532   1.736   1.723  0.00  0.00     0.055 A 
ATOM      6  C5  BZF d   1      -1.128   2.870   1.093  0.00  0.00    -0.016 A 
ATOM      7  C6  BZF d   1       0.076   2.938   0.421  0.00  0.00     0.022 A 
ATOM      8  C7  BZF d   1       0.905   1.868   0.353  0.00  0.00     0.029 A 
ATOM      9  C7A BZF d   1       0.483   0.710   0.960  0.00  0.00     0.058 A 
ENDROOT
TORSDOF 0
ENDMDL
