MODEL 1
REMARK minimizedAffinity -0.342484385
REMARK minimizedRMSD -1
REMARK  0 active torsions:
REMARK  status: ('A' for Active; 'I' for Inactive)
ROOT
ATOM      1  O1  BZF d   1       0.898   1.797   0.850  0.00  0.00    -0.204 OA
ATOM      2  C2  BZF d   1       1.625   0.718   0.383  0.00  0.00     0.174 A 
ATOM      3  C3  BZF d   1       0.945  -0.432   0.567  0.00  0.00    -0.012 A 
ATOM      4  C3A BZF d   1      -0.322  -0.039   1.103  0.00  0.00    -0.107 A 
ATOM      5  C4  BZF d   1      -1.437  -0.731   1.480  0.00  0.00     0.055 A 
ATOM      6  C5  BZF d   1      -2.478  -0.055   2.034  0.00  0.00    -0.016 A 
ATOM      7  C6  BZF d   1      -2.435   1.310   2.229  0.00  0.00     0.022 A 
ATOM      8  C7  BZF d   1      -1.353   2.040   1.867  0.00  0.00     0.029 A 
ATOM      9  C7A BZF d   1      -0.312   1.364   1.277  0.00  0.00     0.058 A 
ENDROOT
TORSDOF 0
ENDMDL
