MODEL 1
REMARK minimizedAffinity 5.07698441
REMARK minimizedRMSD -1
REMARK  0 active torsions:
REMARK  status: ('A' for Active; 'I' for Inactive)
ROOT
ATOM      1  O1  BZF d   1      -2.738   1.177   2.004  0.00  0.00    -0.204 OA
ATOM      2  C2  BZF d   1      -2.724   2.554   1.897  0.00  0.00     0.174 A 
ATOM      3  C3  BZF d   1      -1.502   2.993   1.534  0.00  0.00    -0.012 A 
ATOM      4  C3A BZF d   1      -0.726   1.810   1.316  0.00  0.00    -0.107 A 
ATOM      5  C4  BZF d   1       0.563   1.592   0.924  0.00  0.00     0.055 A 
ATOM      6  C5  BZF d   1       1.034   0.318   0.880  0.00  0.00    -0.016 A 
ATOM      7  C6  BZF d   1       0.245  -0.760   1.226  0.00  0.00     0.022 A 
ATOM      8  C7  BZF d   1      -1.042  -0.593   1.616  0.00  0.00     0.029 A 
ATOM      9  C7A BZF d   1      -1.531   0.690   1.630  0.00  0.00     0.058 A 
ENDROOT
TORSDOF 0
ENDMDL
