MODEL 1
REMARK minimizedAffinity 0.197788224
REMARK minimizedRMSD -1
REMARK  0 active torsions:
REMARK  status: ('A' for Active; 'I' for Inactive)
ROOT
ATOM      1  O1  BZF d   1      -2.066   1.139   1.993  0.00  0.00    -0.204 OA
ATOM      2  C2  BZF d   1      -2.254   2.487   1.755  0.00  0.00     0.174 A 
ATOM      3  C3  BZF d   1      -1.149   3.034   1.208  0.00  0.00    -0.012 A 
ATOM      4  C3A BZF d   1      -0.245   1.942   1.012  0.00  0.00    -0.107 A 
ATOM      5  C4  BZF d   1       1.013   1.847   0.490  0.00  0.00     0.055 A 
ATOM      6  C5  BZF d   1       1.647   0.645   0.510  0.00  0.00    -0.016 A 
ATOM      7  C6  BZF d   1       1.056  -0.479   1.049  0.00  0.00     0.022 A 
ATOM      8  C7  BZF d   1      -0.193  -0.435   1.574  0.00  0.00     0.029 A 
ATOM      9  C7A BZF d   1      -0.849   0.771   1.525  0.00  0.00     0.058 A 
ENDROOT
TORSDOF 0
ENDMDL
