MODEL 1
REMARK minimizedAffinity 11.5042887
REMARK minimizedRMSD -1
REMARK  0 active torsions:
REMARK  status: ('A' for Active; 'I' for Inactive)
ROOT
ATOM      1  O1  BZF d   1      -0.656   2.794   1.268  0.00  0.00    -0.204 OA
ATOM      2  C2  BZF d   1      -1.852   2.539   1.911  0.00  0.00     0.174 A 
ATOM      3  C3  BZF d   1      -1.766   1.417   2.654  0.00  0.00    -0.012 A 
ATOM      4  C3A BZF d   1      -0.405   0.991   2.537  0.00  0.00    -0.107 A 
ATOM      5  C4  BZF d   1       0.300  -0.055   3.060  0.00  0.00     0.055 A 
ATOM      6  C5  BZF d   1       1.596  -0.228   2.690  0.00  0.00    -0.016 A 
ATOM      7  C6  BZF d   1       2.216   0.620   1.797  0.00  0.00     0.022 A 
ATOM      8  C7  BZF d   1       1.560   1.674   1.255  0.00  0.00     0.029 A 
ATOM      9  C7A BZF d   1       0.260   1.872   1.652  0.00  0.00     0.058 A 
ENDROOT
TORSDOF 0
ENDMDL
