MODEL 1
REMARK minimizedAffinity 2.15436125
REMARK minimizedRMSD -1
REMARK  0 active torsions:
REMARK  status: ('A' for Active; 'I' for Inactive)
ROOT
ATOM      1  O1  BZF d   1      -1.569   2.660   1.749  0.00  0.00    -0.204 OA
ATOM      2  C2  BZF d   1      -0.322   3.246   1.640  0.00  0.00     0.174 A 
ATOM      3  C3  BZF d   1       0.638   2.308   1.508  0.00  0.00    -0.012 A 
ATOM      4  C3A BZF d   1      -0.061   1.061   1.445  0.00  0.00    -0.107 A 
ATOM      5  C4  BZF d   1       0.343  -0.235   1.300  0.00  0.00     0.055 A 
ATOM      6  C5  BZF d   1      -0.585  -1.226   1.350  0.00  0.00    -0.016 A 
ATOM      7  C6  BZF d   1      -1.924  -0.958   1.549  0.00  0.00     0.022 A 
ATOM      8  C7  BZF d   1      -2.373   0.313   1.693  0.00  0.00     0.029 A 
ATOM      9  C7A BZF d   1      -1.442   1.318   1.609  0.00  0.00     0.058 A 
ENDROOT
TORSDOF 0
ENDMDL
