MODEL 1
REMARK minimizedAffinity 2.73499298
REMARK minimizedRMSD -1
REMARK  0 active torsions:
REMARK  status: ('A' for Active; 'I' for Inactive)
ROOT
ATOM      1  O1  BZF d   1      -0.072   2.374   1.435  0.00  0.00    -0.204 OA
ATOM      2  C2  BZF d   1       0.821   1.461   0.909  0.00  0.00     0.174 A 
ATOM      3  C3  BZF d   1       0.396   0.198   1.121  0.00  0.00    -0.012 A 
ATOM      4  C3A BZF d   1      -0.886   0.332   1.742  0.00  0.00    -0.107 A 
ATOM      5  C4  BZF d   1      -1.815  -0.567   2.181  0.00  0.00     0.055 A 
ATOM      6  C5  BZF d   1      -2.931  -0.111   2.809  0.00  0.00    -0.016 A 
ATOM      7  C6  BZF d   1      -3.147   1.236   3.019  0.00  0.00     0.022 A 
ATOM      8  C7  BZF d   1      -2.256   2.166   2.597  0.00  0.00     0.029 A 
ATOM      9  C7A BZF d   1      -1.143   1.710   1.933  0.00  0.00     0.058 A 
ENDROOT
TORSDOF 0
ENDMDL
