MODEL 1
REMARK minimizedAffinity 0.807312131
REMARK minimizedRMSD -1
REMARK  0 active torsions:
REMARK  status: ('A' for Active; 'I' for Inactive)
ROOT
ATOM      1  O1  BZF d   1      -2.590   1.148   2.662  0.00  0.00    -0.204 OA
ATOM      2  C2  BZF d   1      -2.477   2.524   2.663  0.00  0.00     0.174 A 
ATOM      3  C3  BZF d   1      -1.326   2.910   2.075  0.00  0.00    -0.012 A 
ATOM      4  C3A BZF d   1      -0.722   1.703   1.600  0.00  0.00    -0.107 A 
ATOM      5  C4  BZF d   1       0.429   1.434   0.918  0.00  0.00     0.055 A 
ATOM      6  C5  BZF d   1       0.765   0.141   0.671  0.00  0.00    -0.016 A 
ATOM      7  C6  BZF d   1      -0.025  -0.908   1.096  0.00  0.00     0.022 A 
ATOM      8  C7  BZF d   1      -1.179  -0.691   1.772  0.00  0.00     0.029 A 
ATOM      9  C7A BZF d   1      -1.537   0.617   1.994  0.00  0.00     0.058 A 
ENDROOT
TORSDOF 0
ENDMDL
