MODEL 1
REMARK minimizedAffinity -0.617638886
REMARK minimizedRMSD -1
REMARK  0 active torsions:
REMARK  status: ('A' for Active; 'I' for Inactive)
ROOT
ATOM      1  O1  BZF d   1       1.433   1.739   0.853  0.00  0.00    -0.204 OA
ATOM      2  C2  BZF d   1       2.203   0.632   0.551  0.00  0.00     0.174 A 
ATOM      3  C3  BZF d   1       1.508  -0.505   0.761  0.00  0.00    -0.012 A 
ATOM      4  C3A BZF d   1       0.194  -0.080   1.135  0.00  0.00    -0.107 A 
ATOM      5  C4  BZF d   1      -0.953  -0.748   1.456  0.00  0.00     0.055 A 
ATOM      6  C5  BZF d   1      -2.044  -0.037   1.846  0.00  0.00    -0.016 A 
ATOM      7  C6  BZF d   1      -2.021   1.339   1.932  0.00  0.00     0.022 A 
ATOM      8  C7  BZF d   1      -0.908   2.046   1.619  0.00  0.00     0.029 A 
ATOM      9  C7A BZF d   1       0.186   1.333   1.193  0.00  0.00     0.058 A 
ENDROOT
TORSDOF 0
ENDMDL
