MODEL 1
REMARK minimizedAffinity 8.88397598
REMARK minimizedRMSD -1
REMARK  0 active torsions:
REMARK  status: ('A' for Active; 'I' for Inactive)
ROOT
ATOM      1  O1  BZF d   1      -3.493  -2.216  -3.711  0.00  0.00    -0.204 OA
ATOM      2  C2  BZF d   1      -3.368  -0.842  -3.629  0.00  0.00     0.174 A 
ATOM      3  C3  BZF d   1      -3.258  -0.447  -2.345  0.00  0.00    -0.012 A 
ATOM      4  C3A BZF d   1      -3.224  -1.656  -1.581  0.00  0.00    -0.107 A 
ATOM      5  C4  BZF d   1      -3.110  -1.920  -0.246  0.00  0.00     0.055 A 
ATOM      6  C5  BZF d   1      -3.184  -3.208   0.181  0.00  0.00    -0.016 A 
ATOM      7  C6  BZF d   1      -3.378  -4.254  -0.697  0.00  0.00     0.022 A 
ATOM      8  C7  BZF d   1      -3.492  -4.042  -2.030  0.00  0.00     0.029 A 
ATOM      9  C7A BZF d   1      -3.384  -2.745  -2.469  0.00  0.00     0.058 A 
ENDROOT
TORSDOF 0
ENDMDL
