MODEL 1
REMARK minimizedAffinity -0.385908604
REMARK minimizedRMSD -1
REMARK  0 active torsions:
REMARK  status: ('A' for Active; 'I' for Inactive)
ROOT
ATOM      1  O1  BZF d   1       0.758   1.528   0.879  0.00  0.00    -0.204 OA
ATOM      2  C2  BZF d   1       0.815   2.890   0.651  0.00  0.00     0.174 A 
ATOM      3  C3  BZF d   1      -0.329   3.488   1.042  0.00  0.00    -0.012 A 
ATOM      4  C3A BZF d   1      -1.115   2.448   1.631  0.00  0.00    -0.107 A 
ATOM      5  C4  BZF d   1      -2.348   2.421   2.218  0.00  0.00     0.055 A 
ATOM      6  C5  BZF d   1      -2.860   1.229   2.625  0.00  0.00    -0.016 A 
ATOM      7  C6  BZF d   1      -2.169   0.047   2.457  0.00  0.00     0.022 A 
ATOM      8  C7  BZF d   1      -0.941   0.024   1.885  0.00  0.00     0.029 A 
ATOM      9  C7A BZF d   1      -0.407   1.231   1.502  0.00  0.00     0.058 A 
ENDROOT
TORSDOF 0
ENDMDL
