MODEL 1
REMARK minimizedAffinity -4.66766596
REMARK minimizedRMSD -1
REMARK  0 active torsions:
REMARK  status: ('A' for Active; 'I' for Inactive)
ROOT
ATOM      1  C   UNL d   1       4.913   5.995  -2.227  0.00  0.00     0.023 A 
ATOM      2  C1  UNL d   1       3.711   5.912  -2.929  0.00  0.00     0.003 A 
ATOM      3  C2  UNL d   1       3.592   5.038  -4.012  0.00  0.00     0.048 A 
ATOM      4  C3  UNL d   1       4.679   4.249  -4.386  0.00  0.00     0.023 A 
ATOM      5  C4  UNL d   1       5.884   4.329  -3.686  0.00  0.00     0.048 A 
ATOM      6  C5  UNL d   1       5.999   5.205  -2.606  0.00  0.00     0.003 A 
ATOM      7  I   UNL d   1       4.504   2.947  -5.997  0.00  0.00    -0.146 I 
ENDROOT
TORSDOF 0
ENDMDL
