MODEL 1
REMARK minimizedAffinity 2.59666324
REMARK minimizedRMSD -1
REMARK  0 active torsions:
REMARK  status: ('A' for Active; 'I' for Inactive)
ROOT
ATOM      1  C   UNL d   1       4.084  -3.264  -4.499  0.00  0.00     0.023 A 
ATOM      2  C1  UNL d   1       5.113  -4.131  -4.130  0.00  0.00     0.003 A 
ATOM      3  C2  UNL d   1       5.665  -4.056  -2.849  0.00  0.00     0.048 A 
ATOM      4  C3  UNL d   1       5.181  -3.114  -1.942  0.00  0.00     0.023 A 
ATOM      5  C4  UNL d   1       4.151  -2.246  -2.306  0.00  0.00     0.048 A 
ATOM      6  C5  UNL d   1       3.604  -2.323  -3.589  0.00  0.00     0.003 A 
ATOM      7  I   UNL d   1       6.000  -3.001  -0.035  0.00  0.00    -0.146 I 
ENDROOT
TORSDOF 0
ENDMDL
