MODEL 1
REMARK minimizedAffinity 0.460697502
REMARK minimizedRMSD -1
REMARK  0 active torsions:
REMARK  status: ('A' for Active; 'I' for Inactive)
ROOT
ATOM      1  C   UNL d   1       6.000  -3.586  -0.792  0.00  0.00     0.023 A 
ATOM      2  C1  UNL d   1       5.250  -2.412  -0.867  0.00  0.00     0.003 A 
ATOM      3  C2  UNL d   1       4.496  -2.136  -2.010  0.00  0.00     0.048 A 
ATOM      4  C3  UNL d   1       4.497  -3.037  -3.073  0.00  0.00     0.023 A 
ATOM      5  C4  UNL d   1       5.245  -4.213  -3.003  0.00  0.00     0.048 A 
ATOM      6  C5  UNL d   1       5.998  -4.485  -1.859  0.00  0.00     0.003 A 
ATOM      7  I   UNL d   1       3.376  -2.628  -4.775  0.00  0.00    -0.146 I 
ENDROOT
TORSDOF 0
ENDMDL
