MODEL 1
REMARK minimizedAffinity 4.8995347
REMARK minimizedRMSD -1
REMARK  0 active torsions:
REMARK  status: ('A' for Active; 'I' for Inactive)
ROOT
ATOM      1  C   UNL d   1       3.137  -2.615  -5.107  0.00  0.00     0.023 A 
ATOM      2  C1  UNL d   1       4.483  -2.264  -5.214  0.00  0.00     0.003 A 
ATOM      3  C2  UNL d   1       5.304  -2.290  -4.085  0.00  0.00     0.048 A 
ATOM      4  C3  UNL d   1       4.773  -2.669  -2.852  0.00  0.00     0.023 A 
ATOM      5  C4  UNL d   1       3.428  -3.022  -2.741  0.00  0.00     0.048 A 
ATOM      6  C5  UNL d   1       2.610  -2.993  -3.873  0.00  0.00     0.003 A 
ATOM      7  I   UNL d   1       5.994  -2.709  -1.170  0.00  0.00    -0.146 I 
ENDROOT
TORSDOF 0
ENDMDL
