MODEL 1
REMARK minimizedAffinity 8.84146214
REMARK minimizedRMSD -1
REMARK  0 active torsions:
REMARK  status: ('A' for Active; 'I' for Inactive)
ROOT
ATOM      1  C   UNL d   1       1.687  -4.331  -6.000  0.00  0.00     0.023 A 
ATOM      2  C1  UNL d   1       2.462  -3.988  -4.892  0.00  0.00     0.003 A 
ATOM      3  C2  UNL d   1       1.861  -3.421  -3.766  0.00  0.00     0.048 A 
ATOM      4  C3  UNL d   1       0.484  -3.201  -3.754  0.00  0.00     0.023 A 
ATOM      5  C4  UNL d   1      -0.296  -3.544  -4.860  0.00  0.00     0.048 A 
ATOM      6  C5  UNL d   1       0.310  -4.109  -5.984  0.00  0.00     0.003 A 
ATOM      7  I   UNL d   1      -0.412  -2.358  -2.080  0.00  0.00    -0.146 I 
ENDROOT
TORSDOF 0
ENDMDL
