MODEL 1
REMARK minimizedAffinity 6.7940011
REMARK minimizedRMSD -1
REMARK  0 active torsions:
REMARK  status: ('A' for Active; 'I' for Inactive)
ROOT
ATOM      1  C   UNL d   1       3.494  -2.447  -4.925  0.00  0.00     0.023 A 
ATOM      2  C1  UNL d   1       2.828  -2.633  -3.713  0.00  0.00     0.003 A 
ATOM      3  C2  UNL d   1       3.546  -2.643  -2.515  0.00  0.00     0.048 A 
ATOM      4  C3  UNL d   1       4.929  -2.465  -2.536  0.00  0.00     0.023 A 
ATOM      5  C4  UNL d   1       5.599  -2.278  -3.746  0.00  0.00     0.048 A 
ATOM      6  C5  UNL d   1       4.878  -2.270  -4.941  0.00  0.00     0.003 A 
ATOM      7  I   UNL d   1       5.999  -2.479  -0.755  0.00  0.00    -0.146 I 
ENDROOT
TORSDOF 0
ENDMDL
