MODEL 1
REMARK minimizedAffinity 6.29927015
REMARK minimizedRMSD -1
REMARK  0 active torsions:
REMARK  status: ('A' for Active; 'I' for Inactive)
ROOT
ATOM      1  C   UNL d   1       2.589   3.182  -3.860  0.00  0.00     0.023 A 
ATOM      2  C1  UNL d   1       3.851   2.657  -3.581  0.00  0.00     0.003 A 
ATOM      3  C2  UNL d   1       4.831   3.463  -2.998  0.00  0.00     0.048 A 
ATOM      4  C3  UNL d   1       4.543   4.793  -2.695  0.00  0.00     0.023 A 
ATOM      5  C4  UNL d   1       3.281   5.323  -2.972  0.00  0.00     0.048 A 
ATOM      6  C5  UNL d   1       2.305   4.514  -3.556  0.00  0.00     0.003 A 
ATOM      7  I   UNL d   1       6.000   5.994  -1.828  0.00  0.00    -0.146 I 
ENDROOT
TORSDOF 0
ENDMDL
