MODEL 1
REMARK minimizedAffinity 8.4636755
REMARK minimizedRMSD -1
REMARK  0 active torsions:
REMARK  status: ('A' for Active; 'I' for Inactive)
ROOT
ATOM      1  C   UNL d   1      -1.354  -2.014  -2.078  0.00  0.00     0.023 A 
ATOM      2  C1  UNL d   1      -1.565  -2.568  -3.341  0.00  0.00     0.003 A 
ATOM      3  C2  UNL d   1      -0.514  -3.194  -4.014  0.00  0.00     0.048 A 
ATOM      4  C3  UNL d   1       0.745  -3.264  -3.419  0.00  0.00     0.023 A 
ATOM      5  C4  UNL d   1       0.961  -2.712  -2.155  0.00  0.00     0.048 A 
ATOM      6  C5  UNL d   1      -0.093  -2.086  -1.486  0.00  0.00     0.003 A 
ATOM      7  I   UNL d   1       2.310  -4.196  -4.420  0.00  0.00    -0.146 I 
ENDROOT
TORSDOF 0
ENDMDL
