MODEL 1
REMARK minimizedAffinity -0.611120582
REMARK minimizedRMSD -1
REMARK  0 active torsions:
REMARK  status: ('A' for Active; 'I' for Inactive)
ROOT
ATOM      1  C   UNL d   1       4.836   5.750  -2.231  0.00  0.00     0.023 A 
ATOM      2  C1  UNL d   1       5.999   5.393  -2.913  0.00  0.00     0.003 A 
ATOM      3  C2  UNL d   1       5.934   4.503  -3.988  0.00  0.00     0.048 A 
ATOM      4  C3  UNL d   1       4.703   3.977  -4.376  0.00  0.00     0.023 A 
ATOM      5  C4  UNL d   1       3.536   4.332  -3.697  0.00  0.00     0.048 A 
ATOM      6  C5  UNL d   1       3.606   5.221  -2.623  0.00  0.00     0.003 A 
ATOM      7  I   UNL d   1       4.604   2.653  -5.976  0.00  0.00    -0.146 I 
ENDROOT
TORSDOF 0
ENDMDL
