MODEL 1
REMARK minimizedAffinity 6.55518341
REMARK minimizedRMSD -1
REMARK  0 active torsions:
REMARK  status: ('A' for Active; 'I' for Inactive)
ROOT
ATOM      1  C   UNL d   1       4.117   5.927  -1.500  0.00  0.00     0.023 A 
ATOM      2  C1  UNL d   1       5.458   5.993  -1.880  0.00  0.00     0.003 A 
ATOM      3  C2  UNL d   1       6.000   5.007  -2.708  0.00  0.00     0.048 A 
ATOM      4  C3  UNL d   1       5.195   3.958  -3.152  0.00  0.00     0.023 A 
ATOM      5  C4  UNL d   1       3.853   3.888  -2.774  0.00  0.00     0.048 A 
ATOM      6  C5  UNL d   1       3.316   4.876  -1.946  0.00  0.00     0.003 A 
ATOM      7  I   UNL d   1       5.999   2.490  -4.383  0.00  0.00    -0.146 I 
ENDROOT
TORSDOF 0
ENDMDL
