MODEL 1
REMARK minimizedAffinity 1.13717473
REMARK minimizedRMSD -1
REMARK  0 active torsions:
REMARK  status: ('A' for Active; 'I' for Inactive)
ROOT
ATOM      1  C   UNL d   1       5.983   4.087  -5.416  0.00  0.00     0.023 A 
ATOM      2  C1  UNL d   1       5.941   3.232  -4.316  0.00  0.00     0.003 A 
ATOM      3  C2  UNL d   1       5.918   3.757  -3.022  0.00  0.00     0.048 A 
ATOM      4  C3  UNL d   1       5.934   5.139  -2.836  0.00  0.00     0.023 A 
ATOM      5  C4  UNL d   1       5.975   5.999  -3.935  0.00  0.00     0.048 A 
ATOM      6  C5  UNL d   1       6.000   5.469  -5.226  0.00  0.00     0.003 A 
ATOM      7  I   UNL d   1       5.898   5.923  -0.912  0.00  0.00    -0.146 I 
ENDROOT
TORSDOF 0
ENDMDL
