MODEL 1
REMARK minimizedAffinity 10.6717834
REMARK minimizedRMSD -1
REMARK  0 active torsions:
REMARK  status: ('A' for Active; 'I' for Inactive)
ROOT
ATOM      1  C   UNL d   1       3.157  -1.780   3.734  0.00  0.00     0.023 A 
ATOM      2  C1  UNL d   1       3.754  -2.811   3.009  0.00  0.00     0.003 A 
ATOM      3  C2  UNL d   1       4.571  -3.740   3.656  0.00  0.00     0.048 A 
ATOM      4  C3  UNL d   1       4.785  -3.633   5.030  0.00  0.00     0.023 A 
ATOM      5  C4  UNL d   1       4.189  -2.604   5.760  0.00  0.00     0.048 A 
ATOM      6  C5  UNL d   1       3.374  -1.677   5.108  0.00  0.00     0.003 A 
ATOM      7  I   UNL d   1       6.000  -5.015   5.996  0.00  0.00    -0.146 I 
ENDROOT
TORSDOF 0
ENDMDL
