MODEL 1
REMARK minimizedAffinity 7.49045372
REMARK minimizedRMSD -1
REMARK  0 active torsions:
REMARK  status: ('A' for Active; 'I' for Inactive)
ROOT
ATOM      1  C   UNL d   1       1.497   4.336  -1.920  0.00  0.00     0.023 A 
ATOM      2  C1  UNL d   1       2.091   4.173  -0.669  0.00  0.00     0.003 A 
ATOM      3  C2  UNL d   1       3.383   4.649  -0.440  0.00  0.00     0.048 A 
ATOM      4  C3  UNL d   1       4.076   5.289  -1.467  0.00  0.00     0.023 A 
ATOM      5  C4  UNL d   1       3.485   5.456  -2.721  0.00  0.00     0.048 A 
ATOM      6  C5  UNL d   1       2.193   4.977  -2.945  0.00  0.00     0.003 A 
ATOM      7  I   UNL d   1       5.999   6.000  -1.129  0.00  0.00    -0.146 I 
ENDROOT
TORSDOF 0
ENDMDL
