MODEL 1
REMARK minimizedAffinity 8.60732269
REMARK minimizedRMSD -1
REMARK  0 active torsions:
REMARK  status: ('A' for Active; 'I' for Inactive)
ROOT
ATOM      1  C   UNL d   1       3.997  -1.897  -3.800  0.00  0.00     0.023 A 
ATOM      2  C1  UNL d   1       5.326  -1.621  -3.478  0.00  0.00     0.003 A 
ATOM      3  C2  UNL d   1       5.902  -0.408  -3.859  0.00  0.00     0.048 A 
ATOM      4  C3  UNL d   1       5.142   0.527  -4.563  0.00  0.00     0.023 A 
ATOM      5  C4  UNL d   1       3.812   0.256  -4.887  0.00  0.00     0.048 A 
ATOM      6  C5  UNL d   1       3.241  -0.960  -4.504  0.00  0.00     0.003 A 
ATOM      7  I   UNL d   1       5.996   2.334  -5.132  0.00  0.00    -0.146 I 
ENDROOT
TORSDOF 0
ENDMDL
