MODEL 1
REMARK minimizedAffinity 4.48102856
REMARK minimizedRMSD -1
REMARK  0 active torsions:
REMARK  status: ('A' for Active; 'I' for Inactive)
ROOT
ATOM      1  C   UNL d   1       5.770   5.556  -0.868  0.00  0.00     0.023 A 
ATOM      2  C1  UNL d   1       5.984   5.966  -2.184  0.00  0.00     0.003 A 
ATOM      3  C2  UNL d   1       5.011   5.730  -3.158  0.00  0.00     0.048 A 
ATOM      4  C3  UNL d   1       3.825   5.086  -2.808  0.00  0.00     0.023 A 
ATOM      5  C4  UNL d   1       3.606   4.675  -1.492  0.00  0.00     0.048 A 
ATOM      6  C5  UNL d   1       4.582   4.912  -0.523  0.00  0.00     0.003 A 
ATOM      7  I   UNL d   1       2.376   4.735  -4.255  0.00  0.00    -0.146 I 
ENDROOT
TORSDOF 0
ENDMDL
