MODEL 1
REMARK minimizedAffinity 7.77211952
REMARK minimizedRMSD -1
REMARK  0 active torsions:
REMARK  status: ('A' for Active; 'I' for Inactive)
ROOT
ATOM      1  C   UNL d   1      -3.970  -3.098   1.531  0.00  0.00     0.023 A 
ATOM      2  C1  UNL d   1      -2.622  -3.359   1.780  0.00  0.00     0.003 A 
ATOM      3  C2  UNL d   1      -1.647  -2.927   0.878  0.00  0.00     0.048 A 
ATOM      4  C3  UNL d   1      -2.027  -2.234  -0.270  0.00  0.00     0.023 A 
ATOM      5  C4  UNL d   1      -3.374  -1.970  -0.524  0.00  0.00     0.048 A 
ATOM      6  C5  UNL d   1      -4.345  -2.404   0.380  0.00  0.00     0.003 A 
ATOM      7  I   UNL d   1      -0.578  -1.590  -1.614  0.00  0.00    -0.146 I 
ENDROOT
TORSDOF 0
ENDMDL
