MODEL 1
REMARK minimizedAffinity 5.61586428
REMARK minimizedRMSD -1
REMARK  0 active torsions:
REMARK  status: ('A' for Active; 'I' for Inactive)
ROOT
ATOM      1  C2' OXE d   1       3.653  -2.246   4.017  0.00  0.00     0.078 C 
ATOM      2  C1' OXE d   1       5.931  -1.982   5.635  0.00  0.00     0.078 C 
ATOM      3  C1  OXE d   1       5.379  -3.368   5.420  0.00  0.00    -0.078 A 
ATOM      4  C2  OXE d   1       4.237  -3.484   4.665  0.00  0.00    -0.078 A 
ATOM      5  C3  OXE d   1       3.716  -4.745   4.389  0.00  0.00     0.003 A 
ATOM      6  C4  OXE d   1       4.256  -5.883   5.000  0.00  0.00    -0.002 A 
ATOM      7  C5  OXE d   1       5.396  -5.784   5.805  0.00  0.00    -0.002 A 
ATOM      8  C6  OXE d   1       5.994  -4.542   5.990  0.00  0.00     0.003 A 
ENDROOT
TORSDOF 0
ENDMDL
