MODEL 1
REMARK minimizedAffinity 9.82271671
REMARK minimizedRMSD -1
REMARK  0 active torsions:
REMARK  status: ('A' for Active; 'I' for Inactive)
ROOT
ATOM      1  C2' OXE d   1      -2.188   2.249   3.309  0.00  0.00     0.078 C 
ATOM      2  C1' OXE d   1      -2.914   2.589   6.000  0.00  0.00     0.078 C 
ATOM      3  C1  OXE d   1      -2.236   3.742   5.303  0.00  0.00    -0.078 A 
ATOM      4  C2  OXE d   1      -1.843   3.551   4.000  0.00  0.00    -0.078 A 
ATOM      5  C3  OXE d   1      -1.262   4.601   3.294  0.00  0.00     0.003 A 
ATOM      6  C4  OXE d   1      -0.937   5.798   3.943  0.00  0.00    -0.002 A 
ATOM      7  C5  OXE d   1      -1.293   5.999   5.281  0.00  0.00    -0.002 A 
ATOM      8  C6  OXE d   1      -1.980   4.999   5.961  0.00  0.00     0.003 A 
ENDROOT
TORSDOF 0
ENDMDL
