MODEL 1
REMARK minimizedAffinity 5.23833084
REMARK minimizedRMSD -1
REMARK  0 active torsions:
REMARK  status: ('A' for Active; 'I' for Inactive)
ROOT
ATOM      1  C2' OXE d   1       5.617  -5.997   0.185  0.00  0.00     0.078 C 
ATOM      2  C1' OXE d   1       5.997  -3.226   0.430  0.00  0.00     0.078 C 
ATOM      3  C1  OXE d   1       4.595  -3.760   0.581  0.00  0.00    -0.078 A 
ATOM      4  C2  OXE d   1       4.411  -5.111   0.413  0.00  0.00    -0.078 A 
ATOM      5  C3  OXE d   1       3.146  -5.663   0.596  0.00  0.00     0.003 A 
ATOM      6  C4  OXE d   1       2.034  -4.836   0.797  0.00  0.00    -0.002 A 
ATOM      7  C5  OXE d   1       2.194  -3.453   0.932  0.00  0.00    -0.002 A 
ATOM      8  C6  OXE d   1       3.470  -2.904   0.869  0.00  0.00     0.003 A 
ENDROOT
TORSDOF 0
ENDMDL
