MODEL 1
REMARK minimizedAffinity 0.298519015
REMARK minimizedRMSD -1
REMARK  0 active torsions:
REMARK  status: ('A' for Active; 'I' for Inactive)
ROOT
ATOM      1  C2' OXE d   1       4.156  -5.249  -0.742  0.00  0.00     0.078 C 
ATOM      2  C1' OXE d   1       4.961  -2.859   0.490  0.00  0.00     0.078 C 
ATOM      3  C1  OXE d   1       3.482  -3.144   0.408  0.00  0.00    -0.078 A 
ATOM      4  C2  OXE d   1       3.096  -4.294  -0.238  0.00  0.00    -0.078 A 
ATOM      5  C3  OXE d   1       1.747  -4.633  -0.294  0.00  0.00     0.003 A 
ATOM      6  C4  OXE d   1       0.772  -3.739   0.166  0.00  0.00    -0.002 A 
ATOM      7  C5  OXE d   1       1.143  -2.544   0.791  0.00  0.00    -0.002 A 
ATOM      8  C6  OXE d   1       2.492  -2.252   0.958  0.00  0.00     0.003 A 
ENDROOT
TORSDOF 0
ENDMDL
