MODEL 1
REMARK minimizedAffinity 10.0061083
REMARK minimizedRMSD -1
REMARK  0 active torsions:
REMARK  status: ('A' for Active; 'I' for Inactive)
ROOT
ATOM      1  C2' OXE d   1       1.887   0.407   3.178  0.00  0.00     0.078 C 
ATOM      2  C1' OXE d   1      -0.405  -1.129   2.661  0.00  0.00     0.078 C 
ATOM      3  C1  OXE d   1       0.881  -1.535   1.986  0.00  0.00    -0.078 A 
ATOM      4  C2  OXE d   1       1.987  -0.751   2.208  0.00  0.00    -0.078 A 
ATOM      5  C3  OXE d   1       3.212  -1.112   1.653  0.00  0.00     0.003 A 
ATOM      6  C4  OXE d   1       3.294  -2.178   0.749  0.00  0.00    -0.002 A 
ATOM      7  C5  OXE d   1       2.170  -2.966   0.478  0.00  0.00    -0.002 A 
ATOM      8  C6  OXE d   1       0.969  -2.685   1.119  0.00  0.00     0.003 A 
ENDROOT
TORSDOF 0
ENDMDL
