MODEL 1
REMARK minimizedAffinity 14.8886766
REMARK minimizedRMSD -1
REMARK  0 active torsions:
REMARK  status: ('A' for Active; 'I' for Inactive)
ROOT
ATOM      1  C2' OXE d   1       1.673   0.489  -4.736  0.00  0.00     0.078 C 
ATOM      2  C1' OXE d   1       1.001   3.197  -4.427  0.00  0.00     0.078 C 
ATOM      3  C1  OXE d   1       0.136   2.174  -3.734  0.00  0.00    -0.078 A 
ATOM      4  C2  OXE d   1       0.444   0.849  -3.929  0.00  0.00    -0.078 A 
ATOM      5  C3  OXE d   1      -0.288  -0.133  -3.269  0.00  0.00     0.003 A 
ATOM      6  C4  OXE d   1      -1.429   0.208  -2.532  0.00  0.00    -0.002 A 
ATOM      7  C5  OXE d   1      -1.784   1.550  -2.354  0.00  0.00    -0.002 A 
ATOM      8  C6  OXE d   1      -0.989   2.545  -2.912  0.00  0.00     0.003 A 
ENDROOT
TORSDOF 0
ENDMDL
