MODEL 1
REMARK minimizedAffinity 8.66769123
REMARK minimizedRMSD -1
REMARK  0 active torsions:
REMARK  status: ('A' for Active; 'I' for Inactive)
ROOT
ATOM      1  C2' OXE d   1      -2.594   0.385   4.261  0.00  0.00     0.078 C 
ATOM      2  C1' OXE d   1      -4.474   1.687   5.889  0.00  0.00     0.078 C 
ATOM      3  C1  OXE d   1      -4.713   1.687   4.399  0.00  0.00    -0.078 A 
ATOM      4  C2  OXE d   1      -3.764   1.088   3.607  0.00  0.00    -0.078 A 
ATOM      5  C3  OXE d   1      -3.963   1.012   2.231  0.00  0.00     0.003 A 
ATOM      6  C4  OXE d   1      -5.043   1.673   1.633  0.00  0.00    -0.002 A 
ATOM      7  C5  OXE d   1      -6.000   2.323   2.419  0.00  0.00    -0.002 A 
ATOM      8  C6  OXE d   1      -5.873   2.303   3.804  0.00  0.00     0.003 A 
ENDROOT
TORSDOF 0
ENDMDL
