MODEL 1
REMARK minimizedAffinity 3.66353345
REMARK minimizedRMSD -1
REMARK  0 active torsions:
REMARK  status: ('A' for Active; 'I' for Inactive)
ROOT
ATOM      1  C2' OXE d   1      -1.917  -2.836   2.455  0.00  0.00     0.078 C 
ATOM      2  C1' OXE d   1      -1.873  -0.146   3.256  0.00  0.00     0.078 C 
ATOM      3  C1  OXE d   1      -0.552  -0.819   2.980  0.00  0.00    -0.078 A 
ATOM      4  C2  OXE d   1      -0.580  -2.148   2.633  0.00  0.00    -0.078 A 
ATOM      5  C3  OXE d   1       0.606  -2.803   2.314  0.00  0.00     0.003 A 
ATOM      6  C4  OXE d   1       1.839  -2.163   2.492  0.00  0.00    -0.002 A 
ATOM      7  C5  OXE d   1       1.892  -0.820   2.882  0.00  0.00    -0.002 A 
ATOM      8  C6  OXE d   1       0.707  -0.123   3.089  0.00  0.00     0.003 A 
ENDROOT
TORSDOF 0
ENDMDL
