MODEL 1
REMARK minimizedAffinity -2.54383302
REMARK minimizedRMSD -1
REMARK  0 active torsions:
REMARK  status: ('A' for Active; 'I' for Inactive)
ROOT
ATOM      1  C   UNL d   1      -1.944   0.547   1.102  0.00  0.00     0.077 C 
ATOM      2  C1  UNL d   1      -0.757  -0.003   0.368  0.00  0.00    -0.074 A 
ATOM      3  C2  UNL d   1       0.429  -0.306   1.044  0.00  0.00    -0.005 A 
ATOM      4  C3  UNL d   1       1.521  -0.827   0.349  0.00  0.00     0.006 A 
ATOM      5  C4  UNL d   1       1.438  -1.049  -1.026  0.00  0.00    -0.005 A 
ATOM      6  C5  UNL d   1       0.259  -0.753  -1.719  0.00  0.00    -0.074 A 
ATOM      7  C6  UNL d   1       0.150  -0.995  -3.195  0.00  0.00     0.077 C 
ATOM      8  C7  UNL d   1      -0.836  -0.237  -1.012  0.00  0.00    -0.001 A 
ENDROOT
TORSDOF 0
ENDMDL
