MODEL 1
REMARK minimizedAffinity -3.86176991
REMARK minimizedRMSD -1
REMARK  0 active torsions:
REMARK  status: ('A' for Active; 'I' for Inactive)
ROOT
ATOM      1  C   UNL d   1      -3.491  -0.786  -1.168  0.00  0.00     0.077 C 
ATOM      2  C1  UNL d   1      -2.081  -0.400  -0.830  0.00  0.00    -0.074 A 
ATOM      3  C2  UNL d   1      -1.695  -0.179   0.496  0.00  0.00    -0.005 A 
ATOM      4  C3  UNL d   1      -0.378   0.170   0.796  0.00  0.00     0.006 A 
ATOM      5  C4  UNL d   1       0.564   0.301  -0.225  0.00  0.00    -0.005 A 
ATOM      6  C5  UNL d   1       0.196   0.083  -1.557  0.00  0.00    -0.074 A 
ATOM      7  C6  UNL d   1       1.198   0.211  -2.665  0.00  0.00     0.077 C 
ATOM      8  C7  UNL d   1      -1.127  -0.274  -1.850  0.00  0.00    -0.001 A 
ENDROOT
TORSDOF 0
ENDMDL
