MODEL 1
REMARK minimizedAffinity -2.95658159
REMARK minimizedRMSD -1
REMARK  0 active torsions:
REMARK  status: ('A' for Active; 'I' for Inactive)
ROOT
ATOM      1  C   UNL d   1       0.366  -0.012  -2.180  0.00  0.00     0.077 C 
ATOM      2  C1  UNL d   1      -0.266   0.112  -0.826  0.00  0.00    -0.074 A 
ATOM      3  C2  UNL d   1      -1.593   0.534  -0.688  0.00  0.00    -0.005 A 
ATOM      4  C3  UNL d   1      -2.170   0.636   0.578  0.00  0.00     0.006 A 
ATOM      5  C4  UNL d   1      -1.429   0.317   1.716  0.00  0.00    -0.005 A 
ATOM      6  C5  UNL d   1      -0.101  -0.107   1.598  0.00  0.00    -0.074 A 
ATOM      7  C6  UNL d   1       0.707  -0.463   2.810  0.00  0.00     0.077 C 
ATOM      8  C7  UNL d   1       0.470  -0.213   0.322  0.00  0.00    -0.001 A 
ENDROOT
TORSDOF 0
ENDMDL
