MODEL 1
REMARK minimizedAffinity -2.72874331
REMARK minimizedRMSD -1
REMARK  0 active torsions:
REMARK  status: ('A' for Active; 'I' for Inactive)
ROOT
ATOM      1  C   UNL d   1       0.699  -0.690  -1.235  0.00  0.00     0.077 C 
ATOM      2  C1  UNL d   1       0.097  -0.399   0.107  0.00  0.00    -0.074 A 
ATOM      3  C2  UNL d   1      -1.230   0.028   0.222  0.00  0.00    -0.005 A 
ATOM      4  C3  UNL d   1      -1.780   0.286   1.477  0.00  0.00     0.006 A 
ATOM      5  C4  UNL d   1      -1.010   0.120   2.629  0.00  0.00    -0.005 A 
ATOM      6  C5  UNL d   1       0.319  -0.307   2.534  0.00  0.00    -0.074 A 
ATOM      7  C6  UNL d   1       1.157  -0.500   3.762  0.00  0.00     0.077 C 
ATOM      8  C7  UNL d   1       0.862  -0.571   1.269  0.00  0.00    -0.001 A 
ENDROOT
TORSDOF 0
ENDMDL
