MODEL 1
REMARK minimizedAffinity -3.79170084
REMARK minimizedRMSD -1
REMARK  0 active torsions:
REMARK  status: ('A' for Active; 'I' for Inactive)
ROOT
ATOM      1  C   UNL d   1      -0.072  -0.203  -1.751  0.00  0.00     0.077 C 
ATOM      2  C1  UNL d   1      -0.284  -0.113  -0.269  0.00  0.00    -0.074 A 
ATOM      3  C2  UNL d   1      -1.504   0.323   0.258  0.00  0.00    -0.005 A 
ATOM      4  C3  UNL d   1      -1.688   0.392   1.639  0.00  0.00     0.006 A 
ATOM      5  C4  UNL d   1      -0.657   0.027   2.505  0.00  0.00    -0.005 A 
ATOM      6  C5  UNL d   1       0.569  -0.412   1.996  0.00  0.00    -0.074 A 
ATOM      7  C6  UNL d   1       1.684  -0.818   2.914  0.00  0.00     0.077 C 
ATOM      8  C7  UNL d   1       0.745  -0.486   0.608  0.00  0.00    -0.001 A 
ENDROOT
TORSDOF 0
ENDMDL
