MODEL 1
REMARK minimizedAffinity -4.26300907
REMARK minimizedRMSD -1
REMARK  0 active torsions:
REMARK  status: ('A' for Active; 'I' for Inactive)
ROOT
ATOM      1  C   UNL d   1       1.078  -0.572   3.295  0.00  0.00     0.077 C 
ATOM      2  C1  UNL d   1       0.122  -0.257   2.183  0.00  0.00    -0.074 A 
ATOM      3  C2  UNL d   1      -1.080   0.411   2.436  0.00  0.00    -0.005 A 
ATOM      4  C3  UNL d   1      -1.955   0.706   1.390  0.00  0.00     0.006 A 
ATOM      5  C4  UNL d   1      -1.636   0.337   0.082  0.00  0.00    -0.005 A 
ATOM      6  C5  UNL d   1      -0.438  -0.331  -0.190  0.00  0.00    -0.074 A 
ATOM      7  C6  UNL d   1      -0.075  -0.726  -1.591  0.00  0.00     0.077 C 
ATOM      8  C7  UNL d   1       0.439  -0.617   0.865  0.00  0.00    -0.001 A 
ENDROOT
TORSDOF 0
ENDMDL
