MODEL 1
REMARK minimizedAffinity -0.552572429
REMARK minimizedRMSD -1
REMARK  0 active torsions:
REMARK  status: ('A' for Active; 'I' for Inactive)
ROOT
ATOM      1  C   UNL d   1      -0.395   0.365   3.613  0.00  0.00     0.077 C 
ATOM      2  C1  UNL d   1      -0.837   0.301   2.182  0.00  0.00    -0.074 A 
ATOM      3  C2  UNL d   1      -2.144   0.640   1.817  0.00  0.00    -0.005 A 
ATOM      4  C3  UNL d   1      -2.538   0.585   0.480  0.00  0.00     0.006 A 
ATOM      5  C4  UNL d   1      -1.631   0.191  -0.504  0.00  0.00    -0.005 A 
ATOM      6  C5  UNL d   1      -0.320  -0.151  -0.159  0.00  0.00    -0.074 A 
ATOM      7  C6  UNL d   1       0.670  -0.568  -1.205  0.00  0.00     0.077 C 
ATOM      8  C7  UNL d   1       0.070  -0.087   1.186  0.00  0.00    -0.001 A 
ENDROOT
TORSDOF 0
ENDMDL
