MODEL 1
REMARK minimizedAffinity -1.74952602
REMARK minimizedRMSD -1
REMARK  0 active torsions:
REMARK  status: ('A' for Active; 'I' for Inactive)
ROOT
ATOM      1  C   UNL d   1      -1.274   0.647   0.479  0.00  0.00     0.077 C 
ATOM      2  C1  UNL d   1      -0.432   0.325  -0.720  0.00  0.00    -0.074 A 
ATOM      3  C2  UNL d   1       0.004  -0.982  -0.962  0.00  0.00    -0.005 A 
ATOM      4  C3  UNL d   1       0.778  -1.267  -2.087  0.00  0.00     0.006 A 
ATOM      5  C4  UNL d   1       1.124  -0.251  -2.978  0.00  0.00    -0.005 A 
ATOM      6  C5  UNL d   1       0.697   1.061  -2.753  0.00  0.00    -0.074 A 
ATOM      7  C6  UNL d   1       1.051   2.164  -3.706  0.00  0.00     0.077 C 
ATOM      8  C7  UNL d   1      -0.087   1.339  -1.624  0.00  0.00    -0.001 A 
ENDROOT
TORSDOF 0
ENDMDL
