MODEL 1
REMARK minimizedAffinity -3.83256602
REMARK minimizedRMSD -1
REMARK  0 active torsions:
REMARK  status: ('A' for Active; 'I' for Inactive)
ROOT
ATOM      1  C   UNL d   1       0.718  -0.518  -1.136  0.00  0.00     0.077 C 
ATOM      2  C1  UNL d   1       0.009  -0.125   0.126  0.00  0.00    -0.074 A 
ATOM      3  C2  UNL d   1      -1.275   0.428   0.087  0.00  0.00    -0.005 A 
ATOM      4  C3  UNL d   1      -1.926   0.780   1.270  0.00  0.00     0.006 A 
ATOM      5  C4  UNL d   1      -1.301   0.582   2.501  0.00  0.00    -0.005 A 
ATOM      6  C5  UNL d   1      -0.017   0.029   2.560  0.00  0.00    -0.074 A 
ATOM      7  C6  UNL d   1       0.665  -0.199   3.876  0.00  0.00     0.077 C 
ATOM      8  C7  UNL d   1       0.627  -0.328   1.368  0.00  0.00    -0.001 A 
ENDROOT
TORSDOF 0
ENDMDL
