MODEL 1
REMARK minimizedAffinity -3.90275407
REMARK minimizedRMSD -1
REMARK  0 active torsions:
REMARK  status: ('A' for Active; 'I' for Inactive)
ROOT
ATOM      1  C   UNL d   1       0.661  -0.625  -1.188  0.00  0.00     0.077 C 
ATOM      2  C1  UNL d   1       0.029  -0.248   0.119  0.00  0.00    -0.074 A 
ATOM      3  C2  UNL d   1      -1.313   0.142   0.183  0.00  0.00    -0.005 A 
ATOM      4  C3  UNL d   1      -1.889   0.480   1.407  0.00  0.00     0.006 A 
ATOM      5  C4  UNL d   1      -1.132   0.432   2.578  0.00  0.00    -0.005 A 
ATOM      6  C5  UNL d   1       0.211   0.044   2.534  0.00  0.00    -0.074 A 
ATOM      7  C6  UNL d   1       1.036  -0.023   3.784  0.00  0.00     0.077 C 
ATOM      8  C7  UNL d   1       0.781  -0.302   1.301  0.00  0.00    -0.001 A 
ENDROOT
TORSDOF 0
ENDMDL
