MODEL 1
REMARK minimizedAffinity 5.42006731
REMARK minimizedRMSD -1
REMARK  0 active torsions:
REMARK  status: ('A' for Active; 'I' for Inactive)
ROOT
ATOM      1  C   UNL d   1       3.432   1.878  -2.822  0.00  0.00     0.172 C 
ATOM      2  N   UNL d   1       3.958   3.069  -2.197  0.00  0.00    -0.070 N 
ATOM      3  C1  UNL d   1       5.152   3.668  -2.497  0.00  0.00    -0.004 A 
ATOM      4  C2  UNL d   1       5.286   4.773  -1.684  0.00  0.00    -0.047 A 
ATOM      5  C3  UNL d   1       4.132   4.840  -0.867  0.00  0.00    -0.047 A 
ATOM      6  C4  UNL d   1       3.327   3.773  -1.205  0.00  0.00    -0.004 A 
ENDROOT
TORSDOF 0
ENDMDL
