MODEL 1
REMARK minimizedAffinity 0.253871113
REMARK minimizedRMSD -1
REMARK  0 active torsions:
REMARK  status: ('A' for Active; 'I' for Inactive)
ROOT
ATOM      1  C   UNL d   1       1.092  -3.407  -0.756  0.00  0.00     0.172 C 
ATOM      2  N   UNL d   1       0.866  -2.164  -0.056  0.00  0.00    -0.070 N 
ATOM      3  C1  UNL d   1      -0.310  -1.781   0.531  0.00  0.00    -0.004 A 
ATOM      4  C2  UNL d   1      -0.117  -0.536   1.090  0.00  0.00    -0.047 A 
ATOM      5  C3  UNL d   1       1.221  -0.158   0.830  0.00  0.00    -0.047 A 
ATOM      6  C4  UNL d   1       1.807  -1.184   0.118  0.00  0.00    -0.004 A 
ENDROOT
TORSDOF 0
ENDMDL
