MODEL 1
REMARK minimizedAffinity -3.81129384
REMARK minimizedRMSD -1
REMARK  0 active torsions:
REMARK  status: ('A' for Active; 'I' for Inactive)
ROOT
ATOM      1  C   UNL d   1       2.516  -3.854  -0.117  0.00  0.00     0.172 C 
ATOM      2  N   UNL d   1       1.838  -2.666   0.344  0.00  0.00    -0.070 N 
ATOM      3  C1  UNL d   1       2.424  -1.450   0.574  0.00  0.00    -0.004 A 
ATOM      4  C2  UNL d   1       1.442  -0.582   1.002  0.00  0.00    -0.047 A 
ATOM      5  C3  UNL d   1       0.224  -1.302   1.031  0.00  0.00    -0.047 A 
ATOM      6  C4  UNL d   1       0.498  -2.589   0.619  0.00  0.00    -0.004 A 
ENDROOT
TORSDOF 0
ENDMDL
