MODEL 1
REMARK minimizedAffinity -2.19103599
REMARK minimizedRMSD -1
REMARK  0 active torsions:
REMARK  status: ('A' for Active; 'I' for Inactive)
ROOT
ATOM      1  C   UNL d   1       5.297   3.433  -2.516  0.00  0.00     0.172 C 
ATOM      2  N   UNL d   1       4.302   2.557  -3.088  0.00  0.00    -0.070 N 
ATOM      3  C1  UNL d   1       3.326   2.929  -3.974  0.00  0.00    -0.004 A 
ATOM      4  C2  UNL d   1       2.584   1.808  -4.279  0.00  0.00    -0.047 A 
ATOM      5  C3  UNL d   1       3.132   0.726  -3.550  0.00  0.00    -0.047 A 
ATOM      6  C4  UNL d   1       4.194   1.218  -2.821  0.00  0.00    -0.004 A 
ENDROOT
TORSDOF 0
ENDMDL
