MODEL 1
REMARK minimizedAffinity -0.742647827
REMARK minimizedRMSD -1
REMARK  0 active torsions:
REMARK  status: ('A' for Active; 'I' for Inactive)
ROOT
ATOM      1  C   UNL d   1      -1.759  -0.225   1.803  0.00  0.00     0.172 C 
ATOM      2  N   UNL d   1      -0.525  -0.533   1.121  0.00  0.00    -0.070 N 
ATOM      3  C1  UNL d   1      -0.383  -1.423   0.090  0.00  0.00    -0.004 A 
ATOM      4  C2  UNL d   1       0.944  -1.430  -0.282  0.00  0.00    -0.047 A 
ATOM      5  C3  UNL d   1       1.623  -0.514   0.555  0.00  0.00    -0.047 A 
ATOM      6  C4  UNL d   1       0.690   0.027   1.414  0.00  0.00    -0.004 A 
ENDROOT
TORSDOF 0
ENDMDL
