MODEL 1
REMARK minimizedAffinity 2.09162998
REMARK minimizedRMSD -1
REMARK  0 active torsions:
REMARK  status: ('A' for Active; 'I' for Inactive)
ROOT
ATOM      1  C   UNL d   1      -0.257  -0.271   2.048  0.00  0.00     0.172 C 
ATOM      2  N   UNL d   1      -0.138  -1.364   1.112  0.00  0.00    -0.070 N 
ATOM      3  C1  UNL d   1       1.025  -1.798   0.534  0.00  0.00    -0.004 A 
ATOM      4  C2  UNL d   1       0.716  -2.856  -0.293  0.00  0.00    -0.047 A 
ATOM      5  C3  UNL d   1      -0.681  -3.065  -0.210  0.00  0.00    -0.047 A 
ATOM      6  C4  UNL d   1      -1.185  -2.127   0.667  0.00  0.00    -0.004 A 
ENDROOT
TORSDOF 0
ENDMDL
