MODEL 1
REMARK minimizedAffinity 1.00351858
REMARK minimizedRMSD -1
REMARK  0 active torsions:
REMARK  status: ('A' for Active; 'I' for Inactive)
ROOT
ATOM      1  C   UNL d   1       0.367  -3.201  -0.336  0.00  0.00     0.172 C 
ATOM      2  N   UNL d   1       0.755  -1.983   0.335  0.00  0.00    -0.070 N 
ATOM      3  C1  UNL d   1      -0.097  -0.996   0.754  0.00  0.00    -0.004 A 
ATOM      4  C2  UNL d   1       0.660  -0.008   1.346  0.00  0.00    -0.047 A 
ATOM      5  C3  UNL d   1       2.014  -0.415   1.279  0.00  0.00    -0.047 A 
ATOM      6  C4  UNL d   1       2.044  -1.641   0.649  0.00  0.00    -0.004 A 
ENDROOT
TORSDOF 0
ENDMDL
