MODEL 1
REMARK minimizedAffinity -0.323964685
REMARK minimizedRMSD -1
REMARK  0 active torsions:
REMARK  status: ('A' for Active; 'I' for Inactive)
ROOT
ATOM      1  C   UNL d   1      -4.468   1.178  -0.086  0.00  0.00     0.172 C 
ATOM      2  N   UNL d   1      -3.286   0.745   0.622  0.00  0.00    -0.070 N 
ATOM      3  C1  UNL d   1      -2.722  -0.500   0.547  0.00  0.00    -0.004 A 
ATOM      4  C2  UNL d   1      -1.614  -0.512   1.367  0.00  0.00    -0.047 A 
ATOM      5  C3  UNL d   1      -1.510   0.771   1.955  0.00  0.00    -0.047 A 
ATOM      6  C4  UNL d   1      -2.557   1.529   1.477  0.00  0.00    -0.004 A 
ENDROOT
TORSDOF 0
ENDMDL
