MODEL 1
REMARK minimizedAffinity -1.32733798
REMARK minimizedRMSD -1
REMARK  0 active torsions:
REMARK  status: ('A' for Active; 'I' for Inactive)
ROOT
ATOM      1  C   UNL d   1      -1.046  -0.637   0.723  0.00  0.00     0.172 C 
ATOM      2  N   UNL d   1       0.214  -1.278   0.426  0.00  0.00    -0.070 N 
ATOM      3  C1  UNL d   1       0.373  -2.576   0.021  0.00  0.00    -0.004 A 
ATOM      4  C2  UNL d   1       1.722  -2.800  -0.157  0.00  0.00    -0.047 A 
ATOM      5  C3  UNL d   1       2.396  -1.595   0.153  0.00  0.00    -0.047 A 
ATOM      6  C4  UNL d   1       1.438  -0.670   0.511  0.00  0.00    -0.004 A 
ENDROOT
TORSDOF 0
ENDMDL
