MODEL 1
REMARK minimizedAffinity 1.86268103
REMARK minimizedRMSD -1
REMARK  0 active torsions:
REMARK  status: ('A' for Active; 'I' for Inactive)
ROOT
ATOM      1  C   UNL d   1      -0.089   4.784  -2.812  0.00  0.00     0.172 C 
ATOM      2  N   UNL d   1       0.972   4.368  -3.699  0.00  0.00    -0.070 N 
ATOM      3  C1  UNL d   1       1.853   3.347  -3.466  0.00  0.00    -0.004 A 
ATOM      4  C2  UNL d   1       2.705   3.269  -4.547  0.00  0.00    -0.047 A 
ATOM      5  C3  UNL d   1       2.322   4.280  -5.461  0.00  0.00    -0.047 A 
ATOM      6  C4  UNL d   1       1.247   4.945  -4.911  0.00  0.00    -0.004 A 
ENDROOT
TORSDOF 0
ENDMDL
