MODEL 1
REMARK minimizedAffinity -1.92468452
REMARK minimizedRMSD -1
REMARK  0 active torsions:
REMARK  status: ('A' for Active; 'I' for Inactive)
ROOT
ATOM      1  C   UNL d   1       2.683  -0.727   0.060  0.00  0.00     0.172 C 
ATOM      2  N   UNL d   1       1.360  -1.288   0.196  0.00  0.00    -0.070 N 
ATOM      3  C1  UNL d   1       0.258  -0.628   0.670  0.00  0.00    -0.004 A 
ATOM      4  C2  UNL d   1      -0.805  -1.505   0.642  0.00  0.00    -0.047 A 
ATOM      5  C3  UNL d   1      -0.324  -2.735   0.134  0.00  0.00    -0.047 A 
ATOM      6  C4  UNL d   1       1.019  -2.573  -0.134  0.00  0.00    -0.004 A 
ENDROOT
TORSDOF 0
ENDMDL
