MODEL 1
REMARK minimizedAffinity -3.1525147
REMARK minimizedRMSD -1
REMARK  0 active torsions:
REMARK  status: ('A' for Active; 'I' for Inactive)
ROOT
ATOM      1  C   UNL d   1       1.172  -3.425  -0.885  0.00  0.00     0.172 C 
ATOM      2  N   UNL d   1       0.901  -2.267  -0.066  0.00  0.00    -0.070 N 
ATOM      3  C1  UNL d   1       1.770  -1.235   0.169  0.00  0.00    -0.004 A 
ATOM      4  C2  UNL d   1       1.138  -0.330   0.995  0.00  0.00    -0.047 A 
ATOM      5  C3  UNL d   1      -0.155  -0.837   1.266  0.00  0.00    -0.047 A 
ATOM      6  C4  UNL d   1      -0.275  -2.037   0.597  0.00  0.00    -0.004 A 
ENDROOT
TORSDOF 0
ENDMDL
