MODEL 1
REMARK minimizedAffinity -0.464822054
REMARK minimizedRMSD -1
REMARK  0 active torsions:
REMARK  status: ('A' for Active; 'I' for Inactive)
ROOT
ATOM      1  C   UNL d   1      -1.176  -0.381   1.876  0.00  0.00     0.172 C 
ATOM      2  N   UNL d   1      -0.031  -0.919   1.179  0.00  0.00    -0.070 N 
ATOM      3  C1  UNL d   1       1.209  -0.342   1.117  0.00  0.00    -0.004 A 
ATOM      4  C2  UNL d   1       2.019  -1.162   0.362  0.00  0.00    -0.047 A 
ATOM      5  C3  UNL d   1       1.238  -2.270  -0.045  0.00  0.00    -0.047 A 
ATOM      6  C4  UNL d   1      -0.027  -2.094   0.474  0.00  0.00    -0.004 A 
ENDROOT
TORSDOF 0
ENDMDL
