MODEL 1
REMARK minimizedAffinity -0.989000142
REMARK minimizedRMSD -1
REMARK  0 active torsions:
REMARK  status: ('A' for Active; 'I' for Inactive)
ROOT
ATOM      1  C   UNL d   1       0.487  -3.198  -0.282  0.00  0.00     0.172 C 
ATOM      2  N   UNL d   1       0.580  -1.847   0.219  0.00  0.00    -0.070 N 
ATOM      3  C1  UNL d   1       1.712  -1.076   0.230  0.00  0.00    -0.004 A 
ATOM      4  C2  UNL d   1       1.387   0.143   0.786  0.00  0.00    -0.047 A 
ATOM      5  C3  UNL d   1       0.012   0.102   1.121  0.00  0.00    -0.047 A 
ATOM      6  C4  UNL d   1      -0.462  -1.141   0.759  0.00  0.00    -0.004 A 
ENDROOT
TORSDOF 0
ENDMDL
