MODEL 1
REMARK minimizedAffinity -1.83419347
REMARK minimizedRMSD -1
REMARK  0 active torsions:
REMARK  status: ('A' for Active; 'I' for Inactive)
ROOT
ATOM      1  C   UNL d   1      -5.613  -4.134   1.518  0.00  0.00     0.172 C 
ATOM      2  N   UNL d   1      -5.654  -4.623   2.876  0.00  0.00    -0.070 N 
ATOM      3  C1  UNL d   1      -5.919  -3.868   3.988  0.00  0.00    -0.004 A 
ATOM      4  C2  UNL d   1      -5.864  -4.700   5.085  0.00  0.00    -0.047 A 
ATOM      5  C3  UNL d   1      -5.554  -5.999   4.617  0.00  0.00    -0.047 A 
ATOM      6  C4  UNL d   1      -5.429  -5.922   3.246  0.00  0.00    -0.004 A 
ENDROOT
TORSDOF 0
ENDMDL
