MODEL 1
REMARK minimizedAffinity 0.351040691
REMARK minimizedRMSD -1
REMARK  0 active torsions:
REMARK  status: ('A' for Active; 'I' for Inactive)
ROOT
ATOM      1  C   UNL d   1       0.697  -3.395  -0.657  0.00  0.00     0.172 C 
ATOM      2  N   UNL d   1       0.683  -2.147   0.069  0.00  0.00    -0.070 N 
ATOM      3  C1  UNL d   1       1.745  -1.295   0.211  0.00  0.00    -0.004 A 
ATOM      4  C2  UNL d   1       1.328  -0.222   0.968  0.00  0.00    -0.047 A 
ATOM      5  C3  UNL d   1      -0.032  -0.438   1.294  0.00  0.00    -0.047 A 
ATOM      6  C4  UNL d   1      -0.406  -1.637   0.725  0.00  0.00    -0.004 A 
ENDROOT
TORSDOF 0
ENDMDL
