MODEL 1
REMARK minimizedAffinity 0.916678488
REMARK minimizedRMSD -1
REMARK  0 active torsions:
REMARK  status: ('A' for Active; 'I' for Inactive)
ROOT
ATOM      1  C   UNL d   1       3.524  -1.158   0.447  0.00  0.00     0.172 C 
ATOM      2  N   UNL d   1       2.596  -2.241   0.223  0.00  0.00    -0.070 N 
ATOM      3  C1  UNL d   1       2.913  -3.474  -0.283  0.00  0.00    -0.004 A 
ATOM      4  C2  UNL d   1       1.755  -4.218  -0.341  0.00  0.00    -0.047 A 
ATOM      5  C3  UNL d   1       0.704  -3.404   0.145  0.00  0.00    -0.047 A 
ATOM      6  C4  UNL d   1       1.253  -2.186   0.487  0.00  0.00    -0.004 A 
ENDROOT
TORSDOF 0
ENDMDL
