MODEL 1
REMARK minimizedAffinity -4.7910037
REMARK minimizedRMSD -1
REMARK  0 active torsions:
REMARK  status: ('A' for Active; 'I' for Inactive)
ROOT
ATOM      1  C   UNL d   1      -0.460  -0.405   0.816  0.00  0.00     0.078 C 
ATOM      2  C1  UNL d   1       0.481  -0.624  -0.331  0.00  0.00    -0.077 A 
ATOM      3  C2  UNL d   1       0.860  -1.916  -0.716  0.00  0.00    -0.001 A 
ATOM      4  C3  UNL d   1       1.744  -2.105  -1.779  0.00  0.00     0.003 A 
ATOM      5  C4  UNL d   1       2.258  -1.006  -2.465  0.00  0.00    -0.005 A 
ATOM      6  C5  UNL d   1       1.889   0.283  -2.087  0.00  0.00     0.003 A 
ATOM      7  C6  UNL d   1       1.005   0.474  -1.024  0.00  0.00    -0.001 A 
ENDROOT
TORSDOF 0
ENDMDL
