MODEL 1
REMARK minimizedAffinity -5.7978754
REMARK minimizedRMSD -1
REMARK  0 active torsions:
REMARK  status: ('A' for Active; 'I' for Inactive)
ROOT
ATOM      1  C   UNL d   1      -0.752  -0.059   0.764  0.00  0.00     0.078 C 
ATOM      2  C1  UNL d   1       0.123   0.152  -0.436  0.00  0.00    -0.077 A 
ATOM      3  C2  UNL d   1       0.867   1.328  -0.588  0.00  0.00    -0.001 A 
ATOM      4  C3  UNL d   1       1.669   1.515  -1.715  0.00  0.00     0.003 A 
ATOM      5  C4  UNL d   1       1.735   0.531  -2.698  0.00  0.00    -0.005 A 
ATOM      6  C5  UNL d   1       0.996  -0.642  -2.557  0.00  0.00     0.003 A 
ATOM      7  C6  UNL d   1       0.193  -0.831  -1.431  0.00  0.00    -0.001 A 
ENDROOT
TORSDOF 0
ENDMDL
