MODEL 1
REMARK minimizedAffinity -4.84113503
REMARK minimizedRMSD -1
REMARK  0 active torsions:
REMARK  status: ('A' for Active; 'I' for Inactive)
ROOT
ATOM      1  C   UNL d   1      -0.215   0.025   1.424  0.00  0.00     0.078 C 
ATOM      2  C1  UNL d   1       0.353  -0.079   0.040  0.00  0.00    -0.077 A 
ATOM      3  C2  UNL d   1       0.244  -1.265  -0.697  0.00  0.00    -0.001 A 
ATOM      4  C3  UNL d   1       0.786  -1.351  -1.980  0.00  0.00     0.003 A 
ATOM      5  C4  UNL d   1       1.443  -0.256  -2.537  0.00  0.00    -0.005 A 
ATOM      6  C5  UNL d   1       1.558   0.928  -1.811  0.00  0.00     0.003 A 
ATOM      7  C6  UNL d   1       1.016   1.016  -0.527  0.00  0.00    -0.001 A 
ENDROOT
TORSDOF 0
ENDMDL
