MODEL 1
REMARK minimizedAffinity -5.8037281
REMARK minimizedRMSD -1
REMARK  0 active torsions:
REMARK  status: ('A' for Active; 'I' for Inactive)
ROOT
ATOM      1  C   UNL d   1      -0.451   0.592  -1.276  0.00  0.00     0.078 C 
ATOM      2  C1  UNL d   1       0.803  -0.176  -1.568  0.00  0.00    -0.077 A 
ATOM      3  C2  UNL d   1       2.043   0.470  -1.647  0.00  0.00    -0.001 A 
ATOM      4  C3  UNL d   1       3.201  -0.256  -1.929  0.00  0.00     0.003 A 
ATOM      5  C4  UNL d   1       3.131  -1.632  -2.136  0.00  0.00    -0.005 A 
ATOM      6  C5  UNL d   1       1.901  -2.283  -2.062  0.00  0.00     0.003 A 
ATOM      7  C6  UNL d   1       0.742  -1.559  -1.780  0.00  0.00    -0.001 A 
ENDROOT
TORSDOF 0
ENDMDL
