MODEL 1
REMARK minimizedAffinity -3.6521883
REMARK minimizedRMSD -1
REMARK  0 active torsions:
REMARK  status: ('A' for Active; 'I' for Inactive)
ROOT
ATOM      1  C   UNL d   1       1.498  -0.062  -2.732  0.00  0.00     0.078 C 
ATOM      2  C1  UNL d   1       0.818  -0.289  -1.415  0.00  0.00    -0.077 A 
ATOM      3  C2  UNL d   1       0.363  -1.562  -1.048  0.00  0.00    -0.001 A 
ATOM      4  C3  UNL d   1      -0.277  -1.756   0.177  0.00  0.00     0.003 A 
ATOM      5  C4  UNL d   1      -0.469  -0.682   1.044  0.00  0.00    -0.005 A 
ATOM      6  C5  UNL d   1      -0.022   0.588   0.687  0.00  0.00     0.003 A 
ATOM      7  C6  UNL d   1       0.619   0.784  -0.538  0.00  0.00    -0.001 A 
ENDROOT
TORSDOF 0
ENDMDL
