MODEL 1
REMARK minimizedAffinity -4.78680515
REMARK minimizedRMSD -1
REMARK  0 active torsions:
REMARK  status: ('A' for Active; 'I' for Inactive)
ROOT
ATOM      1  C   UNL d   1      -0.984   0.271   1.068  0.00  0.00     0.078 C 
ATOM      2  C1  UNL d   1      -0.128   0.434  -0.153  0.00  0.00    -0.077 A 
ATOM      3  C2  UNL d   1      -0.679   0.343  -1.437  0.00  0.00    -0.001 A 
ATOM      4  C3  UNL d   1       0.131   0.487  -2.564  0.00  0.00     0.003 A 
ATOM      5  C4  UNL d   1       1.497   0.722  -2.419  0.00  0.00    -0.005 A 
ATOM      6  C5  UNL d   1       2.054   0.812  -1.145  0.00  0.00     0.003 A 
ATOM      7  C6  UNL d   1       1.246   0.668  -0.017  0.00  0.00    -0.001 A 
ENDROOT
TORSDOF 0
ENDMDL
