MODEL 1
REMARK minimizedAffinity -4.81100512
REMARK minimizedRMSD -1
REMARK  0 active torsions:
REMARK  status: ('A' for Active; 'I' for Inactive)
ROOT
ATOM      1  C   UNL d   1      -1.193   0.334   1.049  0.00  0.00     0.078 C 
ATOM      2  C1  UNL d   1      -0.248   0.327  -0.115  0.00  0.00    -0.077 A 
ATOM      3  C2  UNL d   1      -0.518  -0.436  -1.258  0.00  0.00    -0.001 A 
ATOM      4  C3  UNL d   1       0.376  -0.441  -2.330  0.00  0.00     0.003 A 
ATOM      5  C4  UNL d   1       1.545   0.314  -2.271  0.00  0.00    -0.005 A 
ATOM      6  C5  UNL d   1       1.823   1.075  -1.137  0.00  0.00     0.003 A 
ATOM      7  C6  UNL d   1       0.931   1.081  -0.063  0.00  0.00    -0.001 A 
ENDROOT
TORSDOF 0
ENDMDL
