MODEL 1
REMARK minimizedAffinity -3.45561576
REMARK minimizedRMSD -1
REMARK  0 active torsions:
REMARK  status: ('A' for Active; 'I' for Inactive)
ROOT
ATOM      1  C   UNL d   1       1.565   0.775  -2.388  0.00  0.00     0.078 C 
ATOM      2  C1  UNL d   1       0.821   0.450  -1.126  0.00  0.00    -0.077 A 
ATOM      3  C2  UNL d   1       0.288  -0.827  -0.912  0.00  0.00    -0.001 A 
ATOM      4  C3  UNL d   1      -0.411  -1.112   0.262  0.00  0.00     0.003 A 
ATOM      5  C4  UNL d   1      -0.582  -0.126   1.231  0.00  0.00    -0.005 A 
ATOM      6  C5  UNL d   1      -0.057   1.148   1.026  0.00  0.00     0.003 A 
ATOM      7  C6  UNL d   1       0.641   1.436  -0.148  0.00  0.00    -0.001 A 
ENDROOT
TORSDOF 0
ENDMDL
