MODEL 1
REMARK minimizedAffinity -4.64326429
REMARK minimizedRMSD -1
REMARK  0 active torsions:
REMARK  status: ('A' for Active; 'I' for Inactive)
ROOT
ATOM      1  C   UNL d   1       1.483  -0.265  -3.031  0.00  0.00     0.078 C 
ATOM      2  C1  UNL d   1       0.936   0.003  -1.661  0.00  0.00    -0.077 A 
ATOM      3  C2  UNL d   1       1.154   1.232  -1.025  0.00  0.00    -0.001 A 
ATOM      4  C3  UNL d   1       0.648   1.464   0.255  0.00  0.00     0.003 A 
ATOM      5  C4  UNL d   1      -0.080   0.472   0.910  0.00  0.00    -0.005 A 
ATOM      6  C5  UNL d   1      -0.300  -0.754   0.286  0.00  0.00     0.003 A 
ATOM      7  C6  UNL d   1       0.206  -0.988  -0.994  0.00  0.00    -0.001 A 
ENDROOT
TORSDOF 0
ENDMDL
