MODEL 1
REMARK minimizedAffinity -1.97689319
REMARK minimizedRMSD -1
REMARK  0 active torsions:
REMARK  status: ('A' for Active; 'I' for Inactive)
ROOT
ATOM      1  C   UNL d   1      -4.114   1.394   2.027  0.00  0.00     0.078 C 
ATOM      2  C1  UNL d   1      -3.001   0.542   1.494  0.00  0.00    -0.077 A 
ATOM      3  C2  UNL d   1      -1.662   0.916   1.662  0.00  0.00    -0.001 A 
ATOM      4  C3  UNL d   1      -0.637   0.118   1.151  0.00  0.00     0.003 A 
ATOM      5  C4  UNL d   1      -0.940  -1.058   0.468  0.00  0.00    -0.005 A 
ATOM      6  C5  UNL d   1      -2.269  -1.437   0.294  0.00  0.00     0.003 A 
ATOM      7  C6  UNL d   1      -3.296  -0.640   0.804  0.00  0.00    -0.001 A 
ENDROOT
TORSDOF 0
ENDMDL
