MODEL 1
REMARK minimizedAffinity -4.9019022
REMARK minimizedRMSD -1
REMARK  0 active torsions:
REMARK  status: ('A' for Active; 'I' for Inactive)
ROOT
ATOM      1  C   UNL d   1       1.244  -0.275  -3.548  0.00  0.00     0.078 C 
ATOM      2  C1  UNL d   1       0.966   0.007  -2.102  0.00  0.00    -0.077 A 
ATOM      3  C2  UNL d   1       0.168  -0.854  -1.339  0.00  0.00    -0.001 A 
ATOM      4  C3  UNL d   1      -0.090  -0.573   0.004  0.00  0.00     0.003 A 
ATOM      5  C4  UNL d   1       0.445   0.569   0.595  0.00  0.00    -0.005 A 
ATOM      6  C5  UNL d   1       1.238   1.434  -0.156  0.00  0.00     0.003 A 
ATOM      7  C6  UNL d   1       1.498   1.155  -1.499  0.00  0.00    -0.001 A 
ENDROOT
TORSDOF 0
ENDMDL
