MODEL 1
REMARK minimizedAffinity -2.30128241
REMARK minimizedRMSD -1
REMARK  0 active torsions:
REMARK  status: ('A' for Active; 'I' for Inactive)
ROOT
ATOM      1  C   UNL d   1      -0.195  -1.150   0.245  0.00  0.00     0.078 C 
ATOM      2  C1  UNL d   1      -1.433  -0.625   0.909  0.00  0.00    -0.077 A 
ATOM      3  C2  UNL d   1      -1.355   0.348   1.913  0.00  0.00    -0.001 A 
ATOM      4  C3  UNL d   1      -2.515   0.820   2.529  0.00  0.00     0.003 A 
ATOM      5  C4  UNL d   1      -3.761   0.324   2.149  0.00  0.00    -0.005 A 
ATOM      6  C5  UNL d   1      -3.848  -0.646   1.153  0.00  0.00     0.003 A 
ATOM      7  C6  UNL d   1      -2.689  -1.119   0.535  0.00  0.00    -0.001 A 
ENDROOT
TORSDOF 0
ENDMDL
