MODEL 1
REMARK minimizedAffinity -4.44849682
REMARK minimizedRMSD -1
REMARK  0 active torsions:
REMARK  status: ('A' for Active; 'I' for Inactive)
ROOT
ATOM      1  C   UNL d   1      -0.306  -1.411   0.119  0.00  0.00     0.078 C 
ATOM      2  C1  UNL d   1       0.653  -1.048  -0.976  0.00  0.00    -0.077 A 
ATOM      3  C2  UNL d   1       0.800   0.280  -1.395  0.00  0.00    -0.001 A 
ATOM      4  C3  UNL d   1       1.689   0.602  -2.422  0.00  0.00     0.003 A 
ATOM      5  C4  UNL d   1       2.436  -0.399  -3.039  0.00  0.00    -0.005 A 
ATOM      6  C5  UNL d   1       2.294  -1.723  -2.631  0.00  0.00     0.003 A 
ATOM      7  C6  UNL d   1       1.406  -2.047  -1.604  0.00  0.00    -0.001 A 
ENDROOT
TORSDOF 0
ENDMDL
