MODEL 1
REMARK minimizedAffinity -3.50848961
REMARK minimizedRMSD -1
REMARK  0 active torsions:
REMARK  status: ('A' for Active; 'I' for Inactive)
ROOT
ATOM      1  C   UNL d   1       1.237   0.206  -2.536  0.00  0.00     0.078 C 
ATOM      2  C1  UNL d   1       0.685   0.007  -1.156  0.00  0.00    -0.077 A 
ATOM      3  C2  UNL d   1       0.442  -1.278  -0.655  0.00  0.00    -0.001 A 
ATOM      4  C3  UNL d   1      -0.080  -1.448   0.628  0.00  0.00     0.003 A 
ATOM      5  C4  UNL d   1      -0.365  -0.338   1.420  0.00  0.00    -0.005 A 
ATOM      6  C5  UNL d   1      -0.129   0.945   0.929  0.00  0.00     0.003 A 
ATOM      7  C6  UNL d   1       0.394   1.117  -0.354  0.00  0.00    -0.001 A 
ENDROOT
TORSDOF 0
ENDMDL
