MODEL 1
REMARK minimizedAffinity -5.10637474
REMARK minimizedRMSD -1
REMARK  0 active torsions:
REMARK  status: ('A' for Active; 'I' for Inactive)
ROOT
ATOM      1  C   UNL d   1      -0.388  -0.388   1.424  0.00  0.00     0.078 C 
ATOM      2  C1  UNL d   1       0.157  -0.047   0.069  0.00  0.00    -0.077 A 
ATOM      3  C2  UNL d   1       0.852   1.149  -0.149  0.00  0.00    -0.001 A 
ATOM      4  C3  UNL d   1       1.345   1.458  -1.417  0.00  0.00     0.003 A 
ATOM      5  C4  UNL d   1       1.148   0.577  -2.478  0.00  0.00    -0.005 A 
ATOM      6  C5  UNL d   1       0.456  -0.615  -2.272  0.00  0.00     0.003 A 
ATOM      7  C6  UNL d   1      -0.038  -0.925  -1.004  0.00  0.00    -0.001 A 
ENDROOT
TORSDOF 0
ENDMDL
