MODEL 1
REMARK minimizedAffinity -3.60811353
REMARK minimizedRMSD -1
REMARK  0 active torsions:
REMARK  status: ('A' for Active; 'I' for Inactive)
ROOT
ATOM      1  C   UNL d   1      -1.074   2.774   1.714  0.00  0.00     0.020 A 
ATOM      2  C1  UNL d   1      -1.867   2.362   0.643  0.00  0.00     0.020 A 
ATOM      3  C2  UNL d   1      -1.522   1.220  -0.082  0.00  0.00     0.034 A 
ATOM      4  C3  UNL d   1      -0.382   0.484   0.263  0.00  0.00     0.017 A 
ATOM      5  C4  UNL d   1       0.413   0.898   1.338  0.00  0.00     0.017 A 
ATOM      6  C5  UNL d   1       0.063   2.043   2.061  0.00  0.00     0.034 A 
ATOM      7 Cl   UNL d   1       1.834   0.042   1.824  0.00  0.00    -0.070 Cl
ATOM      8 Cl1  UNL d   1      -0.017  -0.919  -0.676  0.00  0.00    -0.070 Cl
ENDROOT
TORSDOF 0
ENDMDL
