MODEL 1
REMARK minimizedAffinity -4.66101408
REMARK minimizedRMSD -1
REMARK  0 active torsions:
REMARK  status: ('A' for Active; 'I' for Inactive)
ROOT
ATOM      1  C   UNL d   1      -1.883   2.142   0.297  0.00  0.00     0.020 A 
ATOM      2  C1  UNL d   1      -1.185   2.470   1.458  0.00  0.00     0.020 A 
ATOM      3  C2  UNL d   1      -0.175   1.627   1.928  0.00  0.00     0.034 A 
ATOM      4  C3  UNL d   1       0.139   0.452   1.236  0.00  0.00     0.017 A 
ATOM      5  C4  UNL d   1      -0.563   0.123   0.071  0.00  0.00     0.017 A 
ATOM      6  C5  UNL d   1      -1.573   0.970  -0.395  0.00  0.00     0.034 A 
ATOM      7 Cl   UNL d   1      -0.232  -1.311  -0.837  0.00  0.00    -0.070 Cl
ATOM      8 Cl1  UNL d   1       1.399  -0.544   1.874  0.00  0.00    -0.070 Cl
ENDROOT
TORSDOF 0
ENDMDL
