MODEL 1
REMARK minimizedAffinity -1.7971549
REMARK minimizedRMSD -1
REMARK  0 active torsions:
REMARK  status: ('A' for Active; 'I' for Inactive)
ROOT
ATOM      1  C   UNL d   1       0.807  -0.936   1.133  0.00  0.00     0.020 A 
ATOM      2  C1  UNL d   1       0.698  -1.050  -0.252  0.00  0.00     0.020 A 
ATOM      3  C2  UNL d   1       0.123  -0.016  -0.995  0.00  0.00     0.034 A 
ATOM      4  C3  UNL d   1      -0.346   1.135  -0.352  0.00  0.00     0.017 A 
ATOM      5  C4  UNL d   1      -0.237   1.248   1.038  0.00  0.00     0.017 A 
ATOM      6  C5  UNL d   1       0.341   0.211   1.777  0.00  0.00     0.034 A 
ATOM      7 Cl   UNL d   1      -0.793   2.639   1.902  0.00  0.00    -0.070 Cl
ATOM      8 Cl1  UNL d   1      -1.046   2.373  -1.333  0.00  0.00    -0.070 Cl
ENDROOT
TORSDOF 0
ENDMDL
