MODEL 1
REMARK minimizedAffinity -2.01659203
REMARK minimizedRMSD -1
REMARK  0 active torsions:
REMARK  status: ('A' for Active; 'I' for Inactive)
ROOT
ATOM      1  C   UNL d   1       0.472  -0.819   1.126  0.00  0.00     0.020 A 
ATOM      2  C1  UNL d   1       0.395  -0.959  -0.259  0.00  0.00     0.020 A 
ATOM      3  C2  UNL d   1      -0.165   0.059  -1.034  0.00  0.00     0.034 A 
ATOM      4  C3  UNL d   1      -0.650   1.222  -0.424  0.00  0.00     0.017 A 
ATOM      5  C4  UNL d   1      -0.572   1.362   0.966  0.00  0.00     0.017 A 
ATOM      6  C5  UNL d   1      -0.010   0.339   1.737  0.00  0.00     0.034 A 
ATOM      7 Cl   UNL d   1      -1.149   2.767   1.790  0.00  0.00    -0.070 Cl
ATOM      8 Cl1  UNL d   1      -1.330   2.440  -1.444  0.00  0.00    -0.070 Cl
ENDROOT
TORSDOF 0
ENDMDL
