MODEL 1
REMARK minimizedAffinity -4.11167908
REMARK minimizedRMSD -1
REMARK  0 active torsions:
REMARK  status: ('A' for Active; 'I' for Inactive)
ROOT
ATOM      1  C   UNL d   1      -0.355   1.298   1.896  0.00  0.00     0.020 A 
ATOM      2  C1  UNL d   1      -0.308   2.508   1.205  0.00  0.00     0.020 A 
ATOM      3  C2  UNL d   1      -0.145   2.513  -0.182  0.00  0.00     0.034 A 
ATOM      4  C3  UNL d   1      -0.028   1.307  -0.882  0.00  0.00     0.017 A 
ATOM      5  C4  UNL d   1      -0.076   0.093  -0.187  0.00  0.00     0.017 A 
ATOM      6  C5  UNL d   1      -0.239   0.093   1.202  0.00  0.00     0.034 A 
ATOM      7 Cl   UNL d   1       0.061  -1.436  -0.981  0.00  0.00    -0.070 Cl
ATOM      8 Cl1  UNL d   1       0.171   1.388  -2.596  0.00  0.00    -0.070 Cl
ENDROOT
TORSDOF 0
ENDMDL
