MODEL 1
REMARK minimizedAffinity -4.40542698
REMARK minimizedRMSD -1
REMARK  0 active torsions:
REMARK  status: ('A' for Active; 'I' for Inactive)
ROOT
ATOM      1  C   UNL d   1       0.933  -1.020  -0.323  0.00  0.00     0.020 A 
ATOM      2  C1  UNL d   1       0.936  -0.843   1.060  0.00  0.00     0.020 A 
ATOM      3  C2  UNL d   1       0.181   0.181   1.635  0.00  0.00     0.034 A 
ATOM      4  C3  UNL d   1      -0.581   1.032   0.827  0.00  0.00     0.017 A 
ATOM      5  C4  UNL d   1      -0.584   0.853  -0.562  0.00  0.00     0.017 A 
ATOM      6  C5  UNL d   1       0.174  -0.174  -1.132  0.00  0.00     0.034 A 
ATOM      7 Cl   UNL d   1      -1.500   1.863  -1.624  0.00  0.00    -0.070 Cl
ATOM      8 Cl1  UNL d   1      -1.492   2.277   1.605  0.00  0.00    -0.070 Cl
ENDROOT
TORSDOF 0
ENDMDL
