MODEL 1
REMARK minimizedAffinity -2.37868214
REMARK minimizedRMSD -1
REMARK  0 active torsions:
REMARK  status: ('A' for Active; 'I' for Inactive)
ROOT
ATOM      1  C4' PXY d   1      -3.894  -6.000  -5.999  0.00  0.00     0.077 C 
ATOM      2  C1' PXY d   1      -6.000  -3.247  -1.373  0.00  0.00     0.077 C 
ATOM      3  C1  PXY d   1      -5.440  -3.976  -2.578  0.00  0.00    -0.082 A 
ATOM      4  C2  PXY d   1      -5.493  -3.405  -3.771  0.00  0.00     0.003 A 
ATOM      5  C3  PXY d   1      -5.020  -4.064  -4.877  0.00  0.00     0.003 A 
ATOM      6  C4  PXY d   1      -4.438  -5.297  -4.753  0.00  0.00    -0.082 A 
ATOM      7  C5  PXY d   1      -4.371  -5.881  -3.538  0.00  0.00     0.003 A 
ATOM      8  C6  PXY d   1      -4.894  -5.214  -2.434  0.00  0.00     0.003 A 
ENDROOT
TORSDOF 0
ENDMDL
