MODEL 1
REMARK minimizedAffinity 0.597887278
REMARK minimizedRMSD -1
REMARK  0 active torsions:
REMARK  status: ('A' for Active; 'I' for Inactive)
ROOT
ATOM      1  C4' PXY d   1      -5.996  -2.760  -5.999  0.00  0.00     0.077 C 
ATOM      2  C1' PXY d   1      -5.126  -6.000  -1.292  0.00  0.00     0.077 C 
ATOM      3  C1  PXY d   1      -5.348  -5.159  -2.533  0.00  0.00    -0.082 A 
ATOM      4  C2  PXY d   1      -5.512  -3.851  -2.417  0.00  0.00     0.003 A 
ATOM      5  C3  PXY d   1      -5.746  -3.080  -3.527  0.00  0.00     0.003 A 
ATOM      6  C4  PXY d   1      -5.760  -3.646  -4.773  0.00  0.00    -0.082 A 
ATOM      7  C5  PXY d   1      -5.582  -4.978  -4.901  0.00  0.00     0.003 A 
ATOM      8  C6  PXY d   1      -5.387  -5.749  -3.759  0.00  0.00     0.003 A 
ENDROOT
TORSDOF 0
ENDMDL
