MODEL 1
REMARK minimizedAffinity 1.60869122
REMARK minimizedRMSD -1
REMARK  0 active torsions:
REMARK  status: ('A' for Active; 'I' for Inactive)
ROOT
ATOM      1  C4' PXY d   1      -5.970  -2.813  -1.276  0.00  0.00     0.077 C 
ATOM      2  C1' PXY d   1      -4.992  -5.998  -5.999  0.00  0.00     0.077 C 
ATOM      3  C1  PXY d   1      -5.251  -5.174  -4.753  0.00  0.00    -0.082 A 
ATOM      4  C2  PXY d   1      -5.603  -3.904  -4.871  0.00  0.00     0.003 A 
ATOM      5  C3  PXY d   1      -5.810  -3.135  -3.755  0.00  0.00     0.003 A 
ATOM      6  C4  PXY d   1      -5.708  -3.686  -2.506  0.00  0.00    -0.082 A 
ATOM      7  C5  PXY d   1      -5.359  -4.984  -2.377  0.00  0.00     0.003 A 
ATOM      8  C6  PXY d   1      -5.113  -5.736  -3.522  0.00  0.00     0.003 A 
ENDROOT
TORSDOF 0
ENDMDL
