MODEL 1
REMARK minimizedAffinity 2.71586943
REMARK minimizedRMSD -1
REMARK  0 active torsions:
REMARK  status: ('A' for Active; 'I' for Inactive)
ROOT
ATOM      1  C4' PXY d   1      -3.906  -4.350  -0.652  0.00  0.00     0.077 C 
ATOM      2  C1' PXY d   1      -5.515  -5.962  -5.964  0.00  0.00     0.077 C 
ATOM      3  C1  PXY d   1      -5.103  -5.530  -4.571  0.00  0.00    -0.082 A 
ATOM      4  C2  PXY d   1      -3.878  -5.789  -4.142  0.00  0.00     0.003 A 
ATOM      5  C3  PXY d   1      -3.499  -5.434  -2.873  0.00  0.00     0.003 A 
ATOM      6  C4  PXY d   1      -4.364  -4.759  -2.054  0.00  0.00    -0.082 A 
ATOM      7  C5  PXY d   1      -5.611  -4.481  -2.489  0.00  0.00     0.003 A 
ATOM      8  C6  PXY d   1      -5.991  -4.887  -3.765  0.00  0.00     0.003 A 
ENDROOT
TORSDOF 0
ENDMDL
