MODEL 1
REMARK minimizedAffinity 0.00197803252
REMARK minimizedRMSD -1
REMARK  0 active torsions:
REMARK  status: ('A' for Active; 'I' for Inactive)
ROOT
ATOM      1  C4' PXY d   1      -4.368  -3.178  -1.219  0.00  0.00     0.077 C 
ATOM      2  C1' PXY d   1      -5.992  -5.997  -5.997  0.00  0.00     0.077 C 
ATOM      3  C1  PXY d   1      -5.569  -5.268  -4.737  0.00  0.00    -0.082 A 
ATOM      4  C2  PXY d   1      -5.610  -3.946  -4.701  0.00  0.00     0.003 A 
ATOM      5  C3  PXY d   1      -5.201  -3.270  -3.580  0.00  0.00     0.003 A 
ATOM      6  C4  PXY d   1      -4.795  -3.956  -2.467  0.00  0.00    -0.082 A 
ATOM      7  C5  PXY d   1      -4.760  -5.305  -2.493  0.00  0.00     0.003 A 
ATOM      8  C6  PXY d   1      -5.141  -5.971  -3.654  0.00  0.00     0.003 A 
ENDROOT
TORSDOF 0
ENDMDL
