MODEL 1
REMARK minimizedAffinity 7.93150616
REMARK minimizedRMSD -1
REMARK  0 active torsions:
REMARK  status: ('A' for Active; 'I' for Inactive)
ROOT
ATOM      1  C4' PXY d   1       5.803  -1.556  -5.656  0.00  0.00     0.077 C 
ATOM      2  C1' PXY d   1       3.655   3.810  -5.767  0.00  0.00     0.077 C 
ATOM      3  C1  PXY d   1       4.208   2.399  -5.730  0.00  0.00    -0.082 A 
ATOM      4  C2  PXY d   1       5.489   2.192  -5.989  0.00  0.00     0.003 A 
ATOM      5  C3  PXY d   1       6.000   0.919  -5.991  0.00  0.00     0.003 A 
ATOM      6  C4  PXY d   1       5.203  -0.147  -5.673  0.00  0.00    -0.082 A 
ATOM      7  C5  PXY d   1       3.897   0.057  -5.397  0.00  0.00     0.003 A 
ATOM      8  C6  PXY d   1       3.389   1.352  -5.441  0.00  0.00     0.003 A 
ENDROOT
TORSDOF 0
ENDMDL
