MODEL 1
REMARK minimizedAffinity 11.6521826
REMARK minimizedRMSD -1
REMARK  0 active torsions:
REMARK  status: ('A' for Active; 'I' for Inactive)
ROOT
ATOM      1  C4' PXY d   1      -1.331   1.943  -0.338  0.00  0.00     0.077 C 
ATOM      2  C1' PXY d   1       2.484   6.000  -1.889  0.00  0.00     0.077 C 
ATOM      3  C1  PXY d   1       1.493   4.929  -1.476  0.00  0.00    -0.082 A 
ATOM      4  C2  PXY d   1       0.364   4.788  -2.151  0.00  0.00     0.003 A 
ATOM      5  C3  PXY d   1      -0.557   3.846  -1.772  0.00  0.00     0.003 A 
ATOM      6  C4  PXY d   1      -0.297   3.004  -0.724  0.00  0.00    -0.082 A 
ATOM      7  C5  PXY d   1       0.858   3.135  -0.037  0.00  0.00     0.003 A 
ATOM      8  C6  PXY d   1       1.762   4.125  -0.412  0.00  0.00     0.003 A 
ENDROOT
TORSDOF 0
ENDMDL
