MODEL 1
REMARK minimizedAffinity 2.35406947
REMARK minimizedRMSD -1
REMARK  0 active torsions:
REMARK  status: ('A' for Active; 'I' for Inactive)
ROOT
ATOM      1  C4' PXY d   1      -5.998  -3.136  -6.000  0.00  0.00     0.077 C 
ATOM      2  C1' PXY d   1      -4.127  -5.999  -1.340  0.00  0.00     0.077 C 
ATOM      3  C1  PXY d   1      -4.612  -5.258  -2.569  0.00  0.00    -0.082 A 
ATOM      4  C2  PXY d   1      -4.854  -3.959  -2.497  0.00  0.00     0.003 A 
ATOM      5  C3  PXY d   1      -5.324  -3.279  -3.591  0.00  0.00     0.003 A 
ATOM      6  C4  PXY d   1      -5.498  -3.924  -4.786  0.00  0.00    -0.082 A 
ATOM      7  C5  PXY d   1      -5.243  -5.247  -4.871  0.00  0.00     0.003 A 
ATOM      8  C6  PXY d   1      -4.806  -5.928  -3.738  0.00  0.00     0.003 A 
ENDROOT
TORSDOF 0
ENDMDL
