MODEL 1
REMARK minimizedAffinity 2.9261663
REMARK minimizedRMSD -1
REMARK  0 active torsions:
REMARK  status: ('A' for Active; 'I' for Inactive)
ROOT
ATOM      1  C4' PXY d   1       4.327   1.710  -1.286  0.00  0.00     0.077 C 
ATOM      2  C1' PXY d   1       6.000  -1.188  -6.000  0.00  0.00     0.077 C 
ATOM      3  C1  PXY d   1       5.561  -0.417  -4.771  0.00  0.00    -0.082 A 
ATOM      4  C2  PXY d   1       5.812  -0.906  -3.567  0.00  0.00     0.003 A 
ATOM      5  C3  PXY d   1       5.395  -0.238  -2.445  0.00  0.00     0.003 A 
ATOM      6  C4  PXY d   1       4.760   0.970  -2.555  0.00  0.00    -0.082 A 
ATOM      7  C5  PXY d   1       4.509   1.482  -3.779  0.00  0.00     0.003 A 
ATOM      8  C6  PXY d   1       4.905   0.767  -4.906  0.00  0.00     0.003 A 
ENDROOT
TORSDOF 0
ENDMDL
