MODEL 1
REMARK minimizedAffinity 11.7445536
REMARK minimizedRMSD -1
REMARK  0 active torsions:
REMARK  status: ('A' for Active; 'I' for Inactive)
ROOT
ATOM      1  O1  BZF d   1       0.696   2.791  -0.268  0.00  0.00    -0.204 OA
ATOM      2  C2  BZF d   1      -0.457   2.333   0.341  0.00  0.00     0.174 A 
ATOM      3  C3  BZF d   1      -1.529   2.537  -0.451  0.00  0.00    -0.012 A 
ATOM      4  C3A BZF d   1      -1.002   3.077  -1.667  0.00  0.00    -0.107 A 
ATOM      5  C4  BZF d   1      -1.572   3.472  -2.843  0.00  0.00     0.055 A 
ATOM      6  C5  BZF d   1      -0.786   4.023  -3.805  0.00  0.00    -0.016 A 
ATOM      7  C6  BZF d   1       0.569   4.201  -3.622  0.00  0.00     0.022 A 
ATOM      8  C7  BZF d   1       1.180   3.820  -2.474  0.00  0.00     0.029 A 
ATOM      9  C7A BZF d   1       0.395   3.232  -1.513  0.00  0.00     0.058 A 
ENDROOT
TORSDOF 0
ENDMDL
