MODEL 1
REMARK minimizedAffinity 14.3637323
REMARK minimizedRMSD -1
REMARK  0 active torsions:
REMARK  status: ('A' for Active; 'I' for Inactive)
ROOT
ATOM      1  O1  BZF d   1      -0.054   5.308  -5.709  0.00  0.00    -0.204 OA
ATOM      2  C2  BZF d   1       1.142   5.999  -5.690  0.00  0.00     0.174 A 
ATOM      3  C3  BZF d   1       1.810   5.770  -4.541  0.00  0.00    -0.012 A 
ATOM      4  C3A BZF d   1       1.023   4.806  -3.834  0.00  0.00    -0.107 A 
ATOM      5  C4  BZF d   1       1.171   4.170  -2.635  0.00  0.00     0.055 A 
ATOM      6  C5  BZF d   1       0.186   3.341  -2.201  0.00  0.00    -0.016 A 
ATOM      7  C6  BZF d   1      -0.962   3.130  -2.936  0.00  0.00     0.022 A 
ATOM      8  C7  BZF d   1      -1.152   3.734  -4.134  0.00  0.00     0.029 A 
ATOM      9  C7A BZF d   1      -0.143   4.547  -4.591  0.00  0.00     0.058 A 
ENDROOT
TORSDOF 0
ENDMDL
