MODEL 1
REMARK minimizedAffinity 13.4002266
REMARK minimizedRMSD -1
REMARK  0 active torsions:
REMARK  status: ('A' for Active; 'I' for Inactive)
ROOT
ATOM      1  O1  BZF d   1       0.710  -3.946  -2.638  0.00  0.00    -0.204 OA
ATOM      2  C2  BZF d   1       1.208  -3.265  -1.545  0.00  0.00     0.174 A 
ATOM      3  C3  BZF d   1       1.880  -2.162  -1.933  0.00  0.00    -0.012 A 
ATOM      4  C3A BZF d   1       1.718  -2.104  -3.354  0.00  0.00    -0.107 A 
ATOM      5  C4  BZF d   1       2.142  -1.228  -4.312  0.00  0.00     0.055 A 
ATOM      6  C5  BZF d   1       1.876  -1.498  -5.617  0.00  0.00    -0.016 A 
ATOM      7  C6  BZF d   1       1.194  -2.634  -6.000  0.00  0.00     0.022 A 
ATOM      8  C7  BZF d   1       0.749  -3.530  -5.085  0.00  0.00     0.029 A 
ATOM      9  C7A BZF d   1       0.988  -3.244  -3.763  0.00  0.00     0.058 A 
ENDROOT
TORSDOF 0
ENDMDL
