MODEL 1
REMARK minimizedAffinity 14.1992683
REMARK minimizedRMSD -1
REMARK  0 active torsions:
REMARK  status: ('A' for Active; 'I' for Inactive)
ROOT
ATOM      1  O1  BZF d   1       1.096   3.023   0.095  0.00  0.00    -0.204 OA
ATOM      2  C2  BZF d   1       0.403   3.610  -0.947  0.00  0.00     0.174 A 
ATOM      3  C3  BZF d   1      -0.921   3.385  -0.828  0.00  0.00    -0.012 A 
ATOM      4  C3A BZF d   1      -1.074   2.688   0.412  0.00  0.00    -0.107 A 
ATOM      5  C4  BZF d   1      -2.157   2.204   1.089  0.00  0.00     0.055 A 
ATOM      6  C5  BZF d   1      -1.959   1.507   2.239  0.00  0.00    -0.016 A 
ATOM      7  C6  BZF d   1      -0.695   1.272   2.737  0.00  0.00     0.022 A 
ATOM      8  C7  BZF d   1       0.410   1.736   2.103  0.00  0.00     0.029 A 
ATOM      9  C7A BZF d   1       0.211   2.469   0.959  0.00  0.00     0.058 A 
ENDROOT
TORSDOF 0
ENDMDL
