MODEL 1
REMARK minimizedAffinity 19.5051422
REMARK minimizedRMSD -1
REMARK  0 active torsions:
REMARK  status: ('A' for Active; 'I' for Inactive)
ROOT
ATOM      1  O1  BZF d   1      -0.762   5.143  -4.508  0.00  0.00    -0.204 OA
ATOM      2  C2  BZF d   1       0.279   6.000  -4.808  0.00  0.00     0.174 A 
ATOM      3  C3  BZF d   1       1.237   5.940  -3.860  0.00  0.00    -0.012 A 
ATOM      4  C3A BZF d   1       0.807   4.918  -2.956  0.00  0.00    -0.107 A 
ATOM      5  C4  BZF d   1       1.344   4.385  -1.819  0.00  0.00     0.055 A 
ATOM      6  C5  BZF d   1       0.637   3.450  -1.130  0.00  0.00    -0.016 A 
ATOM      7  C6  BZF d   1      -0.610   3.031  -1.546  0.00  0.00     0.022 A 
ATOM      8  C7  BZF d   1      -1.181   3.527  -2.671  0.00  0.00     0.029 A 
ATOM      9  C7A BZF d   1      -0.455   4.447  -3.387  0.00  0.00     0.058 A 
ENDROOT
TORSDOF 0
ENDMDL
