MODEL 1
REMARK minimizedAffinity 14.555192
REMARK minimizedRMSD -1
REMARK  0 active torsions:
REMARK  status: ('A' for Active; 'I' for Inactive)
ROOT
ATOM      1  O1  BZF d   1       0.794   2.922  -0.377  0.00  0.00    -0.204 OA
ATOM      2  C2  BZF d   1       0.011   2.169   0.477  0.00  0.00     0.174 A 
ATOM      3  C3  BZF d   1      -1.180   1.887  -0.090  0.00  0.00    -0.012 A 
ATOM      4  C3A BZF d   1      -1.103   2.424  -1.414  0.00  0.00    -0.107 A 
ATOM      5  C4  BZF d   1      -1.969   2.447  -2.469  0.00  0.00     0.055 A 
ATOM      6  C5  BZF d   1      -1.617   3.116  -3.599  0.00  0.00    -0.016 A 
ATOM      7  C6  BZF d   1      -0.410   3.776  -3.705  0.00  0.00     0.022 A 
ATOM      8  C7  BZF d   1       0.484   3.777  -2.686  0.00  0.00     0.029 A 
ATOM      9  C7A BZF d   1       0.145   3.074  -1.556  0.00  0.00     0.058 A 
ENDROOT
TORSDOF 0
ENDMDL
