MODEL 1
REMARK minimizedAffinity 23.8957863
REMARK minimizedRMSD -1
REMARK  0 active torsions:
REMARK  status: ('A' for Active; 'I' for Inactive)
ROOT
ATOM      1  O1  BZF d   1      -5.622   5.955   3.072  0.00  0.00    -0.204 OA
ATOM      2  C2  BZF d   1      -4.538   5.991   3.927  0.00  0.00     0.174 A 
ATOM      3  C3  BZF d   1      -3.382   5.916   3.238  0.00  0.00    -0.012 A 
ATOM      4  C3A BZF d   1      -3.765   5.921   1.859  0.00  0.00    -0.107 A 
ATOM      5  C4  BZF d   1      -3.062   5.881   0.689  0.00  0.00     0.055 A 
ATOM      6  C5  BZF d   1      -3.740   5.826  -0.487  0.00  0.00    -0.016 A 
ATOM      7  C6  BZF d   1      -5.118   5.804  -0.531  0.00  0.00     0.022 A 
ATOM      8  C7  BZF d   1      -5.859   5.847   0.603  0.00  0.00     0.029 A 
ATOM      9  C7A BZF d   1      -5.177   5.936   1.792  0.00  0.00     0.058 A 
ENDROOT
TORSDOF 0
ENDMDL
