MODEL 1
REMARK minimizedAffinity 14.8596506
REMARK minimizedRMSD -1
REMARK  0 active torsions:
REMARK  status: ('A' for Active; 'I' for Inactive)
ROOT
ATOM      1  O1  BZF d   1       1.402  -1.573   0.142  0.00  0.00    -0.204 OA
ATOM      2  C2  BZF d   1       1.706  -2.160   1.355  0.00  0.00     0.174 A 
ATOM      3  C3  BZF d   1       1.921  -3.483   1.206  0.00  0.00    -0.012 A 
ATOM      4  C3A BZF d   1       1.831  -3.723  -0.202  0.00  0.00    -0.107 A 
ATOM      5  C4  BZF d   1       1.967  -4.841  -0.975  0.00  0.00     0.055 A 
ATOM      6  C5  BZF d   1       1.745  -4.750  -2.313  0.00  0.00    -0.016 A 
ATOM      7  C6  BZF d   1       1.381  -3.560  -2.909  0.00  0.00     0.022 A 
ATOM      8  C7  BZF d   1       1.239  -2.424  -2.184  0.00  0.00     0.029 A 
ATOM      9  C7A BZF d   1       1.494  -2.505  -0.837  0.00  0.00     0.058 A 
ENDROOT
TORSDOF 0
ENDMDL
