MODEL 1
REMARK minimizedAffinity 11.3442411
REMARK minimizedRMSD -1
REMARK  0 active torsions:
REMARK  status: ('A' for Active; 'I' for Inactive)
ROOT
ATOM      1  O1  BZF d   1       2.116  -1.588  -2.260  0.00  0.00    -0.204 OA
ATOM      2  C2  BZF d   1       1.606  -2.653  -1.542  0.00  0.00     0.174 A 
ATOM      3  C3  BZF d   1       0.961  -3.513  -2.356  0.00  0.00    -0.012 A 
ATOM      4  C3A BZF d   1       1.154  -2.998  -3.677  0.00  0.00    -0.107 A 
ATOM      5  C4  BZF d   1       0.765  -3.421  -4.916  0.00  0.00     0.055 A 
ATOM      6  C5  BZF d   1       1.055  -2.651  -5.998  0.00  0.00    -0.016 A 
ATOM      7  C6  BZF d   1       1.725  -1.452  -5.877  0.00  0.00     0.022 A 
ATOM      8  C7  BZF d   1       2.136  -0.993  -4.669  0.00  0.00     0.029 A 
ATOM      9  C7A BZF d   1       1.874  -1.785  -3.578  0.00  0.00     0.058 A 
ENDROOT
TORSDOF 0
ENDMDL
