MODEL 1
REMARK minimizedAffinity 22.5588055
REMARK minimizedRMSD -1
REMARK  0 active torsions:
REMARK  status: ('A' for Active; 'I' for Inactive)
ROOT
ATOM      1  O1  BZF d   1      -5.844   5.804  -1.417  0.00  0.00    -0.204 OA
ATOM      2  C2  BZF d   1      -4.790   5.785  -2.311  0.00  0.00     0.174 A 
ATOM      3  C3  BZF d   1      -3.611   5.882  -1.663  0.00  0.00    -0.012 A 
ATOM      4  C3A BZF d   1      -3.945   5.873  -0.271  0.00  0.00    -0.107 A 
ATOM      5  C4  BZF d   1      -3.202   5.928   0.873  0.00  0.00     0.055 A 
ATOM      6  C5  BZF d   1      -3.838   5.975   2.073  0.00  0.00    -0.016 A 
ATOM      7  C6  BZF d   1      -5.215   5.973   2.165  0.00  0.00     0.022 A 
ATOM      8  C7  BZF d   1      -5.994   5.915   1.058  0.00  0.00     0.029 A 
ATOM      9  C7A BZF d   1      -5.354   5.834  -0.154  0.00  0.00     0.058 A 
ENDROOT
TORSDOF 0
ENDMDL
