MODEL 1
REMARK minimizedAffinity 16.4961033
REMARK minimizedRMSD -1
REMARK  0 active torsions:
REMARK  status: ('A' for Active; 'I' for Inactive)
ROOT
ATOM      1  O1  BZF d   1       0.233  -1.845  -5.916  0.00  0.00    -0.204 OA
ATOM      2  C2  BZF d   1      -0.025  -3.203  -5.919  0.00  0.00     0.174 A 
ATOM      3  C3  BZF d   1       1.122  -3.908  -5.988  0.00  0.00    -0.012 A 
ATOM      4  C3A BZF d   1       2.167  -2.932  -5.938  0.00  0.00    -0.107 A 
ATOM      5  C4  BZF d   1       3.530  -3.014  -5.952  0.00  0.00     0.055 A 
ATOM      6  C5  BZF d   1       4.261  -1.869  -5.965  0.00  0.00    -0.016 A 
ATOM      7  C6  BZF d   1       3.663  -0.626  -5.969  0.00  0.00     0.022 A 
ATOM      8  C7  BZF d   1       2.314  -0.493  -5.949  0.00  0.00     0.029 A 
ATOM      9  C7A BZF d   1       1.573  -1.649  -5.903  0.00  0.00     0.058 A 
ENDROOT
TORSDOF 0
ENDMDL
