MODEL 1
REMARK minimizedAffinity 10.817378
REMARK minimizedRMSD -1
REMARK  0 active torsions:
REMARK  status: ('A' for Active; 'I' for Inactive)
ROOT
ATOM      1  O1  BZF d   1      -3.748   5.979   3.557  0.00  0.00    -0.204 OA
ATOM      2  C2  BZF d   1      -4.987   5.967   4.167  0.00  0.00     0.174 A 
ATOM      3  C3  BZF d   1      -5.973   5.999   3.248  0.00  0.00    -0.012 A 
ATOM      4  C3A BZF d   1      -5.309   5.941   1.981  0.00  0.00    -0.107 A 
ATOM      5  C4  BZF d   1      -5.751   5.923   0.689  0.00  0.00     0.055 A 
ATOM      6  C5  BZF d   1      -4.842   5.937  -0.320  0.00  0.00    -0.016 A 
ATOM      7  C6  BZF d   1      -3.485   5.973  -0.074  0.00  0.00     0.022 A 
ATOM      8  C7  BZF d   1      -2.998   5.986   1.191  0.00  0.00     0.029 A 
ATOM      9  C7A BZF d   1      -3.914   5.939   2.213  0.00  0.00     0.058 A 
ENDROOT
TORSDOF 0
ENDMDL
