MODEL 1
REMARK minimizedAffinity 15.8088207
REMARK minimizedRMSD -1
REMARK  0 active torsions:
REMARK  status: ('A' for Active; 'I' for Inactive)
ROOT
ATOM      1  O1  BZF d   1       1.231  -5.513  -3.415  0.00  0.00    -0.204 OA
ATOM      2  C2  BZF d   1       2.242  -5.503  -2.474  0.00  0.00     0.174 A 
ATOM      3  C3  BZF d   1       3.104  -4.493  -2.708  0.00  0.00    -0.012 A 
ATOM      4  C3A BZF d   1       2.551  -3.775  -3.814  0.00  0.00    -0.107 A 
ATOM      5  C4  BZF d   1       2.942  -2.660  -4.500  0.00  0.00     0.055 A 
ATOM      6  C5  BZF d   1       2.216  -2.260  -5.577  0.00  0.00    -0.016 A 
ATOM      7  C6  BZF d   1       1.100  -2.951  -5.999  0.00  0.00     0.022 A 
ATOM      8  C7  BZF d   1       0.670  -4.059  -5.347  0.00  0.00     0.029 A 
ATOM      9  C7A BZF d   1       1.382  -4.448  -4.239  0.00  0.00     0.058 A 
ENDROOT
TORSDOF 0
ENDMDL
