MODEL 1
REMARK minimizedAffinity 15.9533997
REMARK minimizedRMSD -1
REMARK  0 active torsions:
REMARK  status: ('A' for Active; 'I' for Inactive)
ROOT
ATOM      1  O1  BZF d   1       1.373   5.235   0.247  0.00  0.00    -0.204 OA
ATOM      2  C2  BZF d   1       2.067   5.994   1.169  0.00  0.00     0.174 A 
ATOM      3  C3  BZF d   1       2.025   5.421   2.389  0.00  0.00    -0.012 A 
ATOM      4  C3A BZF d   1       1.335   4.182   2.199  0.00  0.00    -0.107 A 
ATOM      5  C4  BZF d   1       0.993   3.160   3.038  0.00  0.00     0.055 A 
ATOM      6  C5  BZF d   1       0.256   2.127   2.553  0.00  0.00    -0.016 A 
ATOM      7  C6  BZF d   1      -0.160   2.086   1.238  0.00  0.00     0.022 A 
ATOM      8  C7  BZF d   1       0.159   3.074   0.367  0.00  0.00     0.029 A 
ATOM      9  C7A BZF d   1       0.931   4.104   0.846  0.00  0.00     0.058 A 
ENDROOT
TORSDOF 0
ENDMDL
