MODEL 1
REMARK minimizedAffinity 16.3475895
REMARK minimizedRMSD -1
REMARK  0 active torsions:
REMARK  status: ('A' for Active; 'I' for Inactive)
ROOT
ATOM      1  O1  BZF d   1       0.383  -4.014  -2.761  0.00  0.00    -0.204 OA
ATOM      2  C2  BZF d   1       1.061  -3.621  -1.623  0.00  0.00     0.174 A 
ATOM      3  C3  BZF d   1       2.035  -2.739  -1.927  0.00  0.00    -0.012 A 
ATOM      4  C3A BZF d   1       1.901  -2.500  -3.331  0.00  0.00    -0.107 A 
ATOM      5  C4  BZF d   1       2.571  -1.704  -4.216  0.00  0.00     0.055 A 
ATOM      6  C5  BZF d   1       2.238  -1.755  -5.533  0.00  0.00    -0.016 A 
ATOM      7  C6  BZF d   1       1.247  -2.593  -6.000  0.00  0.00     0.022 A 
ATOM      8  C7  BZF d   1       0.551  -3.397  -5.159  0.00  0.00     0.029 A 
ATOM      9  C7A BZF d   1       0.862  -3.323  -3.823  0.00  0.00     0.058 A 
ENDROOT
TORSDOF 0
ENDMDL
