MODEL 1
REMARK minimizedAffinity 12.6552868
REMARK minimizedRMSD -1
REMARK  0 active torsions:
REMARK  status: ('A' for Active; 'I' for Inactive)
ROOT
ATOM      1  O1  BZF d   1       0.215   1.824  -0.593  0.00  0.00    -0.204 OA
ATOM      2  C2  BZF d   1      -0.372   1.656   0.646  0.00  0.00     0.174 A 
ATOM      3  C3  BZF d   1      -0.661   2.849   1.204  0.00  0.00    -0.012 A 
ATOM      4  C3A BZF d   1      -0.312   3.822   0.215  0.00  0.00    -0.107 A 
ATOM      5  C4  BZF d   1      -0.383   5.185   0.172  0.00  0.00     0.055 A 
ATOM      6  C5  BZF d   1       0.108   5.838  -0.913  0.00  0.00    -0.016 A 
ATOM      7  C6  BZF d   1       0.681   5.162  -1.970  0.00  0.00     0.022 A 
ATOM      8  C7  BZF d   1       0.769   3.809  -1.976  0.00  0.00     0.029 A 
ATOM      9  C7A BZF d   1       0.244   3.144  -0.895  0.00  0.00     0.058 A 
ENDROOT
TORSDOF 0
ENDMDL
