MODEL 1
REMARK minimizedAffinity 2.77856827
REMARK minimizedRMSD -1
REMARK  0 active torsions:
REMARK  status: ('A' for Active; 'I' for Inactive)
ROOT
ATOM      1  O1  BZF d   1      -5.965  -6.000   4.364  0.00  0.00    -0.204 OA
ATOM      2  C2  BZF d   1      -5.997  -5.213   5.499  0.00  0.00     0.174 A 
ATOM      3  C3  BZF d   1      -5.960  -3.904   5.175  0.00  0.00    -0.012 A 
ATOM      4  C3A BZF d   1      -5.995  -3.869   3.745  0.00  0.00    -0.107 A 
ATOM      5  C4  BZF d   1      -5.998  -2.855   2.830  0.00  0.00     0.055 A 
ATOM      6  C5  BZF d   1      -5.962  -3.160   1.507  0.00  0.00    -0.016 A 
ATOM      7  C6  BZF d   1      -5.917  -4.465   1.063  0.00  0.00     0.022 A 
ATOM      8  C7  BZF d   1      -5.917  -5.505   1.932  0.00  0.00     0.029 A 
ATOM      9  C7A BZF d   1      -5.987  -5.201   3.270  0.00  0.00     0.058 A 
ENDROOT
TORSDOF 0
ENDMDL
