MODEL 1
REMARK minimizedAffinity 9.4729557
REMARK minimizedRMSD -1
REMARK  0 active torsions:
REMARK  status: ('A' for Active; 'I' for Inactive)
ROOT
ATOM      1  O1  BZF d   1       0.769   2.070   0.754  0.00  0.00    -0.204 OA
ATOM      2  C2  BZF d   1      -0.346   1.371   1.172  0.00  0.00     0.174 A 
ATOM      3  C3  BZF d   1      -1.429   1.719   0.446  0.00  0.00    -0.012 A 
ATOM      4  C3A BZF d   1      -0.941   2.628  -0.545  0.00  0.00    -0.107 A 
ATOM      5  C4  BZF d   1      -1.535   3.307  -1.570  0.00  0.00     0.055 A 
ATOM      6  C5  BZF d   1      -0.791   4.173  -2.308  0.00  0.00    -0.016 A 
ATOM      7  C6  BZF d   1       0.546   4.387  -2.045  0.00  0.00     0.022 A 
ATOM      8  C7  BZF d   1       1.180   3.733  -1.042  0.00  0.00     0.029 A 
ATOM      9  C7A BZF d   1       0.439   2.833  -0.316  0.00  0.00     0.058 A 
ENDROOT
TORSDOF 0
ENDMDL
