MODEL 1
REMARK minimizedAffinity 14.3813133
REMARK minimizedRMSD -1
REMARK  0 active torsions:
REMARK  status: ('A' for Active; 'I' for Inactive)
ROOT
ATOM      1  O1  BZF d   1       1.948  -4.324  -1.647  0.00  0.00    -0.204 OA
ATOM      2  C2  BZF d   1       1.706  -3.632  -2.818  0.00  0.00     0.174 A 
ATOM      3  C3  BZF d   1       1.486  -2.325  -2.564  0.00  0.00    -0.012 A 
ATOM      4  C3A BZF d   1       1.690  -2.176  -1.156  0.00  0.00    -0.107 A 
ATOM      5  C4  BZF d   1       1.632  -1.108  -0.307  0.00  0.00     0.055 A 
ATOM      6  C5  BZF d   1       1.812  -1.312   1.025  0.00  0.00    -0.016 A 
ATOM      7  C6  BZF d   1       2.045  -2.570   1.542  0.00  0.00     0.022 A 
ATOM      8  C7  BZF d   1       2.116  -3.659   0.738  0.00  0.00     0.029 A 
ATOM      9  C7A BZF d   1       1.968  -3.451  -0.611  0.00  0.00     0.058 A 
ENDROOT
TORSDOF 0
ENDMDL
