MODEL 1
REMARK minimizedAffinity 2.37264657
REMARK minimizedRMSD -1
REMARK  1 active torsions:
REMARK  status: ('A' for Active; 'I' for Inactive)
REMARK    1  A    between atoms: C1_2  and  C2_3 
ROOT
ATOM      1  C2  UNL d   1       0.629   1.406   0.575  0.00  0.00    -0.081 A 
ATOM      2  C3  UNL d   1      -0.472   1.148   1.401  0.00  0.00     0.006 A 
ATOM      3  C4  UNL d   1      -0.731  -0.148   1.852  0.00  0.00     0.002 A 
ATOM      4  C5  UNL d   1       0.111  -1.206   1.493  0.00  0.00    -0.080 A 
ATOM      5  C6  UNL d   1      -0.138  -2.597   1.996  0.00  0.00     0.076 C 
ATOM      6  C7  UNL d   1       1.201  -0.952   0.654  0.00  0.00     0.002 A 
ATOM      7  C8  UNL d   1       1.460   0.344   0.202  0.00  0.00     0.006 A 
ENDROOT
BRANCH   1   8
ATOM      8  C1  UNL d   1       0.948   2.814   0.140  0.00  0.00     0.054 C 
ATOM      9  C   UNL d   1       2.365   3.206   0.530  0.00  0.00     0.018 C 
ENDBRANCH   1   8
TORSDOF 1
ENDMDL
