MODEL 1
REMARK minimizedAffinity 4.58439636
REMARK minimizedRMSD -1
REMARK  1 active torsions:
REMARK  status: ('A' for Active; 'I' for Inactive)
REMARK    1  A    between atoms: C1_2  and  C2_3 
ROOT
ATOM      1  C2  UNL d   1       1.403   1.113  -0.593  0.00  0.00    -0.081 A 
ATOM      2  C3  UNL d   1       1.131   0.937  -1.955  0.00  0.00     0.006 A 
ATOM      3  C4  UNL d   1       1.554  -0.216  -2.619  0.00  0.00     0.002 A 
ATOM      4  C5  UNL d   1       2.250  -1.216  -1.931  0.00  0.00    -0.080 A 
ATOM      5  C6  UNL d   1       2.684  -2.473  -2.625  0.00  0.00     0.076 C 
ATOM      6  C7  UNL d   1       2.537  -1.034  -0.574  0.00  0.00     0.002 A 
ATOM      7  C8  UNL d   1       2.115   0.120   0.090  0.00  0.00     0.006 A 
ENDROOT
BRANCH   1   8
ATOM      8  C1  UNL d   1       0.892   2.326   0.141  0.00  0.00     0.054 C 
ATOM      9  C   UNL d   1      -0.630   2.364   0.155  0.00  0.00     0.018 C 
ENDBRANCH   1   8
TORSDOF 1
ENDMDL
