MODEL 1
REMARK minimizedAffinity 4.80067015
REMARK minimizedRMSD -1
REMARK  1 active torsions:
REMARK  status: ('A' for Active; 'I' for Inactive)
REMARK    1  A    between atoms: C1_2  and  C2_3 
ROOT
ATOM      1  C2  UNL d   1       0.020   1.900   1.119  0.00  0.00    -0.081 A 
ATOM      2  C3  UNL d   1      -0.873   1.880   2.198  0.00  0.00     0.006 A 
ATOM      3  C4  UNL d   1      -1.156   0.683   2.860  0.00  0.00     0.002 A 
ATOM      4  C5  UNL d   1      -0.547  -0.511   2.461  0.00  0.00    -0.080 A 
ATOM      5  C6  UNL d   1      -0.820  -1.798   3.182  0.00  0.00     0.076 C 
ATOM      6  C7  UNL d   1       0.331  -0.494   1.372  0.00  0.00     0.002 A 
ATOM      7  C8  UNL d   1       0.615   0.702   0.709  0.00  0.00     0.006 A 
ENDROOT
BRANCH   1   8
ATOM      8  C1  UNL d   1       0.377   3.199   0.444  0.00  0.00     0.054 C 
ATOM      9  C   UNL d   1      -0.586   3.516  -0.691  0.00  0.00     0.018 C 
ENDBRANCH   1   8
TORSDOF 1
ENDMDL
