MODEL 1
REMARK minimizedAffinity 10.0579357
REMARK minimizedRMSD -1
REMARK  1 active torsions:
REMARK  status: ('A' for Active; 'I' for Inactive)
REMARK    1  A    between atoms: C1_2  and  C2_3 
ROOT
ATOM      1  C2  UNL d   1      -3.171   2.393   0.390  0.00  0.00    -0.081 A 
ATOM      2  C3  UNL d   1      -2.477   1.334   0.988  0.00  0.00     0.006 A 
ATOM      3  C4  UNL d   1      -3.163   0.360   1.719  0.00  0.00     0.002 A 
ATOM      4  C5  UNL d   1      -4.554   0.425   1.856  0.00  0.00    -0.080 A 
ATOM      5  C6  UNL d   1      -5.305  -0.631   2.611  0.00  0.00     0.076 C 
ATOM      6  C7  UNL d   1      -5.245   1.492   1.273  0.00  0.00     0.002 A 
ATOM      7  C8  UNL d   1      -4.560   2.466   0.543  0.00  0.00     0.006 A 
ENDROOT
BRANCH   1   8
ATOM      8  C1  UNL d   1      -2.442   3.408  -0.452  0.00  0.00     0.054 C 
ATOM      9  C   UNL d   1      -2.556   3.082  -1.934  0.00  0.00     0.018 C 
ENDBRANCH   1   8
TORSDOF 1
ENDMDL
