MODEL 1
REMARK minimizedAffinity 4.65213537
REMARK minimizedRMSD -1
REMARK  1 active torsions:
REMARK  status: ('A' for Active; 'I' for Inactive)
REMARK    1  A    between atoms: C1_2  and  C2_3 
ROOT
ATOM      1  C2  UNL d   1      -2.910   2.653   0.155  0.00  0.00    -0.081 A 
ATOM      2  C3  UNL d   1      -4.280   2.750   0.428  0.00  0.00     0.006 A 
ATOM      3  C4  UNL d   1      -4.892   1.855   1.309  0.00  0.00     0.002 A 
ATOM      4  C5  UNL d   1      -4.143   0.854   1.937  0.00  0.00    -0.080 A 
ATOM      5  C6  UNL d   1      -4.782  -0.094   2.908  0.00  0.00     0.076 C 
ATOM      6  C7  UNL d   1      -2.778   0.746   1.651  0.00  0.00     0.002 A 
ATOM      7  C8  UNL d   1      -2.166   1.640   0.770  0.00  0.00     0.006 A 
ENDROOT
BRANCH   1   8
ATOM      8  C1  UNL d   1      -2.235   3.656  -0.745  0.00  0.00     0.054 C 
ATOM      9  C   UNL d   1      -0.720   3.521  -0.686  0.00  0.00     0.018 C 
ENDBRANCH   1   8
TORSDOF 1
ENDMDL
