MODEL 1
REMARK minimizedAffinity 4.0249877
REMARK minimizedRMSD -1
REMARK  1 active torsions:
REMARK  status: ('A' for Active; 'I' for Inactive)
REMARK    1  A    between atoms: C1_2  and  C2_3 
ROOT
ATOM      1  C2  UNL d   1       4.066   2.282   3.828  0.00  0.00    -0.081 A 
ATOM      2  C3  UNL d   1       3.516   2.755   5.026  0.00  0.00     0.006 A 
ATOM      3  C4  UNL d   1       4.146   3.779   5.738  0.00  0.00     0.002 A 
ATOM      4  C5  UNL d   1       5.329   4.352   5.260  0.00  0.00    -0.080 A 
ATOM      5  C6  UNL d   1       5.999   5.472   5.999  0.00  0.00     0.076 C 
ATOM      6  C7  UNL d   1       5.887   3.867   4.072  0.00  0.00     0.002 A 
ATOM      7  C8  UNL d   1       5.259   2.843   3.360  0.00  0.00     0.006 A 
ENDROOT
BRANCH   1   8
ATOM      8  C1  UNL d   1       3.355   1.222   3.024  0.00  0.00     0.054 C 
ATOM      9  C   UNL d   1       4.241   0.687   1.909  0.00  0.00     0.018 C 
ENDBRANCH   1   8
TORSDOF 1
ENDMDL
