MODEL 1
REMARK minimizedAffinity 6.37777853
REMARK minimizedRMSD -1
REMARK  1 active torsions:
REMARK  status: ('A' for Active; 'I' for Inactive)
REMARK    1  A    between atoms: C1_2  and  C2_3 
ROOT
ATOM      1  C2  UNL d   1       2.423   1.631   0.162  0.00  0.00    -0.081 A 
ATOM      2  C3  UNL d   1       3.711   1.463  -0.363  0.00  0.00     0.006 A 
ATOM      3  C4  UNL d   1       3.890   0.928  -1.641  0.00  0.00     0.002 A 
ATOM      4  C5  UNL d   1       2.786   0.560  -2.418  0.00  0.00    -0.080 A 
ATOM      5  C6  UNL d   1       2.964   0.013  -3.803  0.00  0.00     0.076 C 
ATOM      6  C7  UNL d   1       1.501   0.711  -1.886  0.00  0.00     0.002 A 
ATOM      7  C8  UNL d   1       1.321   1.245  -0.609  0.00  0.00     0.006 A 
ENDROOT
BRANCH   1   8
ATOM      8  C1  UNL d   1       2.224   2.267   1.514  0.00  0.00     0.054 C 
ATOM      9  C   UNL d   1       2.147   3.784   1.405  0.00  0.00     0.018 C 
ENDBRANCH   1   8
TORSDOF 1
ENDMDL
