MODEL 1
REMARK minimizedAffinity -0.0622526705
REMARK minimizedRMSD -1
REMARK  1 active torsions:
REMARK  status: ('A' for Active; 'I' for Inactive)
REMARK    1  A    between atoms: C1_2  and  C2_3 
ROOT
ATOM      1  C2  UNL d   1       0.381   2.438   0.507  0.00  0.00    -0.081 A 
ATOM      2  C3  UNL d   1      -0.179   1.539   1.422  0.00  0.00     0.006 A 
ATOM      3  C4  UNL d   1      -1.535   1.210   1.353  0.00  0.00     0.002 A 
ATOM      4  C5  UNL d   1      -2.352   1.769   0.364  0.00  0.00    -0.080 A 
ATOM      5  C6  UNL d   1      -3.802   1.401   0.261  0.00  0.00     0.076 C 
ATOM      6  C7  UNL d   1      -1.796   2.681  -0.540  0.00  0.00     0.002 A 
ATOM      7  C8  UNL d   1      -0.441   3.010  -0.471  0.00  0.00     0.006 A 
ENDROOT
BRANCH   1   8
ATOM      8  C1  UNL d   1       1.856   2.745   0.538  0.00  0.00     0.054 C 
ATOM      9  C   UNL d   1       2.683   1.474   0.672  0.00  0.00     0.018 C 
ENDBRANCH   1   8
TORSDOF 1
ENDMDL
