MODEL 1
REMARK minimizedAffinity 0.174501136
REMARK minimizedRMSD -1
REMARK  1 active torsions:
REMARK  status: ('A' for Active; 'I' for Inactive)
REMARK    1  A    between atoms: C1_2  and  C2_3 
ROOT
ATOM      1  C2  UNL d   1       1.327   3.027   0.135  0.00  0.00    -0.081 A 
ATOM      2  C3  UNL d   1       0.673   2.392   1.198  0.00  0.00     0.006 A 
ATOM      3  C4  UNL d   1      -0.720   2.283   1.208  0.00  0.00     0.002 A 
ATOM      4  C5  UNL d   1      -1.480   2.800   0.154  0.00  0.00    -0.080 A 
ATOM      5  C6  UNL d   1      -2.974   2.662   0.138  0.00  0.00     0.076 C 
ATOM      6  C7  UNL d   1      -0.828   3.449  -0.900  0.00  0.00     0.002 A 
ATOM      7  C8  UNL d   1       0.564   3.560  -0.910  0.00  0.00     0.006 A 
ENDROOT
BRANCH   1   8
ATOM      8  C1  UNL d   1       2.832   3.090   0.089  0.00  0.00     0.054 C 
ATOM      9  C   UNL d   1       3.456   1.836   0.686  0.00  0.00     0.018 C 
ENDBRANCH   1   8
TORSDOF 1
ENDMDL
