MODEL 1
REMARK minimizedAffinity 1.5839777
REMARK minimizedRMSD -1
REMARK  1 active torsions:
REMARK  status: ('A' for Active; 'I' for Inactive)
REMARK    1  A    between atoms: C1_2  and  C2_3 
ROOT
ATOM      1  C2  UNL d   1       0.584   2.383   0.434  0.00  0.00    -0.081 A 
ATOM      2  C3  UNL d   1      -0.267   1.532   1.150  0.00  0.00     0.006 A 
ATOM      3  C4  UNL d   1      -1.644   1.546   0.915  0.00  0.00     0.002 A 
ATOM      4  C5  UNL d   1      -2.192   2.404  -0.044  0.00  0.00    -0.080 A 
ATOM      5  C6  UNL d   1      -3.664   2.407  -0.327  0.00  0.00     0.076 C 
ATOM      6  C7  UNL d   1      -1.344   3.267  -0.747  0.00  0.00     0.002 A 
ATOM      7  C8  UNL d   1       0.033   3.254  -0.512  0.00  0.00     0.006 A 
ENDROOT
BRANCH   1   8
ATOM      8  C1  UNL d   1       2.076   2.325   0.639  0.00  0.00     0.054 C 
ATOM      9  C   UNL d   1       2.747   3.616   0.191  0.00  0.00     0.018 C 
ENDBRANCH   1   8
TORSDOF 1
ENDMDL
