MODEL 1
REMARK minimizedAffinity -0.314448804
REMARK minimizedRMSD -1
REMARK  1 active torsions:
REMARK  status: ('A' for Active; 'I' for Inactive)
REMARK    1  A    between atoms: C1_2  and  C2_3 
ROOT
ATOM      1  C2  UNL d   1       2.245   0.555   0.196  0.00  0.00    -0.081 A 
ATOM      2  C3  UNL d   1       3.552   0.676   0.685  0.00  0.00     0.006 A 
ATOM      3  C4  UNL d   1       4.020   1.905   1.156  0.00  0.00     0.002 A 
ATOM      4  C5  UNL d   1       3.188   3.030   1.153  0.00  0.00    -0.080 A 
ATOM      5  C6  UNL d   1       3.669   4.348   1.683  0.00  0.00     0.076 C 
ATOM      6  C7  UNL d   1       1.889   2.913   0.648  0.00  0.00     0.002 A 
ATOM      7  C8  UNL d   1       1.420   1.684   0.177  0.00  0.00     0.006 A 
ENDROOT
BRANCH   1   8
ATOM      8  C1  UNL d   1       1.716  -0.784  -0.252  0.00  0.00     0.054 C 
ATOM      9  C   UNL d   1       1.327  -0.760  -1.723  0.00  0.00     0.018 C 
ENDBRANCH   1   8
TORSDOF 1
ENDMDL
