MODEL 1
REMARK minimizedAffinity 8.18918991
REMARK minimizedRMSD -1
REMARK  1 active torsions:
REMARK  status: ('A' for Active; 'I' for Inactive)
REMARK    1  A    between atoms: C1_2  and  C2_3 
ROOT
ATOM      1  C2  UNL d   1       1.630   1.476  -0.023  0.00  0.00    -0.081 A 
ATOM      2  C3  UNL d   1       1.903   0.336   0.744  0.00  0.00     0.006 A 
ATOM      3  C4  UNL d   1       2.104  -0.900   0.126  0.00  0.00     0.002 A 
ATOM      4  C5  UNL d   1       2.044  -1.017  -1.266  0.00  0.00    -0.080 A 
ATOM      5  C6  UNL d   1       2.289  -2.333  -1.944  0.00  0.00     0.076 C 
ATOM      6  C7  UNL d   1       1.755   0.118  -2.031  0.00  0.00     0.002 A 
ATOM      7  C8  UNL d   1       1.552   1.355  -1.414  0.00  0.00     0.006 A 
ENDROOT
BRANCH   1   8
ATOM      8  C1  UNL d   1       1.477   2.823   0.636  0.00  0.00     0.054 C 
ATOM      9  C   UNL d   1       0.240   3.550   0.127  0.00  0.00     0.018 C 
ENDBRANCH   1   8
TORSDOF 1
ENDMDL
