MODEL 1
REMARK minimizedAffinity 8.47004986
REMARK minimizedRMSD -1
REMARK  1 active torsions:
REMARK  status: ('A' for Active; 'I' for Inactive)
REMARK    1  A    between atoms: C1_2  and  C2_3 
ROOT
ATOM      1  C2  UNL d   1       2.734   1.354   1.148  0.00  0.00    -0.081 A 
ATOM      2  C3  UNL d   1       2.602   2.436   0.269  0.00  0.00     0.006 A 
ATOM      3  C4  UNL d   1       1.338   2.927  -0.066  0.00  0.00     0.002 A 
ATOM      4  C5  UNL d   1       0.186   2.349   0.479  0.00  0.00    -0.080 A 
ATOM      5  C6  UNL d   1      -1.176   2.886   0.152  0.00  0.00     0.076 C 
ATOM      6  C7  UNL d   1       0.317   1.257   1.343  0.00  0.00     0.002 A 
ATOM      7  C8  UNL d   1       1.580   0.766   1.678  0.00  0.00     0.006 A 
ENDROOT
BRANCH   1   8
ATOM      8  C1  UNL d   1       4.099   0.864   1.561  0.00  0.00     0.054 C 
ATOM      9  C   UNL d   1       4.806   1.879   2.448  0.00  0.00     0.018 C 
ENDBRANCH   1   8
TORSDOF 1
ENDMDL
