MODEL 1
REMARK minimizedAffinity 11.4250536
REMARK minimizedRMSD -1
REMARK  1 active torsions:
REMARK  status: ('A' for Active; 'I' for Inactive)
REMARK    1  A    between atoms: C1_2  and  C2_3 
ROOT
ATOM      1  C2  UNL d   1       2.041   1.367  -0.275  0.00  0.00    -0.081 A 
ATOM      2  C3  UNL d   1       1.612   1.203  -1.598  0.00  0.00     0.006 A 
ATOM      3  C4  UNL d   1       1.795  -0.016  -2.255  0.00  0.00     0.002 A 
ATOM      4  C5  UNL d   1       2.403  -1.092  -1.599  0.00  0.00    -0.080 A 
ATOM      5  C6  UNL d   1       2.578  -2.415  -2.283  0.00  0.00     0.076 C 
ATOM      6  C7  UNL d   1       2.847  -0.922  -0.284  0.00  0.00     0.002 A 
ATOM      7  C8  UNL d   1       2.664   0.296   0.374  0.00  0.00     0.006 A 
ENDROOT
BRANCH   1   8
ATOM      8  C1  UNL d   1       1.787   2.660   0.458  0.00  0.00     0.054 C 
ATOM      9  C   UNL d   1       0.356   2.732   0.972  0.00  0.00     0.018 C 
ENDBRANCH   1   8
TORSDOF 1
ENDMDL
