MODEL 1
REMARK minimizedAffinity -3.75293469
REMARK minimizedRMSD -1
REMARK  1 active torsions:
REMARK  status: ('A' for Active; 'I' for Inactive)
REMARK    1  A    between atoms: C3_4  and  O_7 
ROOT
ATOM      1  C   UNL d   1      -0.616  -3.633  -0.353  0.00  0.00    -0.033 A 
ATOM      2  C1  UNL d   1      -0.200  -2.926  -1.483  0.00  0.00     0.039 A 
ATOM      3  C2  UNL d   1       0.105  -1.567  -1.384  0.00  0.00    -0.080 A 
ATOM      4  C3  UNL d   1      -0.010  -0.928  -0.153  0.00  0.00     0.150 A 
ATOM      5  C4  UNL d   1      -0.420  -1.628   0.977  0.00  0.00    -0.007 A 
ATOM      6  C5  UNL d   1      -0.725  -2.984   0.877  0.00  0.00     0.039 A 
ENDROOT
BRANCH   4   7
ATOM      7  O   UNL d   1       0.272   0.398  -0.009  0.00  0.00    -0.526 OA
ATOM      8  H5  UNL d   1       0.515   0.757  -0.878  0.00  0.00     0.418 HD
ENDBRANCH   4   7
TORSDOF 1
ENDMDL
