MODEL 1
REMARK minimizedAffinity -2.59435368
REMARK minimizedRMSD -1
REMARK  1 active torsions:
REMARK  status: ('A' for Active; 'I' for Inactive)
REMARK    1  A    between atoms: C3_4  and  O_7 
ROOT
ATOM      1  C   UNL d   1      -0.304  -2.514   0.431  0.00  0.00    -0.033 A 
ATOM      2  C1  UNL d   1       0.142  -1.200   0.584  0.00  0.00     0.039 A 
ATOM      3  C2  UNL d   1       0.465  -0.435  -0.538  0.00  0.00    -0.080 A 
ATOM      4  C3  UNL d   1       0.336  -0.995  -1.807  0.00  0.00     0.150 A 
ATOM      5  C4  UNL d   1      -0.111  -2.302  -1.967  0.00  0.00    -0.007 A 
ATOM      6  C5  UNL d   1      -0.432  -3.065  -0.844  0.00  0.00     0.039 A 
ENDROOT
BRANCH   4   7
ATOM      7  O   UNL d   1       0.644  -0.289  -2.931  0.00  0.00    -0.526 OA
ATOM      8  H5  UNL d   1       0.966   0.588  -2.666  0.00  0.00     0.418 HD
ENDBRANCH   4   7
TORSDOF 1
ENDMDL
