MODEL 1
REMARK minimizedAffinity -4.11612177
REMARK minimizedRMSD -1
REMARK  1 active torsions:
REMARK  status: ('A' for Active; 'I' for Inactive)
REMARK    1  A    between atoms: C3_4  and  O_7 
ROOT
ATOM      1  C   UNL d   1      -0.511  -3.066   0.050  0.00  0.00    -0.033 A 
ATOM      2  C1  UNL d   1      -1.134  -2.043   0.768  0.00  0.00     0.039 A 
ATOM      3  C2  UNL d   1      -0.799  -0.711   0.522  0.00  0.00    -0.080 A 
ATOM      4  C3  UNL d   1       0.159  -0.415  -0.444  0.00  0.00     0.150 A 
ATOM      5  C4  UNL d   1       0.781  -1.428  -1.166  0.00  0.00    -0.007 A 
ATOM      6  C5  UNL d   1       0.445  -2.759  -0.918  0.00  0.00     0.039 A 
ENDROOT
BRANCH   4   7
ATOM      7  O   UNL d   1       0.523   0.871  -0.716  0.00  0.00    -0.526 OA
ATOM      8  H5  UNL d   1       0.032   1.462  -0.121  0.00  0.00     0.418 HD
ENDBRANCH   4   7
TORSDOF 1
ENDMDL
