MODEL 1
REMARK minimizedAffinity -5.28578711
REMARK minimizedRMSD -1
REMARK  1 active torsions:
REMARK  status: ('A' for Active; 'I' for Inactive)
REMARK    1  A    between atoms: C3_4  and  O_7 
ROOT
ATOM      1  C   UNL d   1      -0.340  -3.594  -0.590  0.00  0.00    -0.033 A 
ATOM      2  C1  UNL d   1      -0.033  -2.959  -1.794  0.00  0.00     0.039 A 
ATOM      3  C2  UNL d   1       0.255  -1.592  -1.811  0.00  0.00    -0.080 A 
ATOM      4  C3  UNL d   1       0.233  -0.875  -0.619  0.00  0.00     0.150 A 
ATOM      5  C4  UNL d   1      -0.068  -1.502   0.585  0.00  0.00    -0.007 A 
ATOM      6  C5  UNL d   1      -0.357  -2.866   0.600  0.00  0.00     0.039 A 
ENDROOT
BRANCH   4   7
ATOM      7  O   UNL d   1       0.503   0.461  -0.586  0.00  0.00    -0.526 OA
ATOM      8  H5  UNL d   1       0.666   0.765  -1.495  0.00  0.00     0.418 HD
ENDBRANCH   4   7
TORSDOF 1
ENDMDL
