MODEL 1
REMARK minimizedAffinity -4.04803085
REMARK minimizedRMSD -1
REMARK  1 active torsions:
REMARK  status: ('A' for Active; 'I' for Inactive)
REMARK    1  A    between atoms: C3_4  and  O_7 
ROOT
ATOM      1  C   UNL d   1       0.615  -0.631  -1.999  0.00  0.00    -0.033 A 
ATOM      2  C1  UNL d   1       0.343  -0.375  -0.654  0.00  0.00     0.039 A 
ATOM      3  C2  UNL d   1      -0.052  -1.415   0.190  0.00  0.00    -0.080 A 
ATOM      4  C3  UNL d   1      -0.170  -2.704  -0.322  0.00  0.00     0.150 A 
ATOM      5  C4  UNL d   1       0.104  -2.967  -1.660  0.00  0.00    -0.007 A 
ATOM      6  C5  UNL d   1       0.497  -1.927  -2.502  0.00  0.00     0.039 A 
ENDROOT
BRANCH   4   7
ATOM      7  O   UNL d   1      -0.556  -3.750   0.462  0.00  0.00    -0.526 OA
ATOM      8  H5  UNL d   1      -0.739  -3.414   1.356  0.00  0.00     0.418 HD
ENDBRANCH   4   7
TORSDOF 1
ENDMDL
