MODEL 1
REMARK minimizedAffinity -4.62504959
REMARK minimizedRMSD -1
REMARK  1 active torsions:
REMARK  status: ('A' for Active; 'I' for Inactive)
REMARK    1  A    between atoms: C3_4  and  O_7 
ROOT
ATOM      1  C   UNL d   1       0.364  -0.863  -2.315  0.00  0.00    -0.033 A 
ATOM      2  C1  UNL d   1       0.208  -2.242  -2.463  0.00  0.00     0.039 A 
ATOM      3  C2  UNL d   1      -0.154  -3.027  -1.366  0.00  0.00    -0.080 A 
ATOM      4  C3  UNL d   1      -0.358  -2.421  -0.129  0.00  0.00     0.150 A 
ATOM      5  C4  UNL d   1      -0.208  -1.046   0.024  0.00  0.00    -0.007 A 
ATOM      6  C5  UNL d   1       0.154  -0.264  -1.072  0.00  0.00     0.039 A 
ENDROOT
BRANCH   4   7
ATOM      7  O   UNL d   1      -0.707  -3.146   0.971  0.00  0.00    -0.526 OA
ATOM      8  H5  UNL d   1      -0.746  -4.084   0.721  0.00  0.00     0.418 HD
ENDBRANCH   4   7
TORSDOF 1
ENDMDL
