MODEL 1
REMARK minimizedAffinity -5.40206671
REMARK minimizedRMSD -1
REMARK  1 active torsions:
REMARK  status: ('A' for Active; 'I' for Inactive)
REMARK    1  A    between atoms: C3_4  and  O_7 
ROOT
ATOM      1  C   UNL d   1       0.095  -2.612   1.095  0.00  0.00    -0.033 A 
ATOM      2  C1  UNL d   1       0.193  -1.263   0.747  0.00  0.00     0.039 A 
ATOM      3  C2  UNL d   1       0.254  -0.889  -0.596  0.00  0.00    -0.080 A 
ATOM      4  C3  UNL d   1       0.215  -1.872  -1.581  0.00  0.00     0.150 A 
ATOM      5  C4  UNL d   1       0.114  -3.218  -1.242  0.00  0.00    -0.007 A 
ATOM      6  C5  UNL d   1       0.054  -3.589   0.100  0.00  0.00     0.039 A 
ENDROOT
BRANCH   4   7
ATOM      7  O   UNL d   1       0.276  -1.557  -2.906  0.00  0.00    -0.526 OA
ATOM      8  H5  UNL d   1       0.373  -0.593  -2.989  0.00  0.00     0.418 HD
ENDBRANCH   4   7
TORSDOF 1
ENDMDL
