MODEL 1
REMARK minimizedAffinity -5.29379416
REMARK minimizedRMSD -1
REMARK  1 active torsions:
REMARK  status: ('A' for Active; 'I' for Inactive)
REMARK    1  A    between atoms: C3_4  and  O_7 
ROOT
ATOM      1  C   UNL d   1      -0.484  -3.785  -0.404  0.00  0.00    -0.033 A 
ATOM      2  C1  UNL d   1      -0.103  -3.054  -1.530  0.00  0.00     0.039 A 
ATOM      3  C2  UNL d   1       0.340  -1.737  -1.392  0.00  0.00    -0.080 A 
ATOM      4  C3  UNL d   1       0.398  -1.164  -0.124  0.00  0.00     0.150 A 
ATOM      5  C4  UNL d   1       0.023  -1.889   1.003  0.00  0.00    -0.007 A 
ATOM      6  C5  UNL d   1      -0.420  -3.203   0.863  0.00  0.00     0.039 A 
ENDROOT
BRANCH   4   7
ATOM      7  O   UNL d   1       0.819   0.119   0.060  0.00  0.00    -0.526 OA
ATOM      8  H5  UNL d   1       1.018   0.505  -0.809  0.00  0.00     0.418 HD
ENDBRANCH   4   7
TORSDOF 1
ENDMDL
