MODEL 1
REMARK minimizedAffinity -3.91924882
REMARK minimizedRMSD -1
REMARK  1 active torsions:
REMARK  status: ('A' for Active; 'I' for Inactive)
REMARK    1  A    between atoms: C3_4  and  O_7 
ROOT
ATOM      1  C   UNL d   1      -0.588  -2.449   0.914  0.00  0.00    -0.033 A 
ATOM      2  C1  UNL d   1      -1.019  -1.496   1.839  0.00  0.00     0.039 A 
ATOM      3  C2  UNL d   1      -0.708  -0.148   1.651  0.00  0.00    -0.080 A 
ATOM      4  C3  UNL d   1       0.032   0.233   0.535  0.00  0.00     0.150 A 
ATOM      5  C4  UNL d   1       0.461  -0.711  -0.392  0.00  0.00    -0.007 A 
ATOM      6  C5  UNL d   1       0.151  -2.056  -0.202  0.00  0.00     0.039 A 
ENDROOT
BRANCH   4   7
ATOM      7  O   UNL d   1       0.364   1.537   0.312  0.00  0.00    -0.526 OA
ATOM      8  H5  UNL d   1       0.026   2.071   1.049  0.00  0.00     0.418 HD
ENDBRANCH   4   7
TORSDOF 1
ENDMDL
