MODEL 1
REMARK minimizedAffinity -3.85746074
REMARK minimizedRMSD -1
REMARK  1 active torsions:
REMARK  status: ('A' for Active; 'I' for Inactive)
REMARK    1  A    between atoms: C3_4  and  O_7 
ROOT
ATOM      1  C   UNL d   1      -0.326  -0.880   1.286  0.00  0.00    -0.033 A 
ATOM      2  C1  UNL d   1      -0.007  -0.196   0.111  0.00  0.00     0.039 A 
ATOM      3  C2  UNL d   1       0.205  -0.903  -1.074  0.00  0.00    -0.080 A 
ATOM      4  C3  UNL d   1       0.094  -2.291  -1.071  0.00  0.00     0.150 A 
ATOM      5  C4  UNL d   1      -0.227  -2.978   0.095  0.00  0.00    -0.007 A 
ATOM      6  C5  UNL d   1      -0.438  -2.270   1.278  0.00  0.00     0.039 A 
ENDROOT
BRANCH   4   7
ATOM      7  O   UNL d   1       0.297  -3.024  -2.202  0.00  0.00    -0.526 OA
ATOM      8  H5  UNL d   1       0.539  -2.418  -2.922  0.00  0.00     0.418 HD
ENDBRANCH   4   7
TORSDOF 1
ENDMDL
