MODEL 1
REMARK minimizedAffinity -5.58370352
REMARK minimizedRMSD -1
REMARK  1 active torsions:
REMARK  status: ('A' for Active; 'I' for Inactive)
REMARK    1  A    between atoms: C3_4  and  O_7 
ROOT
ATOM      1  C   UNL d   1       0.328  -0.739  -2.409  0.00  0.00    -0.033 A 
ATOM      2  C1  UNL d   1      -0.012  -0.217  -1.159  0.00  0.00     0.039 A 
ATOM      3  C2  UNL d   1      -0.124  -1.064  -0.054  0.00  0.00    -0.080 A 
ATOM      4  C3  UNL d   1       0.107  -2.427  -0.212  0.00  0.00     0.150 A 
ATOM      5  C4  UNL d   1       0.450  -2.954  -1.453  0.00  0.00    -0.007 A 
ATOM      6  C5  UNL d   1       0.560  -2.107  -2.555  0.00  0.00     0.039 A 
ENDROOT
BRANCH   4   7
ATOM      7  O   UNL d   1       0.004  -3.293   0.836  0.00  0.00    -0.526 OA
ATOM      8  H5  UNL d   1      -0.267  -2.793   1.623  0.00  0.00     0.418 HD
ENDBRANCH   4   7
TORSDOF 1
ENDMDL
