MODEL 1
REMARK minimizedAffinity -4.93148899
REMARK minimizedRMSD -1
REMARK  1 active torsions:
REMARK  status: ('A' for Active; 'I' for Inactive)
REMARK    1  A    between atoms: C3_4  and  O_7 
ROOT
ATOM      1  C   UNL d   1       0.125  -3.421  -0.241  0.00  0.00    -0.033 A 
ATOM      2  C1  UNL d   1      -0.114  -2.755   0.963  0.00  0.00     0.039 A 
ATOM      3  C2  UNL d   1      -0.243  -1.364   0.979  0.00  0.00    -0.080 A 
ATOM      4  C3  UNL d   1      -0.133  -0.654  -0.213  0.00  0.00     0.150 A 
ATOM      5  C4  UNL d   1       0.101  -1.312  -1.416  0.00  0.00    -0.007 A 
ATOM      6  C5  UNL d   1       0.231  -2.700  -1.430  0.00  0.00     0.039 A 
ENDROOT
BRANCH   4   7
ATOM      7  O   UNL d   1      -0.247   0.704  -0.246  0.00  0.00    -0.526 OA
ATOM      8  H5  UNL d   1      -0.378   1.024   0.662  0.00  0.00     0.418 HD
ENDBRANCH   4   7
TORSDOF 1
ENDMDL
