MODEL 1
REMARK minimizedAffinity -5.13242865
REMARK minimizedRMSD -1
REMARK  1 active torsions:
REMARK  status: ('A' for Active; 'I' for Inactive)
REMARK    1  A    between atoms: C3_4  and  O_7 
ROOT
ATOM      1  C   UNL d   1       0.016  -3.262   0.510  0.00  0.00    -0.033 A 
ATOM      2  C1  UNL d   1       0.489  -1.960   0.335  0.00  0.00     0.039 A 
ATOM      3  C2  UNL d   1       0.587  -1.418  -0.948  0.00  0.00    -0.080 A 
ATOM      4  C3  UNL d   1       0.209  -2.186  -2.045  0.00  0.00     0.150 A 
ATOM      5  C4  UNL d   1      -0.267  -3.482  -1.878  0.00  0.00    -0.007 A 
ATOM      6  C5  UNL d   1      -0.363  -4.023  -0.597  0.00  0.00     0.039 A 
ENDROOT
BRANCH   4   7
ATOM      7  O   UNL d   1       0.291  -1.701  -3.317  0.00  0.00    -0.526 OA
ATOM      8  H5  UNL d   1       0.664  -0.804  -3.280  0.00  0.00     0.418 HD
ENDBRANCH   4   7
TORSDOF 1
ENDMDL
