MODEL 1
REMARK minimizedAffinity -0.276972264
REMARK minimizedRMSD -1
REMARK  1 active torsions:
REMARK  status: ('A' for Active; 'I' for Inactive)
REMARK    1  A    between atoms: C3_4  and  O_7 
ROOT
ATOM      1  C   UNL d   1      -0.306  -0.941   1.518  0.00  0.00    -0.033 A 
ATOM      2  C1  UNL d   1       0.448  -1.248   0.384  0.00  0.00     0.039 A 
ATOM      3  C2  UNL d   1       1.187  -2.432   0.334  0.00  0.00    -0.080 A 
ATOM      4  C3  UNL d   1       1.163  -3.298   1.423  0.00  0.00     0.150 A 
ATOM      5  C4  UNL d   1       0.411  -3.001   2.555  0.00  0.00    -0.007 A 
ATOM      6  C5  UNL d   1      -0.326  -1.818   2.603  0.00  0.00     0.039 A 
ENDROOT
BRANCH   4   7
ATOM      7  O   UNL d   1       1.872  -4.463   1.423  0.00  0.00    -0.526 OA
ATOM      8  H5  UNL d   1       2.366  -4.522   0.588  0.00  0.00     0.418 HD
ENDBRANCH   4   7
TORSDOF 1
ENDMDL
