MODEL 1
REMARK minimizedAffinity -4.21382713
REMARK minimizedRMSD -1
REMARK  1 active torsions:
REMARK  status: ('A' for Active; 'I' for Inactive)
REMARK    1  A    between atoms: C3_4  and  O_7 
ROOT
ATOM      1  C   UNL d   1       1.458  -3.342   0.730  0.00  0.00    -0.033 A 
ATOM      2  C1  UNL d   1       1.249  -1.971   0.566  0.00  0.00     0.039 A 
ATOM      3  C2  UNL d   1       0.405  -1.282   1.439  0.00  0.00    -0.080 A 
ATOM      4  C3  UNL d   1      -0.222  -1.974   2.472  0.00  0.00     0.150 A 
ATOM      5  C4  UNL d   1      -0.015  -3.339   2.643  0.00  0.00    -0.007 A 
ATOM      6  C5  UNL d   1       0.827  -4.025   1.770  0.00  0.00     0.039 A 
ENDROOT
BRANCH   4   7
ATOM      7  O   UNL d   1      -1.058  -1.345   3.346  0.00  0.00    -0.526 OA
ATOM      8  H5  UNL d   1      -1.128  -0.411   3.087  0.00  0.00     0.418 HD
ENDBRANCH   4   7
TORSDOF 1
ENDMDL
