MODEL 1
REMARK minimizedAffinity -1.73633516
REMARK minimizedRMSD -1
REMARK  1 active torsions:
REMARK  status: ('A' for Active; 'I' for Inactive)
REMARK    1  A    between atoms: C3_4  and  O_7 
ROOT
ATOM      1  C   UNL d   1      -0.005  -0.589  -1.178  0.00  0.00    -0.033 A 
ATOM      2  C1  UNL d   1      -1.122  -0.029  -0.553  0.00  0.00     0.039 A 
ATOM      3  C2  UNL d   1      -1.391  -0.316   0.786  0.00  0.00    -0.080 A 
ATOM      4  C3  UNL d   1      -0.538  -1.162   1.489  0.00  0.00     0.150 A 
ATOM      5  C4  UNL d   1       0.578  -1.720   0.874  0.00  0.00    -0.007 A 
ATOM      6  C5  UNL d   1       0.845  -1.433  -0.464  0.00  0.00     0.039 A 
ENDROOT
BRANCH   4   7
ATOM      7  O   UNL d   1      -0.763  -1.475   2.797  0.00  0.00    -0.526 OA
ATOM      8  H5  UNL d   1      -1.585  -1.040   3.080  0.00  0.00     0.418 HD
ENDBRANCH   4   7
TORSDOF 1
ENDMDL
