MODEL 1
REMARK minimizedAffinity -3.42154789
REMARK minimizedRMSD -1
REMARK  1 active torsions:
REMARK  status: ('A' for Active; 'I' for Inactive)
REMARK    1  A    between atoms: C3_4  and  O_7 
ROOT
ATOM      1  C   UNL d   1      -1.131  -1.444   2.832  0.00  0.00    -0.033 A 
ATOM      2  C1  UNL d   1       0.147  -1.916   2.525  0.00  0.00     0.039 A 
ATOM      3  C2  UNL d   1       0.752  -1.565   1.317  0.00  0.00    -0.080 A 
ATOM      4  C3  UNL d   1       0.070  -0.741   0.426  0.00  0.00     0.150 A 
ATOM      5  C4  UNL d   1      -1.202  -0.264   0.726  0.00  0.00    -0.007 A 
ATOM      6  C5  UNL d   1      -1.804  -0.616   1.933  0.00  0.00     0.039 A 
ENDROOT
BRANCH   4   7
ATOM      7  O   UNL d   1       0.617  -0.375  -0.768  0.00  0.00    -0.526 OA
ATOM      8  H5  UNL d   1       1.486  -0.803  -0.852  0.00  0.00     0.418 HD
ENDBRANCH   4   7
TORSDOF 1
ENDMDL
