MODEL 1
REMARK minimizedAffinity -2.85184741
REMARK minimizedRMSD -1
REMARK  1 active torsions:
REMARK  status: ('A' for Active; 'I' for Inactive)
REMARK    1  A    between atoms: C3_4  and  O_7 
ROOT
ATOM      1  C   UNL d   1       3.351   6.000   4.366  0.00  0.00    -0.033 A 
ATOM      2  C1  UNL d   1       2.548   5.945   3.225  0.00  0.00     0.039 A 
ATOM      3  C2  UNL d   1       1.159   5.882   3.349  0.00  0.00    -0.080 A 
ATOM      4  C3  UNL d   1       0.586   5.875   4.618  0.00  0.00     0.150 A 
ATOM      5  C4  UNL d   1       1.380   5.933   5.759  0.00  0.00    -0.007 A 
ATOM      6  C5  UNL d   1       2.767   5.995   5.633  0.00  0.00     0.039 A 
ENDROOT
BRANCH   4   7
ATOM      7  O   UNL d   1      -0.765   5.810   4.790  0.00  0.00    -0.526 OA
ATOM      8  H5  UNL d   1      -1.183   5.746   3.915  0.00  0.00     0.418 HD
ENDBRANCH   4   7
TORSDOF 1
ENDMDL
