MODEL 1
REMARK minimizedAffinity -2.72137451
REMARK minimizedRMSD -1
REMARK  1 active torsions:
REMARK  status: ('A' for Active; 'I' for Inactive)
REMARK    1  A    between atoms: C3_4  and  O_7 
ROOT
ATOM      1  C   UNL d   1      -1.130  -0.118   1.446  0.00  0.00    -0.033 A 
ATOM      2  C1  UNL d   1      -0.442  -0.333   0.251  0.00  0.00     0.039 A 
ATOM      3  C2  UNL d   1       0.461  -1.393   0.144  0.00  0.00    -0.080 A 
ATOM      4  C3  UNL d   1       0.665  -2.229   1.238  0.00  0.00     0.150 A 
ATOM      5  C4  UNL d   1      -0.020  -2.023   2.431  0.00  0.00    -0.007 A 
ATOM      6  C5  UNL d   1      -0.921  -0.964   2.536  0.00  0.00     0.039 A 
ENDROOT
BRANCH   4   7
ATOM      7  O   UNL d   1       1.540  -3.274   1.183  0.00  0.00    -0.526 OA
ATOM      8  H5  UNL d   1       1.962  -3.276   0.307  0.00  0.00     0.418 HD
ENDBRANCH   4   7
TORSDOF 1
ENDMDL
