MODEL 1
REMARK minimizedAffinity -0.0932855606
REMARK minimizedRMSD -1
REMARK  1 active torsions:
REMARK  status: ('A' for Active; 'I' for Inactive)
REMARK    1  A    between atoms: C3_4  and  O_7 
ROOT
ATOM      1  C   UNL d   1      -0.343  -0.844   1.312  0.00  0.00    -0.033 A 
ATOM      2  C1  UNL d   1      -0.252  -1.650   2.449  0.00  0.00     0.039 A 
ATOM      3  C2  UNL d   1       0.637  -2.726   2.474  0.00  0.00    -0.080 A 
ATOM      4  C3  UNL d   1       1.430  -2.984   1.359  0.00  0.00     0.150 A 
ATOM      5  C4  UNL d   1       1.347  -2.183   0.225  0.00  0.00    -0.007 A 
ATOM      6  C5  UNL d   1       0.457  -1.109   0.201  0.00  0.00     0.039 A 
ENDROOT
BRANCH   4   7
ATOM      7  O   UNL d   1       2.309  -4.025   1.335  0.00  0.00    -0.526 OA
ATOM      8  H5  UNL d   1       2.237  -4.508   2.176  0.00  0.00     0.418 HD
ENDBRANCH   4   7
TORSDOF 1
ENDMDL
