MODEL 1
REMARK minimizedAffinity 0.579102755
REMARK minimizedRMSD -1
REMARK  1 active torsions:
REMARK  status: ('A' for Active; 'I' for Inactive)
REMARK    1  A    between atoms: C3_4  and  O_7 
ROOT
ATOM      1  C   UNL d   1      -0.913   0.010  -0.497  0.00  0.00    -0.033 A 
ATOM      2  C1  UNL d   1      -2.152   0.145   0.133  0.00  0.00     0.039 A 
ATOM      3  C2  UNL d   1      -2.284  -0.157   1.490  0.00  0.00    -0.080 A 
ATOM      4  C3  UNL d   1      -1.171  -0.589   2.205  0.00  0.00     0.150 A 
ATOM      5  C4  UNL d   1       0.067  -0.722   1.585  0.00  0.00    -0.007 A 
ATOM      6  C5  UNL d   1       0.197  -0.422   0.230  0.00  0.00     0.039 A 
ENDROOT
BRANCH   4   7
ATOM      7  O   UNL d   1      -1.252  -0.900   3.530  0.00  0.00    -0.526 OA
ATOM      8  H5  UNL d   1      -2.174  -0.789   3.816  0.00  0.00     0.418 HD
ENDBRANCH   4   7
TORSDOF 1
ENDMDL
