MODEL 1
REMARK minimizedAffinity 7.5772748
REMARK minimizedRMSD -1
REMARK  1 active torsions:
REMARK  status: ('A' for Active; 'I' for Inactive)
REMARK    1  A    between atoms: C1_2  and  C2_3 
ROOT
ATOM      1  C2  UNL d   1       1.630   5.284  -5.461  0.00  0.00    -0.073 A 
ATOM      2  C3  UNL d   1       1.677   3.968  -4.985  0.00  0.00    -0.002 A 
ATOM      3  C4  UNL d   1       2.900   3.312  -4.847  0.00  0.00     0.004 A 
ATOM      4  C5  UNL d   1       4.088   3.965  -5.175  0.00  0.00    -0.004 A 
ATOM      5  C6  UNL d   1       4.063   5.284  -5.640  0.00  0.00    -0.075 A 
ATOM      6  C7  UNL d   1       5.332   6.000  -5.999  0.00  0.00     0.076 C 
ATOM      7  C8  UNL d   1       2.830   5.935  -5.779  0.00  0.00     0.001 A 
ENDROOT
BRANCH   1   8
ATOM      8  C1  UNL d   1       0.311   5.999  -5.606  0.00  0.00     0.053 C 
ATOM      9  C   UNL d   1      -0.864   5.110  -5.229  0.00  0.00     0.018 C 
ENDBRANCH   1   8
TORSDOF 1
ENDMDL
