MODEL 1
REMARK minimizedAffinity 10.0865021
REMARK minimizedRMSD -1
REMARK  1 active torsions:
REMARK  status: ('A' for Active; 'I' for Inactive)
REMARK    1  A    between atoms: C1_2  and  C2_3 
ROOT
ATOM      1  C2  UNL d   1      -3.014   2.645  -3.576  0.00  0.00    -0.073 A 
ATOM      2  C3  UNL d   1      -1.637   2.704  -3.819  0.00  0.00    -0.002 A 
ATOM      3  C4  UNL d   1      -0.769   1.818  -3.178  0.00  0.00     0.004 A 
ATOM      4  C5  UNL d   1      -1.269   0.861  -2.295  0.00  0.00    -0.004 A 
ATOM      5  C6  UNL d   1      -2.643   0.779  -2.049  0.00  0.00    -0.075 A 
ATOM      6  C7  UNL d   1      -3.197  -0.244  -1.100  0.00  0.00     0.076 C 
ATOM      7  C8  UNL d   1      -3.508   1.673  -2.693  0.00  0.00     0.001 A 
ENDROOT
BRANCH   1   8
ATOM      8  C1  UNL d   1      -3.955   3.595  -4.270  0.00  0.00     0.053 C 
ATOM      9  C   UNL d   1      -4.720   2.918  -5.397  0.00  0.00     0.018 C 
ENDBRANCH   1   8
TORSDOF 1
ENDMDL
