MODEL 1
REMARK minimizedAffinity 4.56392717
REMARK minimizedRMSD -1
REMARK  1 active torsions:
REMARK  status: ('A' for Active; 'I' for Inactive)
REMARK    1  A    between atoms: C1_2  and  C2_3 
ROOT
ATOM      1  C2  UNL d   1      -3.066   1.051   3.676  0.00  0.00    -0.073 A 
ATOM      2  C3  UNL d   1      -3.678   1.177   2.424  0.00  0.00    -0.002 A 
ATOM      3  C4  UNL d   1      -5.037   1.482   2.331  0.00  0.00     0.004 A 
ATOM      4  C5  UNL d   1      -5.794   1.670   3.487  0.00  0.00    -0.004 A 
ATOM      5  C6  UNL d   1      -5.198   1.560   4.747  0.00  0.00    -0.075 A 
ATOM      6  C7  UNL d   1      -6.000   1.757   6.000  0.00  0.00     0.076 C 
ATOM      7  C8  UNL d   1      -3.834   1.251   4.832  0.00  0.00     0.001 A 
ENDROOT
BRANCH   1   8
ATOM      8  C1  UNL d   1      -1.598   0.728   3.781  0.00  0.00     0.053 C 
ATOM      9  C   UNL d   1      -1.314  -0.737   3.489  0.00  0.00     0.018 C 
ENDBRANCH   1   8
TORSDOF 1
ENDMDL
