MODEL 1
REMARK minimizedAffinity 8.80124378
REMARK minimizedRMSD -1
REMARK  1 active torsions:
REMARK  status: ('A' for Active; 'I' for Inactive)
REMARK    1  A    between atoms: C1_2  and  C2_3 
ROOT
ATOM      1  C2  UNL d   1       4.330  -4.654   0.386  0.00  0.00    -0.073 A 
ATOM      2  C3  UNL d   1       2.932  -4.589   0.349  0.00  0.00    -0.002 A 
ATOM      3  C4  UNL d   1       2.280  -3.360   0.460  0.00  0.00     0.004 A 
ATOM      4  C5  UNL d   1       3.017  -2.185   0.602  0.00  0.00    -0.004 A 
ATOM      5  C6  UNL d   1       4.415  -2.228   0.629  0.00  0.00    -0.075 A 
ATOM      6  C7  UNL d   1       5.222  -0.972   0.784  0.00  0.00     0.076 C 
ATOM      7  C8  UNL d   1       5.062  -3.466   0.520  0.00  0.00     0.001 A 
ENDROOT
BRANCH   1   8
ATOM      8  C1  UNL d   1       5.038  -5.978   0.260  0.00  0.00     0.053 C 
ATOM      9  C   UNL d   1       6.000  -6.000  -0.917  0.00  0.00     0.018 C 
ENDBRANCH   1   8
TORSDOF 1
ENDMDL
