MODEL 1
REMARK minimizedAffinity 8.40167427
REMARK minimizedRMSD -1
REMARK  1 active torsions:
REMARK  status: ('A' for Active; 'I' for Inactive)
REMARK    1  A    between atoms: C1_2  and  C2_3 
ROOT
ATOM      1  C2  UNL d   1       1.121  -1.987   1.372  0.00  0.00    -0.073 A 
ATOM      2  C3  UNL d   1      -0.182  -2.495   1.429  0.00  0.00    -0.002 A 
ATOM      3  C4  UNL d   1      -1.089  -2.005   2.370  0.00  0.00     0.004 A 
ATOM      4  C5  UNL d   1      -0.706  -0.999   3.257  0.00  0.00    -0.004 A 
ATOM      5  C6  UNL d   1       0.588  -0.470   3.208  0.00  0.00    -0.075 A 
ATOM      6  C7  UNL d   1       1.016   0.611   4.156  0.00  0.00     0.076 C 
ATOM      7  C8  UNL d   1       1.494  -0.969   2.262  0.00  0.00     0.001 A 
ENDROOT
BRANCH   1   8
ATOM      8  C1  UNL d   1       2.101  -2.508   0.354  0.00  0.00     0.053 C 
ATOM      9  C   UNL d   1       2.208  -4.024   0.389  0.00  0.00     0.018 C 
ENDBRANCH   1   8
TORSDOF 1
ENDMDL
