MODEL 1
REMARK minimizedAffinity 5.9218173
REMARK minimizedRMSD -1
REMARK  1 active torsions:
REMARK  status: ('A' for Active; 'I' for Inactive)
REMARK    1  A    between atoms: C1_2  and  C2_3 
ROOT
ATOM      1  C2  UNL d   1       2.049  -1.507   0.350  0.00  0.00    -0.073 A 
ATOM      2  C3  UNL d   1       2.581  -2.571  -0.388  0.00  0.00    -0.002 A 
ATOM      3  C4  UNL d   1       2.010  -3.842  -0.304  0.00  0.00     0.004 A 
ATOM      4  C5  UNL d   1       0.900  -4.060   0.512  0.00  0.00    -0.004 A 
ATOM      5  C6  UNL d   1       0.348  -3.007   1.248  0.00  0.00    -0.075 A 
ATOM      6  C7  UNL d   1      -0.844  -3.226   2.133  0.00  0.00     0.076 C 
ATOM      7  C8  UNL d   1       0.928  -1.734   1.161  0.00  0.00     0.001 A 
ENDROOT
BRANCH   1   8
ATOM      8  C1  UNL d   1       2.658  -0.132   0.257  0.00  0.00     0.053 C 
ATOM      9  C   UNL d   1       4.138  -0.186  -0.088  0.00  0.00     0.018 C 
ENDBRANCH   1   8
TORSDOF 1
ENDMDL
