MODEL 1
REMARK minimizedAffinity 9.98904324
REMARK minimizedRMSD -1
REMARK  1 active torsions:
REMARK  status: ('A' for Active; 'I' for Inactive)
REMARK    1  A    between atoms: C1_2  and  C2_3 
ROOT
ATOM      1  C2  UNL d   1       1.582  -3.454   0.523  0.00  0.00    -0.073 A 
ATOM      2  C3  UNL d   1       2.622  -2.522   0.613  0.00  0.00    -0.002 A 
ATOM      3  C4  UNL d   1       2.434  -1.319   1.294  0.00  0.00     0.004 A 
ATOM      4  C5  UNL d   1       1.208  -1.038   1.897  0.00  0.00    -0.004 A 
ATOM      5  C6  UNL d   1       0.160  -1.961   1.828  0.00  0.00    -0.075 A 
ATOM      6  C7  UNL d   1      -1.166  -1.673   2.469  0.00  0.00     0.076 C 
ATOM      7  C8  UNL d   1       0.356  -3.166   1.140  0.00  0.00     0.001 A 
ENDROOT
BRANCH   1   8
ATOM      8  C1  UNL d   1       1.782  -4.757  -0.206  0.00  0.00     0.053 C 
ATOM      9  C   UNL d   1       1.155  -5.927   0.536  0.00  0.00     0.018 C 
ENDBRANCH   1   8
TORSDOF 1
ENDMDL
