MODEL 1
REMARK minimizedAffinity 9.95823002
REMARK minimizedRMSD -1
REMARK  1 active torsions:
REMARK  status: ('A' for Active; 'I' for Inactive)
REMARK    1  A    between atoms: C1_2  and  C2_3 
ROOT
ATOM      1  C2  UNL d   1       0.035  -2.701   1.224  0.00  0.00    -0.073 A 
ATOM      2  C3  UNL d   1       0.856  -1.570   1.296  0.00  0.00    -0.002 A 
ATOM      3  C4  UNL d   1       2.142  -1.597   0.754  0.00  0.00     0.004 A 
ATOM      4  C5  UNL d   1       2.616  -2.751   0.130  0.00  0.00    -0.004 A 
ATOM      5  C6  UNL d   1       1.806  -3.887   0.038  0.00  0.00    -0.075 A 
ATOM      6  C7  UNL d   1       2.302  -5.137  -0.629  0.00  0.00     0.076 C 
ATOM      7  C8  UNL d   1       0.517  -3.853   0.587  0.00  0.00     0.001 A 
ENDROOT
BRANCH   1   8
ATOM      8  C1  UNL d   1      -1.357  -2.674   1.803  0.00  0.00     0.053 C 
ATOM      9  C   UNL d   1      -1.487  -1.660   2.928  0.00  0.00     0.018 C 
ENDBRANCH   1   8
TORSDOF 1
ENDMDL
