MODEL 1
REMARK minimizedAffinity -3.98593974
REMARK minimizedRMSD -1
REMARK  0 active torsions:
REMARK  status: ('A' for Active; 'I' for Inactive)
ROOT
ATOM      1  C   UNL d   1      -2.320  -2.613   1.348  0.00  0.00     0.020 A 
ATOM      2  C1  UNL d   1      -3.165  -2.053   0.391  0.00  0.00     0.020 A 
ATOM      3  C2  UNL d   1      -2.693  -1.046  -0.454  0.00  0.00     0.034 A 
ATOM      4  C3  UNL d   1      -1.373  -0.597  -0.344  0.00  0.00     0.017 A 
ATOM      5  C4  UNL d   1      -0.525  -1.159   0.617  0.00  0.00     0.017 A 
ATOM      6  C5  UNL d   1      -1.003  -2.167   1.461  0.00  0.00     0.034 A 
ATOM      7 Cl   UNL d   1       1.117  -0.657   0.813  0.00  0.00    -0.070 Cl
ATOM      8 Cl1  UNL d   1      -0.856   0.651  -1.422  0.00  0.00    -0.070 Cl
ENDROOT
TORSDOF 0
ENDMDL
