MODEL 1
REMARK minimizedAffinity -3.0695715
REMARK minimizedRMSD -1
REMARK  0 active torsions:
REMARK  status: ('A' for Active; 'I' for Inactive)
ROOT
ATOM      1  C   UNL d   1      -2.819  -1.962  -0.211  0.00  0.00     0.020 A 
ATOM      2  C1  UNL d   1      -1.987  -2.364   0.834  0.00  0.00     0.020 A 
ATOM      3  C2  UNL d   1      -0.727  -1.781   0.986  0.00  0.00     0.034 A 
ATOM      4  C3  UNL d   1      -0.296  -0.794   0.093  0.00  0.00     0.017 A 
ATOM      5  C4  UNL d   1      -1.131  -0.392  -0.955  0.00  0.00     0.017 A 
ATOM      6  C5  UNL d   1      -2.392  -0.978  -1.103  0.00  0.00     0.034 A 
ATOM      7 Cl   UNL d   1      -0.668   0.820  -2.097  0.00  0.00    -0.070 Cl
ATOM      8 Cl1  UNL d   1       1.274  -0.116   0.342  0.00  0.00    -0.070 Cl
ENDROOT
TORSDOF 0
ENDMDL
