MODEL 1
REMARK minimizedAffinity -3.78248072
REMARK minimizedRMSD -1
REMARK  0 active torsions:
REMARK  status: ('A' for Active; 'I' for Inactive)
ROOT
ATOM      1  C   UNL d   1      -3.330  -2.154  -0.399  0.00  0.00     0.020 A 
ATOM      2  C1  UNL d   1      -2.967  -1.042  -1.158  0.00  0.00     0.020 A 
ATOM      3  C2  UNL d   1      -1.778  -0.364  -0.879  0.00  0.00     0.034 A 
ATOM      4  C3  UNL d   1      -0.949  -0.797   0.162  0.00  0.00     0.017 A 
ATOM      5  C4  UNL d   1      -1.314  -1.913   0.924  0.00  0.00     0.017 A 
ATOM      6  C5  UNL d   1      -2.505  -2.589   0.639  0.00  0.00     0.034 A 
ATOM      7 Cl   UNL d   1      -0.343  -2.507   2.224  0.00  0.00    -0.070 Cl
ATOM      8 Cl1  UNL d   1       0.506   0.089   0.452  0.00  0.00    -0.070 Cl
ENDROOT
TORSDOF 0
ENDMDL
