MODEL 1
REMARK minimizedAffinity -5.75816345
REMARK minimizedRMSD -1
REMARK  0 active torsions:
REMARK  status: ('A' for Active; 'I' for Inactive)
ROOT
ATOM      1  C   UNL d   1       0.176   0.399  -0.899  0.00  0.00     0.020 A 
ATOM      2  C1  UNL d   1       0.939   0.026   0.207  0.00  0.00     0.020 A 
ATOM      3  C2  UNL d   1       0.365  -0.739   1.225  0.00  0.00     0.034 A 
ATOM      4  C3  UNL d   1      -0.975  -1.135   1.138  0.00  0.00     0.017 A 
ATOM      5  C4  UNL d   1      -1.740  -0.760   0.028  0.00  0.00     0.017 A 
ATOM      6  C5  UNL d   1      -1.160   0.007  -0.988  0.00  0.00     0.034 A 
ATOM      7 Cl   UNL d   1      -3.399  -1.210  -0.149  0.00  0.00    -0.070 Cl
ATOM      8 Cl1  UNL d   1      -1.618  -2.081   2.433  0.00  0.00    -0.070 Cl
ENDROOT
TORSDOF 0
ENDMDL
