MODEL 1
REMARK minimizedAffinity -5.27360344
REMARK minimizedRMSD -1
REMARK  0 active torsions:
REMARK  status: ('A' for Active; 'I' for Inactive)
ROOT
ATOM      1  C   UNL d   1      -2.809  -1.715   0.202  0.00  0.00     0.020 A 
ATOM      2  C1  UNL d   1      -1.895  -2.092   1.185  0.00  0.00     0.020 A 
ATOM      3  C2  UNL d   1      -0.625  -1.512   1.217  0.00  0.00     0.034 A 
ATOM      4  C3  UNL d   1      -0.266  -0.551   0.265  0.00  0.00     0.017 A 
ATOM      5  C4  UNL d   1      -1.185  -0.172  -0.721  0.00  0.00     0.017 A 
ATOM      6  C5  UNL d   1      -2.455  -0.757  -0.749  0.00  0.00     0.034 A 
ATOM      7 Cl   UNL d   1      -0.814   1.007  -1.929  0.00  0.00    -0.070 Cl
ATOM      8 Cl1  UNL d   1       1.321   0.126   0.366  0.00  0.00    -0.070 Cl
ENDROOT
TORSDOF 0
ENDMDL
