MODEL 1
REMARK minimizedAffinity -5.18272114
REMARK minimizedRMSD -1
REMARK  0 active torsions:
REMARK  status: ('A' for Active; 'I' for Inactive)
ROOT
ATOM      1  C   UNL d   1      -2.514  -1.481   1.016  0.00  0.00     0.020 A 
ATOM      2  C1  UNL d   1      -2.585  -0.323   0.242  0.00  0.00     0.020 A 
ATOM      3  C2  UNL d   1      -1.414   0.327  -0.151  0.00  0.00     0.034 A 
ATOM      4  C3  UNL d   1      -0.166  -0.179   0.231  0.00  0.00     0.017 A 
ATOM      5  C4  UNL d   1      -0.095  -1.340   1.009  0.00  0.00     0.017 A 
ATOM      6  C5  UNL d   1      -1.272  -1.988   1.399  0.00  0.00     0.034 A 
ATOM      7 Cl   UNL d   1       1.408  -2.024   1.519  0.00  0.00    -0.070 Cl
ATOM      8 Cl1  UNL d   1       1.242   0.677  -0.290  0.00  0.00    -0.070 Cl
ENDROOT
TORSDOF 0
ENDMDL
