MODEL 1
REMARK minimizedAffinity -3.1012795
REMARK minimizedRMSD -1
REMARK  0 active torsions:
REMARK  status: ('A' for Active; 'I' for Inactive)
ROOT
ATOM      1  C   UNL d   1      -2.498  -1.437   1.116  0.00  0.00     0.020 A 
ATOM      2  C1  UNL d   1      -3.011  -1.610  -0.168  0.00  0.00     0.020 A 
ATOM      3  C2  UNL d   1      -2.278  -1.179  -1.277  0.00  0.00     0.034 A 
ATOM      4  C3  UNL d   1      -1.029  -0.573  -1.102  0.00  0.00     0.017 A 
ATOM      5  C4  UNL d   1      -0.515  -0.399   0.188  0.00  0.00     0.017 A 
ATOM      6  C5  UNL d   1      -1.253  -0.832   1.294  0.00  0.00     0.034 A 
ATOM      7 Cl   UNL d   1       1.019   0.341   0.482  0.00  0.00    -0.070 Cl
ATOM      8 Cl1  UNL d   1      -0.178  -0.065  -2.518  0.00  0.00    -0.070 Cl
ENDROOT
TORSDOF 0
ENDMDL
