MODEL 1
REMARK minimizedAffinity -5.65707254
REMARK minimizedRMSD -1
REMARK  0 active torsions:
REMARK  status: ('A' for Active; 'I' for Inactive)
ROOT
ATOM      1  C   UNL d   1      -2.633  -1.490   1.661  0.00  0.00     0.020 A 
ATOM      2  C1  UNL d   1      -3.318  -1.091   0.513  0.00  0.00     0.020 A 
ATOM      3  C2  UNL d   1      -2.614  -0.565  -0.572  0.00  0.00     0.034 A 
ATOM      4  C3  UNL d   1      -1.222  -0.436  -0.513  0.00  0.00     0.017 A 
ATOM      5  C4  UNL d   1      -0.536  -0.836   0.640  0.00  0.00     0.017 A 
ATOM      6  C5  UNL d   1      -1.245  -1.362   1.723  0.00  0.00     0.034 A 
ATOM      7 Cl   UNL d   1       1.182  -0.707   0.787  0.00  0.00    -0.070 Cl
ATOM      8 Cl1  UNL d   1      -0.416   0.223  -1.892  0.00  0.00    -0.070 Cl
ENDROOT
TORSDOF 0
ENDMDL
