MODEL 1
REMARK minimizedAffinity -1.23213577
REMARK minimizedRMSD -1
REMARK  0 active torsions:
REMARK  status: ('A' for Active; 'I' for Inactive)
ROOT
ATOM      1  C   UNL d   1      -1.668   0.026  -1.929  0.00  0.00     0.020 A 
ATOM      2  C1  UNL d   1      -2.047  -1.195  -1.373  0.00  0.00     0.020 A 
ATOM      3  C2  UNL d   1      -1.305  -1.746  -0.327  0.00  0.00     0.034 A 
ATOM      4  C3  UNL d   1      -0.179  -1.077   0.167  0.00  0.00     0.017 A 
ATOM      5  C4  UNL d   1       0.200   0.149  -0.391  0.00  0.00     0.017 A 
ATOM      6  C5  UNL d   1      -0.547   0.697  -1.438  0.00  0.00     0.034 A 
ATOM      7 Cl   UNL d   1       1.577   1.034   0.166  0.00  0.00    -0.070 Cl
ATOM      8 Cl1  UNL d   1       0.691  -1.817   1.463  0.00  0.00    -0.070 Cl
ENDROOT
TORSDOF 0
ENDMDL
