MODEL 1
REMARK minimizedAffinity 2.05627203
REMARK minimizedRMSD -1
REMARK  0 active torsions:
REMARK  status: ('A' for Active; 'I' for Inactive)
ROOT
ATOM      1  C   UNL d   1       1.399   2.939   2.654  0.00  0.00     0.020 A 
ATOM      2  C1  UNL d   1       2.462   3.708   2.183  0.00  0.00     0.020 A 
ATOM      3  C2  UNL d   1       3.064   3.394   0.962  0.00  0.00     0.034 A 
ATOM      4  C3  UNL d   1       2.603   2.309   0.208  0.00  0.00     0.017 A 
ATOM      5  C4  UNL d   1       1.535   1.537   0.682  0.00  0.00     0.017 A 
ATOM      6  C5  UNL d   1       0.937   1.856   1.905  0.00  0.00     0.034 A 
ATOM      7 Cl   UNL d   1       0.911   0.183  -0.191  0.00  0.00    -0.070 Cl
ATOM      8 Cl1  UNL d   1       3.393   1.979  -1.292  0.00  0.00    -0.070 Cl
ENDROOT
TORSDOF 0
ENDMDL
