MODEL 1
REMARK minimizedAffinity -3.02072239
REMARK minimizedRMSD -1
REMARK  0 active torsions:
REMARK  status: ('A' for Active; 'I' for Inactive)
ROOT
ATOM      1  C   UNL d   1      -3.387  -1.823  -0.375  0.00  0.00     0.020 A 
ATOM      2  C1  UNL d   1      -2.878  -0.868  -1.255  0.00  0.00     0.020 A 
ATOM      3  C2  UNL d   1      -1.627  -0.296  -1.017  0.00  0.00     0.034 A 
ATOM      4  C3  UNL d   1      -0.880  -0.678   0.104  0.00  0.00     0.017 A 
ATOM      5  C4  UNL d   1      -1.392  -1.636   0.986  0.00  0.00     0.017 A 
ATOM      6  C5  UNL d   1      -2.645  -2.206   0.743  0.00  0.00     0.034 A 
ATOM      7 Cl   UNL d   1      -0.529  -2.158   2.390  0.00  0.00    -0.070 Cl
ATOM      8 Cl1  UNL d   1       0.660   0.070   0.336  0.00  0.00    -0.070 Cl
ENDROOT
TORSDOF 0
ENDMDL
