MODEL 1
REMARK minimizedAffinity 0.0915780365
REMARK minimizedRMSD -1
REMARK  0 active torsions:
REMARK  status: ('A' for Active; 'I' for Inactive)
ROOT
ATOM      1  C   UNL d   1       0.913   0.974  -1.022  0.00  0.00     0.020 A 
ATOM      2  C1  UNL d   1      -0.098   0.896  -1.978  0.00  0.00     0.020 A 
ATOM      3  C2  UNL d   1      -0.997  -0.173  -1.957  0.00  0.00     0.034 A 
ATOM      4  C3  UNL d   1      -0.887  -1.166  -0.977  0.00  0.00     0.017 A 
ATOM      5  C4  UNL d   1       0.129  -1.087  -0.018  0.00  0.00     0.017 A 
ATOM      6  C5  UNL d   1       1.026  -0.015  -0.044  0.00  0.00     0.034 A 
ATOM      7 Cl   UNL d   1       0.328  -2.274   1.222  0.00  0.00    -0.070 Cl
ATOM      8 Cl1  UNL d   1      -2.034  -2.458  -1.011  0.00  0.00    -0.070 Cl
ENDROOT
TORSDOF 0
ENDMDL
