MODEL 1
REMARK minimizedAffinity -3.30739546
REMARK minimizedRMSD -1
REMARK  0 active torsions:
REMARK  status: ('A' for Active; 'I' for Inactive)
ROOT
ATOM      1  C   UNL d   1      -2.499  -1.097  -0.841  0.00  0.00     0.020 A 
ATOM      2  C1  UNL d   1      -2.569  -2.255  -0.068  0.00  0.00     0.020 A 
ATOM      3  C2  UNL d   1      -1.546  -2.556   0.833  0.00  0.00     0.034 A 
ATOM      4  C3  UNL d   1      -0.447  -1.699   0.962  0.00  0.00     0.017 A 
ATOM      5  C4  UNL d   1      -0.377  -0.537   0.186  0.00  0.00     0.017 A 
ATOM      6  C5  UNL d   1      -1.405  -0.240  -0.715  0.00  0.00     0.034 A 
ATOM      7 Cl   UNL d   1       0.947   0.569   0.290  0.00  0.00    -0.070 Cl
ATOM      8 Cl1  UNL d   1       0.782  -2.134   2.096  0.00  0.00    -0.070 Cl
ENDROOT
TORSDOF 0
ENDMDL
