MODEL 1
REMARK minimizedAffinity -5.52523088
REMARK minimizedRMSD -1
REMARK  0 active torsions:
REMARK  status: ('A' for Active; 'I' for Inactive)
ROOT
ATOM      1  C   UNL d   1      -3.371  -1.009   0.330  0.00  0.00     0.020 A 
ATOM      2  C1  UNL d   1      -3.231  -2.145   1.127  0.00  0.00     0.020 A 
ATOM      3  C2  UNL d   1      -1.958  -2.624   1.442  0.00  0.00     0.034 A 
ATOM      4  C3  UNL d   1      -0.820  -1.967   0.961  0.00  0.00     0.017 A 
ATOM      5  C4  UNL d   1      -0.961  -0.826   0.162  0.00  0.00     0.017 A 
ATOM      6  C5  UNL d   1      -2.239  -0.351  -0.151  0.00  0.00     0.034 A 
ATOM      7 Cl   UNL d   1       0.396   0.038  -0.468  0.00  0.00    -0.070 Cl
ATOM      8 Cl1  UNL d   1       0.724  -2.614   1.391  0.00  0.00    -0.070 Cl
ENDROOT
TORSDOF 0
ENDMDL
