MODEL 1
REMARK minimizedAffinity -2.42029524
REMARK minimizedRMSD -1
REMARK  0 active torsions:
REMARK  status: ('A' for Active; 'I' for Inactive)
ROOT
ATOM      1  C   UNL d   1      -0.536   0.340  -1.468  0.00  0.00     0.020 A 
ATOM      2  C1  UNL d   1      -1.733  -0.263  -1.851  0.00  0.00     0.020 A 
ATOM      3  C2  UNL d   1      -2.170  -1.421  -1.204  0.00  0.00     0.034 A 
ATOM      4  C3  UNL d   1      -1.410  -1.979  -0.170  0.00  0.00     0.017 A 
ATOM      5  C4  UNL d   1      -0.208  -1.373   0.214  0.00  0.00     0.017 A 
ATOM      6  C5  UNL d   1       0.225  -0.214  -0.437  0.00  0.00     0.034 A 
ATOM      7 Cl   UNL d   1       0.784  -2.003   1.481  0.00  0.00    -0.070 Cl
ATOM      8 Cl1  UNL d   1      -2.011  -3.412   0.586  0.00  0.00    -0.070 Cl
ENDROOT
TORSDOF 0
ENDMDL
