MODEL 1
REMARK minimizedAffinity -4.33681679
REMARK minimizedRMSD -1
REMARK  0 active torsions:
REMARK  status: ('A' for Active; 'I' for Inactive)
ROOT
ATOM      1  C   UNL d   1      -2.275  -2.131   1.148  0.00  0.00     0.020 A 
ATOM      2  C1  UNL d   1      -3.014  -1.750   0.028  0.00  0.00     0.020 A 
ATOM      3  C2  UNL d   1      -2.509  -0.784  -0.845  0.00  0.00     0.034 A 
ATOM      4  C3  UNL d   1      -1.263  -0.195  -0.599  0.00  0.00     0.017 A 
ATOM      5  C4  UNL d   1      -0.523  -0.578   0.525  0.00  0.00     0.017 A 
ATOM      6  C5  UNL d   1      -1.033  -1.546   1.396  0.00  0.00     0.034 A 
ATOM      7 Cl   UNL d   1       1.022   0.103   0.894  0.00  0.00    -0.070 Cl
ATOM      8 Cl1  UNL d   1      -0.701   0.993  -1.721  0.00  0.00    -0.070 Cl
ENDROOT
TORSDOF 0
ENDMDL
