MODEL 1
REMARK minimizedAffinity -5.260077
REMARK minimizedRMSD -1
REMARK  0 active torsions:
REMARK  status: ('A' for Active; 'I' for Inactive)
ROOT
ATOM      1  C   UNL d   1      -3.712  -1.405  -0.428  0.00  0.00     0.020 A 
ATOM      2  C1  UNL d   1      -2.966  -2.027   0.573  0.00  0.00     0.020 A 
ATOM      3  C2  UNL d   1      -1.630  -1.673   0.769  0.00  0.00     0.034 A 
ATOM      4  C3  UNL d   1      -1.035  -0.695  -0.036  0.00  0.00     0.017 A 
ATOM      5  C4  UNL d   1      -1.784  -0.071  -1.040  0.00  0.00     0.017 A 
ATOM      6  C5  UNL d   1      -3.122  -0.429  -1.232  0.00  0.00     0.034 A 
ATOM      7 Cl   UNL d   1      -1.120   1.144  -2.073  0.00  0.00    -0.070 Cl
ATOM      8 Cl1  UNL d   1       0.622  -0.307   0.263  0.00  0.00    -0.070 Cl
ENDROOT
TORSDOF 0
ENDMDL
