MODEL 1
REMARK minimizedAffinity -2.26944423
REMARK minimizedRMSD -1
REMARK  0 active torsions:
REMARK  status: ('A' for Active; 'I' for Inactive)
ROOT
ATOM      1  C   UNL d   1      -0.301  -0.340  -0.231  0.00  0.00     0.020 A 
ATOM      2  C1  UNL d   1      -1.068  -0.119   0.912  0.00  0.00     0.020 A 
ATOM      3  C2  UNL d   1      -2.326  -0.711   1.034  0.00  0.00     0.034 A 
ATOM      4  C3  UNL d   1      -2.822  -1.527   0.011  0.00  0.00     0.017 A 
ATOM      5  C4  UNL d   1      -2.052  -1.749  -1.136  0.00  0.00     0.017 A 
ATOM      6  C5  UNL d   1      -0.792  -1.153  -1.253  0.00  0.00     0.034 A 
ATOM      7 Cl   UNL d   1      -2.597  -2.744  -2.440  0.00  0.00    -0.070 Cl
ATOM      8 Cl1  UNL d   1      -4.387  -2.228   0.230  0.00  0.00    -0.070 Cl
ENDROOT
TORSDOF 0
ENDMDL
