MODEL 1
REMARK minimizedAffinity -1.28198981
REMARK minimizedRMSD -1
REMARK  0 active torsions:
REMARK  status: ('A' for Active; 'I' for Inactive)
ROOT
ATOM      1  C   UNL d   1       0.562   0.867  -1.111  0.00  0.00     0.020 A 
ATOM      2  C1  UNL d   1       1.392   0.527  -0.044  0.00  0.00     0.020 A 
ATOM      3  C2  UNL d   1       0.927  -0.326   0.959  0.00  0.00     0.034 A 
ATOM      4  C3  UNL d   1      -0.372  -0.844   0.896  0.00  0.00     0.017 A 
ATOM      5  C4  UNL d   1      -1.205  -0.502  -0.176  0.00  0.00     0.017 A 
ATOM      6  C5  UNL d   1      -0.734   0.353  -1.177  0.00  0.00     0.034 A 
ATOM      7 Cl   UNL d   1      -2.819  -1.101  -0.322  0.00  0.00    -0.070 Cl
ATOM      8 Cl1  UNL d   1      -0.881  -1.894   2.170  0.00  0.00    -0.070 Cl
ENDROOT
TORSDOF 0
ENDMDL
