MODEL 1
REMARK minimizedAffinity -1.66535413
REMARK minimizedRMSD -1
REMARK  0 active torsions:
REMARK  status: ('A' for Active; 'I' for Inactive)
ROOT
ATOM      1  C   UNL d   1      -2.309  -0.296  -0.960  0.00  0.00     0.020 A 
ATOM      2  C1  UNL d   1      -2.517  -1.503  -0.295  0.00  0.00     0.020 A 
ATOM      3  C2  UNL d   1      -1.549  -1.991   0.586  0.00  0.00     0.034 A 
ATOM      4  C3  UNL d   1      -0.369  -1.271   0.805  0.00  0.00     0.017 A 
ATOM      5  C4  UNL d   1      -0.161  -0.059   0.137  0.00  0.00     0.017 A 
ATOM      6  C5  UNL d   1      -1.133   0.425  -0.745  0.00  0.00     0.034 A 
ATOM      7 Cl   UNL d   1       1.270   0.886   0.355  0.00  0.00    -0.070 Cl
ATOM      8 Cl1  UNL d   1       0.784  -1.933   1.908  0.00  0.00    -0.070 Cl
ENDROOT
TORSDOF 0
ENDMDL
