MODEL 1
REMARK minimizedAffinity -2.69374657
REMARK minimizedRMSD -1
REMARK  1 active torsions:
REMARK  status: ('A' for Active; 'I' for Inactive)
REMARK    1  A    between atoms: C1_2  and  C2_3 
ROOT
ATOM      1  C2  UNL d   1      -1.958   0.042  -1.057  0.00  0.00    -0.073 A 
ATOM      2  C3  UNL d   1      -1.995  -1.082  -1.890  0.00  0.00    -0.002 A 
ATOM      3  C4  UNL d   1      -2.648  -1.025  -3.122  0.00  0.00     0.004 A 
ATOM      4  C5  UNL d   1      -3.263   0.156  -3.536  0.00  0.00    -0.004 A 
ATOM      5  C6  UNL d   1      -3.227   1.293  -2.724  0.00  0.00    -0.075 A 
ATOM      6  C7  UNL d   1      -3.886   2.571  -3.154  0.00  0.00     0.076 C 
ATOM      7  C8  UNL d   1      -2.571   1.228  -1.487  0.00  0.00     0.001 A 
ENDROOT
BRANCH   1   8
ATOM      8  C1  UNL d   1      -1.248  -0.012   0.271  0.00  0.00     0.053 C 
ATOM      9  C   UNL d   1       0.197   0.448   0.165  0.00  0.00     0.018 C 
ENDBRANCH   1   8
TORSDOF 1
ENDMDL
