MODEL 1
REMARK minimizedAffinity -5.63360643
REMARK minimizedRMSD -1
REMARK  1 active torsions:
REMARK  status: ('A' for Active; 'I' for Inactive)
REMARK    1  A    between atoms: C1_2  and  C2_3 
ROOT
ATOM      1  C2  UNL d   1       1.181  -1.961   1.844  0.00  0.00    -0.073 A 
ATOM      2  C3  UNL d   1       2.568  -1.976   2.026  0.00  0.00    -0.002 A 
ATOM      3  C4  UNL d   1       3.355  -0.932   1.536  0.00  0.00     0.004 A 
ATOM      4  C5  UNL d   1       2.762   0.138   0.866  0.00  0.00    -0.004 A 
ATOM      5  C6  UNL d   1       1.376   0.177   0.686  0.00  0.00    -0.075 A 
ATOM      6  C7  UNL d   1       0.723   1.321  -0.034  0.00  0.00     0.076 C 
ATOM      7  C8  UNL d   1       0.593  -0.876   1.178  0.00  0.00     0.001 A 
ENDROOT
BRANCH   1   8
ATOM      8  C1  UNL d   1       0.327  -3.082   2.378  0.00  0.00     0.053 C 
ATOM      9  C   UNL d   1       0.900  -4.448   2.034  0.00  0.00     0.018 C 
ENDBRANCH   1   8
TORSDOF 1
ENDMDL
