MODEL 1
REMARK minimizedAffinity -5.27317142
REMARK minimizedRMSD -1
REMARK  1 active torsions:
REMARK  status: ('A' for Active; 'I' for Inactive)
REMARK    1  A    between atoms: C1_2  and  C2_3 
ROOT
ATOM      1  C2  UNL d   1       1.717  -0.631   1.610  0.00  0.00    -0.073 A 
ATOM      2  C3  UNL d   1       1.410  -1.871   2.180  0.00  0.00    -0.002 A 
ATOM      3  C4  UNL d   1       0.209  -2.511   1.871  0.00  0.00     0.004 A 
ATOM      4  C5  UNL d   1      -0.692  -1.923   0.985  0.00  0.00    -0.004 A 
ATOM      5  C6  UNL d   1      -0.398  -0.689   0.395  0.00  0.00    -0.075 A 
ATOM      6  C7  UNL d   1      -1.359  -0.041  -0.558  0.00  0.00     0.076 C 
ATOM      7  C8  UNL d   1       0.808  -0.051   0.713  0.00  0.00     0.001 A 
ENDROOT
BRANCH   1   8
ATOM      8  C1  UNL d   1       3.015   0.062   1.936  0.00  0.00     0.053 C 
ATOM      9  C   UNL d   1       2.811   1.247   2.866  0.00  0.00     0.018 C 
ENDBRANCH   1   8
TORSDOF 1
ENDMDL
