MODEL 1
REMARK minimizedAffinity 3.36397386
REMARK minimizedRMSD -1
REMARK  1 active torsions:
REMARK  status: ('A' for Active; 'I' for Inactive)
REMARK    1  A    between atoms: C1_2  and  C2_3 
ROOT
ATOM      1  C2  UNL d   1      -5.820  -3.592  -2.325  0.00  0.00    -0.073 A 
ATOM      2  C3  UNL d   1      -5.840  -4.874  -1.764  0.00  0.00    -0.002 A 
ATOM      3  C4  UNL d   1      -5.668  -6.000  -2.571  0.00  0.00     0.004 A 
ATOM      4  C5  UNL d   1      -5.468  -5.855  -3.944  0.00  0.00    -0.004 A 
ATOM      5  C6  UNL d   1      -5.433  -4.582  -4.522  0.00  0.00    -0.075 A 
ATOM      6  C7  UNL d   1      -5.221  -4.409  -5.997  0.00  0.00     0.076 C 
ATOM      7  C8  UNL d   1      -5.609  -3.457  -3.705  0.00  0.00     0.001 A 
ENDROOT
BRANCH   1   8
ATOM      8  C1  UNL d   1      -5.999  -2.374  -1.457  0.00  0.00     0.053 C 
ATOM      9  C   UNL d   1      -5.578  -1.099  -2.170  0.00  0.00     0.018 C 
ENDBRANCH   1   8
TORSDOF 1
ENDMDL
