MODEL 1
REMARK minimizedAffinity 10.9221239
REMARK minimizedRMSD -1
REMARK  1 active torsions:
REMARK  status: ('A' for Active; 'I' for Inactive)
REMARK    1  A    between atoms: C1_2  and  C2_3 
ROOT
ATOM      1  C2  UNL d   1       3.974   4.489  -2.975  0.00  0.00    -0.073 A 
ATOM      2  C3  UNL d   1       3.263   3.491  -3.649  0.00  0.00    -0.002 A 
ATOM      3  C4  UNL d   1       3.431   3.310  -5.023  0.00  0.00     0.004 A 
ATOM      4  C5  UNL d   1       4.316   4.121  -5.734  0.00  0.00    -0.004 A 
ATOM      5  C6  UNL d   1       5.045   5.116  -5.076  0.00  0.00    -0.075 A 
ATOM      6  C7  UNL d   1       5.999   5.998  -5.827  0.00  0.00     0.076 C 
ATOM      7  C8  UNL d   1       4.868   5.293  -3.697  0.00  0.00     0.001 A 
ENDROOT
BRANCH   1   8
ATOM      8  C1  UNL d   1       3.801   4.683  -1.491  0.00  0.00     0.053 C 
ATOM      9  C   UNL d   1       3.220   3.449  -0.819  0.00  0.00     0.018 C 
ENDBRANCH   1   8
TORSDOF 1
ENDMDL
