MODEL 1
REMARK minimizedAffinity 3.58592343
REMARK minimizedRMSD -1
REMARK  1 active torsions:
REMARK  status: ('A' for Active; 'I' for Inactive)
REMARK    1  A    between atoms: C1_2  and  C2_3 
ROOT
ATOM      1  C2  UNL d   1      -5.068  -5.089  -3.664  0.00  0.00    -0.073 A 
ATOM      2  C3  UNL d   1      -5.526  -5.995  -2.701  0.00  0.00    -0.002 A 
ATOM      3  C4  UNL d   1      -5.909  -5.547  -1.436  0.00  0.00     0.004 A 
ATOM      4  C5  UNL d   1      -5.844  -4.189  -1.124  0.00  0.00    -0.004 A 
ATOM      5  C6  UNL d   1      -5.400  -3.266  -2.076  0.00  0.00    -0.075 A 
ATOM      6  C7  UNL d   1      -5.323  -1.802  -1.755  0.00  0.00     0.076 C 
ATOM      7  C8  UNL d   1      -5.015  -3.725  -3.343  0.00  0.00     0.001 A 
ENDROOT
BRANCH   1   8
ATOM      8  C1  UNL d   1      -4.660  -5.568  -5.033  0.00  0.00     0.053 C 
ATOM      9  C   UNL d   1      -5.844  -5.658  -5.982  0.00  0.00     0.018 C 
ENDBRANCH   1   8
TORSDOF 1
ENDMDL
