MODEL 1
REMARK minimizedAffinity 13.8277016
REMARK minimizedRMSD -1
REMARK  1 active torsions:
REMARK  status: ('A' for Active; 'I' for Inactive)
REMARK    1  A    between atoms: C1_2  and  C2_3 
ROOT
ATOM      1  C2  UNL d   1      -3.606   2.187   0.764  0.00  0.00    -0.073 A 
ATOM      2  C3  UNL d   1      -2.700   1.267   1.302  0.00  0.00    -0.002 A 
ATOM      3  C4  UNL d   1      -1.896   0.495   0.463  0.00  0.00     0.004 A 
ATOM      4  C5  UNL d   1      -1.984   0.640  -0.922  0.00  0.00    -0.004 A 
ATOM      5  C6  UNL d   1      -2.875   1.562  -1.479  0.00  0.00    -0.075 A 
ATOM      6  C7  UNL d   1      -2.984   1.729  -2.966  0.00  0.00     0.076 C 
ATOM      7  C8  UNL d   1      -3.681   2.332  -0.629  0.00  0.00     0.001 A 
ENDROOT
BRANCH   1   8
ATOM      8  C1  UNL d   1      -4.472   3.027   1.666  0.00  0.00     0.053 C 
ATOM      9  C   UNL d   1      -5.741   3.491   0.969  0.00  0.00     0.018 C 
ENDBRANCH   1   8
TORSDOF 1
ENDMDL
