MODEL 1
REMARK minimizedAffinity 1.02790606
REMARK minimizedRMSD -1
REMARK  2 active torsions:
REMARK  status: ('A' for Active; 'I' for Inactive)
REMARK    1  A    between atoms: C1_2  and  C2_3 
REMARK    2  A    between atoms: C2_3  and  C3_4 
ROOT
ATOM      1  C3  UNL d   1       4.183   2.589   1.966  0.00  0.00    -0.075 A 
ATOM      2  C4  UNL d   1       3.912   2.798   3.326  0.00  0.00     0.002 A 
ATOM      3  C5  UNL d   1       2.604   3.009   3.764  0.00  0.00     0.002 A 
ATOM      4  C6  UNL d   1       1.554   3.024   2.849  0.00  0.00    -0.004 A 
ATOM      5  C7  UNL d   1       1.813   2.834   1.493  0.00  0.00     0.002 A 
ATOM      6  C8  UNL d   1       3.120   2.618   1.053  0.00  0.00     0.002 A 
ENDROOT
BRANCH   1   7
ATOM      7  C2  UNL d   1       5.592   2.330   1.490  0.00  0.00     0.056 C 
BRANCH   7   8
ATOM      8  C1  UNL d   1       5.998   0.853   1.515  0.00  0.00     0.007 C 
ATOM      9  C   UNL d   1       5.999   0.207   0.135  0.00  0.00     0.009 C 
ENDBRANCH   7   8
ENDBRANCH   1   7
TORSDOF 2
ENDMDL
