MODEL 1
REMARK minimizedAffinity 5.50772619
REMARK minimizedRMSD -1
REMARK  2 active torsions:
REMARK  status: ('A' for Active; 'I' for Inactive)
REMARK    1  A    between atoms: C1_2  and  C2_3 
REMARK    2  A    between atoms: C2_3  and  C3_4 
ROOT
ATOM      1  C3  UNL d   1       0.495  -1.991   2.138  0.00  0.00    -0.075 A 
ATOM      2  C4  UNL d   1       1.211  -3.168   2.401  0.00  0.00     0.002 A 
ATOM      3  C5  UNL d   1       2.258  -3.561   1.567  0.00  0.00     0.002 A 
ATOM      4  C6  UNL d   1       2.596  -2.790   0.457  0.00  0.00    -0.004 A 
ATOM      5  C7  UNL d   1       1.881  -1.628   0.176  0.00  0.00     0.002 A 
ATOM      6  C8  UNL d   1       0.835  -1.230   1.011  0.00  0.00     0.002 A 
ENDROOT
BRANCH   1   7
ATOM      7  C2  UNL d   1      -0.620  -1.544   3.053  0.00  0.00     0.056 C 
BRANCH   7   8
ATOM      8  C1  UNL d   1      -1.440  -0.370   2.509  0.00  0.00     0.007 C 
ATOM      9  C   UNL d   1      -2.589  -0.806   1.609  0.00  0.00     0.009 C 
ENDBRANCH   7   8
ENDBRANCH   1   7
TORSDOF 2
ENDMDL
