MODEL 1
REMARK minimizedAffinity 10.1443987
REMARK minimizedRMSD -1
REMARK  2 active torsions:
REMARK  status: ('A' for Active; 'I' for Inactive)
REMARK    1  A    between atoms: C1_2  and  C2_3 
REMARK    2  A    between atoms: C2_3  and  C3_4 
ROOT
ATOM      1  C3  UNL d   1       0.935  -1.495   2.571  0.00  0.00    -0.075 A 
ATOM      2  C4  UNL d   1       1.086  -0.958   1.284  0.00  0.00     0.002 A 
ATOM      3  C5  UNL d   1       1.783  -1.661   0.301  0.00  0.00     0.002 A 
ATOM      4  C6  UNL d   1       2.347  -2.901   0.594  0.00  0.00    -0.004 A 
ATOM      5  C7  UNL d   1       2.217  -3.436   1.873  0.00  0.00     0.002 A 
ATOM      6  C8  UNL d   1       1.516  -2.738   2.858  0.00  0.00     0.002 A 
ENDROOT
BRANCH   1   7
ATOM      7  C2  UNL d   1       0.156  -0.754   3.631  0.00  0.00     0.056 C 
BRANCH   7   8
ATOM      8  C1  UNL d   1      -1.330  -1.124   3.686  0.00  0.00     0.007 C 
ATOM      9  C   UNL d   1      -2.238  -0.049   3.102  0.00  0.00     0.009 C 
ENDBRANCH   7   8
ENDBRANCH   1   7
TORSDOF 2
ENDMDL
