MODEL 1
REMARK minimizedAffinity -0.432475448
REMARK minimizedRMSD -1
REMARK  2 active torsions:
REMARK  status: ('A' for Active; 'I' for Inactive)
REMARK    1  A    between atoms: C1_2  and  C2_3 
REMARK    2  A    between atoms: C2_3  and  C3_4 
ROOT
ATOM      1  C3  UNL d   1       2.635   1.420   0.383  0.00  0.00    -0.075 A 
ATOM      2  C4  UNL d   1       1.877   2.408  -0.262  0.00  0.00     0.002 A 
ATOM      3  C5  UNL d   1       0.792   2.056  -1.066  0.00  0.00     0.002 A 
ATOM      4  C6  UNL d   1       0.457   0.715  -1.242  0.00  0.00    -0.004 A 
ATOM      5  C7  UNL d   1       1.214  -0.276  -0.619  0.00  0.00     0.002 A 
ATOM      6  C8  UNL d   1       2.297   0.074   0.189  0.00  0.00     0.002 A 
ENDROOT
BRANCH   1   7
ATOM      7  C2  UNL d   1       3.792   1.796   1.277  0.00  0.00     0.056 C 
BRANCH   7   8
ATOM      8  C1  UNL d   1       5.108   2.030   0.529  0.00  0.00     0.007 C 
ATOM      9  C   UNL d   1       5.980   0.784   0.444  0.00  0.00     0.009 C 
ENDBRANCH   7   8
ENDBRANCH   1   7
TORSDOF 2
ENDMDL
