MODEL 1
REMARK minimizedAffinity -3.16530061
REMARK minimizedRMSD -1
REMARK  2 active torsions:
REMARK  status: ('A' for Active; 'I' for Inactive)
REMARK    1  A    between atoms: C1_2  and  C2_3 
REMARK    2  A    between atoms: C2_3  and  C3_4 
ROOT
ATOM      1  C3  UNL d   1       3.966  -4.946   4.022  0.00  0.00    -0.075 A 
ATOM      2  C4  UNL d   1       4.671  -3.739   4.126  0.00  0.00     0.002 A 
ATOM      3  C5  UNL d   1       5.650  -3.573   5.107  0.00  0.00     0.002 A 
ATOM      4  C6  UNL d   1       5.928  -4.605   6.000  0.00  0.00    -0.004 A 
ATOM      5  C7  UNL d   1       5.221  -5.803   5.916  0.00  0.00     0.002 A 
ATOM      6  C8  UNL d   1       4.245  -5.974   4.933  0.00  0.00     0.002 A 
ENDROOT
BRANCH   1   7
ATOM      7  C2  UNL d   1       2.926  -5.143   2.944  0.00  0.00     0.056 C 
BRANCH   7   8
ATOM      8  C1  UNL d   1       2.994  -4.108   1.816  0.00  0.00     0.007 C 
ATOM      9  C   UNL d   1       1.867  -3.084   1.872  0.00  0.00     0.009 C 
ENDBRANCH   7   8
ENDBRANCH   1   7
TORSDOF 2
ENDMDL
