MODEL 1
REMARK minimizedAffinity 4.08211851
REMARK minimizedRMSD -1
REMARK  2 active torsions:
REMARK  status: ('A' for Active; 'I' for Inactive)
REMARK    1  A    between atoms: C1_2  and  C2_3 
REMARK    2  A    between atoms: C2_3  and  C3_4 
ROOT
ATOM      1  C3  UNL d   1       2.727  -1.975   3.614  0.00  0.00    -0.075 A 
ATOM      2  C4  UNL d   1       3.283  -2.848   2.668  0.00  0.00     0.002 A 
ATOM      3  C5  UNL d   1       2.714  -2.974   1.400  0.00  0.00     0.002 A 
ATOM      4  C6  UNL d   1       1.580  -2.237   1.065  0.00  0.00    -0.004 A 
ATOM      5  C7  UNL d   1       1.010  -1.379   2.003  0.00  0.00     0.002 A 
ATOM      6  C8  UNL d   1       1.579  -1.248   3.271  0.00  0.00     0.002 A 
ENDROOT
BRANCH   1   7
ATOM      7  C2  UNL d   1       3.354  -1.813   4.978  0.00  0.00     0.056 C 
BRANCH   7   8
ATOM      8  C1  UNL d   1       4.493  -2.798   5.261  0.00  0.00     0.007 C 
ATOM      9  C   UNL d   1       5.667  -2.163   5.995  0.00  0.00     0.009 C 
ENDBRANCH   7   8
ENDBRANCH   1   7
TORSDOF 2
ENDMDL
