MODEL 1
REMARK minimizedAffinity 3.18880367
REMARK minimizedRMSD -1
REMARK  2 active torsions:
REMARK  status: ('A' for Active; 'I' for Inactive)
REMARK    1  A    between atoms: C1_2  and  C2_3 
REMARK    2  A    between atoms: C2_3  and  C3_4 
ROOT
ATOM      1  C3  UNL d   1       1.899  -2.784   1.438  0.00  0.00    -0.075 A 
ATOM      2  C4  UNL d   1       3.231  -2.559   1.062  0.00  0.00     0.002 A 
ATOM      3  C5  UNL d   1       4.057  -3.627   0.710  0.00  0.00     0.002 A 
ATOM      4  C6  UNL d   1       3.567  -4.930   0.739  0.00  0.00    -0.004 A 
ATOM      5  C7  UNL d   1       2.250  -5.167   1.127  0.00  0.00     0.002 A 
ATOM      6  C8  UNL d   1       1.420  -4.100   1.476  0.00  0.00     0.002 A 
ENDROOT
BRANCH   1   7
ATOM      7  C2  UNL d   1       0.991  -1.630   1.792  0.00  0.00     0.056 C 
BRANCH   7   8
ATOM      8  C1  UNL d   1       0.680  -1.517   3.288  0.00  0.00     0.007 C 
ATOM      9  C   UNL d   1      -0.794  -1.266   3.577  0.00  0.00     0.009 C 
ENDBRANCH   7   8
ENDBRANCH   1   7
TORSDOF 2
ENDMDL
