MODEL 1
REMARK minimizedAffinity 3.19497275
REMARK minimizedRMSD -1
REMARK  2 active torsions:
REMARK  status: ('A' for Active; 'I' for Inactive)
REMARK    1  A    between atoms: C1_2  and  C2_3 
REMARK    2  A    between atoms: C2_3  and  C3_4 
ROOT
ATOM      1  C3  UNL d   1      -1.072   3.931  -3.050  0.00  0.00    -0.075 A 
ATOM      2  C4  UNL d   1      -2.365   4.245  -3.492  0.00  0.00     0.002 A 
ATOM      3  C5  UNL d   1      -3.425   3.369  -3.258  0.00  0.00     0.002 A 
ATOM      4  C6  UNL d   1      -3.206   2.167  -2.590  0.00  0.00    -0.004 A 
ATOM      5  C7  UNL d   1      -1.922   1.837  -2.161  0.00  0.00     0.002 A 
ATOM      6  C8  UNL d   1      -0.860   2.714  -2.390  0.00  0.00     0.002 A 
ENDROOT
BRANCH   1   7
ATOM      7  C2  UNL d   1       0.075   4.888  -3.274  0.00  0.00     0.056 C 
BRANCH   7   8
ATOM      8  C1  UNL d   1       0.693   4.805  -4.674  0.00  0.00     0.007 C 
ATOM      9  C   UNL d   1       1.573   6.000  -5.013  0.00  0.00     0.009 C 
ENDBRANCH   7   8
ENDBRANCH   1   7
TORSDOF 2
ENDMDL
