MODEL 1
REMARK minimizedAffinity 2.43974996
REMARK minimizedRMSD -1
REMARK  1 active torsions:
REMARK  status: ('A' for Active; 'I' for Inactive)
REMARK    1  A    between atoms: C1_2  and  C2_3 
ROOT
ATOM      1  C2  UNL d   1       0.403   1.122   0.506  0.00  0.00    -0.081 A 
ATOM      2  C3  UNL d   1      -0.817   1.139  -0.181  0.00  0.00     0.006 A 
ATOM      3  C4  UNL d   1      -0.989   0.374  -1.337  0.00  0.00     0.002 A 
ATOM      4  C5  UNL d   1       0.052  -0.425  -1.821  0.00  0.00    -0.080 A 
ATOM      5  C6  UNL d   1      -0.129  -1.274  -3.044  0.00  0.00     0.076 C 
ATOM      6  C7  UNL d   1       1.277  -0.429  -1.145  0.00  0.00     0.002 A 
ATOM      7  C8  UNL d   1       1.450   0.336   0.011  0.00  0.00     0.006 A 
ENDROOT
BRANCH   1   8
ATOM      8  C1  UNL d   1       0.571   1.895   1.790  0.00  0.00     0.054 C 
ATOM      9  C   UNL d   1      -0.709   1.884   2.613  0.00  0.00     0.018 C 
ENDBRANCH   1   8
TORSDOF 1
ENDMDL
