MODEL 1
REMARK minimizedAffinity 7.40771341
REMARK minimizedRMSD -1
REMARK  1 active torsions:
REMARK  status: ('A' for Active; 'I' for Inactive)
REMARK    1  A    between atoms: C1_2  and  C2_3 
ROOT
ATOM      1  C2  UNL d   1      -0.208   1.963  -0.076  0.00  0.00    -0.081 A 
ATOM      2  C3  UNL d   1      -0.532   2.102   1.279  0.00  0.00     0.006 A 
ATOM      3  C4  UNL d   1      -1.317   3.172   1.714  0.00  0.00     0.002 A 
ATOM      4  C5  UNL d   1      -1.799   4.116   0.801  0.00  0.00    -0.080 A 
ATOM      5  C6  UNL d   1      -2.668   5.252   1.251  0.00  0.00     0.076 C 
ATOM      6  C7  UNL d   1      -1.461   3.988  -0.550  0.00  0.00     0.002 A 
ATOM      7  C8  UNL d   1      -0.675   2.919  -0.986  0.00  0.00     0.006 A 
ENDROOT
BRANCH   1   8
ATOM      8  C1  UNL d   1       0.585   0.775  -0.558  0.00  0.00     0.054 C 
ATOM      9  C   UNL d   1       0.199   0.392  -1.979  0.00  0.00     0.018 C 
ENDBRANCH   1   8
TORSDOF 1
ENDMDL
