MODEL 1
REMARK minimizedAffinity -0.812470913
REMARK minimizedRMSD -1
REMARK  1 active torsions:
REMARK  status: ('A' for Active; 'I' for Inactive)
REMARK    1  A    between atoms: C1_2  and  C2_3 
ROOT
ATOM      1  C2  UNL d   1      -1.990   4.141   1.537  0.00  0.00    -0.081 A 
ATOM      2  C3  UNL d   1      -1.868   3.043   2.398  0.00  0.00     0.006 A 
ATOM      3  C4  UNL d   1      -0.621   2.457   2.626  0.00  0.00     0.002 A 
ATOM      4  C5  UNL d   1       0.525   2.963   2.005  0.00  0.00    -0.080 A 
ATOM      5  C6  UNL d   1       1.875   2.362   2.265  0.00  0.00     0.076 C 
ATOM      6  C7  UNL d   1       0.401   4.049   1.131  0.00  0.00     0.002 A 
ATOM      7  C8  UNL d   1      -0.846   4.635   0.902  0.00  0.00     0.006 A 
ENDROOT
BRANCH   1   8
ATOM      8  C1  UNL d   1      -3.324   4.815   1.339  0.00  0.00     0.054 C 
ATOM      9  C   UNL d   1      -3.491   5.997   2.284  0.00  0.00     0.018 C 
ENDBRANCH   1   8
TORSDOF 1
ENDMDL
