MODEL 1
REMARK minimizedAffinity -1.01958442
REMARK minimizedRMSD -1
REMARK  1 active torsions:
REMARK  status: ('A' for Active; 'I' for Inactive)
REMARK    1  A    between atoms: C1_2  and  C2_3 
ROOT
ATOM      1  C2  UNL d   1      -1.377   4.182   0.858  0.00  0.00    -0.081 A 
ATOM      2  C3  UNL d   1      -2.178   3.252   1.533  0.00  0.00     0.006 A 
ATOM      3  C4  UNL d   1      -1.602   2.308   2.386  0.00  0.00     0.002 A 
ATOM      4  C5  UNL d   1      -0.217   2.282   2.585  0.00  0.00    -0.080 A 
ATOM      5  C6  UNL d   1       0.411   1.294   3.522  0.00  0.00     0.076 C 
ATOM      6  C7  UNL d   1       0.585   3.200   1.898  0.00  0.00     0.002 A 
ATOM      7  C8  UNL d   1       0.010   4.144   1.044  0.00  0.00     0.006 A 
ENDROOT
BRANCH   1   8
ATOM      8  C1  UNL d   1      -2.001   5.243  -0.012  0.00  0.00     0.054 C 
ATOM      9  C   UNL d   1      -3.090   6.000   0.734  0.00  0.00     0.018 C 
ENDBRANCH   1   8
TORSDOF 1
ENDMDL
