MODEL 1
REMARK minimizedAffinity 5.59903002
REMARK minimizedRMSD -1
REMARK  1 active torsions:
REMARK  status: ('A' for Active; 'I' for Inactive)
REMARK    1  A    between atoms: C1_2  and  C2_3 
ROOT
ATOM      1  C2  UNL d   1       0.985  -0.321   2.232  0.00  0.00    -0.081 A 
ATOM      2  C3  UNL d   1       0.618  -1.095   3.339  0.00  0.00     0.006 A 
ATOM      3  C4  UNL d   1       1.579  -1.823   4.045  0.00  0.00     0.002 A 
ATOM      4  C5  UNL d   1       2.923  -1.783   3.660  0.00  0.00    -0.080 A 
ATOM      5  C6  UNL d   1       3.970  -2.535   4.427  0.00  0.00     0.076 C 
ATOM      6  C7  UNL d   1       3.288  -1.023   2.543  0.00  0.00     0.002 A 
ATOM      7  C8  UNL d   1       2.327  -0.296   1.837  0.00  0.00     0.006 A 
ENDROOT
BRANCH   1   8
ATOM      8  C1  UNL d   1      -0.039   0.516   1.508  0.00  0.00     0.054 C 
ATOM      9  C   UNL d   1      -0.569   1.632   2.397  0.00  0.00     0.018 C 
ENDBRANCH   1   8
TORSDOF 1
ENDMDL
