MODEL 1
REMARK minimizedAffinity 5.19188309
REMARK minimizedRMSD -1
REMARK  1 active torsions:
REMARK  status: ('A' for Active; 'I' for Inactive)
REMARK    1  A    between atoms: C1_2  and  C2_3 
ROOT
ATOM      1  C2  UNL d   1       4.018  -5.359  -0.398  0.00  0.00    -0.081 A 
ATOM      2  C3  UNL d   1       5.057  -6.000  -1.083  0.00  0.00     0.006 A 
ATOM      3  C4  UNL d   1       5.516  -5.498  -2.304  0.00  0.00     0.002 A 
ATOM      4  C5  UNL d   1       4.950  -4.343  -2.854  0.00  0.00    -0.080 A 
ATOM      5  C6  UNL d   1       5.453  -3.777  -4.148  0.00  0.00     0.076 C 
ATOM      6  C7  UNL d   1       3.900  -3.713  -2.178  0.00  0.00     0.002 A 
ATOM      7  C8  UNL d   1       3.440  -4.214  -0.958  0.00  0.00     0.006 A 
ENDROOT
BRANCH   1   8
ATOM      8  C1  UNL d   1       3.565  -5.861   0.949  0.00  0.00     0.054 C 
ATOM      9  C   UNL d   1       4.734  -5.983   1.916  0.00  0.00     0.018 C 
ENDBRANCH   1   8
TORSDOF 1
ENDMDL
