MODEL 1
REMARK minimizedAffinity -2.59172368
REMARK minimizedRMSD -1
REMARK  0 active torsions:
REMARK  status: ('A' for Active; 'I' for Inactive)
ROOT
ATOM      1  C   UNL d   1       1.738  -0.169   1.893  0.00  0.00     0.078 C 
ATOM      2  C1  UNL d   1       0.668   0.419   1.022  0.00  0.00    -0.077 A 
ATOM      3  C2  UNL d   1       0.649   1.788   0.729  0.00  0.00    -0.001 A 
ATOM      4  C3  UNL d   1      -0.358   2.323  -0.075  0.00  0.00     0.003 A 
ATOM      5  C4  UNL d   1      -1.355   1.497  -0.591  0.00  0.00    -0.005 A 
ATOM      6  C5  UNL d   1      -1.345   0.134  -0.303  0.00  0.00     0.003 A 
ATOM      7  C6  UNL d   1      -0.338  -0.403   0.501  0.00  0.00    -0.001 A 
ENDROOT
TORSDOF 0
ENDMDL
