MODEL 1
REMARK minimizedAffinity -3.6269505
REMARK minimizedRMSD -1
REMARK  0 active torsions:
REMARK  status: ('A' for Active; 'I' for Inactive)
ROOT
ATOM      1  C   UNL d   1      -1.980   0.747  -0.169  0.00  0.00     0.078 C 
ATOM      2  C1  UNL d   1      -0.730  -0.078  -0.087  0.00  0.00    -0.077 A 
ATOM      3  C2  UNL d   1      -0.619  -1.289  -0.779  0.00  0.00    -0.001 A 
ATOM      4  C3  UNL d   1       0.547  -2.052  -0.685  0.00  0.00     0.003 A 
ATOM      5  C4  UNL d   1       1.609  -1.611   0.101  0.00  0.00    -0.005 A 
ATOM      6  C5  UNL d   1       1.507  -0.408   0.795  0.00  0.00     0.003 A 
ATOM      7  C6  UNL d   1       0.342   0.356   0.703  0.00  0.00    -0.001 A 
ENDROOT
TORSDOF 0
ENDMDL
