MODEL 1
REMARK minimizedAffinity -5.23540592
REMARK minimizedRMSD -1
REMARK  0 active torsions:
REMARK  status: ('A' for Active; 'I' for Inactive)
ROOT
ATOM      1  C   UNL d   1      -1.476   0.502  -0.465  0.00  0.00     0.078 C 
ATOM      2  C1  UNL d   1      -0.132  -0.062  -0.115  0.00  0.00    -0.077 A 
ATOM      3  C2  UNL d   1       0.221  -1.366  -0.481  0.00  0.00    -0.001 A 
ATOM      4  C3  UNL d   1       1.473  -1.881  -0.140  0.00  0.00     0.003 A 
ATOM      5  C4  UNL d   1       2.381  -1.099   0.571  0.00  0.00    -0.005 A 
ATOM      6  C5  UNL d   1       2.038   0.199   0.942  0.00  0.00     0.003 A 
ATOM      7  C6  UNL d   1       0.787   0.716   0.602  0.00  0.00    -0.001 A 
ENDROOT
TORSDOF 0
ENDMDL
