MODEL 1
REMARK minimizedAffinity 10.3918343
REMARK minimizedRMSD -1
REMARK  1 active torsions:
REMARK  status: ('A' for Active; 'I' for Inactive)
REMARK    1  A    between atoms: C1_2  and  C2_3 
ROOT
ATOM      1  C2  UNL d   1       3.747  -0.747  -0.003  0.00  0.00    -0.081 A 
ATOM      2  C3  UNL d   1       2.966  -1.360  -0.990  0.00  0.00     0.006 A 
ATOM      3  C4  UNL d   1       2.177  -0.591  -1.848  0.00  0.00     0.002 A 
ATOM      4  C5  UNL d   1       2.161   0.804  -1.738  0.00  0.00    -0.080 A 
ATOM      5  C6  UNL d   1       1.341   1.644  -2.672  0.00  0.00     0.076 C 
ATOM      6  C7  UNL d   1       2.928   1.415  -0.740  0.00  0.00     0.002 A 
ATOM      7  C8  UNL d   1       3.717   0.646   0.118  0.00  0.00     0.006 A 
ENDROOT
BRANCH   1   8
ATOM      8  C1  UNL d   1       4.649  -1.570   0.882  0.00  0.00     0.054 C 
ATOM      9  C   UNL d   1       5.998  -0.893   1.079  0.00  0.00     0.018 C 
ENDBRANCH   1   8
TORSDOF 1
ENDMDL
