MODEL 1
REMARK minimizedAffinity 9.83351517
REMARK minimizedRMSD -1
REMARK  1 active torsions:
REMARK  status: ('A' for Active; 'I' for Inactive)
REMARK    1  A    between atoms: C1_2  and  C2_3 
ROOT
ATOM      1  C2  UNL d   1       1.980   0.204  -0.917  0.00  0.00    -0.081 A 
ATOM      2  C3  UNL d   1       0.880  -0.643  -1.102  0.00  0.00     0.006 A 
ATOM      3  C4  UNL d   1       0.832  -1.888  -0.470  0.00  0.00     0.002 A 
ATOM      4  C5  UNL d   1       1.877  -2.303   0.362  0.00  0.00    -0.080 A 
ATOM      5  C6  UNL d   1       1.823  -3.624   1.070  0.00  0.00     0.076 C 
ATOM      6  C7  UNL d   1       2.984  -1.464   0.532  0.00  0.00     0.002 A 
ATOM      7  C8  UNL d   1       3.033  -0.220  -0.099  0.00  0.00     0.006 A 
ENDROOT
BRANCH   1   8
ATOM      8  C1  UNL d   1       2.006   1.574  -1.545  0.00  0.00     0.054 C 
ATOM      9  C   UNL d   1       2.531   2.620  -0.571  0.00  0.00     0.018 C 
ENDBRANCH   1   8
TORSDOF 1
ENDMDL
