MODEL 1
REMARK minimizedAffinity 11.9937487
REMARK minimizedRMSD -1
REMARK  1 active torsions:
REMARK  status: ('A' for Active; 'I' for Inactive)
REMARK    1  A    between atoms: C1_2  and  C2_3 
ROOT
ATOM      1  C2  UNL d   1       0.763  -1.238   2.113  0.00  0.00    -0.081 A 
ATOM      2  C3  UNL d   1      -0.539  -1.749   2.041  0.00  0.00     0.006 A 
ATOM      3  C4  UNL d   1      -1.596  -1.086   2.670  0.00  0.00     0.002 A 
ATOM      4  C5  UNL d   1      -1.370   0.101   3.374  0.00  0.00    -0.080 A 
ATOM      5  C6  UNL d   1      -2.500   0.839   4.028  0.00  0.00     0.076 C 
ATOM      6  C7  UNL d   1      -0.066   0.602   3.461  0.00  0.00     0.002 A 
ATOM      7  C8  UNL d   1       0.990  -0.061   2.833  0.00  0.00     0.006 A 
ENDROOT
BRANCH   1   8
ATOM      8  C1  UNL d   1       1.893  -1.916   1.382  0.00  0.00     0.054 C 
ATOM      9  C   UNL d   1       1.968  -1.457  -0.068  0.00  0.00     0.018 C 
ENDBRANCH   1   8
TORSDOF 1
ENDMDL
