MODEL 1
REMARK minimizedAffinity 1.69534433
REMARK minimizedRMSD -1
REMARK  1 active torsions:
REMARK  status: ('A' for Active; 'I' for Inactive)
REMARK    1  A    between atoms: C1_2  and  C2_3 
ROOT
ATOM      1  C2  UNL d   1       0.960  -1.488   0.529  0.00  0.00    -0.081 A 
ATOM      2  C3  UNL d   1       2.274  -1.020   0.402  0.00  0.00     0.006 A 
ATOM      3  C4  UNL d   1       2.764  -0.617  -0.842  0.00  0.00     0.002 A 
ATOM      4  C5  UNL d   1       1.948  -0.668  -1.977  0.00  0.00    -0.080 A 
ATOM      5  C6  UNL d   1       2.453  -0.210  -3.313  0.00  0.00     0.076 C 
ATOM      6  C7  UNL d   1       0.641  -1.152  -1.853  0.00  0.00     0.002 A 
ATOM      7  C8  UNL d   1       0.151  -1.555  -0.610  0.00  0.00     0.006 A 
ENDROOT
BRANCH   1   8
ATOM      8  C1  UNL d   1       0.408  -1.862   1.881  0.00  0.00     0.054 C 
ATOM      9  C   UNL d   1       1.073  -1.062   2.992  0.00  0.00     0.018 C 
ENDBRANCH   1   8
TORSDOF 1
ENDMDL
