MODEL 1
REMARK minimizedAffinity 14.7786217
REMARK minimizedRMSD -1
REMARK  1 active torsions:
REMARK  status: ('A' for Active; 'I' for Inactive)
REMARK    1  A    between atoms: C1_2  and  C2_3 
ROOT
ATOM      1  C2  UNL d   1       1.908  -0.791   0.142  0.00  0.00    -0.081 A 
ATOM      2  C3  UNL d   1       1.602  -0.959  -1.214  0.00  0.00     0.006 A 
ATOM      3  C4  UNL d   1       1.901   0.045  -2.138  0.00  0.00     0.002 A 
ATOM      4  C5  UNL d   1       2.517   1.231  -1.722  0.00  0.00    -0.080 A 
ATOM      5  C6  UNL d   1       2.871   2.304  -2.708  0.00  0.00     0.076 C 
ATOM      6  C7  UNL d   1       2.807   1.406  -0.365  0.00  0.00     0.002 A 
ATOM      7  C8  UNL d   1       2.507   0.402   0.559  0.00  0.00     0.006 A 
ENDROOT
BRANCH   1   8
ATOM      8  C1  UNL d   1       1.646  -1.899   1.130  0.00  0.00     0.054 C 
ATOM      9  C   UNL d   1       0.372  -1.643   1.923  0.00  0.00     0.018 C 
ENDBRANCH   1   8
TORSDOF 1
ENDMDL
