MODEL 1
REMARK minimizedAffinity 0.579426289
REMARK minimizedRMSD -1
REMARK  0 active torsions:
REMARK  status: ('A' for Active; 'I' for Inactive)
ROOT
ATOM      1  C   UNL d   1      -1.278  -0.455   0.927  0.00  0.00     0.020 A 
ATOM      2  C1  UNL d   1      -0.376   0.384   1.579  0.00  0.00     0.020 A 
ATOM      3  C2  UNL d   1       0.989   0.087   1.567  0.00  0.00     0.034 A 
ATOM      4  C3  UNL d   1       1.454  -1.053   0.902  0.00  0.00     0.017 A 
ATOM      5  C4  UNL d   1       0.548  -1.895   0.247  0.00  0.00     0.017 A 
ATOM      6  C5  UNL d   1      -0.817  -1.592   0.263  0.00  0.00     0.034 A 
ATOM      7 Cl   UNL d   1       1.047  -3.319  -0.595  0.00  0.00    -0.070 Cl
ATOM      8 Cl1  UNL d   1       3.155  -1.360   0.927  0.00  0.00    -0.070 Cl
ENDROOT
TORSDOF 0
ENDMDL
