MODEL 1
REMARK minimizedAffinity -0.967115104
REMARK minimizedRMSD -1
REMARK  0 active torsions:
REMARK  status: ('A' for Active; 'I' for Inactive)
ROOT
ATOM      1  C   UNL d   1       1.614  -1.950  -0.283  0.00  0.00     0.020 A 
ATOM      2  C1  UNL d   1       0.309  -1.820  -0.757  0.00  0.00     0.020 A 
ATOM      3  C2  UNL d   1      -0.573  -0.931  -0.138  0.00  0.00     0.034 A 
ATOM      4  C3  UNL d   1      -0.151  -0.169   0.957  0.00  0.00     0.017 A 
ATOM      5  C4  UNL d   1       1.159  -0.300   1.432  0.00  0.00     0.017 A 
ATOM      6  C5  UNL d   1       2.038  -1.191   0.808  0.00  0.00     0.034 A 
ATOM      7 Cl   UNL d   1       1.752   0.607   2.778  0.00  0.00    -0.070 Cl
ATOM      8 Cl1  UNL d   1      -1.295   0.910   1.673  0.00  0.00    -0.070 Cl
ENDROOT
TORSDOF 0
ENDMDL
