MODEL 1
REMARK minimizedAffinity -3.66118574
REMARK minimizedRMSD -1
REMARK  0 active torsions:
REMARK  status: ('A' for Active; 'I' for Inactive)
ROOT
ATOM      1  C   UNL d   1      -0.880  -0.429   1.227  0.00  0.00     0.020 A 
ATOM      2  C1  UNL d   1      -1.390  -1.623   0.718  0.00  0.00     0.020 A 
ATOM      3  C2  UNL d   1      -0.521  -2.601   0.228  0.00  0.00     0.034 A 
ATOM      4  C3  UNL d   1       0.861  -2.385   0.244  0.00  0.00     0.017 A 
ATOM      5  C4  UNL d   1       1.372  -1.187   0.755  0.00  0.00     0.017 A 
ATOM      6  C5  UNL d   1       0.498  -0.212   1.245  0.00  0.00     0.034 A 
ATOM      7 Cl   UNL d   1       3.066  -0.849   0.808  0.00  0.00    -0.070 Cl
ATOM      8 Cl1  UNL d   1       1.877  -3.637  -0.378  0.00  0.00    -0.070 Cl
ENDROOT
TORSDOF 0
ENDMDL
