MODEL 1
REMARK minimizedAffinity 11.1298294
REMARK minimizedRMSD -1
REMARK  0 active torsions:
REMARK  status: ('A' for Active; 'I' for Inactive)
ROOT
ATOM      1  C   UNL d   1       1.508   1.962  -3.357  0.00  0.00     0.020 A 
ATOM      2  C1  UNL d   1       2.062   0.697  -3.554  0.00  0.00     0.020 A 
ATOM      3  C2  UNL d   1       3.384   0.449  -3.180  0.00  0.00     0.034 A 
ATOM      4  C3  UNL d   1       4.157   1.466  -2.607  0.00  0.00     0.017 A 
ATOM      5  C4  UNL d   1       3.599   2.735  -2.410  0.00  0.00     0.017 A 
ATOM      6  C5  UNL d   1       2.275   2.978  -2.787  0.00  0.00     0.034 A 
ATOM      7 Cl   UNL d   1       4.490   4.040  -1.710  0.00  0.00    -0.070 Cl
ATOM      8 Cl1  UNL d   1       5.784   1.088  -2.168  0.00  0.00    -0.070 Cl
ENDROOT
TORSDOF 0
ENDMDL
