MODEL 1
REMARK minimizedAffinity 2.93791771
REMARK minimizedRMSD -1
REMARK  0 active torsions:
REMARK  status: ('A' for Active; 'I' for Inactive)
ROOT
ATOM      1  C   UNL d   1      -1.294  -2.175   0.850  0.00  0.00     0.020 A 
ATOM      2  C1  UNL d   1      -0.964  -0.852   1.142  0.00  0.00     0.020 A 
ATOM      3  C2  UNL d   1       0.328  -0.384   0.895  0.00  0.00     0.034 A 
ATOM      4  C3  UNL d   1       1.295  -1.239   0.355  0.00  0.00     0.017 A 
ATOM      5  C4  UNL d   1       0.963  -2.567   0.063  0.00  0.00     0.017 A 
ATOM      6  C5  UNL d   1      -0.333  -3.030   0.312  0.00  0.00     0.034 A 
ATOM      7 Cl   UNL d   1       2.102  -3.682  -0.605  0.00  0.00    -0.070 Cl
ATOM      8 Cl1  UNL d   1       2.873  -0.593   0.076  0.00  0.00    -0.070 Cl
ENDROOT
TORSDOF 0
ENDMDL
