MODEL 1
REMARK minimizedAffinity -2.36440873
REMARK minimizedRMSD -1
REMARK  0 active torsions:
REMARK  status: ('A' for Active; 'I' for Inactive)
ROOT
ATOM      1  C   UNL d   1      -2.579  -0.307   0.980  0.00  0.00     0.020 A 
ATOM      2  C1  UNL d   1      -1.908   0.740   1.611  0.00  0.00     0.020 A 
ATOM      3  C2  UNL d   1      -0.514   0.731   1.686  0.00  0.00     0.034 A 
ATOM      4  C3  UNL d   1       0.214  -0.327   1.130  0.00  0.00     0.017 A 
ATOM      5  C4  UNL d   1      -0.460  -1.378   0.497  0.00  0.00     0.017 A 
ATOM      6  C5  UNL d   1      -1.856  -1.364   0.424  0.00  0.00     0.034 A 
ATOM      7 Cl   UNL d   1       0.370  -2.718  -0.213  0.00  0.00    -0.070 Cl
ATOM      8 Cl1  UNL d   1       1.937  -0.273   1.260  0.00  0.00    -0.070 Cl
ENDROOT
TORSDOF 0
ENDMDL
