MODEL 1
REMARK minimizedAffinity 2.76436853
REMARK minimizedRMSD -1
REMARK  0 active torsions:
REMARK  status: ('A' for Active; 'I' for Inactive)
ROOT
ATOM      1  C   UNL d   1      -1.176  -0.281   1.644  0.00  0.00     0.020 A 
ATOM      2  C1  UNL d   1      -1.929  -1.362   1.187  0.00  0.00     0.020 A 
ATOM      3  C2  UNL d   1      -1.309  -2.396   0.482  0.00  0.00     0.034 A 
ATOM      4  C3  UNL d   1       0.067  -2.351   0.232  0.00  0.00     0.017 A 
ATOM      5  C4  UNL d   1       0.822  -1.266   0.691  0.00  0.00     0.017 A 
ATOM      6  C5  UNL d   1       0.197  -0.234   1.397  0.00  0.00     0.034 A 
ATOM      7 Cl   UNL d   1       2.525  -1.141   0.421  0.00  0.00    -0.070 Cl
ATOM      8 Cl1  UNL d   1       0.768  -3.664  -0.646  0.00  0.00    -0.070 Cl
ENDROOT
TORSDOF 0
ENDMDL
