MODEL 1
REMARK minimizedAffinity 2.43177032
REMARK minimizedRMSD -1
REMARK  0 active torsions:
REMARK  status: ('A' for Active; 'I' for Inactive)
ROOT
ATOM      1  C   UNL d   1      -0.816  -2.097   0.611  0.00  0.00     0.020 A 
ATOM      2  C1  UNL d   1      -0.284  -2.976  -0.332  0.00  0.00     0.020 A 
ATOM      3  C2  UNL d   1       1.093  -3.004  -0.561  0.00  0.00     0.034 A 
ATOM      4  C3  UNL d   1       1.943  -2.151   0.153  0.00  0.00     0.017 A 
ATOM      5  C4  UNL d   1       1.408  -1.269   1.098  0.00  0.00     0.017 A 
ATOM      6  C5  UNL d   1       0.028  -1.245   1.324  0.00  0.00     0.034 A 
ATOM      7 Cl   UNL d   1       2.393  -0.187   2.018  0.00  0.00    -0.070 Cl
ATOM      8 Cl1  UNL d   1       3.636  -2.239  -0.182  0.00  0.00    -0.070 Cl
ENDROOT
TORSDOF 0
ENDMDL
