MODEL 1
REMARK minimizedAffinity 5.2185812
REMARK minimizedRMSD -1
REMARK  0 active torsions:
REMARK  status: ('A' for Active; 'I' for Inactive)
ROOT
ATOM      1  C   UNL d   1       0.863  -3.424  -0.607  0.00  0.00     0.020 A 
ATOM      2  C1  UNL d   1      -0.447  -3.228  -0.172  0.00  0.00     0.020 A 
ATOM      3  C2  UNL d   1      -0.731  -2.229   0.761  0.00  0.00     0.034 A 
ATOM      4  C3  UNL d   1       0.296  -1.422   1.262  0.00  0.00     0.017 A 
ATOM      5  C4  UNL d   1       1.611  -1.619   0.825  0.00  0.00     0.017 A 
ATOM      6  C5  UNL d   1       1.890  -2.621  -0.110  0.00  0.00     0.034 A 
ATOM      7 Cl   UNL d   1       2.932  -0.662   1.398  0.00  0.00    -0.070 Cl
ATOM      8 Cl1  UNL d   1      -0.127  -0.205   2.414  0.00  0.00    -0.070 Cl
ENDROOT
TORSDOF 0
ENDMDL
