MODEL 1
REMARK minimizedAffinity 2.40529799
REMARK minimizedRMSD -1
REMARK  0 active torsions:
REMARK  status: ('A' for Active; 'I' for Inactive)
ROOT
ATOM      1  C   UNL d   1       0.764   0.246   1.316  0.00  0.00     0.020 A 
ATOM      2  C1  UNL d   1       1.975  -0.215   0.799  0.00  0.00     0.020 A 
ATOM      3  C2  UNL d   1       2.025  -1.432   0.116  0.00  0.00     0.034 A 
ATOM      4  C3  UNL d   1       0.862  -2.192  -0.052  0.00  0.00     0.017 A 
ATOM      5  C4  UNL d   1      -0.353  -1.729   0.466  0.00  0.00     0.017 A 
ATOM      6  C5  UNL d   1      -0.397  -0.510   1.149  0.00  0.00     0.034 A 
ATOM      7 Cl   UNL d   1      -1.829  -2.612   0.298  0.00  0.00    -0.070 Cl
ATOM      8 Cl1  UNL d   1       0.997  -3.687  -0.908  0.00  0.00    -0.070 Cl
ENDROOT
TORSDOF 0
ENDMDL
