MODEL 1
REMARK minimizedAffinity -0.408677846
REMARK minimizedRMSD -1
REMARK  0 active torsions:
REMARK  status: ('A' for Active; 'I' for Inactive)
ROOT
ATOM      1  C   UNL d   1      -0.363  -0.414   1.207  0.00  0.00     0.020 A 
ATOM      2  C1  UNL d   1      -0.963  -1.670   1.296  0.00  0.00     0.020 A 
ATOM      3  C2  UNL d   1      -0.311  -2.794   0.786  0.00  0.00     0.034 A 
ATOM      4  C3  UNL d   1       0.946  -2.665   0.184  0.00  0.00     0.017 A 
ATOM      5  C4  UNL d   1       1.548  -1.404   0.095  0.00  0.00     0.017 A 
ATOM      6  C5  UNL d   1       0.890  -0.282   0.608  0.00  0.00     0.034 A 
ATOM      7 Cl   UNL d   1       3.097  -1.166  -0.634  0.00  0.00    -0.070 Cl
ATOM      8 Cl1  UNL d   1       1.696  -4.097  -0.426  0.00  0.00    -0.070 Cl
ENDROOT
TORSDOF 0
ENDMDL
