MODEL 1
REMARK minimizedAffinity -2.68018699
REMARK minimizedRMSD -1
REMARK  0 active torsions:
REMARK  status: ('A' for Active; 'I' for Inactive)
ROOT
ATOM      1  C   UNL d   1      -0.801  -1.476   0.314  0.00  0.00     0.020 A 
ATOM      2  C1  UNL d   1      -0.098  -0.326   0.670  0.00  0.00     0.020 A 
ATOM      3  C2  UNL d   1       1.298  -0.320   0.629  0.00  0.00     0.034 A 
ATOM      4  C3  UNL d   1       1.995  -1.467   0.231  0.00  0.00     0.017 A 
ATOM      5  C4  UNL d   1       1.288  -2.621  -0.127  0.00  0.00     0.017 A 
ATOM      6  C5  UNL d   1      -0.109  -2.621  -0.083  0.00  0.00     0.034 A 
ATOM      7 Cl   UNL d   1       2.079  -4.073  -0.628  0.00  0.00    -0.070 Cl
ATOM      8 Cl1  UNL d   1       3.721  -1.388   0.202  0.00  0.00    -0.070 Cl
ENDROOT
TORSDOF 0
ENDMDL
