MODEL 1
REMARK minimizedAffinity 2.96767235
REMARK minimizedRMSD -1
REMARK  0 active torsions:
REMARK  status: ('A' for Active; 'I' for Inactive)
ROOT
ATOM      1  C   UNL d   1      -0.790  -1.077   1.077  0.00  0.00     0.020 A 
ATOM      2  C1  UNL d   1       0.107  -0.142   1.594  0.00  0.00     0.020 A 
ATOM      3  C2  UNL d   1       1.469  -0.245   1.303  0.00  0.00     0.034 A 
ATOM      4  C3  UNL d   1       1.938  -1.287   0.495  0.00  0.00     0.017 A 
ATOM      5  C4  UNL d   1       1.038  -2.225  -0.023  0.00  0.00     0.017 A 
ATOM      6  C5  UNL d   1      -0.325  -2.116   0.271  0.00  0.00     0.034 A 
ATOM      7 Cl   UNL d   1       1.543  -3.537  -1.028  0.00  0.00    -0.070 Cl
ATOM      8 Cl1  UNL d   1       3.635  -1.354   0.177  0.00  0.00    -0.070 Cl
ENDROOT
TORSDOF 0
ENDMDL
