MODEL 1
REMARK minimizedAffinity 2.19691324
REMARK minimizedRMSD -1
REMARK  0 active torsions:
REMARK  status: ('A' for Active; 'I' for Inactive)
ROOT
ATOM      1  C   UNL d   1      -0.648  -1.190   0.866  0.00  0.00     0.020 A 
ATOM      2  C1  UNL d   1       0.312  -0.319   1.381  0.00  0.00     0.020 A 
ATOM      3  C2  UNL d   1       1.661  -0.506   1.072  0.00  0.00     0.034 A 
ATOM      4  C3  UNL d   1       2.054  -1.566   0.246  0.00  0.00     0.017 A 
ATOM      5  C4  UNL d   1       1.089  -2.439  -0.270  0.00  0.00     0.017 A 
ATOM      6  C5  UNL d   1      -0.260  -2.247   0.043  0.00  0.00     0.034 A 
ATOM      7 Cl   UNL d   1       1.497  -3.770  -1.295  0.00  0.00    -0.070 Cl
ATOM      8 Cl1  UNL d   1       3.739  -1.737  -0.095  0.00  0.00    -0.070 Cl
ENDROOT
TORSDOF 0
ENDMDL
