MODEL 1
REMARK minimizedAffinity 5.57563639
REMARK minimizedRMSD -1
REMARK  0 active torsions:
REMARK  status: ('A' for Active; 'I' for Inactive)
ROOT
ATOM      1  C   UNL d   1      -1.330  -0.931   1.398  0.00  0.00     0.020 A 
ATOM      2  C1  UNL d   1      -0.351  -0.170   2.036  0.00  0.00     0.020 A 
ATOM      3  C2  UNL d   1       0.905  -0.013   1.446  0.00  0.00     0.034 A 
ATOM      4  C3  UNL d   1       1.186  -0.619   0.216  0.00  0.00     0.017 A 
ATOM      5  C4  UNL d   1       0.203  -1.383  -0.423  0.00  0.00     0.017 A 
ATOM      6  C5  UNL d   1      -1.053  -1.536   0.172  0.00  0.00     0.034 A 
ATOM      7 Cl   UNL d   1       0.475  -2.160  -1.942  0.00  0.00    -0.070 Cl
ATOM      8 Cl1  UNL d   1       2.761  -0.382  -0.455  0.00  0.00    -0.070 Cl
ENDROOT
TORSDOF 0
ENDMDL
