MODEL 1
REMARK minimizedAffinity 5.76370239
REMARK minimizedRMSD -1
REMARK  0 active torsions:
REMARK  status: ('A' for Active; 'I' for Inactive)
ROOT
ATOM      1  C   UNL d   1       0.675  -0.389   1.604  0.00  0.00     0.020 A 
ATOM      2  C1  UNL d   1      -0.333  -1.249   1.170  0.00  0.00     0.020 A 
ATOM      3  C2  UNL d   1      -0.014  -2.359   0.384  0.00  0.00     0.034 A 
ATOM      4  C3  UNL d   1       1.317  -2.611   0.031  0.00  0.00     0.017 A 
ATOM      5  C4  UNL d   1       2.328  -1.748   0.467  0.00  0.00     0.017 A 
ATOM      6  C5  UNL d   1       2.003  -0.638   1.254  0.00  0.00     0.034 A 
ATOM      7 Cl   UNL d   1       3.992  -1.995   0.071  0.00  0.00    -0.070 Cl
ATOM      8 Cl1  UNL d   1       1.639  -4.002  -0.943  0.00  0.00    -0.070 Cl
ENDROOT
TORSDOF 0
ENDMDL
