MODEL 1
REMARK minimizedAffinity -4.49886465
REMARK minimizedRMSD -1
REMARK  0 active torsions:
REMARK  status: ('A' for Active; 'I' for Inactive)
ROOT
ATOM      1  C   UNL d   1      -0.520  -1.922   1.347  0.00  0.00     0.020 A 
ATOM      2  C1  UNL d   1      -1.298  -2.178   0.220  0.00  0.00     0.020 A 
ATOM      3  C2  UNL d   1      -2.266  -1.255  -0.185  0.00  0.00     0.034 A 
ATOM      4  C3  UNL d   1      -2.457  -0.073   0.539  0.00  0.00     0.017 A 
ATOM      5  C4  UNL d   1      -1.674   0.183   1.671  0.00  0.00     0.017 A 
ATOM      6  C5  UNL d   1      -0.707  -0.744   2.071  0.00  0.00     0.034 A 
ATOM      7 Cl   UNL d   1      -1.852   1.620   2.615  0.00  0.00    -0.070 Cl
ATOM      8 Cl1  UNL d   1      -3.671   1.023  -0.018  0.00  0.00    -0.070 Cl
ENDROOT
TORSDOF 0
ENDMDL
