MODEL 1
REMARK minimizedAffinity 1.90641618
REMARK minimizedRMSD -1
REMARK  0 active torsions:
REMARK  status: ('A' for Active; 'I' for Inactive)
ROOT
ATOM      1  C   UNL d   1      -2.695   1.121   2.662  0.00  0.00     0.020 A 
ATOM      2  C1  UNL d   1      -2.715   0.833   1.298  0.00  0.00     0.020 A 
ATOM      3  C2  UNL d   1      -1.773  -0.043   0.756  0.00  0.00     0.034 A 
ATOM      4  C3  UNL d   1      -0.807  -0.635   1.578  0.00  0.00     0.017 A 
ATOM      5  C4  UNL d   1      -0.788  -0.345   2.947  0.00  0.00     0.017 A 
ATOM      6  C5  UNL d   1      -1.734   0.533   3.485  0.00  0.00     0.034 A 
ATOM      7 Cl   UNL d   1       0.374  -1.036   4.025  0.00  0.00    -0.070 Cl
ATOM      8 Cl1  UNL d   1       0.327  -1.709   0.840  0.00  0.00    -0.070 Cl
ENDROOT
TORSDOF 0
ENDMDL
