MODEL 1
REMARK minimizedAffinity 10.3372078
REMARK minimizedRMSD -1
REMARK  0 active torsions:
REMARK  status: ('A' for Active; 'I' for Inactive)
ROOT
ATOM      1  C   UNL d   1       1.340   2.181  -3.678  0.00  0.00     0.020 A 
ATOM      2  C1  UNL d   1       1.591   0.843  -3.982  0.00  0.00     0.020 A 
ATOM      3  C2  UNL d   1       2.840   0.286  -3.700  0.00  0.00     0.034 A 
ATOM      4  C3  UNL d   1       3.842   1.065  -3.112  0.00  0.00     0.017 A 
ATOM      5  C4  UNL d   1       3.590   2.408  -2.807  0.00  0.00     0.017 A 
ATOM      6  C5  UNL d   1       2.337   2.961  -3.092  0.00  0.00     0.034 A 
ATOM      7 Cl   UNL d   1       4.777   3.433  -2.081  0.00  0.00    -0.070 Cl
ATOM      8 Cl1  UNL d   1       5.363   0.310  -2.791  0.00  0.00    -0.070 Cl
ENDROOT
TORSDOF 0
ENDMDL
