MODEL 1
REMARK minimizedAffinity -1.25669229
REMARK minimizedRMSD -1
REMARK  0 active torsions:
REMARK  status: ('A' for Active; 'I' for Inactive)
ROOT
ATOM      1  C   UNL d   1      -1.757  -1.528   0.740  0.00  0.00     0.020 A 
ATOM      2  C1  UNL d   1      -1.316  -0.324   1.288  0.00  0.00     0.020 A 
ATOM      3  C2  UNL d   1       0.049  -0.028   1.313  0.00  0.00     0.034 A 
ATOM      4  C3  UNL d   1       0.976  -0.936   0.790  0.00  0.00     0.017 A 
ATOM      5  C4  UNL d   1       0.532  -2.144   0.240  0.00  0.00     0.017 A 
ATOM      6  C5  UNL d   1      -0.835  -2.436   0.218  0.00  0.00     0.034 A 
ATOM      7 Cl   UNL d   1       1.617  -3.314  -0.424  0.00  0.00    -0.070 Cl
ATOM      8 Cl1  UNL d   1       2.648  -0.503   0.854  0.00  0.00    -0.070 Cl
ENDROOT
TORSDOF 0
ENDMDL
