MODEL 1
REMARK minimizedAffinity -4.4640007
REMARK minimizedRMSD -1
REMARK  0 active torsions:
REMARK  status: ('A' for Active; 'I' for Inactive)
ROOT
ATOM      1  C1  DEN d   1      -0.398   1.077  -1.458  0.00  0.00     0.130 A 
ATOM      2  C2  DEN d   1       0.551  -0.030  -1.545  0.00  0.00    -0.031 A 
ATOM      3  C3  DEN d   1       0.696  -0.614  -0.196  0.00  0.00     0.027 A 
ATOM      4  C4  DEN d   1      -0.453   0.082   2.006  0.00  0.00     0.027 A 
ATOM      5  C5  DEN d   1      -1.331   0.974   2.580  0.00  0.00    -0.003 A 
ATOM      6  C6  DEN d   1      -1.929   1.975   1.862  0.00  0.00     0.001 A 
ATOM      7  C7  DEN d   1      -1.691   2.082   0.517  0.00  0.00     0.017 A 
ATOM      8  C8  DEN d   1      -0.801   1.191  -0.068  0.00  0.00    -0.094 A 
ATOM      9  C9  DEN d   1      -0.216   0.177   0.673  0.00  0.00    -0.072 A 
ENDROOT
TORSDOF 0
ENDMDL
