MODEL 1
REMARK minimizedAffinity 2.0390451
REMARK minimizedRMSD -1
REMARK  0 active torsions:
REMARK  status: ('A' for Active; 'I' for Inactive)
ROOT
ATOM      1  C1  DEN d   1      -1.022   0.814   2.334  0.00  0.00     0.130 A 
ATOM      2  C2  DEN d   1      -1.151   2.268   2.311  0.00  0.00    -0.031 A 
ATOM      3  C3  DEN d   1      -0.425   2.773   1.129  0.00  0.00     0.027 A 
ATOM      4  C4  DEN d   1       0.878   1.450  -0.661  0.00  0.00     0.027 A 
ATOM      5  C5  DEN d   1       1.278   0.194  -1.059  0.00  0.00    -0.003 A 
ATOM      6  C6  DEN d   1       0.971  -0.932  -0.342  0.00  0.00     0.001 A 
ATOM      7  C7  DEN d   1       0.204  -0.827   0.789  0.00  0.00     0.017 A 
ATOM      8  C8  DEN d   1      -0.197   0.437   1.200  0.00  0.00    -0.094 A 
ATOM      9  C9  DEN d   1       0.114   1.561   0.454  0.00  0.00    -0.072 A 
ENDROOT
TORSDOF 0
ENDMDL
