MODEL 1
REMARK minimizedAffinity -4.87107229
REMARK minimizedRMSD -1
REMARK  0 active torsions:
REMARK  status: ('A' for Active; 'I' for Inactive)
ROOT
ATOM      1  C1  DEN d   1      -1.862   2.200   0.424  0.00  0.00     0.130 A 
ATOM      2  C2  DEN d   1      -1.884   2.568   1.837  0.00  0.00    -0.031 A 
ATOM      3  C3  DEN d   1      -1.069   1.585   2.579  0.00  0.00     0.027 A 
ATOM      4  C4  DEN d   1       0.221  -0.460   1.680  0.00  0.00     0.027 A 
ATOM      5  C5  DEN d   1       0.528  -1.185   0.550  0.00  0.00    -0.003 A 
ATOM      6  C6  DEN d   1       0.036  -0.857  -0.685  0.00  0.00     0.001 A 
ATOM      7  C7  DEN d   1      -0.753   0.254  -0.828  0.00  0.00     0.017 A 
ATOM      8  C8  DEN d   1      -1.073   0.986   0.308  0.00  0.00    -0.094 A 
ATOM      9  C9  DEN d   1      -0.556   0.645   1.546  0.00  0.00    -0.072 A 
ENDROOT
TORSDOF 0
ENDMDL
