MODEL 1
REMARK minimizedAffinity -5.71371365
REMARK minimizedRMSD -1
REMARK  0 active torsions:
REMARK  status: ('A' for Active; 'I' for Inactive)
ROOT
ATOM      1  C1  DEN d   1      -1.876   2.137   0.576  0.00  0.00     0.130 A 
ATOM      2  C2  DEN d   1      -2.667   1.056   1.157  0.00  0.00    -0.031 A 
ATOM      3  C3  DEN d   1      -1.902  -0.199   1.011  0.00  0.00     0.027 A 
ATOM      4  C4  DEN d   1       0.420  -0.569  -0.048  0.00  0.00     0.027 A 
ATOM      5  C5  DEN d   1       1.474   0.047  -0.686  0.00  0.00    -0.003 A 
ATOM      6  C6  DEN d   1       1.471   1.386  -0.975  0.00  0.00     0.001 A 
ATOM      7  C7  DEN d   1       0.411   2.162  -0.586  0.00  0.00     0.017 A 
ATOM      8  C8  DEN d   1      -0.659   1.546   0.050  0.00  0.00    -0.094 A 
ATOM      9  C9  DEN d   1      -0.631   0.194   0.345  0.00  0.00    -0.072 A 
ENDROOT
TORSDOF 0
ENDMDL
