MODEL 1
REMARK minimizedAffinity -5.79252434
REMARK minimizedRMSD -1
REMARK  0 active torsions:
REMARK  status: ('A' for Active; 'I' for Inactive)
ROOT
ATOM      1  C1  DEN d   1      -0.226  -0.425   0.748  0.00  0.00     0.130 A 
ATOM      2  C2  DEN d   1       0.913  -0.393  -0.165  0.00  0.00    -0.031 A 
ATOM      3  C3  DEN d   1       1.055   0.988  -0.669  0.00  0.00     0.027 A 
ATOM      4  C4  DEN d   1      -0.366   3.070  -0.122  0.00  0.00     0.027 A 
ATOM      5  C5  DEN d   1      -1.449   3.534   0.592  0.00  0.00    -0.003 A 
ATOM      6  C6  DEN d   1      -2.214   2.711   1.375  0.00  0.00     0.001 A 
ATOM      7  C7  DEN d   1      -1.880   1.388   1.499  0.00  0.00     0.017 A 
ATOM      8  C8  DEN d   1      -0.794   0.911   0.776  0.00  0.00    -0.094 A 
ATOM      9  C9  DEN d   1      -0.026   1.762  -0.001  0.00  0.00    -0.072 A 
ENDROOT
TORSDOF 0
ENDMDL
