MODEL 1
REMARK minimizedAffinity -4.1150589
REMARK minimizedRMSD -1
REMARK  0 active torsions:
REMARK  status: ('A' for Active; 'I' for Inactive)
ROOT
ATOM      1  C1  DEN d   1      -1.690   2.103   0.126  0.00  0.00     0.130 A 
ATOM      2  C2  DEN d   1      -1.893   2.474   1.524  0.00  0.00    -0.031 A 
ATOM      3  C3  DEN d   1      -1.222   1.463   2.366  0.00  0.00     0.027 A 
ATOM      4  C4  DEN d   1       0.108  -0.626   1.645  0.00  0.00     0.027 A 
ATOM      5  C5  DEN d   1       0.542  -1.363   0.565  0.00  0.00    -0.003 A 
ATOM      6  C6  DEN d   1       0.236  -1.018  -0.725  0.00  0.00     0.001 A 
ATOM      7  C7  DEN d   1      -0.488   0.119  -0.970  0.00  0.00     0.017 A 
ATOM      8  C8  DEN d   1      -0.935   0.863   0.114  0.00  0.00    -0.094 A 
ATOM      9  C9  DEN d   1      -0.605   0.505   1.410  0.00  0.00    -0.072 A 
ENDROOT
TORSDOF 0
ENDMDL
