MODEL 1
REMARK minimizedAffinity -1.5201087
REMARK minimizedRMSD -1
REMARK  0 active torsions:
REMARK  status: ('A' for Active; 'I' for Inactive)
ROOT
ATOM      1  C1  DEN d   1      -1.093   0.117   2.424  0.00  0.00     0.130 A 
ATOM      2  C2  DEN d   1      -1.313   1.538   2.679  0.00  0.00    -0.031 A 
ATOM      3  C3  DEN d   1      -0.717   2.300   1.563  0.00  0.00     0.027 A 
ATOM      4  C4  DEN d   1       0.516   1.422  -0.525  0.00  0.00     0.027 A 
ATOM      5  C5  DEN d   1       0.959   0.291  -1.174  0.00  0.00    -0.003 A 
ATOM      6  C6  DEN d   1       0.781  -0.965  -0.657  0.00  0.00     0.001 A 
ATOM      7  C7  DEN d   1       0.103  -1.123   0.523  0.00  0.00     0.017 A 
ATOM      8  C8  DEN d   1      -0.340   0.013   1.187  0.00  0.00    -0.094 A 
ATOM      9  C9  DEN d   1      -0.161   1.273   0.641  0.00  0.00    -0.072 A 
ENDROOT
TORSDOF 0
ENDMDL
