MODEL 1
REMARK minimizedAffinity -5.55027819
REMARK minimizedRMSD -1
REMARK  0 active torsions:
REMARK  status: ('A' for Active; 'I' for Inactive)
ROOT
ATOM      1  C1  DEN d   1      -1.469   3.026   1.141  0.00  0.00     0.130 A 
ATOM      2  C2  DEN d   1      -1.301   3.443  -0.248  0.00  0.00    -0.031 A 
ATOM      3  C3  DEN d   1      -0.654   2.338  -0.982  0.00  0.00     0.027 A 
ATOM      4  C4  DEN d   1       0.096   0.030  -0.108  0.00  0.00     0.027 A 
ATOM      5  C5  DEN d   1       0.172  -0.779   1.005  0.00  0.00    -0.003 A 
ATOM      6  C6  DEN d   1      -0.258  -0.366   2.238  0.00  0.00     0.001 A 
ATOM      7  C7  DEN d   1      -0.827   0.872   2.379  0.00  0.00     0.017 A 
ATOM      8  C8  DEN d   1      -0.901   1.696   1.264  0.00  0.00    -0.094 A 
ATOM      9  C9  DEN d   1      -0.471   1.256   0.023  0.00  0.00    -0.072 A 
ENDROOT
TORSDOF 0
ENDMDL
