MODEL 1
REMARK minimizedAffinity -5.19437456
REMARK minimizedRMSD -1
REMARK  0 active torsions:
REMARK  status: ('A' for Active; 'I' for Inactive)
ROOT
ATOM      1  C1  DEN d   1      -0.177  -0.421   1.226  0.00  0.00     0.130 A 
ATOM      2  C2  DEN d   1       0.581  -0.775   0.029  0.00  0.00    -0.031 A 
ATOM      3  C3  DEN d   1       0.531   0.372  -0.899  0.00  0.00     0.027 A 
ATOM      4  C4  DEN d   1      -0.636   2.653  -0.598  0.00  0.00     0.027 A 
ATOM      5  C5  DEN d   1      -1.413   3.413   0.248  0.00  0.00    -0.003 A 
ATOM      6  C6  DEN d   1      -1.858   2.940   1.454  0.00  0.00     0.001 A 
ATOM      7  C7  DEN d   1      -1.490   1.687   1.869  0.00  0.00     0.017 A 
ATOM      8  C8  DEN d   1      -0.713   0.912   1.018  0.00  0.00    -0.094 A 
ATOM      9  C9  DEN d   1      -0.264   1.413  -0.192  0.00  0.00    -0.072 A 
ENDROOT
TORSDOF 0
ENDMDL
