MODEL 1
REMARK minimizedAffinity -2.885921
REMARK minimizedRMSD -1
REMARK  0 active torsions:
REMARK  status: ('A' for Active; 'I' for Inactive)
ROOT
ATOM      1  C1  DEN d   1      -0.278  -0.980   1.059  0.00  0.00     0.130 A 
ATOM      2  C2  DEN d   1       0.509  -1.305  -0.128  0.00  0.00    -0.031 A 
ATOM      3  C3  DEN d   1       0.724  -0.057  -0.888  0.00  0.00     0.027 A 
ATOM      4  C4  DEN d   1      -0.077   2.334  -0.343  0.00  0.00     0.027 A 
ATOM      5  C5  DEN d   1      -0.787   3.103   0.552  0.00  0.00    -0.003 A 
ATOM      6  C6  DEN d   1      -1.401   2.564   1.652  0.00  0.00     0.001 A 
ATOM      7  C7  DEN d   1      -1.278   1.224   1.909  0.00  0.00     0.017 A 
ATOM      8  C8  DEN d   1      -0.570   0.441   1.008  0.00  0.00    -0.094 A 
ATOM      9  C9  DEN d   1       0.054   1.006  -0.092  0.00  0.00    -0.072 A 
ENDROOT
TORSDOF 0
ENDMDL
