MODEL 1
REMARK minimizedAffinity -4.46694756
REMARK minimizedRMSD -1
REMARK  0 active torsions:
REMARK  status: ('A' for Active; 'I' for Inactive)
ROOT
ATOM      1  C1  DEN d   1      -0.328  -0.619   0.598  0.00  0.00     0.130 A 
ATOM      2  C2  DEN d   1       0.329  -0.780  -0.696  0.00  0.00    -0.031 A 
ATOM      3  C3  DEN d   1       0.571   0.565  -1.256  0.00  0.00     0.027 A 
ATOM      4  C4  DEN d   1      -0.002   2.869  -0.249  0.00  0.00     0.027 A 
ATOM      5  C5  DEN d   1      -0.575   3.513   0.825  0.00  0.00    -0.003 A 
ATOM      6  C6  DEN d   1      -1.132   2.831   1.874  0.00  0.00     0.001 A 
ATOM      7  C7  DEN d   1      -1.088   1.462   1.893  0.00  0.00     0.017 A 
ATOM      8  C8  DEN d   1      -0.518   0.805   0.810  0.00  0.00    -0.094 A 
ATOM      9  C9  DEN d   1       0.051   1.513  -0.235  0.00  0.00    -0.072 A 
ENDROOT
TORSDOF 0
ENDMDL
