MODEL 1
REMARK minimizedAffinity -3.55358458
REMARK minimizedRMSD -1
REMARK  1 active torsions:
REMARK  status: ('A' for Active; 'I' for Inactive)
REMARK    1  A    between atoms: C1_2  and  C2_3 
ROOT
ATOM      1  C2  UNL d   1      -0.030  -0.128  -4.971  0.00  0.00    -0.077 A 
ATOM      2  C3  UNL d   1       0.384  -1.140  -4.094  0.00  0.00     0.002 A 
ATOM      3  C4  UNL d   1       1.344  -0.877  -3.115  0.00  0.00     0.002 A 
ATOM      4  C5  UNL d   1       1.893   0.398  -3.000  0.00  0.00    -0.004 A 
ATOM      5  C6  UNL d   1       1.489   1.411  -3.868  0.00  0.00     0.002 A 
ATOM      6  C7  UNL d   1       0.531   1.150  -4.848  0.00  0.00     0.002 A 
ENDROOT
BRANCH   1   7
ATOM      7  C1  UNL d   1      -1.101  -0.396  -5.996  0.00  0.00     0.055 C 
ATOM      8  C   UNL d   1      -1.508  -1.862  -6.000  0.00  0.00     0.019 C 
ENDBRANCH   1   7
TORSDOF 1
ENDMDL
