MODEL 1
REMARK minimizedAffinity -4.78398561
REMARK minimizedRMSD -1
REMARK  1 active torsions:
REMARK  status: ('A' for Active; 'I' for Inactive)
REMARK    1  A    between atoms: C1_2  and  C2_3 
ROOT
ATOM      1  C2  UNL d   1      -0.448  -0.344  -4.978  0.00  0.00    -0.077 A 
ATOM      2  C3  UNL d   1      -0.642  -0.850  -3.685  0.00  0.00     0.002 A 
ATOM      3  C4  UNL d   1       0.367  -0.742  -2.726  0.00  0.00     0.002 A 
ATOM      4  C5  UNL d   1       1.574  -0.126  -3.048  0.00  0.00    -0.004 A 
ATOM      5  C6  UNL d   1       1.778   0.378  -4.332  0.00  0.00     0.002 A 
ATOM      6  C7  UNL d   1       0.771   0.271  -5.292  0.00  0.00     0.002 A 
ENDROOT
BRANCH   1   7
ATOM      7  C1  UNL d   1      -1.552  -0.414  -6.000  0.00  0.00     0.055 C 
ATOM      8  C   UNL d   1      -2.220  -1.782  -5.999  0.00  0.00     0.019 C 
ENDBRANCH   1   7
TORSDOF 1
ENDMDL
