MODEL 1
REMARK minimizedAffinity -3.55861068
REMARK minimizedRMSD -1
REMARK  1 active torsions:
REMARK  status: ('A' for Active; 'I' for Inactive)
REMARK    1  A    between atoms: C1_2  and  C2_3 
ROOT
ATOM      1  C2  UNL d   1      -0.220  -0.126  -4.675  0.00  0.00    -0.077 A 
ATOM      2  C3  UNL d   1       0.986   0.537  -4.944  0.00  0.00     0.002 A 
ATOM      3  C4  UNL d   1       1.975   0.630  -3.963  0.00  0.00     0.002 A 
ATOM      4  C5  UNL d   1       1.771   0.057  -2.709  0.00  0.00    -0.004 A 
ATOM      5  C6  UNL d   1       0.575  -0.603  -2.431  0.00  0.00     0.002 A 
ATOM      6  C7  UNL d   1      -0.416  -0.695  -3.410  0.00  0.00     0.002 A 
ENDROOT
BRANCH   1   7
ATOM      7  C1  UNL d   1      -1.268  -0.269  -5.747  0.00  0.00     0.055 C 
ATOM      8  C   UNL d   1      -1.606  -1.731  -5.999  0.00  0.00     0.019 C 
ENDBRANCH   1   7
TORSDOF 1
ENDMDL
