MODEL 1
REMARK minimizedAffinity -2.78541541
REMARK minimizedRMSD -1
REMARK  1 active torsions:
REMARK  status: ('A' for Active; 'I' for Inactive)
REMARK    1  A    between atoms: C1_2  and  C2_3 
ROOT
ATOM      1  C2  UNL d   1       0.571  -0.329  -1.894  0.00  0.00    -0.077 A 
ATOM      2  C3  UNL d   1       1.018  -1.270  -0.956  0.00  0.00     0.002 A 
ATOM      3  C4  UNL d   1       0.802  -1.064   0.408  0.00  0.00     0.002 A 
ATOM      4  C5  UNL d   1       0.135   0.078   0.846  0.00  0.00    -0.004 A 
ATOM      5  C6  UNL d   1      -0.311   1.021  -0.080  0.00  0.00     0.002 A 
ATOM      6  C7  UNL d   1      -0.095   0.818  -1.443  0.00  0.00     0.002 A 
ENDROOT
BRANCH   1   7
ATOM      7  C1  UNL d   1       0.760  -0.572  -3.369  0.00  0.00     0.055 C 
ATOM      8  C   UNL d   1       1.866   0.304  -3.937  0.00  0.00     0.019 C 
ENDBRANCH   1   7
TORSDOF 1
ENDMDL
