MODEL 1
REMARK minimizedAffinity -3.62946606
REMARK minimizedRMSD -1
REMARK  1 active torsions:
REMARK  status: ('A' for Active; 'I' for Inactive)
REMARK    1  A    between atoms: C1_2  and  C2_3 
ROOT
ATOM      1  C2  UNL d   1       0.162   0.114   1.335  0.00  0.00    -0.077 A 
ATOM      2  C3  UNL d   1      -0.846   0.644   2.153  0.00  0.00     0.002 A 
ATOM      3  C4  UNL d   1      -2.152   0.768   1.674  0.00  0.00     0.002 A 
ATOM      4  C5  UNL d   1      -2.462   0.360   0.378  0.00  0.00    -0.004 A 
ATOM      5  C6  UNL d   1      -1.466  -0.167  -0.443  0.00  0.00     0.002 A 
ATOM      6  C7  UNL d   1      -0.160  -0.290   0.033  0.00  0.00     0.002 A 
ENDROOT
BRANCH   1   7
ATOM      7  C1  UNL d   1       1.560  -0.066   1.867  0.00  0.00     0.055 C 
ATOM      8  C   UNL d   1       2.363  -1.024   0.999  0.00  0.00     0.019 C 
ENDBRANCH   1   7
TORSDOF 1
ENDMDL
