MODEL 1
REMARK minimizedAffinity -1.47223711
REMARK minimizedRMSD -1
REMARK  0 active torsions:
REMARK  status: ('A' for Active; 'I' for Inactive)
ROOT
ATOM      1  O1  BZF d   1       0.474  -2.268   3.703  0.00  0.00    -0.204 OA
ATOM      2  C2  BZF d   1       0.042  -1.335   2.781  0.00  0.00     0.174 A 
ATOM      3  C3  BZF d   1       0.719  -0.176   2.920  0.00  0.00    -0.012 A 
ATOM      4  C3A BZF d   1       1.694  -0.430   3.935  0.00  0.00    -0.107 A 
ATOM      5  C4  BZF d   1       2.675   0.330   4.505  0.00  0.00     0.055 A 
ATOM      6  C5  BZF d   1       3.409  -0.193   5.523  0.00  0.00    -0.016 A 
ATOM      7  C6  BZF d   1       3.185  -1.469   5.998  0.00  0.00     0.022 A 
ATOM      8  C7  BZF d   1       2.226  -2.262   5.461  0.00  0.00     0.029 A 
ATOM      9  C7A BZF d   1       1.506  -1.748   4.411  0.00  0.00     0.058 A 
ENDROOT
TORSDOF 0
ENDMDL
