MODEL 1
REMARK minimizedAffinity 0.810014188
REMARK minimizedRMSD -1
REMARK  0 active torsions:
REMARK  status: ('A' for Active; 'I' for Inactive)
ROOT
ATOM      1  O1  BZF d   1       0.363  -1.091   1.527  0.00  0.00    -0.204 OA
ATOM      2  C2  BZF d   1       0.644  -0.716   2.827  0.00  0.00     0.174 A 
ATOM      3  C3  BZF d   1      -0.343   0.055   3.326  0.00  0.00    -0.012 A 
ATOM      4  C3A BZF d   1      -1.344   0.093   2.304  0.00  0.00    -0.107 A 
ATOM      5  C4  BZF d   1      -2.571   0.687   2.213  0.00  0.00     0.055 A 
ATOM      6  C5  BZF d   1      -3.266   0.591   1.050  0.00  0.00    -0.016 A 
ATOM      7  C6  BZF d   1      -2.764  -0.086  -0.042  0.00  0.00     0.022 A 
ATOM      8  C7  BZF d   1      -1.555  -0.696   0.002  0.00  0.00     0.029 A 
ATOM      9  C7A BZF d   1      -0.864  -0.628   1.187  0.00  0.00     0.058 A 
ENDROOT
TORSDOF 0
ENDMDL
