MODEL 1
REMARK minimizedAffinity -3.63513517
REMARK minimizedRMSD -1
REMARK  0 active torsions:
REMARK  status: ('A' for Active; 'I' for Inactive)
ROOT
ATOM      1  O1  BZF d   1      -1.187   0.959   1.432  0.00  0.00    -0.204 OA
ATOM      2  C2  BZF d   1      -2.507   1.011   1.837  0.00  0.00     0.174 A 
ATOM      3  C3  BZF d   1      -3.253   0.122   1.150  0.00  0.00    -0.012 A 
ATOM      4  C3A BZF d   1      -2.326  -0.590   0.325  0.00  0.00    -0.107 A 
ATOM      5  C4  BZF d   1      -2.459  -1.610  -0.574  0.00  0.00     0.055 A 
ATOM      6  C5  BZF d   1      -1.366  -2.027  -1.265  0.00  0.00    -0.016 A 
ATOM      7  C6  BZF d   1      -0.128  -1.445  -1.088  0.00  0.00     0.022 A 
ATOM      8  C7  BZF d   1       0.054  -0.433  -0.204  0.00  0.00     0.029 A 
ATOM      9  C7A BZF d   1      -1.041  -0.032   0.520  0.00  0.00     0.058 A 
ENDROOT
TORSDOF 0
ENDMDL
