MODEL 1
REMARK minimizedAffinity 9.11368752
REMARK minimizedRMSD -1
REMARK  0 active torsions:
REMARK  status: ('A' for Active; 'I' for Inactive)
ROOT
ATOM      1  O1  BZF d   1       2.497  -0.314  -5.465  0.00  0.00    -0.204 OA
ATOM      2  C2  BZF d   1       3.279  -0.945  -4.517  0.00  0.00     0.174 A 
ATOM      3  C3  BZF d   1       2.522  -1.711  -3.705  0.00  0.00    -0.012 A 
ATOM      4  C3A BZF d   1       1.195  -1.621  -4.233  0.00  0.00    -0.107 A 
ATOM      5  C4  BZF d   1       0.001  -2.175  -3.869  0.00  0.00     0.055 A 
ATOM      6  C5  BZF d   1      -1.123  -1.826  -4.549  0.00  0.00    -0.016 A 
ATOM      7  C6  BZF d   1      -1.089  -0.925  -5.593  0.00  0.00     0.022 A 
ATOM      8  C7  BZF d   1       0.073  -0.354  -5.994  0.00  0.00     0.029 A 
ATOM      9  C7A BZF d   1       1.215  -0.729  -5.329  0.00  0.00     0.058 A 
ENDROOT
TORSDOF 0
ENDMDL
