MODEL 1
REMARK minimizedAffinity -1.01145554
REMARK minimizedRMSD -1
REMARK  0 active torsions:
REMARK  status: ('A' for Active; 'I' for Inactive)
ROOT
ATOM      1  O1  BZF d   1      -2.238   1.230   2.945  0.00  0.00    -0.204 OA
ATOM      2  C2  BZF d   1      -1.083   0.716   3.504  0.00  0.00     0.174 A 
ATOM      3  C3  BZF d   1      -0.655  -0.360   2.813  0.00  0.00    -0.012 A 
ATOM      4  C3A BZF d   1      -1.549  -0.474   1.702  0.00  0.00    -0.107 A 
ATOM      5  C4  BZF d   1      -1.631  -1.339   0.649  0.00  0.00     0.055 A 
ATOM      6  C5  BZF d   1      -2.667  -1.222  -0.223  0.00  0.00    -0.016 A 
ATOM      7  C6  BZF d   1      -3.640  -0.256  -0.069  0.00  0.00     0.022 A 
ATOM      8  C7  BZF d   1      -3.598   0.628   0.958  0.00  0.00     0.029 A 
ATOM      9  C7A BZF d   1      -2.534   0.533   1.822  0.00  0.00     0.058 A 
ENDROOT
TORSDOF 0
ENDMDL
