MODEL 1
REMARK minimizedAffinity -4.41772032
REMARK minimizedRMSD -1
REMARK  1 active torsions:
REMARK  status: ('A' for Active; 'I' for Inactive)
REMARK    1  A    between atoms: C1_2  and  C2_3 
ROOT
ATOM      1  C2  UNL d   1       0.054   0.247   0.230  0.00  0.00    -0.076 A 
ATOM      2  C3  UNL d   1       1.102   0.681   1.061  0.00  0.00     0.004 A 
ATOM      3  C4  UNL d   1       0.841   1.249   2.307  0.00  0.00    -0.003 A 
ATOM      4  C5  UNL d   1      -0.472   1.392   2.743  0.00  0.00     0.000 A 
ATOM      5  C6  UNL d   1      -1.522   0.950   1.939  0.00  0.00     0.000 A 
ATOM      6  C7  UNL d   1      -1.276   0.360   0.688  0.00  0.00    -0.073 A 
ATOM      7  C8  UNL d   1      -2.448  -0.092  -0.140  0.00  0.00     0.078 C 
ENDROOT
BRANCH   1   8
ATOM      8  C1  UNL d   1       0.396  -0.337  -1.122  0.00  0.00     0.053 C 
ATOM      9  C   UNL d   1       1.252  -1.589  -1.016  0.00  0.00     0.018 C 
ENDBRANCH   1   8
TORSDOF 1
ENDMDL
