MODEL 1
REMARK minimizedAffinity 6.5269742
REMARK minimizedRMSD -1
REMARK  1 active torsions:
REMARK  status: ('A' for Active; 'I' for Inactive)
REMARK    1  A    between atoms: C1_2  and  C2_3 
ROOT
ATOM      1  C2  UNL d   1       0.139  -0.408   1.135  0.00  0.00    -0.076 A 
ATOM      2  C3  UNL d   1      -0.209  -0.327   2.495  0.00  0.00     0.004 A 
ATOM      3  C4  UNL d   1      -1.535  -0.155   2.887  0.00  0.00    -0.003 A 
ATOM      4  C5  UNL d   1      -2.535  -0.061   1.926  0.00  0.00     0.000 A 
ATOM      5  C6  UNL d   1      -2.211  -0.157   0.574  0.00  0.00     0.000 A 
ATOM      6  C7  UNL d   1      -0.881  -0.347   0.162  0.00  0.00    -0.073 A 
ATOM      7  C8  UNL d   1      -0.587  -0.438  -1.311  0.00  0.00     0.078 C 
ENDROOT
BRANCH   1   8
ATOM      8  C1  UNL d   1       1.597  -0.568   0.769  0.00  0.00     0.053 C 
ATOM      9  C   UNL d   1       2.526  -0.288   1.940  0.00  0.00     0.018 C 
ENDBRANCH   1   8
TORSDOF 1
ENDMDL
