MODEL 1
REMARK minimizedAffinity -3.78886843
REMARK minimizedRMSD -1
REMARK  1 active torsions:
REMARK  status: ('A' for Active; 'I' for Inactive)
REMARK    1  A    between atoms: C1_2  and  C2_3 
ROOT
ATOM      1  C2  UNL d   1      -0.181   0.161   1.059  0.00  0.00    -0.076 A 
ATOM      2  C3  UNL d   1      -0.987   1.088   1.742  0.00  0.00     0.004 A 
ATOM      3  C4  UNL d   1      -0.467   1.868   2.774  0.00  0.00    -0.003 A 
ATOM      4  C5  UNL d   1       0.868   1.733   3.139  0.00  0.00     0.000 A 
ATOM      5  C6  UNL d   1       1.687   0.831   2.460  0.00  0.00     0.000 A 
ATOM      6  C7  UNL d   1       1.182   0.049   1.407  0.00  0.00    -0.073 A 
ATOM      7  C8  UNL d   1       2.108  -0.912   0.713  0.00  0.00     0.078 C 
ENDROOT
BRANCH   1   8
ATOM      8  C1  UNL d   1      -0.807  -0.676  -0.033  0.00  0.00     0.053 C 
ATOM      9  C   UNL d   1      -2.327  -0.612  -0.018  0.00  0.00     0.018 C 
ENDBRANCH   1   8
TORSDOF 1
ENDMDL
