MODEL 1
REMARK minimizedAffinity -4.59275055
REMARK minimizedRMSD -1
REMARK  1 active torsions:
REMARK  status: ('A' for Active; 'I' for Inactive)
REMARK    1  A    between atoms: C1_2  and  C2_3 
ROOT
ATOM      1  C2  UNL d   1      -0.806   0.019   0.515  0.00  0.00    -0.076 A 
ATOM      2  C3  UNL d   1      -1.719   0.264  -0.525  0.00  0.00     0.004 A 
ATOM      3  C4  UNL d   1      -1.324   0.189  -1.860  0.00  0.00    -0.003 A 
ATOM      4  C5  UNL d   1      -0.009  -0.132  -2.176  0.00  0.00     0.000 A 
ATOM      5  C6  UNL d   1       0.907  -0.395  -1.158  0.00  0.00     0.000 A 
ATOM      6  C7  UNL d   1       0.521  -0.339   0.192  0.00  0.00    -0.073 A 
ATOM      7  C8  UNL d   1       1.551  -0.626   1.250  0.00  0.00     0.078 C 
ENDROOT
BRANCH   1   8
ATOM      8  C1  UNL d   1      -1.285   0.142   1.943  0.00  0.00     0.053 C 
ATOM      9  C   UNL d   1      -0.933   1.485   2.563  0.00  0.00     0.018 C 
ENDBRANCH   1   8
TORSDOF 1
ENDMDL
