MODEL 1
REMARK minimizedAffinity 0.873274803
REMARK minimizedRMSD -1
REMARK  1 active torsions:
REMARK  status: ('A' for Active; 'I' for Inactive)
REMARK    1  A    between atoms: C1_2  and  C2_3 
ROOT
ATOM      1  C2  UNL d   1       0.917  -0.050   1.940  0.00  0.00    -0.076 A 
ATOM      2  C3  UNL d   1       0.829  -0.992   2.979  0.00  0.00     0.004 A 
ATOM      3  C4  UNL d   1       0.100  -0.718   4.136  0.00  0.00    -0.003 A 
ATOM      4  C5  UNL d   1      -0.552   0.502   4.272  0.00  0.00     0.000 A 
ATOM      5  C6  UNL d   1      -0.489   1.442   3.243  0.00  0.00     0.000 A 
ATOM      6  C7  UNL d   1       0.228   1.175   2.064  0.00  0.00    -0.073 A 
ATOM      7  C8  UNL d   1       0.267   2.227   0.990  0.00  0.00     0.078 C 
ENDROOT
BRANCH   1   8
ATOM      8  C1  UNL d   1       1.744  -0.392   0.721  0.00  0.00     0.053 C 
ATOM      9  C   UNL d   1       0.903  -0.952  -0.415  0.00  0.00     0.018 C 
ENDBRANCH   1   8
TORSDOF 1
ENDMDL
