MODEL 1
REMARK minimizedAffinity -4.90555334
REMARK minimizedRMSD -1
REMARK  1 active torsions:
REMARK  status: ('A' for Active; 'I' for Inactive)
REMARK    1  A    between atoms: C1_2  and  C2_3 
ROOT
ATOM      1  C2  UNL d   1      -0.003   0.373   0.474  0.00  0.00    -0.076 A 
ATOM      2  C3  UNL d   1       0.853   1.132   1.291  0.00  0.00     0.004 A 
ATOM      3  C4  UNL d   1       0.423   1.616   2.526  0.00  0.00    -0.003 A 
ATOM      4  C5  UNL d   1      -0.869   1.348   2.964  0.00  0.00     0.000 A 
ATOM      5  C6  UNL d   1      -1.726   0.582   2.174  0.00  0.00     0.000 A 
ATOM      6  C7  UNL d   1      -1.303   0.073   0.934  0.00  0.00    -0.073 A 
ATOM      7  C8  UNL d   1      -2.271  -0.743   0.121  0.00  0.00     0.078 C 
ENDROOT
BRANCH   1   8
ATOM      8  C1  UNL d   1       0.509  -0.102  -0.867  0.00  0.00     0.053 C 
ATOM      9  C   UNL d   1       1.119  -1.494  -0.798  0.00  0.00     0.018 C 
ENDBRANCH   1   8
TORSDOF 1
ENDMDL
