MODEL 1
REMARK minimizedAffinity -0.836745143
REMARK minimizedRMSD -1
REMARK  1 active torsions:
REMARK  status: ('A' for Active; 'I' for Inactive)
REMARK    1  A    between atoms: C1_2  and  C2_3 
ROOT
ATOM      1  C2  UNL d   1       0.045   0.268  -0.164  0.00  0.00    -0.076 A 
ATOM      2  C3  UNL d   1       0.796   1.375   0.268  0.00  0.00     0.004 A 
ATOM      3  C4  UNL d   1       0.337   2.198   1.295  0.00  0.00    -0.003 A 
ATOM      4  C5  UNL d   1      -0.881   1.926   1.908  0.00  0.00     0.000 A 
ATOM      5  C6  UNL d   1      -1.632   0.822   1.505  0.00  0.00     0.000 A 
ATOM      6  C7  UNL d   1      -1.175  -0.027   0.482  0.00  0.00    -0.073 A 
ATOM      7  C8  UNL d   1      -2.028  -1.200   0.084  0.00  0.00     0.078 C 
ENDROOT
BRANCH   1   8
ATOM      8  C1  UNL d   1       0.581  -0.573  -1.300  0.00  0.00     0.053 C 
ATOM      9  C   UNL d   1       0.976   0.263  -2.508  0.00  0.00     0.018 C 
ENDBRANCH   1   8
TORSDOF 1
ENDMDL
