MODEL 1
REMARK minimizedAffinity -0.102677174
REMARK minimizedRMSD -1
REMARK  1 active torsions:
REMARK  status: ('A' for Active; 'I' for Inactive)
REMARK    1  A    between atoms: C1_2  and  C2_3 
ROOT
ATOM      1  C2  UNL d   1       0.058   1.014   3.689  0.00  0.00    -0.076 A 
ATOM      2  C3  UNL d   1      -0.645   0.823   2.487  0.00  0.00     0.004 A 
ATOM      3  C4  UNL d   1      -1.318  -0.371   2.232  0.00  0.00    -0.003 A 
ATOM      4  C5  UNL d   1      -1.297  -1.393   3.174  0.00  0.00     0.000 A 
ATOM      5  C6  UNL d   1      -0.619  -1.214   4.379  0.00  0.00     0.000 A 
ATOM      6  C7  UNL d   1       0.050  -0.011   4.660  0.00  0.00    -0.073 A 
ATOM      7  C8  UNL d   1       0.771   0.126   5.973  0.00  0.00     0.078 C 
ENDROOT
BRANCH   1   8
ATOM      8  C1  UNL d   1       0.791   2.320   3.900  0.00  0.00     0.053 C 
ATOM      9  C   UNL d   1       1.214   2.969   2.590  0.00  0.00     0.018 C 
ENDBRANCH   1   8
TORSDOF 1
ENDMDL
