MODEL 1
REMARK minimizedAffinity -4.6228199
REMARK minimizedRMSD -1
REMARK  1 active torsions:
REMARK  status: ('A' for Active; 'I' for Inactive)
REMARK    1  A    between atoms: C1_2  and  C2_3 
ROOT
ATOM      1  C2  UNL d   1       0.211  -0.073   0.521  0.00  0.00    -0.076 A 
ATOM      2  C3  UNL d   1       1.263   0.233   1.402  0.00  0.00     0.004 A 
ATOM      3  C4  UNL d   1       1.008   0.745   2.673  0.00  0.00    -0.003 A 
ATOM      4  C5  UNL d   1      -0.303   0.958   3.084  0.00  0.00     0.000 A 
ATOM      5  C6  UNL d   1      -1.359   0.644   2.230  0.00  0.00     0.000 A 
ATOM      6  C7  UNL d   1      -1.120   0.112   0.951  0.00  0.00    -0.073 A 
ATOM      7  C8  UNL d   1      -2.297  -0.204   0.069  0.00  0.00     0.078 C 
ENDROOT
BRANCH   1   8
ATOM      8  C1  UNL d   1       0.549  -0.600  -0.855  0.00  0.00     0.053 C 
ATOM      9  C   UNL d   1       0.959   0.504  -1.817  0.00  0.00     0.018 C 
ENDBRANCH   1   8
TORSDOF 1
ENDMDL
