MODEL 1
REMARK minimizedAffinity -1.59634602
REMARK minimizedRMSD -1
REMARK  1 active torsions:
REMARK  status: ('A' for Active; 'I' for Inactive)
REMARK    1  A    between atoms: C1_2  and  C2_3 
ROOT
ATOM      1  C2  UNL d   1      -0.720   0.398   1.257  0.00  0.00    -0.076 A 
ATOM      2  C3  UNL d   1       0.678   0.525   1.322  0.00  0.00     0.004 A 
ATOM      3  C4  UNL d   1       1.492   0.011   0.314  0.00  0.00    -0.003 A 
ATOM      4  C5  UNL d   1       0.921  -0.637  -0.776  0.00  0.00     0.000 A 
ATOM      5  C6  UNL d   1      -0.465  -0.757  -0.865  0.00  0.00     0.000 A 
ATOM      6  C7  UNL d   1      -1.301  -0.230   0.135  0.00  0.00    -0.073 A 
ATOM      7  C8  UNL d   1      -2.790  -0.393  -0.009  0.00  0.00     0.078 C 
ENDROOT
BRANCH   1   8
ATOM      8  C1  UNL d   1      -1.551   0.951   2.393  0.00  0.00     0.053 C 
ATOM      9  C   UNL d   1      -0.786   1.960   3.237  0.00  0.00     0.018 C 
ENDBRANCH   1   8
TORSDOF 1
ENDMDL
