MODEL 1
REMARK minimizedAffinity 2.5762341
REMARK minimizedRMSD -1
REMARK  1 active torsions:
REMARK  status: ('A' for Active; 'I' for Inactive)
REMARK    1  A    between atoms: C1_2  and  C2_3 
ROOT
ATOM      1  C2  UNL d   1       2.362  -0.959  -0.673  0.00  0.00    -0.073 A 
ATOM      2  C3  UNL d   1       1.368  -1.866  -0.288  0.00  0.00    -0.002 A 
ATOM      3  C4  UNL d   1       0.382  -1.487   0.623  0.00  0.00     0.004 A 
ATOM      4  C5  UNL d   1       0.375  -0.197   1.154  0.00  0.00    -0.004 A 
ATOM      5  C6  UNL d   1       1.353   0.727   0.773  0.00  0.00    -0.075 A 
ATOM      6  C7  UNL d   1       1.360   2.118   1.336  0.00  0.00     0.076 C 
ATOM      7  C8  UNL d   1       2.341   0.339  -0.141  0.00  0.00     0.001 A 
ENDROOT
BRANCH   1   8
ATOM      8  C1  UNL d   1       3.425  -1.361  -1.662  0.00  0.00     0.053 C 
ATOM      9  C   UNL d   1       4.230  -0.168  -2.152  0.00  0.00     0.018 C 
ENDBRANCH   1   8
TORSDOF 1
ENDMDL
