MODEL 1
REMARK minimizedAffinity 4.36206865
REMARK minimizedRMSD -1
REMARK  1 active torsions:
REMARK  status: ('A' for Active; 'I' for Inactive)
REMARK    1  A    between atoms: C1_2  and  C2_3 
ROOT
ATOM      1  C2  UNL d   1       0.349  -1.424   1.365  0.00  0.00    -0.073 A 
ATOM      2  C3  UNL d   1       0.535  -0.284   2.155  0.00  0.00    -0.002 A 
ATOM      3  C4  UNL d   1      -0.522   0.234   2.904  0.00  0.00     0.004 A 
ATOM      4  C5  UNL d   1      -1.772  -0.384   2.875  0.00  0.00    -0.004 A 
ATOM      5  C6  UNL d   1      -1.975  -1.531   2.100  0.00  0.00    -0.075 A 
ATOM      6  C7  UNL d   1      -3.314  -2.206   2.057  0.00  0.00     0.076 C 
ATOM      7  C8  UNL d   1      -0.908  -2.044   1.350  0.00  0.00     0.001 A 
ENDROOT
BRANCH   1   8
ATOM      8  C1  UNL d   1       1.490  -1.992   0.561  0.00  0.00     0.053 C 
ATOM      9  C   UNL d   1       2.161  -0.935  -0.302  0.00  0.00     0.018 C 
ENDBRANCH   1   8
TORSDOF 1
ENDMDL
