MODEL 1
REMARK minimizedAffinity 2.17704058
REMARK minimizedRMSD -1
REMARK  1 active torsions:
REMARK  status: ('A' for Active; 'I' for Inactive)
REMARK    1  A    between atoms: C1_2  and  C2_3 
ROOT
ATOM      1  C2  UNL d   1       0.070  -1.323   1.171  0.00  0.00    -0.073 A 
ATOM      2  C3  UNL d   1      -0.042   0.042   1.460  0.00  0.00    -0.002 A 
ATOM      3  C4  UNL d   1       0.881   0.951   0.941  0.00  0.00     0.004 A 
ATOM      4  C5  UNL d   1       1.920   0.507   0.124  0.00  0.00    -0.004 A 
ATOM      5  C6  UNL d   1       2.042  -0.852  -0.187  0.00  0.00    -0.075 A 
ATOM      6  C7  UNL d   1       3.155  -1.346  -1.063  0.00  0.00     0.076 C 
ATOM      7  C8  UNL d   1       1.113  -1.758   0.340  0.00  0.00     0.001 A 
ENDROOT
BRANCH   1   8
ATOM      8  C1  UNL d   1      -0.928  -2.307   1.723  0.00  0.00     0.053 C 
ATOM      9  C   UNL d   1      -2.318  -1.703   1.842  0.00  0.00     0.018 C 
ENDBRANCH   1   8
TORSDOF 1
ENDMDL
