MODEL 1
REMARK minimizedAffinity -3.16542625
REMARK minimizedRMSD -1
REMARK  1 active torsions:
REMARK  status: ('A' for Active; 'I' for Inactive)
REMARK    1  A    between atoms: C1_2  and  C2_3 
ROOT
ATOM      1  C2  UNL d   1       0.256  -1.001   1.401  0.00  0.00    -0.073 A 
ATOM      2  C3  UNL d   1       0.374   0.391   1.317  0.00  0.00    -0.002 A 
ATOM      3  C4  UNL d   1       1.183   0.972   0.340  0.00  0.00     0.004 A 
ATOM      4  C5  UNL d   1       1.876   0.169  -0.566  0.00  0.00    -0.004 A 
ATOM      5  C6  UNL d   1       1.762  -1.223  -0.506  0.00  0.00    -0.075 A 
ATOM      6  C7  UNL d   1       2.502  -2.101  -1.472  0.00  0.00     0.076 C 
ATOM      7  C8  UNL d   1       0.949  -1.799   0.480  0.00  0.00     0.001 A 
ENDROOT
BRANCH   1   8
ATOM      8  C1  UNL d   1      -0.621  -1.633   2.451  0.00  0.00     0.053 C 
ATOM      9  C   UNL d   1      -2.096  -1.359   2.201  0.00  0.00     0.018 C 
ENDBRANCH   1   8
TORSDOF 1
ENDMDL
