MODEL 1
REMARK minimizedAffinity 3.18612385
REMARK minimizedRMSD -1
REMARK  1 active torsions:
REMARK  status: ('A' for Active; 'I' for Inactive)
REMARK    1  A    between atoms: C1_2  and  C2_3 
ROOT
ATOM      1  C2  UNL d   1      -0.171  -1.553   1.444  0.00  0.00    -0.073 A 
ATOM      2  C3  UNL d   1       0.020  -0.305   2.047  0.00  0.00    -0.002 A 
ATOM      3  C4  UNL d   1       0.971   0.583   1.543  0.00  0.00     0.004 A 
ATOM      4  C5  UNL d   1       1.733   0.236   0.427  0.00  0.00    -0.004 A 
ATOM      5  C6  UNL d   1       1.548  -1.002  -0.197  0.00  0.00    -0.075 A 
ATOM      6  C7  UNL d   1       2.362  -1.391  -1.396  0.00  0.00     0.076 C 
ATOM      7  C8  UNL d   1       0.594  -1.889   0.318  0.00  0.00     0.001 A 
ENDROOT
BRANCH   1   8
ATOM      8  C1  UNL d   1      -1.201  -2.513   1.982  0.00  0.00     0.053 C 
ATOM      9  C   UNL d   1      -2.616  -1.980   1.823  0.00  0.00     0.018 C 
ENDBRANCH   1   8
TORSDOF 1
ENDMDL
