MODEL 1
REMARK minimizedAffinity -3.56900144
REMARK minimizedRMSD -1
REMARK  1 active torsions:
REMARK  status: ('A' for Active; 'I' for Inactive)
REMARK    1  A    between atoms: C1_2  and  C2_3 
ROOT
ATOM      1  C2  UNL d   1       0.896  -1.045   0.322  0.00  0.00    -0.073 A 
ATOM      2  C3  UNL d   1       0.705   0.323   0.548  0.00  0.00    -0.002 A 
ATOM      3  C4  UNL d   1       1.567   1.259  -0.025  0.00  0.00     0.004 A 
ATOM      4  C5  UNL d   1       2.622   0.839  -0.835  0.00  0.00    -0.004 A 
ATOM      5  C6  UNL d   1       2.821  -0.523  -1.083  0.00  0.00    -0.075 A 
ATOM      6  C7  UNL d   1       3.953  -0.991  -1.950  0.00  0.00     0.076 C 
ATOM      7  C8  UNL d   1       1.954  -1.457  -0.501  0.00  0.00     0.001 A 
ENDROOT
BRANCH   1   8
ATOM      8  C1  UNL d   1      -0.035  -2.059   0.933  0.00  0.00     0.053 C 
ATOM      9  C   UNL d   1      -1.030  -1.417   1.888  0.00  0.00     0.018 C 
ENDBRANCH   1   8
TORSDOF 1
ENDMDL
