MODEL 1
REMARK minimizedAffinity 3.35906696
REMARK minimizedRMSD -1
REMARK  1 active torsions:
REMARK  status: ('A' for Active; 'I' for Inactive)
REMARK    1  A    between atoms: C1_2  and  C2_3 
ROOT
ATOM      1  C2  UNL d   1       0.638  -0.426   1.523  0.00  0.00    -0.073 A 
ATOM      2  C3  UNL d   1       0.948   0.931   1.375  0.00  0.00    -0.002 A 
ATOM      3  C4  UNL d   1       1.785   1.355   0.343  0.00  0.00     0.004 A 
ATOM      4  C5  UNL d   1       2.315   0.430  -0.556  0.00  0.00    -0.004 A 
ATOM      5  C6  UNL d   1       2.008  -0.929  -0.433  0.00  0.00    -0.075 A 
ATOM      6  C7  UNL d   1       2.572  -1.938  -1.390  0.00  0.00     0.076 C 
ATOM      7  C8  UNL d   1       1.169  -1.348   0.609  0.00  0.00     0.001 A 
ENDROOT
BRANCH   1   8
ATOM      8  C1  UNL d   1      -0.270  -0.888   2.633  0.00  0.00     0.053 C 
ATOM      9  C   UNL d   1      -1.498  -1.610   2.101  0.00  0.00     0.018 C 
ENDBRANCH   1   8
TORSDOF 1
ENDMDL
