MODEL 1
REMARK minimizedAffinity 2.60799026
REMARK minimizedRMSD -1
REMARK  1 active torsions:
REMARK  status: ('A' for Active; 'I' for Inactive)
REMARK    1  A    between atoms: C1_2  and  C2_3 
ROOT
ATOM      1  C2  UNL d   1       1.764  -1.218  -0.623  0.00  0.00    -0.073 A 
ATOM      2  C3  UNL d   1       0.659  -1.786   0.022  0.00  0.00    -0.002 A 
ATOM      3  C4  UNL d   1      -0.053  -1.057   0.975  0.00  0.00     0.004 A 
ATOM      4  C5  UNL d   1       0.327   0.248   1.288  0.00  0.00    -0.004 A 
ATOM      5  C6  UNL d   1       1.421   0.838   0.646  0.00  0.00    -0.075 A 
ATOM      6  C7  UNL d   1       1.843   2.240   0.973  0.00  0.00     0.076 C 
ATOM      7  C8  UNL d   1       2.132   0.098  -0.308  0.00  0.00     0.001 A 
ENDROOT
BRANCH   1   8
ATOM      8  C1  UNL d   1       2.532  -1.999  -1.657  0.00  0.00     0.053 C 
ATOM      9  C   UNL d   1       3.918  -1.420  -1.895  0.00  0.00     0.018 C 
ENDBRANCH   1   8
TORSDOF 1
ENDMDL
