MODEL 1
REMARK minimizedAffinity 1.86029363
REMARK minimizedRMSD -1
REMARK  1 active torsions:
REMARK  status: ('A' for Active; 'I' for Inactive)
REMARK    1  A    between atoms: C1_2  and  C2_3 
ROOT
ATOM      1  C2  UNL d   1       2.254  -1.248  -0.895  0.00  0.00    -0.073 A 
ATOM      2  C3  UNL d   1       1.243  -2.071  -0.388  0.00  0.00    -0.002 A 
ATOM      3  C4  UNL d   1       0.305  -1.563   0.512  0.00  0.00     0.004 A 
ATOM      4  C5  UNL d   1       0.365  -0.227   0.909  0.00  0.00    -0.004 A 
ATOM      5  C6  UNL d   1       1.361   0.614   0.404  0.00  0.00    -0.075 A 
ATOM      6  C7  UNL d   1       1.440   2.053   0.822  0.00  0.00     0.076 C 
ATOM      7  C8  UNL d   1       2.301   0.096  -0.497  0.00  0.00     0.001 A 
ENDROOT
BRANCH   1   8
ATOM      8  C1  UNL d   1       3.265  -1.790  -1.872  0.00  0.00     0.053 C 
ATOM      9  C   UNL d   1       2.848  -3.140  -2.433  0.00  0.00     0.018 C 
ENDBRANCH   1   8
TORSDOF 1
ENDMDL
