MODEL 1
REMARK minimizedAffinity 4.63478565
REMARK minimizedRMSD -1
REMARK  1 active torsions:
REMARK  status: ('A' for Active; 'I' for Inactive)
REMARK    1  A    between atoms: C1_2  and  C2_3 
ROOT
ATOM      1  C2  UNL d   1       0.726  -0.130  -1.807  0.00  0.00    -0.073 A 
ATOM      2  C3  UNL d   1       0.264  -1.325  -1.245  0.00  0.00    -0.002 A 
ATOM      3  C4  UNL d   1       0.679  -1.712   0.030  0.00  0.00     0.004 A 
ATOM      4  C5  UNL d   1       1.553  -0.905   0.758  0.00  0.00    -0.004 A 
ATOM      5  C6  UNL d   1       2.017   0.299   0.219  0.00  0.00    -0.075 A 
ATOM      6  C7  UNL d   1       2.959   1.177   0.988  0.00  0.00     0.076 C 
ATOM      7  C8  UNL d   1       1.598   0.679  -1.064  0.00  0.00     0.001 A 
ENDROOT
BRANCH   1   8
ATOM      8  C1  UNL d   1       0.276   0.294  -3.181  0.00  0.00     0.053 C 
ATOM      9  C   UNL d   1       0.446   1.789  -3.400  0.00  0.00     0.018 C 
ENDBRANCH   1   8
TORSDOF 1
ENDMDL
