MODEL 1
REMARK minimizedAffinity 8.68304348
REMARK minimizedRMSD -1
REMARK  1 active torsions:
REMARK  status: ('A' for Active; 'I' for Inactive)
REMARK    1  A    between atoms: C1_2  and  C2_3 
ROOT
ATOM      1  C2  UNL d   1       1.851   0.246   0.534  0.00  0.00    -0.073 A 
ATOM      2  C3  UNL d   1       0.785  -0.410   1.161  0.00  0.00    -0.002 A 
ATOM      3  C4  UNL d   1       0.568  -1.771   0.942  0.00  0.00     0.004 A 
ATOM      4  C5  UNL d   1       1.416  -2.491   0.100  0.00  0.00    -0.004 A 
ATOM      5  C6  UNL d   1       2.493  -1.856  -0.527  0.00  0.00    -0.075 A 
ATOM      6  C7  UNL d   1       3.413  -2.615  -1.437  0.00  0.00     0.076 C 
ATOM      7  C8  UNL d   1       2.703  -0.488  -0.304  0.00  0.00     0.001 A 
ENDROOT
BRANCH   1   8
ATOM      8  C1  UNL d   1       2.093   1.713   0.773  0.00  0.00     0.053 C 
ATOM      9  C   UNL d   1       2.942   1.957   2.010  0.00  0.00     0.018 C 
ENDBRANCH   1   8
TORSDOF 1
ENDMDL
