MODEL 1
REMARK minimizedAffinity 0.419818878
REMARK minimizedRMSD -1
REMARK  1 active torsions:
REMARK  status: ('A' for Active; 'I' for Inactive)
REMARK    1  A    between atoms: C1_2  and  C2_3 
ROOT
ATOM      1  C2  UNL d   1       1.874  -0.367  -0.093  0.00  0.00    -0.073 A 
ATOM      2  C3  UNL d   1       2.407  -1.564  -0.586  0.00  0.00    -0.002 A 
ATOM      3  C4  UNL d   1       3.370  -1.543  -1.595  0.00  0.00     0.004 A 
ATOM      4  C5  UNL d   1       3.815  -0.329  -2.117  0.00  0.00    -0.004 A 
ATOM      5  C6  UNL d   1       3.303   0.878  -1.629  0.00  0.00    -0.075 A 
ATOM      6  C7  UNL d   1       3.769   2.193  -2.181  0.00  0.00     0.076 C 
ATOM      7  C8  UNL d   1       2.334   0.849  -0.617  0.00  0.00     0.001 A 
ENDROOT
BRANCH   1   8
ATOM      8  C1  UNL d   1       0.839  -0.384   1.002  0.00  0.00     0.053 C 
ATOM      9  C   UNL d   1       0.105  -1.714   1.072  0.00  0.00     0.018 C 
ENDBRANCH   1   8
TORSDOF 1
ENDMDL
