MODEL 1
REMARK minimizedAffinity -0.718822122
REMARK minimizedRMSD -1
REMARK  0 active torsions:
REMARK  status: ('A' for Active; 'I' for Inactive)
ROOT
ATOM      1  C4' PXY d   1      -4.561  -0.936  -5.950  0.00  0.00     0.077 C 
ATOM      2  C1' PXY d   1      -2.672   4.527  -6.000  0.00  0.00     0.077 C 
ATOM      3  C1  PXY d   1      -3.156   3.090  -5.992  0.00  0.00    -0.082 A 
ATOM      4  C2  PXY d   1      -4.455   2.838  -5.978  0.00  0.00     0.003 A 
ATOM      5  C3  PXY d   1      -4.910   1.545  -5.939  0.00  0.00     0.003 A 
ATOM      6  C4  PXY d   1      -4.027   0.499  -5.967  0.00  0.00    -0.082 A 
ATOM      7  C5  PXY d   1      -2.700   0.748  -5.992  0.00  0.00     0.003 A 
ATOM      8  C6  PXY d   1      -2.258   2.068  -5.990  0.00  0.00     0.003 A 
ENDROOT
TORSDOF 0
ENDMDL
