MODEL 1
REMARK minimizedAffinity -3.58952165
REMARK minimizedRMSD -1
REMARK  0 active torsions:
REMARK  status: ('A' for Active; 'I' for Inactive)
ROOT
ATOM      1  C4' PXY d   1      -1.890   5.230  -5.989  0.00  0.00     0.077 C 
ATOM      2  C1' PXY d   1      -4.508   0.077  -5.951  0.00  0.00     0.077 C 
ATOM      3  C1  PXY d   1      -3.811   1.423  -5.956  0.00  0.00    -0.082 A 
ATOM      4  C2  PXY d   1      -4.531   2.532  -5.926  0.00  0.00     0.003 A 
ATOM      5  C3  PXY d   1      -3.918   3.758  -5.962  0.00  0.00     0.003 A 
ATOM      6  C4  PXY d   1      -2.551   3.849  -5.975  0.00  0.00    -0.082 A 
ATOM      7  C5  PXY d   1      -1.810   2.722  -5.996  0.00  0.00     0.003 A 
ATOM      8  C6  PXY d   1      -2.452   1.487  -6.000  0.00  0.00     0.003 A 
ENDROOT
TORSDOF 0
ENDMDL
