MODEL 1
REMARK minimizedAffinity 0.626662016
REMARK minimizedRMSD -1
REMARK  0 active torsions:
REMARK  status: ('A' for Active; 'I' for Inactive)
ROOT
ATOM      1  C4' PXY d   1      -4.386  -1.662  -5.660  0.00  0.00     0.077 C 
ATOM      2  C1' PXY d   1      -2.435   3.779  -5.715  0.00  0.00     0.077 C 
ATOM      3  C1  PXY d   1      -2.935   2.348  -5.703  0.00  0.00    -0.082 A 
ATOM      4  C2  PXY d   1      -4.201   2.094  -5.989  0.00  0.00     0.003 A 
ATOM      5  C3  PXY d   1      -4.677   0.809  -5.951  0.00  0.00     0.003 A 
ATOM      6  C4  PXY d   1      -3.835  -0.233  -5.670  0.00  0.00    -0.082 A 
ATOM      7  C5  PXY d   1      -2.539   0.016  -5.387  0.00  0.00     0.003 A 
ATOM      8  C6  PXY d   1      -2.085   1.332  -5.391  0.00  0.00     0.003 A 
ENDROOT
TORSDOF 0
ENDMDL
