MODEL 1
REMARK minimizedAffinity 5.52724648
REMARK minimizedRMSD -1
REMARK  0 active torsions:
REMARK  status: ('A' for Active; 'I' for Inactive)
ROOT
ATOM      1  C4' PXY d   1       0.129  -2.232  -3.139  0.00  0.00     0.077 C 
ATOM      2  C1' PXY d   1       2.104   2.459  -0.400  0.00  0.00     0.077 C 
ATOM      3  C1  PXY d   1       1.580   1.236  -1.127  0.00  0.00    -0.082 A 
ATOM      4  C2  PXY d   1       1.498   0.081  -0.488  0.00  0.00     0.003 A 
ATOM      5  C3  PXY d   1       1.056  -1.042  -1.139  0.00  0.00     0.003 A 
ATOM      6  C4  PXY d   1       0.644  -0.970  -2.443  0.00  0.00    -0.082 A 
ATOM      7  C5  PXY d   1       0.714   0.208  -3.098  0.00  0.00     0.003 A 
ATOM      8  C6  PXY d   1       1.205   1.327  -2.431  0.00  0.00     0.003 A 
ENDROOT
TORSDOF 0
ENDMDL
