MODEL 1
REMARK minimizedAffinity 1.37314069
REMARK minimizedRMSD -1
REMARK  0 active torsions:
REMARK  status: ('A' for Active; 'I' for Inactive)
ROOT
ATOM      1  C4' PXY d   1      -5.985   4.064  -5.976  0.00  0.00     0.077 C 
ATOM      2  C1' PXY d   1      -0.977   1.178  -5.995  0.00  0.00     0.077 C 
ATOM      3  C1  PXY d   1      -2.284   1.945  -5.985  0.00  0.00    -0.082 A 
ATOM      4  C2  PXY d   1      -3.430   1.284  -5.971  0.00  0.00     0.003 A 
ATOM      5  C3  PXY d   1      -4.622   1.962  -5.994  0.00  0.00     0.003 A 
ATOM      6  C4  PXY d   1      -4.641   3.331  -5.978  0.00  0.00    -0.082 A 
ATOM      7  C5  PXY d   1      -3.476   4.013  -5.981  0.00  0.00     0.003 A 
ATOM      8  C6  PXY d   1      -2.277   3.306  -5.999  0.00  0.00     0.003 A 
ENDROOT
TORSDOF 0
ENDMDL
