MODEL 1
REMARK minimizedAffinity 8.86278725
REMARK minimizedRMSD -1
REMARK  0 active torsions:
REMARK  status: ('A' for Active; 'I' for Inactive)
ROOT
ATOM      1  C4' PXY d   1       2.978   1.861  -0.660  0.00  0.00     0.077 C 
ATOM      2  C1' PXY d   1      -0.349  -2.285  -2.931  0.00  0.00     0.077 C 
ATOM      3  C1  PXY d   1       0.518  -1.200  -2.324  0.00  0.00    -0.082 A 
ATOM      4  C2  PXY d   1       0.931  -0.194  -3.077  0.00  0.00     0.003 A 
ATOM      5  C3  PXY d   1       1.743   0.778  -2.552  0.00  0.00     0.003 A 
ATOM      6  C4  PXY d   1       2.092   0.748  -1.229  0.00  0.00    -0.082 A 
ATOM      7  C5  PXY d   1       1.666  -0.269  -0.451  0.00  0.00     0.003 A 
ATOM      8  C6  PXY d   1       0.877  -1.268  -1.013  0.00  0.00     0.003 A 
ENDROOT
TORSDOF 0
ENDMDL
