MODEL 1
REMARK minimizedAffinity 2.71186566
REMARK minimizedRMSD -1
REMARK  0 active torsions:
REMARK  status: ('A' for Active; 'I' for Inactive)
ROOT
ATOM      1  C4' PXY d   1      -4.641   2.925  -5.999  0.00  0.00     0.077 C 
ATOM      2  C1' PXY d   1      -4.260  -2.843  -5.977  0.00  0.00     0.077 C 
ATOM      3  C1  PXY d   1      -4.348  -1.330  -5.977  0.00  0.00    -0.082 A 
ATOM      4  C2  PXY d   1      -5.534  -0.743  -5.965  0.00  0.00     0.003 A 
ATOM      5  C3  PXY d   1      -5.633   0.624  -5.998  0.00  0.00     0.003 A 
ATOM      6  C4  PXY d   1      -4.505   1.400  -5.989  0.00  0.00    -0.082 A 
ATOM      7  C5  PXY d   1      -3.291   0.809  -5.991  0.00  0.00     0.003 A 
ATOM      8  C6  PXY d   1      -3.213  -0.580  -5.999  0.00  0.00     0.003 A 
ENDROOT
TORSDOF 0
ENDMDL
