MODEL 1
REMARK minimizedAffinity -2.48511624
REMARK minimizedRMSD -1
REMARK  0 active torsions:
REMARK  status: ('A' for Active; 'I' for Inactive)
ROOT
ATOM      1  C4' PXY d   1      -5.946   5.237  -5.954  0.00  0.00     0.077 C 
ATOM      2  C1' PXY d   1      -1.933   1.077  -6.000  0.00  0.00     0.077 C 
ATOM      3  C1  PXY d   1      -2.977   2.176  -5.983  0.00  0.00    -0.082 A 
ATOM      4  C2  PXY d   1      -4.261   1.858  -5.976  0.00  0.00     0.003 A 
ATOM      5  C3  PXY d   1      -5.218   2.840  -5.992  0.00  0.00     0.003 A 
ATOM      6  C4  PXY d   1      -4.857   4.160  -5.962  0.00  0.00    -0.082 A 
ATOM      7  C5  PXY d   1      -3.549   4.492  -5.958  0.00  0.00     0.003 A 
ATOM      8  C6  PXY d   1      -2.593   3.481  -5.983  0.00  0.00     0.003 A 
ENDROOT
TORSDOF 0
ENDMDL
