MODEL 1
REMARK minimizedAffinity 4.50646782
REMARK minimizedRMSD -1
REMARK  0 active torsions:
REMARK  status: ('A' for Active; 'I' for Inactive)
ROOT
ATOM      1  C4' PXY d   1      -4.199  -1.483  -5.995  0.00  0.00     0.077 C 
ATOM      2  C1' PXY d   1      -2.351   3.994  -5.984  0.00  0.00     0.077 C 
ATOM      3  C1  PXY d   1      -2.824   2.554  -5.992  0.00  0.00    -0.082 A 
ATOM      4  C2  PXY d   1      -4.121   2.292  -6.000  0.00  0.00     0.003 A 
ATOM      5  C3  PXY d   1      -4.567   0.995  -5.975  0.00  0.00     0.003 A 
ATOM      6  C4  PXY d   1      -3.676  -0.044  -5.996  0.00  0.00    -0.082 A 
ATOM      7  C5  PXY d   1      -2.351   0.215  -6.000  0.00  0.00     0.003 A 
ATOM      8  C6  PXY d   1      -1.919   1.538  -5.983  0.00  0.00     0.003 A 
ENDROOT
TORSDOF 0
ENDMDL
