MODEL 1
REMARK minimizedAffinity 0.445403159
REMARK minimizedRMSD -1
REMARK  0 active torsions:
REMARK  status: ('A' for Active; 'I' for Inactive)
ROOT
ATOM      1  C4' PXY d   1      -5.986  -1.193  -5.997  0.00  0.00     0.077 C 
ATOM      2  C1' PXY d   1      -2.029  -5.406  -5.891  0.00  0.00     0.077 C 
ATOM      3  C1  PXY d   1      -3.076  -4.310  -5.924  0.00  0.00    -0.082 A 
ATOM      4  C2  PXY d   1      -2.695  -3.045  -5.999  0.00  0.00     0.003 A 
ATOM      5  C3  PXY d   1      -3.627  -2.039  -5.997  0.00  0.00     0.003 A 
ATOM      6  C4  PXY d   1      -4.964  -2.333  -5.972  0.00  0.00    -0.082 A 
ATOM      7  C5  PXY d   1      -5.360  -3.622  -5.905  0.00  0.00     0.003 A 
ATOM      8  C6  PXY d   1      -4.398  -4.626  -5.866  0.00  0.00     0.003 A 
ENDROOT
TORSDOF 0
ENDMDL
