MODEL 1
REMARK minimizedAffinity 5.65707445
REMARK minimizedRMSD -1
REMARK  0 active torsions:
REMARK  status: ('A' for Active; 'I' for Inactive)
ROOT
ATOM      1  C4' PXY d   1      -0.815   2.011   0.061  0.00  0.00     0.077 C 
ATOM      2  C1' PXY d   1       2.162  -2.058  -2.767  0.00  0.00     0.077 C 
ATOM      3  C1  PXY d   1       1.387  -0.995  -2.015  0.00  0.00    -0.082 A 
ATOM      4  C2  PXY d   1       0.284  -0.491  -2.545  0.00  0.00     0.003 A 
ATOM      5  C3  PXY d   1      -0.412   0.494  -1.892  0.00  0.00     0.003 A 
ATOM      6  C4  PXY d   1      -0.005   0.929  -0.660  0.00  0.00    -0.082 A 
ATOM      7  C5  PXY d   1       1.113   0.412  -0.107  0.00  0.00     0.003 A 
ATOM      8  C6  PXY d   1       1.828  -0.557  -0.804  0.00  0.00     0.003 A 
ENDROOT
TORSDOF 0
ENDMDL
