MODEL 1
REMARK minimizedAffinity -2.60752964
REMARK minimizedRMSD -1
REMARK  0 active torsions:
REMARK  status: ('A' for Active; 'I' for Inactive)
ROOT
ATOM      1  C4' PXY d   1      -3.351   4.370  -5.994  0.00  0.00     0.077 C 
ATOM      2  C1' PXY d   1      -4.484  -1.299  -5.976  0.00  0.00     0.077 C 
ATOM      3  C1  PXY d   1      -4.175   0.185  -5.975  0.00  0.00    -0.082 A 
ATOM      4  C2  PXY d   1      -5.168   1.060  -5.960  0.00  0.00     0.003 A 
ATOM      5  C3  PXY d   1      -4.907   2.406  -5.992  0.00  0.00     0.003 A 
ATOM      6  C4  PXY d   1      -3.616   2.861  -5.986  0.00  0.00    -0.082 A 
ATOM      7  C5  PXY d   1      -2.597   1.976  -5.991  0.00  0.00     0.003 A 
ATOM      8  C6  PXY d   1      -2.884   0.613  -6.000  0.00  0.00     0.003 A 
ENDROOT
TORSDOF 0
ENDMDL
