MODEL 1
REMARK minimizedAffinity 4.54202318
REMARK minimizedRMSD -1
REMARK  0 active torsions:
REMARK  status: ('A' for Active; 'I' for Inactive)
ROOT
ATOM      1  C4' PXY d   1      -5.430   4.572  -6.000  0.00  0.00     0.077 C 
ATOM      2  C1' PXY d   1      -1.621   0.486  -4.512  0.00  0.00     0.077 C 
ATOM      3  C1  PXY d   1      -2.624   1.550  -4.912  0.00  0.00    -0.082 A 
ATOM      4  C2  PXY d   1      -2.419   2.809  -4.558  0.00  0.00     0.003 A 
ATOM      5  C3  PXY d   1      -3.332   3.778  -4.884  0.00  0.00     0.003 A 
ATOM      6  C4  PXY d   1      -4.439   3.466  -5.626  0.00  0.00    -0.082 A 
ATOM      7  C5  PXY d   1      -4.650   2.186  -6.000  0.00  0.00     0.003 A 
ATOM      8  C6  PXY d   1      -3.732   1.210  -5.624  0.00  0.00     0.003 A 
ENDROOT
TORSDOF 0
ENDMDL
