MODEL 1
REMARK minimizedAffinity -2.22288585
REMARK minimizedRMSD -1
REMARK  0 active torsions:
REMARK  status: ('A' for Active; 'I' for Inactive)
ROOT
ATOM      1  C4' PXY d   1      -4.850  -1.557  -5.970  0.00  0.00     0.077 C 
ATOM      2  C1' PXY d   1      -3.009   3.923  -5.986  0.00  0.00     0.077 C 
ATOM      3  C1  PXY d   1      -3.503   2.490  -5.977  0.00  0.00    -0.082 A 
ATOM      4  C2  PXY d   1      -2.629   1.496  -5.973  0.00  0.00     0.003 A 
ATOM      5  C3  PXY d   1      -3.058   0.194  -5.997  0.00  0.00     0.003 A 
ATOM      6  C4  PXY d   1      -4.396  -0.094  -5.970  0.00  0.00    -0.082 A 
ATOM      7  C5  PXY d   1      -5.294   0.913  -5.963  0.00  0.00     0.003 A 
ATOM      8  C6  PXY d   1      -4.838   2.228  -5.980  0.00  0.00     0.003 A 
ENDROOT
TORSDOF 0
ENDMDL
