MODEL 1
REMARK minimizedAffinity -2.32068324
REMARK minimizedRMSD -1
REMARK  0 active torsions:
REMARK  status: ('A' for Active; 'I' for Inactive)
ROOT
ATOM      1  C4' PXY d   1      -4.759  -1.416  -5.987  0.00  0.00     0.077 C 
ATOM      2  C1' PXY d   1      -2.981   4.084  -5.991  0.00  0.00     0.077 C 
ATOM      3  C1  PXY d   1      -3.459   2.645  -5.985  0.00  0.00    -0.082 A 
ATOM      4  C2  PXY d   1      -2.573   1.662  -5.974  0.00  0.00     0.003 A 
ATOM      5  C3  PXY d   1      -2.987   0.356  -6.000  0.00  0.00     0.003 A 
ATOM      6  C4  PXY d   1      -4.322   0.051  -5.984  0.00  0.00    -0.082 A 
ATOM      7  C5  PXY d   1      -5.232   1.049  -5.985  0.00  0.00     0.003 A 
ATOM      8  C6  PXY d   1      -4.791   2.369  -6.000  0.00  0.00     0.003 A 
ENDROOT
TORSDOF 0
ENDMDL
