MODEL 1
REMARK minimizedAffinity 0.109364234
REMARK minimizedRMSD -1
REMARK  0 active torsions:
REMARK  status: ('A' for Active; 'I' for Inactive)
ROOT
ATOM      1  C4' PXY d   1      -2.192   5.320  -6.000  0.00  0.00     0.077 C 
ATOM      2  C1' PXY d   1      -3.763  -0.243  -5.979  0.00  0.00     0.077 C 
ATOM      3  C1  PXY d   1      -3.363   1.219  -5.990  0.00  0.00    -0.082 A 
ATOM      4  C2  PXY d   1      -2.081   1.546  -6.000  0.00  0.00     0.003 A 
ATOM      5  C3  PXY d   1      -1.701   2.863  -5.977  0.00  0.00     0.003 A 
ATOM      6  C4  PXY d   1      -2.643   3.857  -5.998  0.00  0.00    -0.082 A 
ATOM      7  C5  PXY d   1      -3.953   3.531  -5.999  0.00  0.00     0.003 A 
ATOM      8  C6  PXY d   1      -4.318   2.188  -5.980  0.00  0.00     0.003 A 
ENDROOT
TORSDOF 0
ENDMDL
