MODEL 1
REMARK minimizedAffinity 3.10805964
REMARK minimizedRMSD -1
REMARK  0 active torsions:
REMARK  status: ('A' for Active; 'I' for Inactive)
ROOT
ATOM      1  C4' PXY d   1      -4.668   3.313  -5.978  0.00  0.00     0.077 C 
ATOM      2  C1' PXY d   1      -4.444  -2.463  -5.995  0.00  0.00     0.077 C 
ATOM      3  C1  PXY d   1      -4.515  -0.949  -5.996  0.00  0.00    -0.082 A 
ATOM      4  C2  PXY d   1      -3.397  -0.242  -5.998  0.00  0.00     0.003 A 
ATOM      5  C3  PXY d   1      -3.442   1.128  -5.966  0.00  0.00     0.003 A 
ATOM      6  C4  PXY d   1      -4.645   1.782  -5.986  0.00  0.00    -0.082 A 
ATOM      7  C5  PXY d   1      -5.790   1.068  -5.995  0.00  0.00     0.003 A 
ATOM      8  C6  PXY d   1      -5.723  -0.323  -5.986  0.00  0.00     0.003 A 
ENDROOT
TORSDOF 0
ENDMDL
