MODEL 1
REMARK minimizedAffinity 2.62007451
REMARK minimizedRMSD -1
REMARK  0 active torsions:
REMARK  status: ('A' for Active; 'I' for Inactive)
ROOT
ATOM      1  C4' PXY d   1       4.177   0.514  -0.343  0.00  0.00     0.077 C 
ATOM      2  C1' PXY d   1      -0.863  -1.441  -2.390  0.00  0.00     0.077 C 
ATOM      3  C1  PXY d   1       0.452  -0.918  -1.848  0.00  0.00    -0.082 A 
ATOM      4  C2  PXY d   1       1.587  -1.277  -2.427  0.00  0.00     0.003 A 
ATOM      5  C3  PXY d   1       2.788  -0.839  -1.930  0.00  0.00     0.003 A 
ATOM      6  C4  PXY d   1       2.825   0.018  -0.862  0.00  0.00    -0.082 A 
ATOM      7  C5  PXY d   1       1.671   0.397  -0.273  0.00  0.00     0.003 A 
ATOM      8  C6  PXY d   1       0.465  -0.092  -0.767  0.00  0.00     0.003 A 
ENDROOT
TORSDOF 0
ENDMDL
