MODEL 1
REMARK minimizedAffinity -0.79605788
REMARK minimizedRMSD -1
REMARK  0 active torsions:
REMARK  status: ('A' for Active; 'I' for Inactive)
ROOT
ATOM      1  C4' PXY d   1      -6.000   4.893  -5.975  0.00  0.00     0.077 C 
ATOM      2  C1' PXY d   1      -2.276   0.472  -6.000  0.00  0.00     0.077 C 
ATOM      3  C1  PXY d   1      -3.243   1.639  -5.988  0.00  0.00    -0.082 A 
ATOM      4  C2  PXY d   1      -4.546   1.408  -5.978  0.00  0.00     0.003 A 
ATOM      5  C3  PXY d   1      -5.435   2.452  -5.999  0.00  0.00     0.003 A 
ATOM      6  C4  PXY d   1      -4.986   3.745  -5.977  0.00  0.00    -0.082 A 
ATOM      7  C5  PXY d   1      -3.658   3.989  -5.976  0.00  0.00     0.003 A 
ATOM      8  C6  PXY d   1      -2.772   2.916  -5.996  0.00  0.00     0.003 A 
ENDROOT
TORSDOF 0
ENDMDL
