MODEL 1
REMARK minimizedAffinity -1.54851234
REMARK minimizedRMSD -1
REMARK  0 active torsions:
REMARK  status: ('A' for Active; 'I' for Inactive)
ROOT
ATOM      1  C4' PXY d   1      -3.530  -1.874  -5.992  0.00  0.00     0.077 C 
ATOM      2  C1' PXY d   1      -3.360   3.904  -5.988  0.00  0.00     0.077 C 
ATOM      3  C1  PXY d   1      -3.392   2.389  -5.994  0.00  0.00    -0.082 A 
ATOM      4  C2  PXY d   1      -4.556   1.760  -6.000  0.00  0.00     0.003 A 
ATOM      5  C3  PXY d   1      -4.604   0.390  -5.973  0.00  0.00     0.003 A 
ATOM      6  C4  PXY d   1      -3.449  -0.345  -5.995  0.00  0.00    -0.082 A 
ATOM      7  C5  PXY d   1      -2.257   0.290  -6.000  0.00  0.00     0.003 A 
ATOM      8  C6  PXY d   1      -2.230   1.681  -5.985  0.00  0.00     0.003 A 
ENDROOT
TORSDOF 0
ENDMDL
