MODEL 1
REMARK minimizedAffinity 5.19385529
REMARK minimizedRMSD -1
REMARK  0 active torsions:
REMARK  status: ('A' for Active; 'I' for Inactive)
ROOT
ATOM      1  C1  BNZ d   1      -1.113   1.711   3.179  0.00  0.00     0.000 A 
ATOM      2  C2  BNZ d   1      -1.391   2.503   2.097  0.00  0.00     0.000 A 
ATOM      3  C3  BNZ d   1      -0.416   2.820   1.193  0.00  0.00     0.000 A 
ATOM      4  C4  BNZ d   1       0.843   2.379   1.393  0.00  0.00     0.000 A 
ATOM      5  C5  BNZ d   1       1.141   1.587   2.485  0.00  0.00     0.000 A 
ATOM      6  C6  BNZ d   1       0.148   1.238   3.372  0.00  0.00     0.000 A 
ENDROOT
TORSDOF 0
ENDMDL
