MODEL 1
REMARK minimizedAffinity 2.95037365
REMARK minimizedRMSD -1
REMARK  0 active torsions:
REMARK  status: ('A' for Active; 'I' for Inactive)
ROOT
ATOM      1  C1  BNZ d   1       1.868  -2.364   0.831  0.00  0.00     0.000 A 
ATOM      2  C2  BNZ d   1       1.535  -1.083   1.182  0.00  0.00     0.000 A 
ATOM      3  C3  BNZ d   1       1.907  -0.025   0.401  0.00  0.00     0.000 A 
ATOM      4  C4  BNZ d   1       2.644  -0.245  -0.706  0.00  0.00     0.000 A 
ATOM      5  C5  BNZ d   1       2.996  -1.530  -1.068  0.00  0.00     0.000 A 
ATOM      6  C6  BNZ d   1       2.587  -2.596  -0.301  0.00  0.00     0.000 A 
ENDROOT
TORSDOF 0
ENDMDL
