MODEL 1
REMARK minimizedAffinity 3.72754741
REMARK minimizedRMSD -1
REMARK  0 active torsions:
REMARK  status: ('A' for Active; 'I' for Inactive)
ROOT
ATOM      1  C1  BNZ d   1      -1.542   2.562   1.746  0.00  0.00     0.000 A 
ATOM      2  C2  BNZ d   1      -1.652   2.078   3.022  0.00  0.00     0.000 A 
ATOM      3  C3  BNZ d   1      -0.605   1.433   3.619  0.00  0.00     0.000 A 
ATOM      4  C4  BNZ d   1       0.535   1.237   2.925  0.00  0.00     0.000 A 
ATOM      5  C5  BNZ d   1       0.658   1.711   1.634  0.00  0.00     0.000 A 
ATOM      6  C6  BNZ d   1      -0.384   2.394   1.051  0.00  0.00     0.000 A 
ENDROOT
TORSDOF 0
ENDMDL
