MODEL 1
REMARK minimizedAffinity -3.72120094
REMARK minimizedRMSD -1
REMARK  0 active torsions:
REMARK  status: ('A' for Active; 'I' for Inactive)
ROOT
ATOM      1  C1  BNZ d   1      -0.512  -0.200  -0.137  0.00  0.00     0.000 A 
ATOM      2  C2  BNZ d   1      -0.109  -1.505  -0.247  0.00  0.00     0.000 A 
ATOM      3  C3  BNZ d   1       1.210  -1.843  -0.120  0.00  0.00     0.000 A 
ATOM      4  C4  BNZ d   1       2.127  -0.873   0.075  0.00  0.00     0.000 A 
ATOM      5  C5  BNZ d   1       1.738   0.447   0.178  0.00  0.00     0.000 A 
ATOM      6  C6  BNZ d   1       0.405   0.779   0.090  0.00  0.00     0.000 A 
ENDROOT
TORSDOF 0
ENDMDL
