MODEL 1
REMARK minimizedAffinity -1.30489695
REMARK minimizedRMSD -1
REMARK  0 active torsions:
REMARK  status: ('A' for Active; 'I' for Inactive)
ROOT
ATOM      1  C1  BNZ d   1      -0.697  -4.127  -1.227  0.00  0.00     0.000 A 
ATOM      2  C2  BNZ d   1       0.413  -4.167  -0.426  0.00  0.00     0.000 A 
ATOM      3  C3  BNZ d   1       1.239  -3.084  -0.320  0.00  0.00     0.000 A 
ATOM      4  C4  BNZ d   1       0.978  -1.977  -1.044  0.00  0.00     0.000 A 
ATOM      5  C5  BNZ d   1      -0.132  -1.924  -1.864  0.00  0.00     0.000 A 
ATOM      6  C6  BNZ d   1      -0.983  -3.003  -1.938  0.00  0.00     0.000 A 
ENDROOT
TORSDOF 0
ENDMDL
