MODEL 1
REMARK minimizedAffinity 1.93600702
REMARK minimizedRMSD -1
REMARK  0 active torsions:
REMARK  status: ('A' for Active; 'I' for Inactive)
ROOT
ATOM      1  C1  BNZ d   1       4.025   1.076   0.398  0.00  0.00     0.000 A 
ATOM      2  C2  BNZ d   1       3.142   2.116   0.276  0.00  0.00     0.000 A 
ATOM      3  C3  BNZ d   1       1.813   1.884   0.060  0.00  0.00     0.000 A 
ATOM      4  C4  BNZ d   1       1.375   0.615  -0.074  0.00  0.00     0.000 A 
ATOM      5  C5  BNZ d   1       2.254  -0.444   0.037  0.00  0.00     0.000 A 
ATOM      6  C6  BNZ d   1       3.585  -0.207   0.293  0.00  0.00     0.000 A 
ENDROOT
TORSDOF 0
ENDMDL
