MODEL 1
REMARK minimizedAffinity -2.86646271
REMARK minimizedRMSD -1
REMARK  0 active torsions:
REMARK  status: ('A' for Active; 'I' for Inactive)
ROOT
ATOM      1  C1  BNZ d   1      -2.283   1.710   2.088  0.00  0.00     0.000 A 
ATOM      2  C2  BNZ d   1      -0.966   1.652   1.720  0.00  0.00     0.000 A 
ATOM      3  C3  BNZ d   1      -0.591   1.043   0.555  0.00  0.00     0.000 A 
ATOM      4  C4  BNZ d   1      -1.528   0.459  -0.219  0.00  0.00     0.000 A 
ATOM      5  C5  BNZ d   1      -2.860   0.501   0.143  0.00  0.00     0.000 A 
ATOM      6  C6  BNZ d   1      -3.238   1.148   1.297  0.00  0.00     0.000 A 
ENDROOT
TORSDOF 0
ENDMDL
