MODEL 1
REMARK minimizedAffinity 3.01549149
REMARK minimizedRMSD -1
REMARK  0 active torsions:
REMARK  status: ('A' for Active; 'I' for Inactive)
ROOT
ATOM      1  C1  BNZ d   1       1.400  -2.000  -0.572  0.00  0.00     0.000 A 
ATOM      2  C2  BNZ d   1       0.626  -2.656  -1.492  0.00  0.00     0.000 A 
ATOM      3  C3  BNZ d   1      -0.466  -2.050  -2.047  0.00  0.00     0.000 A 
ATOM      4  C4  BNZ d   1      -0.805  -0.806  -1.654  0.00  0.00     0.000 A 
ATOM      5  C5  BNZ d   1      -0.041  -0.134  -0.722  0.00  0.00     0.000 A 
ATOM      6  C6  BNZ d   1       1.080  -0.732  -0.193  0.00  0.00     0.000 A 
ENDROOT
TORSDOF 0
ENDMDL
