MODEL 1
REMARK minimizedAffinity -2.01021481
REMARK minimizedRMSD -1
REMARK  1 active torsions:
REMARK  status: ('A' for Active; 'I' for Inactive)
REMARK    1  A    between atoms: C1_2  and  C2_3 
ROOT
ATOM      1  C2  UNL d   1      -0.423   0.473  -0.450  0.00  0.00    -0.076 A 
ATOM      2  C3  UNL d   1       0.931   0.831  -0.330  0.00  0.00     0.004 A 
ATOM      3  C4  UNL d   1       1.616   0.652   0.871  0.00  0.00    -0.003 A 
ATOM      4  C5  UNL d   1       0.958   0.112   1.970  0.00  0.00     0.000 A 
ATOM      5  C6  UNL d   1      -0.380  -0.264   1.864  0.00  0.00     0.000 A 
ATOM      6  C7  UNL d   1      -1.081  -0.106   0.656  0.00  0.00    -0.073 A 
ATOM      7  C8  UNL d   1      -2.525  -0.523   0.599  0.00  0.00     0.078 C 
ENDROOT
BRANCH   1   8
ATOM      8  C1  UNL d   1      -1.122   0.716  -1.769  0.00  0.00     0.053 C 
ATOM      9  C   UNL d   1      -1.038   2.167  -2.215  0.00  0.00     0.018 C 
ENDBRANCH   1   8
TORSDOF 1
ENDMDL
