MODEL 1
REMARK minimizedAffinity -4.10078859
REMARK minimizedRMSD -1
REMARK  1 active torsions:
REMARK  status: ('A' for Active; 'I' for Inactive)
REMARK    1  A    between atoms: C1_2  and  C2_3 
ROOT
ATOM      1  C2  UNL d   1      -0.064   0.080   0.402  0.00  0.00    -0.076 A 
ATOM      2  C3  UNL d   1       1.332   0.118   0.563  0.00  0.00     0.004 A 
ATOM      3  C4  UNL d   1       1.933  -0.349   1.731  0.00  0.00    -0.003 A 
ATOM      4  C5  UNL d   1       1.147  -0.862   2.757  0.00  0.00     0.000 A 
ATOM      5  C6  UNL d   1      -0.238  -0.923   2.607  0.00  0.00     0.000 A 
ATOM      6  C7  UNL d   1      -0.858  -0.472   1.430  0.00  0.00    -0.073 A 
ATOM      7  C8  UNL d   1      -2.357  -0.556   1.325  0.00  0.00     0.078 C 
ENDROOT
BRANCH   1   8
ATOM      8  C1  UNL d   1      -0.661   0.626  -0.876  0.00  0.00     0.053 C 
ATOM      9  C   UNL d   1      -0.342  -0.241  -2.084  0.00  0.00     0.018 C 
ENDBRANCH   1   8
TORSDOF 1
ENDMDL
