MODEL 1
REMARK minimizedAffinity -2.44216418
REMARK minimizedRMSD -1
REMARK  1 active torsions:
REMARK  status: ('A' for Active; 'I' for Inactive)
REMARK    1  A    between atoms: C1_2  and  C2_3 
ROOT
ATOM      1  C2  UNL d   1       0.773  -0.283   0.770  0.00  0.00    -0.076 A 
ATOM      2  C3  UNL d   1      -0.619  -0.090   0.755  0.00  0.00     0.004 A 
ATOM      3  C4  UNL d   1      -1.333  -0.100  -0.442  0.00  0.00    -0.003 A 
ATOM      4  C5  UNL d   1      -0.665  -0.306  -1.645  0.00  0.00     0.000 A 
ATOM      5  C6  UNL d   1       0.713  -0.517  -1.647  0.00  0.00     0.000 A 
ATOM      6  C7  UNL d   1       1.445  -0.525  -0.448  0.00  0.00    -0.073 A 
ATOM      7  C8  UNL d   1       2.931  -0.752  -0.510  0.00  0.00     0.078 C 
ENDROOT
BRANCH   1   8
ATOM      8  C1  UNL d   1       1.497  -0.234   2.096  0.00  0.00     0.053 C 
ATOM      9  C   UNL d   1       1.066  -1.349   3.037  0.00  0.00     0.018 C 
ENDBRANCH   1   8
TORSDOF 1
ENDMDL
