MODEL 1
REMARK minimizedAffinity -3.62841344
REMARK minimizedRMSD -1
REMARK  1 active torsions:
REMARK  status: ('A' for Active; 'I' for Inactive)
REMARK    1  A    between atoms: C1_2  and  C2_3 
ROOT
ATOM      1  C2  UNL d   1       0.140  -0.367   0.110  0.00  0.00    -0.076 A 
ATOM      2  C3  UNL d   1       1.527  -0.500   0.297  0.00  0.00     0.004 A 
ATOM      3  C4  UNL d   1       2.062  -0.722   1.565  0.00  0.00    -0.003 A 
ATOM      4  C5  UNL d   1       1.219  -0.815   2.666  0.00  0.00     0.000 A 
ATOM      5  C6  UNL d   1      -0.161  -0.704   2.497  0.00  0.00     0.000 A 
ATOM      6  C7  UNL d   1      -0.718  -0.496   1.224  0.00  0.00    -0.073 A 
ATOM      7  C8  UNL d   1      -2.212  -0.377   1.100  0.00  0.00     0.078 C 
ENDROOT
BRANCH   1   8
ATOM      8  C1  UNL d   1      -0.381  -0.100  -1.284  0.00  0.00     0.053 C 
ATOM      9  C   UNL d   1      -0.260   1.363  -1.681  0.00  0.00     0.018 C 
ENDBRANCH   1   8
TORSDOF 1
ENDMDL
