MODEL 1
REMARK minimizedAffinity -3.35907221
REMARK minimizedRMSD -1
REMARK  1 active torsions:
REMARK  status: ('A' for Active; 'I' for Inactive)
REMARK    1  A    between atoms: C1_2  and  C2_3 
ROOT
ATOM      1  C2  UNL d   1       0.095  -0.138   0.247  0.00  0.00    -0.076 A 
ATOM      2  C3  UNL d   1       1.491  -0.213   0.391  0.00  0.00     0.004 A 
ATOM      3  C4  UNL d   1       2.074  -0.410   1.642  0.00  0.00    -0.003 A 
ATOM      4  C5  UNL d   1       1.269  -0.537   2.769  0.00  0.00     0.000 A 
ATOM      5  C6  UNL d   1      -0.119  -0.483   2.642  0.00  0.00     0.000 A 
ATOM      6  C7  UNL d   1      -0.722  -0.300   1.386  0.00  0.00    -0.073 A 
ATOM      7  C8  UNL d   1      -2.224  -0.243   1.309  0.00  0.00     0.078 C 
ENDROOT
BRANCH   1   8
ATOM      8  C1  UNL d   1      -0.479   0.105  -1.130  0.00  0.00     0.053 C 
ATOM      9  C   UNL d   1      -0.528   1.582  -1.489  0.00  0.00     0.018 C 
ENDBRANCH   1   8
TORSDOF 1
ENDMDL
