MODEL 1
REMARK minimizedAffinity -2.14696908
REMARK minimizedRMSD -1
REMARK  1 active torsions:
REMARK  status: ('A' for Active; 'I' for Inactive)
REMARK    1  A    between atoms: C1_2  and  C2_3 
ROOT
ATOM      1  C2  UNL d   1       1.018  -0.248   0.601  0.00  0.00    -0.076 A 
ATOM      2  C3  UNL d   1       0.279  -0.032  -0.575  0.00  0.00     0.004 A 
ATOM      3  C4  UNL d   1      -1.070  -0.376  -0.648  0.00  0.00    -0.003 A 
ATOM      4  C5  UNL d   1      -1.702  -0.941   0.454  0.00  0.00     0.000 A 
ATOM      5  C6  UNL d   1      -0.988  -1.147   1.634  0.00  0.00     0.000 A 
ATOM      6  C7  UNL d   1       0.368  -0.791   1.730  0.00  0.00    -0.073 A 
ATOM      7  C8  UNL d   1       1.090  -1.041   3.025  0.00  0.00     0.078 C 
ENDROOT
BRANCH   1   8
ATOM      8  C1  UNL d   1       2.484   0.120   0.613  0.00  0.00     0.053 C 
ATOM      9  C   UNL d   1       3.359  -0.953  -0.017  0.00  0.00     0.018 C 
ENDBRANCH   1   8
TORSDOF 1
ENDMDL
