MODEL 1
REMARK minimizedAffinity -4.29960108
REMARK minimizedRMSD -1
REMARK  1 active torsions:
REMARK  status: ('A' for Active; 'I' for Inactive)
REMARK    1  A    between atoms: C1_2  and  C2_3 
ROOT
ATOM      1  C2  UNL d   1      -0.014  -0.255  -0.130  0.00  0.00    -0.076 A 
ATOM      2  C3  UNL d   1       1.374  -0.381   0.053  0.00  0.00     0.004 A 
ATOM      3  C4  UNL d   1       1.915  -0.588   1.321  0.00  0.00    -0.003 A 
ATOM      4  C5  UNL d   1       1.076  -0.673   2.427  0.00  0.00     0.000 A 
ATOM      5  C6  UNL d   1      -0.305  -0.568   2.261  0.00  0.00     0.000 A 
ATOM      6  C7  UNL d   1      -0.867  -0.376   0.988  0.00  0.00    -0.073 A 
ATOM      7  C8  UNL d   1      -2.362  -0.264   0.868  0.00  0.00     0.078 C 
ENDROOT
BRANCH   1   8
ATOM      8  C1  UNL d   1      -0.540  -0.005  -1.525  0.00  0.00     0.053 C 
ATOM      9  C   UNL d   1      -0.132   1.357  -2.066  0.00  0.00     0.018 C 
ENDBRANCH   1   8
TORSDOF 1
ENDMDL
