MODEL 1
REMARK minimizedAffinity -6.02626419
REMARK minimizedRMSD -1
REMARK  1 active torsions:
REMARK  status: ('A' for Active; 'I' for Inactive)
REMARK    1  A    between atoms: C1_2  and  C2_3 
ROOT
ATOM      1  C2  UNL d   1      -0.645  -0.680   1.270  0.00  0.00    -0.076 A 
ATOM      2  C3  UNL d   1      -0.224  -1.179   2.515  0.00  0.00     0.004 A 
ATOM      3  C4  UNL d   1       1.000  -0.798   3.063  0.00  0.00    -0.003 A 
ATOM      4  C5  UNL d   1       1.821   0.089   2.376  0.00  0.00     0.000 A 
ATOM      5  C6  UNL d   1       1.411   0.608   1.149  0.00  0.00     0.000 A 
ATOM      6  C7  UNL d   1       0.173   0.246   0.589  0.00  0.00    -0.073 A 
ATOM      7  C8  UNL d   1      -0.216   0.831  -0.741  0.00  0.00     0.078 C 
ENDROOT
BRANCH   1   8
ATOM      8  C1  UNL d   1      -1.970  -1.150   0.712  0.00  0.00     0.053 C 
ATOM      9  C   UNL d   1      -3.157  -0.492   1.398  0.00  0.00     0.018 C 
ENDBRANCH   1   8
TORSDOF 1
ENDMDL
