MODEL 1
REMARK minimizedAffinity 9.89996052
REMARK minimizedRMSD -1
REMARK  1 active torsions:
REMARK  status: ('A' for Active; 'I' for Inactive)
REMARK    1  A    between atoms: C1_2  and  C2_3 
ROOT
ATOM      1  C2  UNL d   1       2.285  -0.420   1.499  0.00  0.00    -0.081 A 
ATOM      2  C3  UNL d   1       2.052  -1.086   0.289  0.00  0.00     0.006 A 
ATOM      3  C4  UNL d   1       0.753  -1.440  -0.085  0.00  0.00     0.002 A 
ATOM      4  C5  UNL d   1      -0.333  -1.127   0.740  0.00  0.00    -0.080 A 
ATOM      5  C6  UNL d   1      -1.735  -1.475   0.336  0.00  0.00     0.076 C 
ATOM      6  C7  UNL d   1      -0.098  -0.478   1.956  0.00  0.00     0.002 A 
ATOM      7  C8  UNL d   1       1.200  -0.124   2.331  0.00  0.00     0.006 A 
ENDROOT
BRANCH   1   8
ATOM      8  C1  UNL d   1       3.677   0.021   1.874  0.00  0.00     0.054 C 
ATOM      9  C   UNL d   1       4.723  -0.630   0.981  0.00  0.00     0.018 C 
ENDBRANCH   1   8
TORSDOF 1
ENDMDL
