MODEL 1
REMARK minimizedAffinity 4.71923637
REMARK minimizedRMSD -1
REMARK  1 active torsions:
REMARK  status: ('A' for Active; 'I' for Inactive)
REMARK    1  A    between atoms: C1_2  and  C2_3 
ROOT
ATOM      1  C2  UNL d   1       2.688  -1.342   0.244  0.00  0.00    -0.081 A 
ATOM      2  C3  UNL d   1       2.105  -2.599   0.041  0.00  0.00     0.006 A 
ATOM      3  C4  UNL d   1       0.726  -2.771   0.181  0.00  0.00     0.002 A 
ATOM      4  C5  UNL d   1      -0.094  -1.688   0.517  0.00  0.00    -0.080 A 
ATOM      5  C6  UNL d   1      -1.580  -1.853   0.640  0.00  0.00     0.076 C 
ATOM      6  C7  UNL d   1       0.490  -0.436   0.737  0.00  0.00     0.002 A 
ATOM      7  C8  UNL d   1       1.869  -0.264   0.598  0.00  0.00     0.006 A 
ENDROOT
BRANCH   1   8
ATOM      8  C1  UNL d   1       4.166  -1.139   0.031  0.00  0.00     0.054 C 
ATOM      9  C   UNL d   1       4.861  -0.733   1.323  0.00  0.00     0.018 C 
ENDBRANCH   1   8
TORSDOF 1
ENDMDL
