MODEL 1
REMARK minimizedAffinity -1.26831591
REMARK minimizedRMSD -1
REMARK  1 active torsions:
REMARK  status: ('A' for Active; 'I' for Inactive)
REMARK    1  A    between atoms: C1_2  and  C2_3 
ROOT
ATOM      1  C2  UNL d   1       2.838  -3.426   0.026  0.00  0.00    -0.081 A 
ATOM      2  C3  UNL d   1       1.600  -4.073   0.131  0.00  0.00     0.006 A 
ATOM      3  C4  UNL d   1       0.439  -3.342   0.393  0.00  0.00     0.002 A 
ATOM      4  C5  UNL d   1       0.495  -1.952   0.546  0.00  0.00    -0.080 A 
ATOM      5  C6  UNL d   1      -0.749  -1.152   0.797  0.00  0.00     0.076 C 
ATOM      6  C7  UNL d   1       1.733  -1.308   0.458  0.00  0.00     0.002 A 
ATOM      7  C8  UNL d   1       2.895  -2.038   0.197  0.00  0.00     0.006 A 
ENDROOT
BRANCH   1   8
ATOM      8  C1  UNL d   1       4.082  -4.203  -0.320  0.00  0.00     0.054 C 
ATOM      9  C   UNL d   1       4.143  -5.519   0.443  0.00  0.00     0.018 C 
ENDBRANCH   1   8
TORSDOF 1
ENDMDL
