MODEL 1
REMARK minimizedAffinity -2.10318708
REMARK minimizedRMSD -1
REMARK  1 active torsions:
REMARK  status: ('A' for Active; 'I' for Inactive)
REMARK    1  A    between atoms: C1_2  and  C2_3 
ROOT
ATOM      1  C2  UNL d   1       1.510  -1.857   0.281  0.00  0.00    -0.081 A 
ATOM      2  C3  UNL d   1       0.642  -0.764   0.171  0.00  0.00     0.006 A 
ATOM      3  C4  UNL d   1      -0.717  -0.907   0.464  0.00  0.00     0.002 A 
ATOM      4  C5  UNL d   1      -1.227  -2.142   0.878  0.00  0.00    -0.080 A 
ATOM      5  C6  UNL d   1      -2.678  -2.301   1.224  0.00  0.00     0.076 C 
ATOM      6  C7  UNL d   1      -0.363  -3.238   0.970  0.00  0.00     0.002 A 
ATOM      7  C8  UNL d   1       0.995  -3.096   0.677  0.00  0.00     0.006 A 
ENDROOT
BRANCH   1   8
ATOM      8  C1  UNL d   1       2.987  -1.691   0.028  0.00  0.00     0.054 C 
ATOM      9  C   UNL d   1       3.703  -3.034   0.028  0.00  0.00     0.018 C 
ENDBRANCH   1   8
TORSDOF 1
ENDMDL
