MODEL 1
REMARK minimizedAffinity 0.668490231
REMARK minimizedRMSD -1
REMARK  1 active torsions:
REMARK  status: ('A' for Active; 'I' for Inactive)
REMARK    1  A    between atoms: C1_2  and  C2_3 
ROOT
ATOM      1  C2  UNL d   1       2.014  -3.776   0.594  0.00  0.00    -0.081 A 
ATOM      2  C3  UNL d   1       2.602  -2.516   0.759  0.00  0.00     0.006 A 
ATOM      3  C4  UNL d   1       1.809  -1.368   0.827  0.00  0.00     0.002 A 
ATOM      4  C5  UNL d   1       0.416  -1.461   0.737  0.00  0.00    -0.080 A 
ATOM      5  C6  UNL d   1      -0.448  -0.239   0.838  0.00  0.00     0.076 C 
ATOM      6  C7  UNL d   1      -0.170  -2.718   0.555  0.00  0.00     0.002 A 
ATOM      7  C8  UNL d   1       0.621  -3.866   0.487  0.00  0.00     0.006 A 
ENDROOT
BRANCH   1   8
ATOM      8  C1  UNL d   1       2.861  -5.023   0.586  0.00  0.00     0.054 C 
ATOM      9  C   UNL d   1       4.327  -4.694   0.339  0.00  0.00     0.018 C 
ENDBRANCH   1   8
TORSDOF 1
ENDMDL
