MODEL 1
REMARK minimizedAffinity -3.19578195
REMARK minimizedRMSD -1
REMARK  1 active torsions:
REMARK  status: ('A' for Active; 'I' for Inactive)
REMARK    1  A    between atoms: C1_2  and  C2_3 
ROOT
ATOM      1  C2  UNL d   1       0.272  -1.709   0.383  0.00  0.00    -0.081 A 
ATOM      2  C3  UNL d   1       0.113  -3.004  -0.127  0.00  0.00     0.006 A 
ATOM      3  C4  UNL d   1       1.197  -3.882  -0.182  0.00  0.00     0.002 A 
ATOM      4  C5  UNL d   1       2.457  -3.484   0.279  0.00  0.00    -0.080 A 
ATOM      5  C6  UNL d   1       3.623  -4.427   0.253  0.00  0.00     0.076 C 
ATOM      6  C7  UNL d   1       2.621  -2.185   0.772  0.00  0.00     0.002 A 
ATOM      7  C8  UNL d   1       1.536  -1.306   0.827  0.00  0.00     0.006 A 
ENDROOT
BRANCH   1   8
ATOM      8  C1  UNL d   1      -0.910  -0.782   0.504  0.00  0.00     0.054 C 
ATOM      9  C   UNL d   1      -0.688   0.260   1.591  0.00  0.00     0.018 C 
ENDBRANCH   1   8
TORSDOF 1
ENDMDL
