MODEL 1
REMARK minimizedAffinity 1.24523485
REMARK minimizedRMSD -1
REMARK  1 active torsions:
REMARK  status: ('A' for Active; 'I' for Inactive)
REMARK    1  A    between atoms: C1_2  and  C2_3 
ROOT
ATOM      1  C2  UNL d   1       0.856  -1.516   0.610  0.00  0.00    -0.081 A 
ATOM      2  C3  UNL d   1       0.381  -2.825   0.467  0.00  0.00     0.006 A 
ATOM      3  C4  UNL d   1       1.274  -3.894   0.361  0.00  0.00     0.002 A 
ATOM      4  C5  UNL d   1       2.655  -3.673   0.403  0.00  0.00    -0.080 A 
ATOM      5  C6  UNL d   1       3.624  -4.815   0.321  0.00  0.00     0.076 C 
ATOM      6  C7  UNL d   1       3.129  -2.363   0.528  0.00  0.00     0.002 A 
ATOM      7  C8  UNL d   1       2.237  -1.293   0.634  0.00  0.00     0.006 A 
ENDROOT
BRANCH   1   8
ATOM      8  C1  UNL d   1      -0.105  -0.368   0.790  0.00  0.00     0.054 C 
ATOM      9  C   UNL d   1      -1.537  -0.795   0.502  0.00  0.00     0.018 C 
ENDBRANCH   1   8
TORSDOF 1
ENDMDL
