MODEL 1
REMARK minimizedAffinity -2.20821333
REMARK minimizedRMSD -1
REMARK  1 active torsions:
REMARK  status: ('A' for Active; 'I' for Inactive)
REMARK    1  A    between atoms: C1_2  and  C2_3 
ROOT
ATOM      1  C2  UNL d   1       2.873  -3.085  -0.215  0.00  0.00    -0.081 A 
ATOM      2  C3  UNL d   1       1.594  -3.584   0.062  0.00  0.00     0.006 A 
ATOM      3  C4  UNL d   1       0.561  -2.720   0.433  0.00  0.00     0.002 A 
ATOM      4  C5  UNL d   1       0.787  -1.343   0.527  0.00  0.00    -0.080 A 
ATOM      5  C6  UNL d   1      -0.320  -0.401   0.895  0.00  0.00     0.076 C 
ATOM      6  C7  UNL d   1       2.069  -0.846   0.267  0.00  0.00     0.002 A 
ATOM      7  C8  UNL d   1       3.102  -1.709  -0.104  0.00  0.00     0.006 A 
ENDROOT
BRANCH   1   8
ATOM      8  C1  UNL d   1       3.972  -4.006  -0.679  0.00  0.00     0.054 C 
ATOM      9  C   UNL d   1       4.154  -5.176   0.277  0.00  0.00     0.018 C 
ENDBRANCH   1   8
TORSDOF 1
ENDMDL
