MODEL 1
REMARK minimizedAffinity 3.70008516
REMARK minimizedRMSD -1
REMARK  1 active torsions:
REMARK  status: ('A' for Active; 'I' for Inactive)
REMARK    1  A    between atoms: C1_2  and  C2_3 
ROOT
ATOM      1  C2  UNL d   1      -1.455  -0.352   1.569  0.00  0.00    -0.081 A 
ATOM      2  C3  UNL d   1      -0.174  -0.200   2.112  0.00  0.00     0.006 A 
ATOM      3  C4  UNL d   1       0.850  -1.087   1.771  0.00  0.00     0.002 A 
ATOM      4  C5  UNL d   1       0.611  -2.135   0.876  0.00  0.00    -0.080 A 
ATOM      5  C6  UNL d   1       1.709  -3.077   0.478  0.00  0.00     0.076 C 
ATOM      6  C7  UNL d   1      -0.673  -2.298   0.346  0.00  0.00     0.002 A 
ATOM      7  C8  UNL d   1      -1.697  -1.412   0.688  0.00  0.00     0.006 A 
ENDROOT
BRANCH   1   8
ATOM      8  C1  UNL d   1      -2.544   0.641   1.885  0.00  0.00     0.054 C 
ATOM      9  C   UNL d   1      -3.445   0.877   0.680  0.00  0.00     0.018 C 
ENDBRANCH   1   8
TORSDOF 1
ENDMDL
