MODEL 1
REMARK minimizedAffinity -3.62839746
REMARK minimizedRMSD -1
REMARK  1 active torsions:
REMARK  status: ('A' for Active; 'I' for Inactive)
REMARK    1  A    between atoms: C1_2  and  C2_3 
ROOT
ATOM      1  C2  UNL d   1       2.365  -2.331   0.161  0.00  0.00    -0.081 A 
ATOM      2  C3  UNL d   1       2.313  -1.020   0.650  0.00  0.00     0.006 A 
ATOM      3  C4  UNL d   1       1.091  -0.446   1.010  0.00  0.00     0.002 A 
ATOM      4  C5  UNL d   1      -0.097  -1.175   0.894  0.00  0.00    -0.080 A 
ATOM      5  C6  UNL d   1      -1.411  -0.581   1.305  0.00  0.00     0.076 C 
ATOM      6  C7  UNL d   1      -0.048  -2.478   0.389  0.00  0.00     0.002 A 
ATOM      7  C8  UNL d   1       1.173  -3.053   0.028  0.00  0.00     0.006 A 
ENDROOT
BRANCH   1   8
ATOM      8  C1  UNL d   1       3.687  -2.975  -0.167  0.00  0.00     0.054 C 
ATOM      9  C   UNL d   1       3.590  -4.493  -0.119  0.00  0.00     0.018 C 
ENDBRANCH   1   8
TORSDOF 1
ENDMDL
