MODEL 1
REMARK minimizedAffinity 3.01533246
REMARK minimizedRMSD -1
REMARK  1 active torsions:
REMARK  status: ('A' for Active; 'I' for Inactive)
REMARK    1  A    between atoms: C1_2  and  C2_3 
ROOT
ATOM      1  C2  UNL d   1       0.500  -1.681   0.497  0.00  0.00    -0.081 A 
ATOM      2  C3  UNL d   1       0.080  -3.016   0.494  0.00  0.00     0.006 A 
ATOM      3  C4  UNL d   1       0.995  -4.046   0.264  0.00  0.00     0.002 A 
ATOM      4  C5  UNL d   1       2.346  -3.759   0.041  0.00  0.00    -0.080 A 
ATOM      5  C6  UNL d   1       3.344  -4.857  -0.177  0.00  0.00     0.076 C 
ATOM      6  C7  UNL d   1       2.763  -2.424   0.026  0.00  0.00     0.002 A 
ATOM      7  C8  UNL d   1       1.848  -1.393   0.256  0.00  0.00     0.006 A 
ENDROOT
BRANCH   1   8
ATOM      8  C1  UNL d   1      -0.472  -0.572   0.809  0.00  0.00     0.054 C 
ATOM      9  C   UNL d   1       0.051   0.327   1.920  0.00  0.00     0.018 C 
ENDBRANCH   1   8
TORSDOF 1
ENDMDL
