MODEL 1
REMARK minimizedAffinity -3.93084717
REMARK minimizedRMSD -1
REMARK  1 active torsions:
REMARK  status: ('A' for Active; 'I' for Inactive)
REMARK    1  A    between atoms: C1_2  and  C2_3 
ROOT
ATOM      1  C2  UNL d   1       0.445  -1.091   0.875  0.00  0.00    -0.081 A 
ATOM      2  C3  UNL d   1       0.032  -2.429   0.841  0.00  0.00     0.006 A 
ATOM      3  C4  UNL d   1       0.936  -3.441   0.507  0.00  0.00     0.002 A 
ATOM      4  C5  UNL d   1       2.268  -3.133   0.210  0.00  0.00    -0.080 A 
ATOM      5  C6  UNL d   1       3.255  -4.212  -0.121  0.00  0.00     0.076 C 
ATOM      6  C7  UNL d   1       2.676  -1.795   0.226  0.00  0.00     0.002 A 
ATOM      7  C8  UNL d   1       1.773  -0.783   0.559  0.00  0.00     0.006 A 
ENDROOT
BRANCH   1   8
ATOM      8  C1  UNL d   1      -0.511  -0.005   1.297  0.00  0.00     0.054 C 
ATOM      9  C   UNL d   1      -1.955  -0.408   1.039  0.00  0.00     0.018 C 
ENDBRANCH   1   8
TORSDOF 1
ENDMDL
