MODEL 1
REMARK minimizedAffinity 2.15980673
REMARK minimizedRMSD -1
REMARK  1 active torsions:
REMARK  status: ('A' for Active; 'I' for Inactive)
REMARK    1  A    between atoms: C1_2  and  C2_3 
ROOT
ATOM      1  C2  UNL d   1       1.551  -1.384   0.288  0.00  0.00    -0.081 A 
ATOM      2  C3  UNL d   1       0.822  -0.760   1.308  0.00  0.00     0.006 A 
ATOM      3  C4  UNL d   1      -0.463  -1.203   1.632  0.00  0.00     0.002 A 
ATOM      4  C5  UNL d   1      -1.035  -2.281   0.948  0.00  0.00    -0.080 A 
ATOM      5  C6  UNL d   1      -2.401  -2.786   1.307  0.00  0.00     0.076 C 
ATOM      6  C7  UNL d   1      -0.314  -2.892  -0.083  0.00  0.00     0.002 A 
ATOM      7  C8  UNL d   1       0.970  -2.449  -0.408  0.00  0.00     0.006 A 
ENDROOT
BRANCH   1   8
ATOM      8  C1  UNL d   1       2.962  -0.950  -0.020  0.00  0.00     0.054 C 
ATOM      9  C   UNL d   1       3.913  -2.138  -0.046  0.00  0.00     0.018 C 
ENDBRANCH   1   8
TORSDOF 1
ENDMDL
