MODEL 1
REMARK minimizedAffinity -0.479794443
REMARK minimizedRMSD -1
REMARK  1 active torsions:
REMARK  status: ('A' for Active; 'I' for Inactive)
REMARK    1  A    between atoms: C1_2  and  C2_3 
ROOT
ATOM      1  C2  UNL d   1       1.944  -2.721  -0.239  0.00  0.00    -0.081 A 
ATOM      2  C3  UNL d   1       2.172  -1.344  -0.349  0.00  0.00     0.006 A 
ATOM      3  C4  UNL d   1       1.257  -0.430   0.179  0.00  0.00     0.002 A 
ATOM      4  C5  UNL d   1       0.103  -0.878   0.832  0.00  0.00    -0.080 A 
ATOM      5  C6  UNL d   1      -0.873   0.092   1.429  0.00  0.00     0.076 C 
ATOM      6  C7  UNL d   1      -0.133  -2.254   0.926  0.00  0.00     0.002 A 
ATOM      7  C8  UNL d   1       0.781  -3.168   0.398  0.00  0.00     0.006 A 
ENDROOT
BRANCH   1   8
ATOM      8  C1  UNL d   1       2.961  -3.710  -0.750  0.00  0.00     0.054 C 
ATOM      9  C   UNL d   1       4.365  -3.350  -0.283  0.00  0.00     0.018 C 
ENDBRANCH   1   8
TORSDOF 1
ENDMDL
