MODEL 1
REMARK minimizedAffinity -4.1773324
REMARK minimizedRMSD -1
REMARK  0 active torsions:
REMARK  status: ('A' for Active; 'I' for Inactive)
ROOT
ATOM      1  C4' PXY d   1      -1.097  -2.342   2.766  0.00  0.00     0.077 C 
ATOM      2  C1' PXY d   1       2.952  -0.525  -0.938  0.00  0.00     0.077 C 
ATOM      3  C1  PXY d   1       1.898  -1.011   0.037  0.00  0.00    -0.082 A 
ATOM      4  C2  PXY d   1       0.626  -0.714  -0.173  0.00  0.00     0.003 A 
ATOM      5  C3  PXY d   1      -0.337  -1.119   0.716  0.00  0.00     0.003 A 
ATOM      6  C4  PXY d   1       0.000  -1.880   1.803  0.00  0.00    -0.082 A 
ATOM      7  C5  PXY d   1       1.295  -2.196   2.019  0.00  0.00     0.003 A 
ATOM      8  C6  PXY d   1       2.262  -1.740   1.127  0.00  0.00     0.003 A 
ENDROOT
TORSDOF 0
ENDMDL
