MODEL 1
REMARK minimizedAffinity -3.97116113
REMARK minimizedRMSD -1
REMARK  0 active torsions:
REMARK  status: ('A' for Active; 'I' for Inactive)
ROOT
ATOM      1  C4' PXY d   1       1.377  -3.277   0.624  0.00  0.00     0.077 C 
ATOM      2  C1' PXY d   1      -0.755   1.985  -0.466  0.00  0.00     0.077 C 
ATOM      3  C1  PXY d   1      -0.185   0.608  -0.186  0.00  0.00    -0.082 A 
ATOM      4  C2  PXY d   1      -1.004  -0.418  -0.022  0.00  0.00     0.003 A 
ATOM      5  C3  PXY d   1      -0.506  -1.664   0.264  0.00  0.00     0.003 A 
ATOM      6  C4  PXY d   1       0.846  -1.871   0.330  0.00  0.00    -0.082 A 
ATOM      7  C5  PXY d   1       1.688  -0.831   0.153  0.00  0.00     0.003 A 
ATOM      8  C6  PXY d   1       1.161   0.433  -0.095  0.00  0.00     0.003 A 
ENDROOT
TORSDOF 0
ENDMDL
