MODEL 1
REMARK minimizedAffinity -1.53137827
REMARK minimizedRMSD -1
REMARK  0 active torsions:
REMARK  status: ('A' for Active; 'I' for Inactive)
ROOT
ATOM      1  C4' PXY d   1       2.817   0.459  -0.900  0.00  0.00     0.077 C 
ATOM      2  C1' PXY d   1      -1.518  -2.371   1.672  0.00  0.00     0.077 C 
ATOM      3  C1  PXY d   1      -0.390  -1.623   0.989  0.00  0.00    -0.082 A 
ATOM      4  C2  PXY d   1       0.839  -2.113   1.030  0.00  0.00     0.003 A 
ATOM      5  C3  PXY d   1       1.876  -1.433   0.446  0.00  0.00     0.003 A 
ATOM      6  C4  PXY d   1       1.646  -0.267  -0.233  0.00  0.00    -0.082 A 
ATOM      7  C5  PXY d   1       0.393   0.234  -0.289  0.00  0.00     0.003 A 
ATOM      8  C6  PXY d   1      -0.639  -0.450   0.346  0.00  0.00     0.003 A 
ENDROOT
TORSDOF 0
ENDMDL
