MODEL 1
REMARK minimizedAffinity -3.90068913
REMARK minimizedRMSD -1
REMARK  0 active torsions:
REMARK  status: ('A' for Active; 'I' for Inactive)
ROOT
ATOM      1  C4' PXY d   1      -1.741  -2.103   1.756  0.00  0.00     0.077 C 
ATOM      2  C1' PXY d   1       2.751   0.209  -1.053  0.00  0.00     0.077 C 
ATOM      3  C1  PXY d   1       1.568  -0.385  -0.314  0.00  0.00    -0.082 A 
ATOM      4  C2  PXY d   1       1.678  -1.581   0.241  0.00  0.00     0.003 A 
ATOM      5  C3  PXY d   1       0.608  -2.147   0.885  0.00  0.00     0.003 A 
ATOM      6  C4  PXY d   1      -0.570  -1.459   1.008  0.00  0.00    -0.082 A 
ATOM      7  C5  PXY d   1      -0.686  -0.234   0.454  0.00  0.00     0.003 A 
ATOM      8  C6  PXY d   1       0.399   0.305  -0.232  0.00  0.00     0.003 A 
ENDROOT
TORSDOF 0
ENDMDL
