MODEL 1
REMARK minimizedAffinity -4.70930243
REMARK minimizedRMSD -1
REMARK  0 active torsions:
REMARK  status: ('A' for Active; 'I' for Inactive)
ROOT
ATOM      1  C4' PXY d   1       3.318   0.560  -0.902  0.00  0.00     0.077 C 
ATOM      2  C1' PXY d   1      -1.114  -2.107   1.678  0.00  0.00     0.077 C 
ATOM      3  C1  PXY d   1       0.056  -1.412   1.010  0.00  0.00    -0.082 A 
ATOM      4  C2  PXY d   1      -0.155  -0.329   0.280  0.00  0.00     0.003 A 
ATOM      5  C3  PXY d   1       0.888   0.293  -0.356  0.00  0.00     0.003 A 
ATOM      6  C4  PXY d   1       2.168  -0.168  -0.202  0.00  0.00    -0.082 A 
ATOM      7  C5  PXY d   1       2.393  -1.266   0.550  0.00  0.00     0.003 A 
ATOM      8  C6  PXY d   1       1.316  -1.907   1.155  0.00  0.00     0.003 A 
ENDROOT
TORSDOF 0
ENDMDL
