MODEL 1
REMARK minimizedAffinity -3.40088105
REMARK minimizedRMSD -1
REMARK  0 active torsions:
REMARK  status: ('A' for Active; 'I' for Inactive)
ROOT
ATOM      1  C4' PXY d   1       1.365  -3.098   0.660  0.00  0.00     0.077 C 
ATOM      2  C1' PXY d   1      -0.934   2.046  -0.633  0.00  0.00     0.077 C 
ATOM      3  C1  PXY d   1      -0.340   0.695  -0.284  0.00  0.00    -0.082 A 
ATOM      4  C2  PXY d   1       0.922   0.438  -0.586  0.00  0.00     0.003 A 
ATOM      5  C3  PXY d   1       1.466  -0.789  -0.307  0.00  0.00     0.003 A 
ATOM      6  C4  PXY d   1       0.726  -1.745   0.336  0.00  0.00    -0.082 A 
ATOM      7  C5  PXY d   1      -0.560  -1.487   0.656  0.00  0.00     0.003 A 
ATOM      8  C6  PXY d   1      -1.105  -0.250   0.327  0.00  0.00     0.003 A 
ENDROOT
TORSDOF 0
ENDMDL
