MODEL 1
REMARK minimizedAffinity -3.38873625
REMARK minimizedRMSD -1
REMARK  0 active torsions:
REMARK  status: ('A' for Active; 'I' for Inactive)
ROOT
ATOM      1  C4' PXY d   1       1.750  -2.971   1.136  0.00  0.00     0.077 C 
ATOM      2  C1' PXY d   1      -0.900   1.783  -0.813  0.00  0.00     0.077 C 
ATOM      3  C1  PXY d   1      -0.196   0.538  -0.311  0.00  0.00    -0.082 A 
ATOM      4  C2  PXY d   1      -0.886  -0.391   0.330  0.00  0.00     0.003 A 
ATOM      5  C3  PXY d   1      -0.259  -1.508   0.819  0.00  0.00     0.003 A 
ATOM      6  C4  PXY d   1       1.079  -1.702   0.603  0.00  0.00    -0.082 A 
ATOM      7  C5  PXY d   1       1.788  -0.764  -0.059  0.00  0.00     0.003 A 
ATOM      8  C6  PXY d   1       1.141   0.382  -0.512  0.00  0.00     0.003 A 
ENDROOT
TORSDOF 0
ENDMDL
