MODEL 1
REMARK minimizedAffinity -4.71236849
REMARK minimizedRMSD -1
REMARK  0 active torsions:
REMARK  status: ('A' for Active; 'I' for Inactive)
ROOT
ATOM      1  C4' PXY d   1       1.657  -2.488   1.189  0.00  0.00     0.077 C 
ATOM      2  C1' PXY d   1      -1.000   2.159  -0.993  0.00  0.00     0.077 C 
ATOM      3  C1  PXY d   1      -0.295   0.940  -0.431  0.00  0.00    -0.082 A 
ATOM      4  C2  PXY d   1      -0.946   0.124   0.382  0.00  0.00     0.003 A 
ATOM      5  C3  PXY d   1      -0.314  -0.965   0.924  0.00  0.00     0.003 A 
ATOM      6  C4  PXY d   1       0.982  -1.251   0.590  0.00  0.00    -0.082 A 
ATOM      7  C5  PXY d   1       1.651  -0.429  -0.247  0.00  0.00     0.003 A 
ATOM      8  C6  PXY d   1       1.004   0.694  -0.754  0.00  0.00     0.003 A 
ENDROOT
TORSDOF 0
ENDMDL
