MODEL 1
REMARK minimizedAffinity -1.03167963
REMARK minimizedRMSD -1
REMARK  0 active torsions:
REMARK  status: ('A' for Active; 'I' for Inactive)
ROOT
ATOM      1  C4' PXY d   1       4.239  -0.987   2.008  0.00  0.00     0.077 C 
ATOM      2  C1' PXY d   1      -0.581   0.020  -1.021  0.00  0.00     0.077 C 
ATOM      3  C1  PXY d   1       0.676  -0.250  -0.217  0.00  0.00    -0.082 A 
ATOM      4  C2  PXY d   1       1.741   0.516  -0.391  0.00  0.00     0.003 A 
ATOM      5  C3  PXY d   1       2.896   0.266   0.304  0.00  0.00     0.003 A 
ATOM      6  C4  PXY d   1       2.945  -0.745   1.225  0.00  0.00    -0.082 A 
ATOM      7  C5  PXY d   1       1.860  -1.525   1.416  0.00  0.00     0.003 A 
ATOM      8  C6  PXY d   1       0.710  -1.280   0.671  0.00  0.00     0.003 A 
ENDROOT
TORSDOF 0
ENDMDL
