MODEL 1
REMARK minimizedAffinity -3.27686381
REMARK minimizedRMSD -1
REMARK  0 active torsions:
REMARK  status: ('A' for Active; 'I' for Inactive)
ROOT
ATOM      1  C4' PXY d   1       0.883  -3.159   1.264  0.00  0.00     0.077 C 
ATOM      2  C1' PXY d   1      -1.681   1.776  -0.313  0.00  0.00     0.077 C 
ATOM      3  C1  PXY d   1      -1.014   0.482   0.112  0.00  0.00    -0.082 A 
ATOM      4  C2  PXY d   1       0.103   0.096  -0.482  0.00  0.00     0.003 A 
ATOM      5  C3  PXY d   1       0.701  -1.087  -0.132  0.00  0.00     0.003 A 
ATOM      6  C4  PXY d   1       0.181  -1.856   0.873  0.00  0.00    -0.082 A 
ATOM      7  C5  PXY d   1      -0.953  -1.464   1.492  0.00  0.00     0.003 A 
ATOM      8  C6  PXY d   1      -1.568  -0.280   1.094  0.00  0.00     0.003 A 
ENDROOT
TORSDOF 0
ENDMDL
