MODEL 1
REMARK minimizedAffinity -4.55863619
REMARK minimizedRMSD -1
REMARK  0 active torsions:
REMARK  status: ('A' for Active; 'I' for Inactive)
ROOT
ATOM      1  C4' PXY d   1      -1.614   1.676  -1.043  0.00  0.00     0.077 C 
ATOM      2  C1' PXY d   1       1.048  -2.806   1.457  0.00  0.00     0.077 C 
ATOM      3  C1  PXY d   1       0.342  -1.629   0.812  0.00  0.00    -0.082 A 
ATOM      4  C2  PXY d   1       0.291  -1.540  -0.507  0.00  0.00     0.003 A 
ATOM      5  C3  PXY d   1      -0.315  -0.466  -1.106  0.00  0.00     0.003 A 
ATOM      6  C4  PXY d   1      -0.921   0.500  -0.348  0.00  0.00    -0.082 A 
ATOM      7  C5  PXY d   1      -0.882   0.411   0.998  0.00  0.00     0.003 A 
ATOM      8  C6  PXY d   1      -0.226  -0.666   1.588  0.00  0.00     0.003 A 
ENDROOT
TORSDOF 0
ENDMDL
