MODEL 1
REMARK minimizedAffinity -4.25395489
REMARK minimizedRMSD -1
REMARK  0 active torsions:
REMARK  status: ('A' for Active; 'I' for Inactive)
ROOT
ATOM      1  C4' PXY d   1      -1.166   1.914  -1.613  0.00  0.00     0.077 C 
ATOM      2  C1' PXY d   1       2.112  -1.933   1.191  0.00  0.00     0.077 C 
ATOM      3  C1  PXY d   1       1.242  -0.932   0.457  0.00  0.00    -0.082 A 
ATOM      4  C2  PXY d   1       1.804  -0.036  -0.338  0.00  0.00     0.003 A 
ATOM      5  C3  PXY d   1       1.035   0.897  -0.985  0.00  0.00     0.003 A 
ATOM      6  C4  PXY d   1      -0.328   0.879  -0.859  0.00  0.00    -0.082 A 
ATOM      7  C5  PXY d   1      -0.910  -0.039  -0.058  0.00  0.00     0.003 A 
ATOM      8  C6  PXY d   1      -0.108  -0.951   0.622  0.00  0.00     0.003 A 
ENDROOT
TORSDOF 0
ENDMDL
