MODEL 1
REMARK minimizedAffinity -3.4134891
REMARK minimizedRMSD -1
REMARK  0 active torsions:
REMARK  status: ('A' for Active; 'I' for Inactive)
ROOT
ATOM      1  C4' PXY d   1       1.882  -3.122   0.943  0.00  0.00     0.077 C 
ATOM      2  C1' PXY d   1      -0.664   1.805  -0.687  0.00  0.00     0.077 C 
ATOM      3  C1  PXY d   1       0.014   0.517  -0.266  0.00  0.00    -0.082 A 
ATOM      4  C2  PXY d   1      -0.719  -0.549   0.012  0.00  0.00     0.003 A 
ATOM      5  C3  PXY d   1      -0.124  -1.712   0.426  0.00  0.00     0.003 A 
ATOM      6  C4  PXY d   1       1.240  -1.803   0.505  0.00  0.00    -0.082 A 
ATOM      7  C5  PXY d   1       1.996  -0.723   0.213  0.00  0.00     0.003 A 
ATOM      8  C6  PXY d   1       1.370   0.461  -0.165  0.00  0.00     0.003 A 
ENDROOT
TORSDOF 0
ENDMDL
