MODEL 1
REMARK minimizedAffinity -3.25307441
REMARK minimizedRMSD -1
REMARK  0 active torsions:
REMARK  status: ('A' for Active; 'I' for Inactive)
ROOT
ATOM      1  C4' PXY d   1      -1.325   1.358  -1.062  0.00  0.00     0.077 C 
ATOM      2  C1' PXY d   1       1.354  -3.069   1.515  0.00  0.00     0.077 C 
ATOM      3  C1  PXY d   1       0.663  -1.902   0.838  0.00  0.00    -0.082 A 
ATOM      4  C2  PXY d   1      -0.622  -1.682   1.065  0.00  0.00     0.003 A 
ATOM      5  C3  PXY d   1      -1.270  -0.650   0.436  0.00  0.00     0.003 A 
ATOM      6  C4  PXY d   1      -0.584   0.197  -0.393  0.00  0.00    -0.082 A 
ATOM      7  C5  PXY d   1       0.730  -0.015  -0.621  0.00  0.00     0.003 A 
ATOM      8  C6  PXY d   1       1.360  -1.093  -0.005  0.00  0.00     0.003 A 
ENDROOT
TORSDOF 0
ENDMDL
