MODEL 1
REMARK minimizedAffinity -3.87548709
REMARK minimizedRMSD -1
REMARK  0 active torsions:
REMARK  status: ('A' for Active; 'I' for Inactive)
ROOT
ATOM      1  C4' PXY d   1      -1.114   1.836  -0.910  0.00  0.00     0.077 C 
ATOM      2  C1' PXY d   1       1.694  -2.834   1.019  0.00  0.00     0.077 C 
ATOM      3  C1  PXY d   1       0.968  -1.602   0.515  0.00  0.00    -0.082 A 
ATOM      4  C2  PXY d   1      -0.354  -1.569   0.533  0.00  0.00     0.003 A 
ATOM      5  C3  PXY d   1      -1.028  -0.476   0.052  0.00  0.00     0.003 A 
ATOM      6  C4  PXY d   1      -0.339   0.617  -0.403  0.00  0.00    -0.082 A 
ATOM      7  C5  PXY d   1       1.010   0.596  -0.414  0.00  0.00     0.003 A 
ATOM      8  C6  PXY d   1       1.674  -0.540   0.041  0.00  0.00     0.003 A 
ENDROOT
TORSDOF 0
ENDMDL
