MODEL 1
REMARK minimizedAffinity -2.962219
REMARK minimizedRMSD -1
REMARK  0 active torsions:
REMARK  status: ('A' for Active; 'I' for Inactive)
ROOT
ATOM      1  C4' PXY d   1      -1.105   1.484  -0.694  0.00  0.00     0.077 C 
ATOM      2  C1' PXY d   1       1.862  -3.164   1.038  0.00  0.00     0.077 C 
ATOM      3  C1  PXY d   1       1.095  -1.938   0.584  0.00  0.00    -0.082 A 
ATOM      4  C2  PXY d   1      -0.203  -1.853   0.825  0.00  0.00     0.003 A 
ATOM      5  C3  PXY d   1      -0.918  -0.766   0.393  0.00  0.00     0.003 A 
ATOM      6  C4  PXY d   1      -0.288   0.269  -0.245  0.00  0.00    -0.082 A 
ATOM      7  C5  PXY d   1       1.038   0.194  -0.485  0.00  0.00     0.003 A 
ATOM      8  C6  PXY d   1       1.738  -0.936  -0.075  0.00  0.00     0.003 A 
ENDROOT
TORSDOF 0
ENDMDL
