MODEL 1
REMARK minimizedAffinity -4.74668503
REMARK minimizedRMSD -1
REMARK  0 active torsions:
REMARK  status: ('A' for Active; 'I' for Inactive)
ROOT
ATOM      1  C4' PXY d   1       1.871  -2.829   1.232  0.00  0.00     0.077 C 
ATOM      2  C1' PXY d   1      -1.444   1.543  -0.587  0.00  0.00     0.077 C 
ATOM      3  C1  PXY d   1      -0.567   0.399  -0.120  0.00  0.00    -0.082 A 
ATOM      4  C2  PXY d   1      -1.091  -0.572   0.611  0.00  0.00     0.003 A 
ATOM      5  C3  PXY d   1      -0.305  -1.597   1.069  0.00  0.00     0.003 A 
ATOM      6  C4  PXY d   1       1.021  -1.659   0.730  0.00  0.00    -0.082 A 
ATOM      7  C5  PXY d   1       1.561  -0.678  -0.024  0.00  0.00     0.003 A 
ATOM      8  C6  PXY d   1       0.755   0.376  -0.444  0.00  0.00     0.003 A 
ENDROOT
TORSDOF 0
ENDMDL
