MODEL 1
REMARK minimizedAffinity -3.99569416
REMARK minimizedRMSD -1
REMARK  0 active torsions:
REMARK  status: ('A' for Active; 'I' for Inactive)
ROOT
ATOM      1  C4' PXY d   1       3.090   0.798  -0.863  0.00  0.00     0.077 C 
ATOM      2  C1' PXY d   1      -1.576  -1.769   1.385  0.00  0.00     0.077 C 
ATOM      3  C1  PXY d   1      -0.344  -1.103   0.802  0.00  0.00    -0.082 A 
ATOM      4  C2  PXY d   1      -0.428   0.130   0.331  0.00  0.00     0.003 A 
ATOM      5  C3  PXY d   1       0.668   0.735  -0.228  0.00  0.00     0.003 A 
ATOM      6  C4  PXY d   1       1.875   0.091  -0.258  0.00  0.00    -0.082 A 
ATOM      7  C5  PXY d   1       1.971  -1.164   0.231  0.00  0.00     0.003 A 
ATOM      8  C6  PXY d   1       0.837  -1.776   0.757  0.00  0.00     0.003 A 
ENDROOT
TORSDOF 0
ENDMDL
