MODEL 1
REMARK minimizedAffinity -3.51992154
REMARK minimizedRMSD -1
REMARK  0 active torsions:
REMARK  status: ('A' for Active; 'I' for Inactive)
ROOT
ATOM      1  C4' PXY d   1       0.516   4.249  -4.123  0.00  0.00     0.077 C 
ATOM      2  C1' PXY d   1      -3.325   0.463  -2.044  0.00  0.00     0.077 C 
ATOM      3  C1  PXY d   1      -2.319   1.450  -2.601  0.00  0.00    -0.082 A 
ATOM      4  C2  PXY d   1      -1.436   2.012  -1.791  0.00  0.00     0.003 A 
ATOM      5  C3  PXY d   1      -0.540   2.931  -2.272  0.00  0.00     0.003 A 
ATOM      6  C4  PXY d   1      -0.512   3.239  -3.606  0.00  0.00    -0.082 A 
ATOM      7  C5  PXY d   1      -1.402   2.663  -4.441  0.00  0.00     0.003 A 
ATOM      8  C6  PXY d   1      -2.331   1.763  -3.925  0.00  0.00     0.003 A 
ENDROOT
TORSDOF 0
ENDMDL
