MODEL 1
REMARK minimizedAffinity -0.911157608
REMARK minimizedRMSD -1
REMARK  0 active torsions:
REMARK  status: ('A' for Active; 'I' for Inactive)
ROOT
ATOM      1  C4' PXY d   1       1.200  -3.364   2.813  0.00  0.00     0.077 C 
ATOM      2  C1' PXY d   1      -1.677   0.635  -0.211  0.00  0.00     0.077 C 
ATOM      3  C1  PXY d   1      -0.928  -0.409   0.593  0.00  0.00    -0.082 A 
ATOM      4  C2  PXY d   1       0.218  -0.888   0.137  0.00  0.00     0.003 A 
ATOM      5  C3  PXY d   1       0.892  -1.857   0.835  0.00  0.00     0.003 A 
ATOM      6  C4  PXY d   1       0.415  -2.301   2.039  0.00  0.00    -0.082 A 
ATOM      7  C5  PXY d   1      -0.748  -1.810   2.516  0.00  0.00     0.003 A 
ATOM      8  C6  PXY d   1      -1.438  -0.857   1.772  0.00  0.00     0.003 A 
ENDROOT
TORSDOF 0
ENDMDL
