MODEL 1
REMARK minimizedAffinity -4.30060339
REMARK minimizedRMSD -1
REMARK  0 active torsions:
REMARK  status: ('A' for Active; 'I' for Inactive)
ROOT
ATOM      1  C   UNL d   1       1.838  -1.975   0.544  0.00  0.00     0.020 A 
ATOM      2  C1  UNL d   1       2.860  -1.160   1.029  0.00  0.00     0.020 A 
ATOM      3  C2  UNL d   1       2.746   0.229   0.943  0.00  0.00     0.034 A 
ATOM      4  C3  UNL d   1       1.607   0.808   0.370  0.00  0.00     0.017 A 
ATOM      5  C4  UNL d   1       0.582  -0.011  -0.116  0.00  0.00     0.017 A 
ATOM      6  C5  UNL d   1       0.701  -1.402  -0.027  0.00  0.00     0.034 A 
ATOM      7 Cl   UNL d   1      -0.853   0.629  -0.836  0.00  0.00    -0.070 Cl
ATOM      8 Cl1  UNL d   1       1.533   2.532   0.296  0.00  0.00    -0.070 Cl
ENDROOT
TORSDOF 0
ENDMDL
