MODEL 1
REMARK minimizedAffinity -2.28176761
REMARK minimizedRMSD -1
REMARK  0 active torsions:
REMARK  status: ('A' for Active; 'I' for Inactive)
ROOT
ATOM      1  C   UNL d   1      -0.877  -0.653  -0.591  0.00  0.00     0.020 A 
ATOM      2  C1  UNL d   1      -1.055   0.703  -0.319  0.00  0.00     0.020 A 
ATOM      3  C2  UNL d   1      -0.085   1.404   0.401  0.00  0.00     0.034 A 
ATOM      4  C3  UNL d   1       1.066   0.749   0.854  0.00  0.00     0.017 A 
ATOM      5  C4  UNL d   1       1.243  -0.613   0.581  0.00  0.00     0.017 A 
ATOM      6  C5  UNL d   1       0.269  -1.309  -0.142  0.00  0.00     0.034 A 
ATOM      7 Cl   UNL d   1       2.637  -1.489   1.106  0.00  0.00    -0.070 Cl
ATOM      8 Cl1  UNL d   1       2.223   1.677   1.739  0.00  0.00    -0.070 Cl
ENDROOT
TORSDOF 0
ENDMDL
