MODEL 1
REMARK minimizedAffinity -2.30921412
REMARK minimizedRMSD -1
REMARK  0 active torsions:
REMARK  status: ('A' for Active; 'I' for Inactive)
ROOT
ATOM      1  C   UNL d   1       2.156  -0.711   1.343  0.00  0.00     0.020 A 
ATOM      2  C1  UNL d   1       2.511  -1.656   0.381  0.00  0.00     0.020 A 
ATOM      3  C2  UNL d   1       1.699  -1.850  -0.739  0.00  0.00     0.034 A 
ATOM      4  C3  UNL d   1       0.529  -1.099  -0.900  0.00  0.00     0.017 A 
ATOM      5  C4  UNL d   1       0.174  -0.151   0.067  0.00  0.00     0.017 A 
ATOM      6  C5  UNL d   1       0.990   0.039   1.186  0.00  0.00     0.034 A 
ATOM      7 Cl   UNL d   1      -1.254   0.813  -0.061  0.00  0.00    -0.070 Cl
ATOM      8 Cl1  UNL d   1      -0.427  -1.392  -2.309  0.00  0.00    -0.070 Cl
ENDROOT
TORSDOF 0
ENDMDL
