MODEL 1
REMARK minimizedAffinity -4.40777397
REMARK minimizedRMSD -1
REMARK  0 active torsions:
REMARK  status: ('A' for Active; 'I' for Inactive)
ROOT
ATOM      1  C   UNL d   1       2.383  -0.057   1.411  0.00  0.00     0.020 A 
ATOM      2  C1  UNL d   1       2.553  -1.242   0.696  0.00  0.00     0.020 A 
ATOM      3  C2  UNL d   1       1.524  -1.721  -0.117  0.00  0.00     0.034 A 
ATOM      4  C3  UNL d   1       0.319  -1.015  -0.217  0.00  0.00     0.017 A 
ATOM      5  C4  UNL d   1       0.149   0.174   0.501  0.00  0.00     0.017 A 
ATOM      6  C5  UNL d   1       1.183   0.649   1.313  0.00  0.00     0.034 A 
ATOM      7 Cl   UNL d   1      -1.308   1.100   0.429  0.00  0.00    -0.070 Cl
ATOM      8 Cl1  UNL d   1      -0.911  -1.666  -1.241  0.00  0.00    -0.070 Cl
ENDROOT
TORSDOF 0
ENDMDL
