MODEL 1
REMARK minimizedAffinity -4.05979252
REMARK minimizedRMSD -1
REMARK  0 active torsions:
REMARK  status: ('A' for Active; 'I' for Inactive)
ROOT
ATOM      1  C   UNL d   1       2.217  -1.168   0.355  0.00  0.00     0.020 A 
ATOM      2  C1  UNL d   1       1.738  -0.233   1.271  0.00  0.00     0.020 A 
ATOM      3  C2  UNL d   1       0.459   0.306   1.115  0.00  0.00     0.034 A 
ATOM      4  C3  UNL d   1      -0.346  -0.091   0.041  0.00  0.00     0.017 A 
ATOM      5  C4  UNL d   1       0.136  -1.031  -0.878  0.00  0.00     0.017 A 
ATOM      6  C5  UNL d   1       1.418  -1.566  -0.717  0.00  0.00     0.034 A 
ATOM      7 Cl   UNL d   1      -0.798  -1.570  -2.229  0.00  0.00    -0.070 Cl
ATOM      8 Cl1  UNL d   1      -1.917   0.615  -0.090  0.00  0.00    -0.070 Cl
ENDROOT
TORSDOF 0
ENDMDL
