MODEL 1
REMARK minimizedAffinity -2.08971286
REMARK minimizedRMSD -1
REMARK  0 active torsions:
REMARK  status: ('A' for Active; 'I' for Inactive)
ROOT
ATOM      1  C   UNL d   1       2.146  -1.646   0.243  0.00  0.00     0.020 A 
ATOM      2  C1  UNL d   1       1.908  -0.631   1.168  0.00  0.00     0.020 A 
ATOM      3  C2  UNL d   1       0.713   0.091   1.120  0.00  0.00     0.034 A 
ATOM      4  C3  UNL d   1      -0.247  -0.201   0.145  0.00  0.00     0.017 A 
ATOM      5  C4  UNL d   1      -0.007  -1.220  -0.783  0.00  0.00     0.017 A 
ATOM      6  C5  UNL d   1       1.191  -1.940  -0.731  0.00  0.00     0.034 A 
ATOM      7 Cl   UNL d   1      -1.144  -1.638  -2.016  0.00  0.00    -0.070 Cl
ATOM      8 Cl1  UNL d   1      -1.701   0.732   0.145  0.00  0.00    -0.070 Cl
ENDROOT
TORSDOF 0
ENDMDL
