MODEL 1
REMARK minimizedAffinity -3.51937485
REMARK minimizedRMSD -1
REMARK  0 active torsions:
REMARK  status: ('A' for Active; 'I' for Inactive)
ROOT
ATOM      1  C   UNL d   1      -0.827  -1.268  -0.815  0.00  0.00     0.020 A 
ATOM      2  C1  UNL d   1      -1.121   0.092  -0.725  0.00  0.00     0.020 A 
ATOM      3  C2  UNL d   1      -0.282   0.941   0.000  0.00  0.00     0.034 A 
ATOM      4  C3  UNL d   1       0.855   0.431   0.638  0.00  0.00     0.017 A 
ATOM      5  C4  UNL d   1       1.149  -0.935   0.547  0.00  0.00     0.017 A 
ATOM      6  C5  UNL d   1       0.306  -1.780  -0.180  0.00  0.00     0.034 A 
ATOM      7 Cl   UNL d   1       2.533  -1.637   1.307  0.00  0.00    -0.070 Cl
ATOM      8 Cl1  UNL d   1       1.848   1.538   1.517  0.00  0.00    -0.070 Cl
ENDROOT
TORSDOF 0
ENDMDL
