MODEL 1
REMARK minimizedAffinity -4.69571733
REMARK minimizedRMSD -1
REMARK  0 active torsions:
REMARK  status: ('A' for Active; 'I' for Inactive)
ROOT
ATOM      1  C   UNL d   1       1.886  -1.313   0.327  0.00  0.00     0.020 A 
ATOM      2  C1  UNL d   1       2.845  -0.334   0.584  0.00  0.00     0.020 A 
ATOM      3  C2  UNL d   1       2.494   1.017   0.538  0.00  0.00     0.034 A 
ATOM      4  C3  UNL d   1       1.180   1.393   0.234  0.00  0.00     0.017 A 
ATOM      5  C4  UNL d   1       0.218   0.409  -0.024  0.00  0.00     0.017 A 
ATOM      6  C5  UNL d   1       0.575  -0.942   0.024  0.00  0.00     0.034 A 
ATOM      7 Cl   UNL d   1      -1.423   0.795  -0.405  0.00  0.00    -0.070 Cl
ATOM      8 Cl1  UNL d   1       0.816   3.081   0.196  0.00  0.00    -0.070 Cl
ENDROOT
TORSDOF 0
ENDMDL
