MODEL 1
REMARK minimizedAffinity -4.39773655
REMARK minimizedRMSD -1
REMARK  0 active torsions:
REMARK  status: ('A' for Active; 'I' for Inactive)
ROOT
ATOM      1  C   UNL d   1      -0.602  -0.550  -1.407  0.00  0.00     0.020 A 
ATOM      2  C1  UNL d   1      -0.135  -1.855  -1.260  0.00  0.00     0.020 A 
ATOM      3  C2  UNL d   1       1.031  -2.102  -0.531  0.00  0.00     0.034 A 
ATOM      4  C3  UNL d   1       1.733  -1.041   0.054  0.00  0.00     0.017 A 
ATOM      5  C4  UNL d   1       1.263   0.269  -0.094  0.00  0.00     0.017 A 
ATOM      6  C5  UNL d   1       0.095   0.510  -0.825  0.00  0.00     0.034 A 
ATOM      7 Cl   UNL d   1       2.075   1.628   0.598  0.00  0.00    -0.070 Cl
ATOM      8 Cl1  UNL d   1       3.166  -1.419   0.941  0.00  0.00    -0.070 Cl
ENDROOT
TORSDOF 0
ENDMDL
