MODEL 1
REMARK minimizedAffinity 5.40855217
REMARK minimizedRMSD -1
REMARK  1 active torsions:
REMARK  status: ('A' for Active; 'I' for Inactive)
REMARK    1  A    between atoms: N_2  and  C1_3 
ROOT
ATOM      1  C1  UNL d   1      -2.291   0.199   2.423  0.00  0.00     0.143 A 
ATOM      2  C2  UNL d   1      -3.378  -0.654   2.644  0.00  0.00    -0.057 A 
ATOM      3  C3  UNL d   1      -3.305  -1.698   3.574  0.00  0.00     0.033 A 
ATOM      4  C4  UNL d   1      -2.129  -1.926   4.281  0.00  0.00    -0.042 A 
ATOM      5  C5  UNL d   1      -1.028  -1.107   4.060  0.00  0.00     0.033 A 
ATOM      6  C6  UNL d   1      -1.109  -0.062   3.135  0.00  0.00    -0.057 A 
ENDROOT
BRANCH   1   7
ATOM      7  N   UNL d   1      -2.268   1.193   1.442  0.00  0.00    -0.732 N 
ATOM      8  C   UNL d   1      -2.308   0.843   0.038  0.00  0.00     0.284 C 
ATOM      9  H3  UNL d   1      -2.845   1.994   1.687  0.00  0.00     0.395 HD
ENDBRANCH   1   7
TORSDOF 1
ENDMDL
