MODEL 1
REMARK minimizedAffinity -1.07564259
REMARK minimizedRMSD -1
REMARK  1 active torsions:
REMARK  status: ('A' for Active; 'I' for Inactive)
REMARK    1  A    between atoms: N_2  and  C1_3 
ROOT
ATOM      1  C1  UNL d   1       0.177  -0.357   2.377  0.00  0.00     0.143 A 
ATOM      2  C2  UNL d   1       0.386  -0.401   0.995  0.00  0.00    -0.057 A 
ATOM      3  C3  UNL d   1      -0.614  -0.009   0.096  0.00  0.00     0.033 A 
ATOM      4  C4  UNL d   1      -1.855   0.408   0.566  0.00  0.00    -0.042 A 
ATOM      5  C5  UNL d   1      -2.094   0.435   1.936  0.00  0.00     0.033 A 
ATOM      6  C6  UNL d   1      -1.089   0.049   2.828  0.00  0.00    -0.057 A 
ENDROOT
BRANCH   1   7
ATOM      7  N   UNL d   1       1.097  -0.827   3.318  0.00  0.00    -0.732 N 
ATOM      8  C   UNL d   1       0.645  -1.465   4.536  0.00  0.00     0.284 C 
ATOM      9  H3  UNL d   1       1.899  -1.279   2.885  0.00  0.00     0.395 HD
ENDBRANCH   1   7
TORSDOF 1
ENDMDL
