MODEL 1
REMARK minimizedAffinity -3.49166751
REMARK minimizedRMSD -1
REMARK  1 active torsions:
REMARK  status: ('A' for Active; 'I' for Inactive)
REMARK    1  A    between atoms: C1_2  and  C2_3 
ROOT
ATOM      1  C2  UNL d   1      -0.530   1.044   0.509  0.00  0.00    -0.076 A 
ATOM      2  C3  UNL d   1      -0.094  -0.155   1.098  0.00  0.00     0.004 A 
ATOM      3  C4  UNL d   1       0.465  -1.172   0.326  0.00  0.00    -0.003 A 
ATOM      4  C5  UNL d   1       0.598  -1.006  -1.048  0.00  0.00     0.000 A 
ATOM      5  C6  UNL d   1       0.187   0.185  -1.647  0.00  0.00     0.000 A 
ATOM      6  C7  UNL d   1      -0.364   1.226  -0.881  0.00  0.00    -0.073 A 
ATOM      7  C8  UNL d   1      -0.796   2.486  -1.580  0.00  0.00     0.078 C 
ENDROOT
BRANCH   1   8
ATOM      8  C1  UNL d   1      -1.154   2.101   1.393  0.00  0.00     0.053 C 
ATOM      9  C   UNL d   1      -0.116   2.914   2.151  0.00  0.00     0.018 C 
ENDBRANCH   1   8
TORSDOF 1
ENDMDL
