MODEL 1
REMARK minimizedAffinity -2.69484162
REMARK minimizedRMSD -1
REMARK  1 active torsions:
REMARK  status: ('A' for Active; 'I' for Inactive)
REMARK    1  A    between atoms: C1_2  and  C2_3 
ROOT
ATOM      1  C2  UNL d   1      -0.925   1.305   0.044  0.00  0.00    -0.076 A 
ATOM      2  C3  UNL d   1      -0.215   0.218   0.583  0.00  0.00     0.004 A 
ATOM      3  C4  UNL d   1       0.778  -0.427  -0.153  0.00  0.00    -0.003 A 
ATOM      4  C5  UNL d   1       1.076   0.005  -1.441  0.00  0.00     0.000 A 
ATOM      5  C6  UNL d   1       0.394   1.093  -1.985  0.00  0.00     0.000 A 
ATOM      6  C7  UNL d   1      -0.598   1.764  -1.250  0.00  0.00    -0.073 A 
ATOM      7  C8  UNL d   1      -1.306   2.927  -1.889  0.00  0.00     0.078 C 
ENDROOT
BRANCH   1   8
ATOM      8  C1  UNL d   1      -2.009   1.948   0.879  0.00  0.00     0.053 C 
ATOM      9  C   UNL d   1      -1.477   3.061   1.768  0.00  0.00     0.018 C 
ENDBRANCH   1   8
TORSDOF 1
ENDMDL
