MODEL 1
REMARK minimizedAffinity -3.99251747
REMARK minimizedRMSD -1
REMARK  1 active torsions:
REMARK  status: ('A' for Active; 'I' for Inactive)
REMARK    1  A    between atoms: C1_2  and  C2_3 
ROOT
ATOM      1  C2  UNL d   1      -0.113   1.252   0.647  0.00  0.00    -0.076 A 
ATOM      2  C3  UNL d   1       0.681   0.374   1.405  0.00  0.00     0.004 A 
ATOM      3  C4  UNL d   1       1.403  -0.650   0.794  0.00  0.00    -0.003 A 
ATOM      4  C5  UNL d   1       1.344  -0.812  -0.586  0.00  0.00     0.000 A 
ATOM      5  C6  UNL d   1       0.575   0.061  -1.356  0.00  0.00     0.000 A 
ATOM      6  C7  UNL d   1      -0.146   1.108  -0.757  0.00  0.00    -0.073 A 
ATOM      7  C8  UNL d   1      -0.964   2.016  -1.635  0.00  0.00     0.078 C 
ENDROOT
BRANCH   1   8
ATOM      8  C1  UNL d   1      -0.896   2.326   1.367  0.00  0.00     0.053 C 
ATOM      9  C   UNL d   1      -0.018   3.181   2.268  0.00  0.00     0.018 C 
ENDBRANCH   1   8
TORSDOF 1
ENDMDL
