MODEL 1
REMARK minimizedAffinity -4.61898851
REMARK minimizedRMSD -1
REMARK  1 active torsions:
REMARK  status: ('A' for Active; 'I' for Inactive)
REMARK    1  A    between atoms: C1_2  and  C2_3 
ROOT
ATOM      1  C2  UNL d   1       0.293  -0.165   0.099  0.00  0.00    -0.076 A 
ATOM      2  C3  UNL d   1       0.351  -0.395   1.484  0.00  0.00     0.004 A 
ATOM      3  C4  UNL d   1       0.125   0.637   2.393  0.00  0.00    -0.003 A 
ATOM      4  C5  UNL d   1      -0.165   1.916   1.931  0.00  0.00     0.000 A 
ATOM      5  C6  UNL d   1      -0.245   2.159   0.560  0.00  0.00     0.000 A 
ATOM      6  C7  UNL d   1      -0.035   1.125  -0.369  0.00  0.00    -0.073 A 
ATOM      7  C8  UNL d   1      -0.127   1.445  -1.836  0.00  0.00     0.078 C 
ENDROOT
BRANCH   1   8
ATOM      8  C1  UNL d   1       0.574  -1.317  -0.839  0.00  0.00     0.053 C 
ATOM      9  C   UNL d   1      -0.496  -2.395  -0.775  0.00  0.00     0.018 C 
ENDBRANCH   1   8
TORSDOF 1
ENDMDL
