MODEL 1
REMARK minimizedAffinity -0.668882847
REMARK minimizedRMSD -1
REMARK  1 active torsions:
REMARK  status: ('A' for Active; 'I' for Inactive)
REMARK    1  A    between atoms: C1_2  and  C2_3 
ROOT
ATOM      1  C2  UNL d   1       0.380  -0.136  -0.395  0.00  0.00    -0.076 A 
ATOM      2  C3  UNL d   1       0.721  -0.669   0.860  0.00  0.00     0.004 A 
ATOM      3  C4  UNL d   1       0.689   0.121   2.008  0.00  0.00    -0.003 A 
ATOM      4  C5  UNL d   1       0.316   1.458   1.919  0.00  0.00     0.000 A 
ATOM      5  C6  UNL d   1      -0.042   1.999   0.685  0.00  0.00     0.000 A 
ATOM      6  C7  UNL d   1      -0.031   1.212  -0.479  0.00  0.00    -0.073 A 
ATOM      7  C8  UNL d   1      -0.421   1.849  -1.785  0.00  0.00     0.078 C 
ENDROOT
BRANCH   1   8
ATOM      8  C1  UNL d   1       0.459  -1.033  -1.609  0.00  0.00     0.053 C 
ATOM      9  C   UNL d   1      -0.121  -2.415  -1.351  0.00  0.00     0.018 C 
ENDBRANCH   1   8
TORSDOF 1
ENDMDL
