MODEL 1
REMARK minimizedAffinity -2.59147787
REMARK minimizedRMSD -1
REMARK  1 active torsions:
REMARK  status: ('A' for Active; 'I' for Inactive)
REMARK    1  A    between atoms: C1_2  and  C2_3 
ROOT
ATOM      1  C2  UNL d   1      -0.545   0.997   0.100  0.00  0.00    -0.076 A 
ATOM      2  C3  UNL d   1      -0.123  -0.198   0.707  0.00  0.00     0.004 A 
ATOM      3  C4  UNL d   1       0.477  -1.210  -0.040  0.00  0.00    -0.003 A 
ATOM      4  C5  UNL d   1       0.665  -1.043  -1.408  0.00  0.00     0.000 A 
ATOM      5  C6  UNL d   1       0.269   0.144  -2.024  0.00  0.00     0.000 A 
ATOM      6  C7  UNL d   1      -0.323   1.180  -1.282  0.00  0.00    -0.073 A 
ATOM      7  C8  UNL d   1      -0.737   2.436  -1.998  0.00  0.00     0.078 C 
ENDROOT
BRANCH   1   8
ATOM      8  C1  UNL d   1      -1.215   2.048   0.957  0.00  0.00     0.053 C 
ATOM      9  C   UNL d   1      -0.228   2.794   1.841  0.00  0.00     0.018 C 
ENDBRANCH   1   8
TORSDOF 1
ENDMDL
