MODEL 1
REMARK minimizedAffinity -2.18966436
REMARK minimizedRMSD -1
REMARK  1 active torsions:
REMARK  status: ('A' for Active; 'I' for Inactive)
REMARK    1  A    between atoms: C1_2  and  C2_3 
ROOT
ATOM      1  C2  UNL d   1       0.167   1.396   0.990  0.00  0.00    -0.076 A 
ATOM      2  C3  UNL d   1       1.016   0.341   1.364  0.00  0.00     0.004 A 
ATOM      3  C4  UNL d   1       1.218  -0.751   0.522  0.00  0.00    -0.003 A 
ATOM      4  C5  UNL d   1       0.573  -0.805  -0.709  0.00  0.00     0.000 A 
ATOM      5  C6  UNL d   1      -0.259   0.242  -1.104  0.00  0.00     0.000 A 
ATOM      6  C7  UNL d   1      -0.460   1.358  -0.274  0.00  0.00    -0.073 A 
ATOM      7  C8  UNL d   1      -1.373   2.456  -0.747  0.00  0.00     0.078 C 
ENDROOT
BRANCH   1   8
ATOM      8  C1  UNL d   1      -0.034   2.541   1.957  0.00  0.00     0.053 C 
ATOM      9  C   UNL d   1       1.280   3.087   2.495  0.00  0.00     0.018 C 
ENDBRANCH   1   8
TORSDOF 1
ENDMDL
