MODEL 1
REMARK minimizedAffinity -0.706176162
REMARK minimizedRMSD -1
REMARK  1 active torsions:
REMARK  status: ('A' for Active; 'I' for Inactive)
REMARK    1  A    between atoms: C1_2  and  C2_3 
ROOT
ATOM      1  C2  UNL d   1      -0.505   1.000   0.675  0.00  0.00    -0.076 A 
ATOM      2  C3  UNL d   1      -0.208  -0.179   1.381  0.00  0.00     0.004 A 
ATOM      3  C4  UNL d   1       0.135  -1.351   0.710  0.00  0.00    -0.003 A 
ATOM      4  C5  UNL d   1       0.189  -1.363  -0.680  0.00  0.00     0.000 A 
ATOM      5  C6  UNL d   1      -0.085  -0.198  -1.396  0.00  0.00     0.000 A 
ATOM      6  C7  UNL d   1      -0.417   0.996  -0.734  0.00  0.00    -0.073 A 
ATOM      7  C8  UNL d   1      -0.708   2.221  -1.557  0.00  0.00     0.078 C 
ENDROOT
BRANCH   1   8
ATOM      8  C1  UNL d   1      -0.898   2.233   1.456  0.00  0.00     0.053 C 
ATOM      9  C   UNL d   1       0.245   2.779   2.298  0.00  0.00     0.018 C 
ENDBRANCH   1   8
TORSDOF 1
ENDMDL
