MODEL 1
REMARK minimizedAffinity -5.48163509
REMARK minimizedRMSD -1
REMARK  1 active torsions:
REMARK  status: ('A' for Active; 'I' for Inactive)
REMARK    1  A    between atoms: C1_2  and  C2_3 
ROOT
ATOM      1  C2  UNL d   1      -0.506   1.326   0.338  0.00  0.00    -0.076 A 
ATOM      2  C3  UNL d   1      -0.889   1.877  -0.898  0.00  0.00     0.004 A 
ATOM      3  C4  UNL d   1      -0.458   1.314  -2.098  0.00  0.00    -0.003 A 
ATOM      4  C5  UNL d   1       0.362   0.191  -2.083  0.00  0.00     0.000 A 
ATOM      5  C6  UNL d   1       0.737  -0.379  -0.866  0.00  0.00     0.000 A 
ATOM      6  C7  UNL d   1       0.298   0.166   0.353  0.00  0.00    -0.073 A 
ATOM      7  C8  UNL d   1       0.738  -0.485   1.635  0.00  0.00     0.078 C 
ENDROOT
BRANCH   1   8
ATOM      8  C1  UNL d   1      -0.982   1.996   1.607  0.00  0.00     0.053 C 
ATOM      9  C   UNL d   1       0.062   2.931   2.199  0.00  0.00     0.018 C 
ENDBRANCH   1   8
TORSDOF 1
ENDMDL
