MODEL 1
REMARK minimizedAffinity -3.2250185
REMARK minimizedRMSD -1
REMARK  0 active torsions:
REMARK  status: ('A' for Active; 'I' for Inactive)
ROOT
ATOM      1  N1  IND d   1       1.799  -0.885  -1.263  0.00  0.00    -0.196 N 
ATOM      2  C2  IND d   1       0.763  -1.520  -0.638  0.00  0.00     0.054 A 
ATOM      3  C3  IND d   1      -0.403  -1.246  -1.265  0.00  0.00    -0.031 A 
ATOM      4  C4  IND d   1      -0.830   0.136  -3.394  0.00  0.00     0.051 A 
ATOM      5  C5  IND d   1      -0.199   0.941  -4.301  0.00  0.00    -0.031 A 
ATOM      6  C6  IND d   1       1.159   1.180  -4.242  0.00  0.00     0.015 A 
ATOM      7  C7  IND d   1       1.941   0.613  -3.276  0.00  0.00    -0.016 A 
ATOM      8  C8  IND d   1       1.302  -0.199  -2.350  0.00  0.00    -0.047 A 
ATOM      9  C9  IND d   1      -0.082  -0.412  -2.379  0.00  0.00    -0.096 A 
ATOM     10  HN1 IND d   1       2.623  -0.910  -1.019  0.00  0.00     0.298 HD
ENDROOT
TORSDOF 0
ENDMDL
