MODEL 1
REMARK minimizedAffinity -0.521463335
REMARK minimizedRMSD -1
REMARK  0 active torsions:
REMARK  status: ('A' for Active; 'I' for Inactive)
ROOT
ATOM      1  N1  IND d   1       0.188   0.398  -5.999  0.00  0.00    -0.196 N 
ATOM      2  C2  IND d   1      -0.934  -0.382  -6.000  0.00  0.00     0.054 A 
ATOM      3  C3  IND d   1      -1.144  -0.905  -4.771  0.00  0.00    -0.031 A 
ATOM      4  C4  IND d   1       0.170  -0.533  -2.589  0.00  0.00     0.051 A 
ATOM      5  C5  IND d   1       1.294   0.069  -2.097  0.00  0.00    -0.031 A 
ATOM      6  C6  IND d   1       2.122   0.830  -2.897  0.00  0.00     0.015 A 
ATOM      7  C7  IND d   1       1.850   1.026  -4.221  0.00  0.00    -0.016 A 
ATOM      8  C8  IND d   1       0.713   0.410  -4.725  0.00  0.00    -0.047 A 
ATOM      9  C9  IND d   1      -0.108  -0.398  -3.928  0.00  0.00    -0.096 A 
ATOM     10  HN1 IND d   1       0.512   0.812  -6.680  0.00  0.00     0.298 HD
ENDROOT
TORSDOF 0
ENDMDL
