MODEL 1
REMARK minimizedAffinity -2.55011368
REMARK minimizedRMSD -1
REMARK  0 active torsions:
REMARK  status: ('A' for Active; 'I' for Inactive)
ROOT
ATOM      1  N1  IND d   1       1.777  -0.782   1.582  0.00  0.00    -0.196 N 
ATOM      2  C2  IND d   1       1.405  -0.918   0.274  0.00  0.00     0.054 A 
ATOM      3  C3  IND d   1       0.325  -0.148   0.010  0.00  0.00    -0.031 A 
ATOM      4  C4  IND d   1      -0.931   1.490   1.547  0.00  0.00     0.051 A 
ATOM      5  C5  IND d   1      -0.984   1.929   2.841  0.00  0.00    -0.031 A 
ATOM      6  C6  IND d   1      -0.099   1.480   3.799  0.00  0.00     0.015 A 
ATOM      7  C7  IND d   1       0.883   0.579   3.496  0.00  0.00    -0.016 A 
ATOM      8  C8  IND d   1       0.935   0.126   2.186  0.00  0.00    -0.047 A 
ATOM      9  C9  IND d   1       0.013   0.546   1.218  0.00  0.00    -0.096 A 
ATOM     10  HN1 IND d   1       2.428  -1.194   1.964  0.00  0.00     0.298 HD
ENDROOT
TORSDOF 0
ENDMDL
