MODEL 1
REMARK minimizedAffinity 0.12631996
REMARK minimizedRMSD -1
REMARK  0 active torsions:
REMARK  status: ('A' for Active; 'I' for Inactive)
ROOT
ATOM      1  N1  IND d   1       0.005  -0.008  -5.998  0.00  0.00    -0.196 N 
ATOM      2  C2  IND d   1      -1.073  -0.763  -5.630  0.00  0.00     0.054 A 
ATOM      3  C3  IND d   1      -1.141  -0.862  -4.283  0.00  0.00    -0.031 A 
ATOM      4  C4  IND d   1       0.354   0.220  -2.487  0.00  0.00     0.051 A 
ATOM      5  C5  IND d   1       1.488   0.967  -2.337  0.00  0.00    -0.031 A 
ATOM      6  C6  IND d   1       2.199   1.439  -3.421  0.00  0.00     0.015 A 
ATOM      7  C7  IND d   1       1.793   1.191  -4.702  0.00  0.00    -0.016 A 
ATOM      8  C8  IND d   1       0.646   0.426  -4.858  0.00  0.00    -0.047 A 
ATOM      9  C9  IND d   1      -0.056  -0.092  -3.762  0.00  0.00    -0.096 A 
ATOM     10  HN1 IND d   1       0.243   0.167  -6.805  0.00  0.00     0.298 HD
ENDROOT
TORSDOF 0
ENDMDL
