MODEL 1
REMARK minimizedAffinity 0.836218119
REMARK minimizedRMSD -1
REMARK  0 active torsions:
REMARK  status: ('A' for Active; 'I' for Inactive)
ROOT
ATOM      1  N1  IND d   1       1.768  -0.822   0.792  0.00  0.00    -0.196 N 
ATOM      2  C2  IND d   1       2.485  -0.450   1.895  0.00  0.00     0.054 A 
ATOM      3  C3  IND d   1       1.766   0.404   2.658  0.00  0.00    -0.031 A 
ATOM      4  C4  IND d   1      -0.646   1.246   2.340  0.00  0.00     0.051 A 
ATOM      5  C5  IND d   1      -1.692   1.211   1.462  0.00  0.00    -0.031 A 
ATOM      6  C6  IND d   1      -1.638   0.479   0.293  0.00  0.00     0.015 A 
ATOM      7  C7  IND d   1      -0.536  -0.257  -0.037  0.00  0.00    -0.016 A 
ATOM      8  C8  IND d   1       0.531  -0.218   0.849  0.00  0.00    -0.047 A 
ATOM      9  C9  IND d   1       0.499   0.556   2.016  0.00  0.00    -0.096 A 
ATOM     10  HN1 IND d   1       2.043  -1.346   0.168  0.00  0.00     0.298 HD
ENDROOT
TORSDOF 0
ENDMDL
