MODEL 1
REMARK minimizedAffinity -2.62947202
REMARK minimizedRMSD -1
REMARK  0 active torsions:
REMARK  status: ('A' for Active; 'I' for Inactive)
ROOT
ATOM      1  N1  IND d   1       1.498  -0.599  -0.666  0.00  0.00    -0.196 N 
ATOM      2  C2  IND d   1       0.504  -0.442   0.260  0.00  0.00     0.054 A 
ATOM      3  C3  IND d   1      -0.646  -0.068  -0.345  0.00  0.00    -0.031 A 
ATOM      4  C4  IND d   1      -1.150   0.248  -2.849  0.00  0.00     0.051 A 
ATOM      5  C5  IND d   1      -0.549   0.253  -4.077  0.00  0.00    -0.031 A 
ATOM      6  C6  IND d   1       0.791  -0.034  -4.233  0.00  0.00     0.015 A 
ATOM      7  C7  IND d   1       1.582  -0.349  -3.165  0.00  0.00    -0.016 A 
ATOM      8  C8  IND d   1       0.976  -0.349  -1.916  0.00  0.00    -0.047 A 
ATOM      9  C9  IND d   1      -0.374  -0.017  -1.746  0.00  0.00    -0.096 A 
ATOM     10  HN1 IND d   1       2.312  -0.817  -0.495  0.00  0.00     0.298 HD
ENDROOT
TORSDOF 0
ENDMDL
