MODEL 1
REMARK minimizedAffinity -4.05720234
REMARK minimizedRMSD -1
REMARK  0 active torsions:
REMARK  status: ('A' for Active; 'I' for Inactive)
ROOT
ATOM      1  N1  IND d   1       2.031  -1.675   0.677  0.00  0.00    -0.196 N 
ATOM      2  C2  IND d   1       3.124  -1.261   1.386  0.00  0.00     0.054 A 
ATOM      3  C3  IND d   1       2.860  -0.096   2.019  0.00  0.00    -0.031 A 
ATOM      4  C4  IND d   1       0.670   1.255   2.113  0.00  0.00     0.051 A 
ATOM      5  C5  IND d   1      -0.594   1.294   1.595  0.00  0.00    -0.031 A 
ATOM      6  C6  IND d   1      -1.058   0.325   0.730  0.00  0.00     0.015 A 
ATOM      7  C7  IND d   1      -0.276  -0.731   0.357  0.00  0.00    -0.016 A 
ATOM      8  C8  IND d   1       1.011  -0.771   0.875  0.00  0.00    -0.047 A 
ATOM      9  C9  IND d   1       1.502   0.233   1.720  0.00  0.00    -0.096 A 
ATOM     10  HN1 IND d   1       1.988  -2.382   0.190  0.00  0.00     0.298 HD
ENDROOT
TORSDOF 0
ENDMDL
