MODEL 1
REMARK minimizedAffinity -0.176213294
REMARK minimizedRMSD -1
REMARK  0 active torsions:
REMARK  status: ('A' for Active; 'I' for Inactive)
ROOT
ATOM      1  C1  BNZ d   1       3.236   4.929  -5.468  0.00  0.00     0.000 A 
ATOM      2  C2  BNZ d   1       3.935   3.895  -4.904  0.00  0.00     0.000 A 
ATOM      3  C3  BNZ d   1       5.300   3.918  -4.854  0.00  0.00     0.000 A 
ATOM      4  C4  BNZ d   1       5.967   4.953  -5.403  0.00  0.00     0.000 A 
ATOM      5  C5  BNZ d   1       5.277   5.999  -5.984  0.00  0.00     0.000 A 
ATOM      6  C6  BNZ d   1       3.901   5.991  -5.998  0.00  0.00     0.000 A 
ENDROOT
TORSDOF 0
ENDMDL
