MODEL 1
REMARK minimizedAffinity 0.176850528
REMARK minimizedRMSD -1
REMARK  0 active torsions:
REMARK  status: ('A' for Active; 'I' for Inactive)
ROOT
ATOM      1  C1  BNZ d   1      -2.719   5.984  -3.804  0.00  0.00     0.000 A 
ATOM      2  C2  BNZ d   1      -3.537   5.978  -2.707  0.00  0.00     0.000 A 
ATOM      3  C3  BNZ d   1      -3.015   5.999  -1.444  0.00  0.00     0.000 A 
ATOM      4  C4  BNZ d   1      -1.676   5.986  -1.280  0.00  0.00     0.000 A 
ATOM      5  C5  BNZ d   1      -0.838   5.982  -2.377  0.00  0.00     0.000 A 
ATOM      6  C6  BNZ d   1      -1.367   6.000  -3.646  0.00  0.00     0.000 A 
ENDROOT
TORSDOF 0
ENDMDL
