MODEL 1
REMARK minimizedAffinity 1.97297263
REMARK minimizedRMSD -1
REMARK  0 active torsions:
REMARK  status: ('A' for Active; 'I' for Inactive)
ROOT
ATOM      1  C1  BNZ d   1       0.272   1.409   1.719  0.00  0.00     0.000 A 
ATOM      2  C2  BNZ d   1       1.130   0.945   0.758  0.00  0.00     0.000 A 
ATOM      3  C3  BNZ d   1       0.818  -0.161   0.017  0.00  0.00     0.000 A 
ATOM      4  C4  BNZ d   1      -0.330  -0.824   0.266  0.00  0.00     0.000 A 
ATOM      5  C5  BNZ d   1      -1.201  -0.373   1.238  0.00  0.00     0.000 A 
ATOM      6  C6  BNZ d   1      -0.902   0.763   1.955  0.00  0.00     0.000 A 
ENDROOT
TORSDOF 0
ENDMDL
