MODEL 1
REMARK minimizedAffinity -0.919951022
REMARK minimizedRMSD -1
REMARK  0 active torsions:
REMARK  status: ('A' for Active; 'I' for Inactive)
ROOT
ATOM      1  C1  BNZ d   1      -1.177   5.999  -2.077  0.00  0.00     0.000 A 
ATOM      2  C2  BNZ d   1       0.004   5.997  -2.770  0.00  0.00     0.000 A 
ATOM      3  C3  BNZ d   1       0.014   6.000  -4.136  0.00  0.00     0.000 A 
ATOM      4  C4  BNZ d   1      -1.155   5.965  -4.808  0.00  0.00     0.000 A 
ATOM      5  C5  BNZ d   1      -2.354   5.958  -4.124  0.00  0.00     0.000 A 
ATOM      6  C6  BNZ d   1      -2.361   5.995  -2.748  0.00  0.00     0.000 A 
ENDROOT
TORSDOF 0
ENDMDL
