MODEL 1
REMARK minimizedAffinity 4.97764492
REMARK minimizedRMSD -1
REMARK  0 active torsions:
REMARK  status: ('A' for Active; 'I' for Inactive)
ROOT
ATOM      1  C1  BNZ d   1      -1.236  -0.321   0.850  0.00  0.00     0.000 A 
ATOM      2  C2  BNZ d   1      -1.659  -0.315   2.152  0.00  0.00     0.000 A 
ATOM      3  C3  BNZ d   1      -0.803   0.016   3.165  0.00  0.00     0.000 A 
ATOM      4  C4  BNZ d   1       0.484   0.301   2.879  0.00  0.00     0.000 A 
ATOM      5  C5  BNZ d   1       0.929   0.289   1.571  0.00  0.00     0.000 A 
ATOM      6  C6  BNZ d   1       0.054  -0.006   0.551  0.00  0.00     0.000 A 
ENDROOT
TORSDOF 0
ENDMDL
