MODEL 1
REMARK minimizedAffinity -0.393104106
REMARK minimizedRMSD -1
REMARK  0 active torsions:
REMARK  status: ('A' for Active; 'I' for Inactive)
ROOT
ATOM      1  C1  BNZ d   1       0.747  -0.389   0.349  0.00  0.00     0.000 A 
ATOM      2  C2  BNZ d   1       0.778   0.710   1.165  0.00  0.00     0.000 A 
ATOM      3  C3  BNZ d   1       1.238   1.912   0.703  0.00  0.00     0.000 A 
ATOM      4  C4  BNZ d   1       1.704   2.002  -0.559  0.00  0.00     0.000 A 
ATOM      5  C5  BNZ d   1       1.689   0.900  -1.391  0.00  0.00     0.000 A 
ATOM      6  C6  BNZ d   1       1.188  -0.298  -0.935  0.00  0.00     0.000 A 
ENDROOT
TORSDOF 0
ENDMDL
