MODEL 1
REMARK minimizedAffinity 2.44897699
REMARK minimizedRMSD -1
REMARK  0 active torsions:
REMARK  status: ('A' for Active; 'I' for Inactive)
ROOT
ATOM      1  C1  BNZ d   1       0.971   5.970  -5.993  0.00  0.00     0.000 A 
ATOM      2  C2  BNZ d   1       2.340   5.999  -6.000  0.00  0.00     0.000 A 
ATOM      3  C3  BNZ d   1       3.065   4.881  -5.698  0.00  0.00     0.000 A 
ATOM      4  C4  BNZ d   1       2.422   3.747  -5.351  0.00  0.00     0.000 A 
ATOM      5  C5  BNZ d   1       1.043   3.704  -5.329  0.00  0.00     0.000 A 
ATOM      6  C6  BNZ d   1       0.315   4.821  -5.672  0.00  0.00     0.000 A 
ENDROOT
TORSDOF 0
ENDMDL
