MODEL 1
REMARK minimizedAffinity 0.404069871
REMARK minimizedRMSD -1
REMARK  0 active torsions:
REMARK  status: ('A' for Active; 'I' for Inactive)
ROOT
ATOM      1  C1  BNZ d   1       0.764   0.321   0.773  0.00  0.00     0.000 A 
ATOM      2  C2  BNZ d   1       1.176   1.327  -0.060  0.00  0.00     0.000 A 
ATOM      3  C3  BNZ d   1       1.376   2.592   0.417  0.00  0.00     0.000 A 
ATOM      4  C4  BNZ d   1       1.125   2.859   1.715  0.00  0.00     0.000 A 
ATOM      5  C5  BNZ d   1       0.700   1.857   2.565  0.00  0.00     0.000 A 
ATOM      6  C6  BNZ d   1       0.537   0.576   2.090  0.00  0.00     0.000 A 
ENDROOT
TORSDOF 0
ENDMDL
