MODEL 1
REMARK minimizedAffinity 3.3975687
REMARK minimizedRMSD -1
REMARK  0 active torsions:
REMARK  status: ('A' for Active; 'I' for Inactive)
ROOT
ATOM      1  C1  BNZ d   1      -2.819   5.959  -3.611  0.00  0.00     0.000 A 
ATOM      2  C2  BNZ d   1      -2.475   5.966  -2.285  0.00  0.00     0.000 A 
ATOM      3  C3  BNZ d   1      -1.163   5.988  -1.902  0.00  0.00     0.000 A 
ATOM      4  C4  BNZ d   1      -0.198   5.961  -2.843  0.00  0.00     0.000 A 
ATOM      5  C5  BNZ d   1      -0.528   5.944  -4.184  0.00  0.00     0.000 A 
ATOM      6  C6  BNZ d   1      -1.850   5.962  -4.566  0.00  0.00     0.000 A 
ENDROOT
TORSDOF 0
ENDMDL
