MODEL 1
REMARK minimizedAffinity -1.74566793
REMARK minimizedRMSD -1
REMARK  0 active torsions:
REMARK  status: ('A' for Active; 'I' for Inactive)
ROOT
ATOM      1  C1  BNZ d   1      -2.926   5.990  -3.856  0.00  0.00     0.000 A 
ATOM      2  C2  BNZ d   1      -3.550   5.984  -2.637  0.00  0.00     0.000 A 
ATOM      3  C3  BNZ d   1      -2.824   6.000  -1.479  0.00  0.00     0.000 A 
ATOM      4  C4  BNZ d   1      -1.477   5.980  -1.540  0.00  0.00     0.000 A 
ATOM      5  C5  BNZ d   1      -0.833   5.976  -2.761  0.00  0.00     0.000 A 
ATOM      6  C6  BNZ d   1      -1.566   6.000  -3.925  0.00  0.00     0.000 A 
ENDROOT
TORSDOF 0
ENDMDL
