MODEL 1
REMARK minimizedAffinity -0.75371623
REMARK minimizedRMSD -1
REMARK  0 active torsions:
REMARK  status: ('A' for Active; 'I' for Inactive)
ROOT
ATOM      1  C1  BNZ d   1      -1.282   5.969  -2.757  0.00  0.00     0.000 A 
ATOM      2  C2  BNZ d   1       0.008   5.963  -3.217  0.00  0.00     0.000 A 
ATOM      3  C3  BNZ d   1       0.273   5.999  -4.557  0.00  0.00     0.000 A 
ATOM      4  C4  BNZ d   1      -0.751   6.000  -5.436  0.00  0.00     0.000 A 
ATOM      5  C5  BNZ d   1      -2.056   5.996  -4.988  0.00  0.00     0.000 A 
ATOM      6  C6  BNZ d   1      -2.319   5.999  -3.637  0.00  0.00     0.000 A 
ENDROOT
TORSDOF 0
ENDMDL
