MODEL 1
REMARK minimizedAffinity 2.1863265
REMARK minimizedRMSD -1
REMARK  0 active torsions:
REMARK  status: ('A' for Active; 'I' for Inactive)
ROOT
ATOM      1  C1  BNZ d   1       3.934   4.998  -5.321  0.00  0.00     0.000 A 
ATOM      2  C2  BNZ d   1       3.224   3.993  -4.719  0.00  0.00     0.000 A 
ATOM      3  C3  BNZ d   1       1.858   3.972  -4.774  0.00  0.00     0.000 A 
ATOM      4  C4  BNZ d   1       1.204   4.974  -5.396  0.00  0.00     0.000 A 
ATOM      5  C5  BNZ d   1       1.905   5.999  -5.999  0.00  0.00     0.000 A 
ATOM      6  C6  BNZ d   1       3.281   5.996  -5.975  0.00  0.00     0.000 A 
ENDROOT
TORSDOF 0
ENDMDL
