MODEL 1
REMARK minimizedAffinity -0.34153679
REMARK minimizedRMSD -1
REMARK  0 active torsions:
REMARK  status: ('A' for Active; 'I' for Inactive)
ROOT
ATOM      1  C1  BNZ d   1      -1.485   5.996  -3.057  0.00  0.00     0.000 A 
ATOM      2  C2  BNZ d   1      -2.621   5.991  -3.822  0.00  0.00     0.000 A 
ATOM      3  C3  BNZ d   1      -3.857   6.000  -3.240  0.00  0.00     0.000 A 
ATOM      4  C4  BNZ d   1      -3.957   5.973  -1.896  0.00  0.00     0.000 A 
ATOM      5  C5  BNZ d   1      -2.822   5.969  -1.110  0.00  0.00     0.000 A 
ATOM      6  C6  BNZ d   1      -1.579   6.000  -1.699  0.00  0.00     0.000 A 
ENDROOT
TORSDOF 0
ENDMDL
