MODEL 1
REMARK minimizedAffinity 1.90381193
REMARK minimizedRMSD -1
REMARK  0 active torsions:
REMARK  status: ('A' for Active; 'I' for Inactive)
ROOT
ATOM      1  C1  BNZ d   1      -0.046   0.612   3.536  0.00  0.00     0.000 A 
ATOM      2  C2  BNZ d   1      -0.774   0.562   2.378  0.00  0.00     0.000 A 
ATOM      3  C3  BNZ d   1      -0.157   0.404   1.168  0.00  0.00     0.000 A 
ATOM      4  C4  BNZ d   1       1.189   0.338   1.115  0.00  0.00     0.000 A 
ATOM      5  C5  BNZ d   1       1.939   0.396   2.273  0.00  0.00     0.000 A 
ATOM      6  C6  BNZ d   1       1.311   0.516   3.492  0.00  0.00     0.000 A 
ENDROOT
TORSDOF 0
ENDMDL
