MODEL 1
REMARK minimizedAffinity -0.332638651
REMARK minimizedRMSD -1
REMARK  0 active torsions:
REMARK  status: ('A' for Active; 'I' for Inactive)
ROOT
ATOM      1  C1  BNZ d   1       0.476  -0.323   1.466  0.00  0.00     0.000 A 
ATOM      2  C2  BNZ d   1       0.972   0.570   0.554  0.00  0.00     0.000 A 
ATOM      3  C3  BNZ d   1       0.966   1.912   0.815  0.00  0.00     0.000 A 
ATOM      4  C4  BNZ d   1       0.429   2.361   1.968  0.00  0.00     0.000 A 
ATOM      5  C5  BNZ d   1      -0.083   1.474   2.893  0.00  0.00     0.000 A 
ATOM      6  C6  BNZ d   1      -0.040   0.121   2.644  0.00  0.00     0.000 A 
ENDROOT
TORSDOF 0
ENDMDL
