MODEL 1
REMARK minimizedAffinity 0.33287251
REMARK minimizedRMSD -1
REMARK  0 active torsions:
REMARK  status: ('A' for Active; 'I' for Inactive)
ROOT
ATOM      1  C1  BNZ d   1      -5.339   5.988  -2.765  0.00  0.00     0.000 A 
ATOM      2  C2  BNZ d   1      -4.522   5.999  -3.864  0.00  0.00     0.000 A 
ATOM      3  C3  BNZ d   1      -3.163   5.982  -3.726  0.00  0.00     0.000 A 
ATOM      4  C4  BNZ d   1      -2.621   5.995  -2.491  0.00  0.00     0.000 A 
ATOM      5  C5  BNZ d   1      -3.431   5.993  -1.373  0.00  0.00     0.000 A 
ATOM      6  C6  BNZ d   1      -4.799   5.970  -1.515  0.00  0.00     0.000 A 
ENDROOT
TORSDOF 0
ENDMDL
