MODEL 1
REMARK minimizedAffinity -1.57280612
REMARK minimizedRMSD -1
REMARK  0 active torsions:
REMARK  status: ('A' for Active; 'I' for Inactive)
ROOT
ATOM      1  C1  BNZ d   1       1.496   0.426  -1.127  0.00  0.00     0.000 A 
ATOM      2  C2  BNZ d   1       1.969   1.688  -1.368  0.00  0.00     0.000 A 
ATOM      3  C3  BNZ d   1       2.121   2.585  -0.347  0.00  0.00     0.000 A 
ATOM      4  C4  BNZ d   1       1.762   2.232   0.904  0.00  0.00     0.000 A 
ATOM      5  C5  BNZ d   1       1.274   0.967   1.161  0.00  0.00     0.000 A 
ATOM      6  C6  BNZ d   1       1.160   0.054   0.138  0.00  0.00     0.000 A 
ENDROOT
TORSDOF 0
ENDMDL
