MODEL 1
REMARK minimizedAffinity 8.43601322
REMARK minimizedRMSD -1
REMARK  2 active torsions:
REMARK  status: ('A' for Active; 'I' for Inactive)
REMARK    1  A    between atoms: C2'_3  and  C1'_4 
REMARK    2  A    between atoms: C1'_4  and  C1_5 
ROOT
ATOM      1  C1  I4B d   1       0.127   1.563  -0.934  0.00  0.00    -0.075 A 
ATOM      2  C2  I4B d   1       0.652   2.493  -1.796  0.00  0.00     0.003 A 
ATOM      3  C3  I4B d   1       0.498   3.876  -1.533  0.00  0.00     0.002 A 
ATOM      4  C4  I4B d   1      -0.226   4.281  -0.430  0.00  0.00    -0.004 A 
ATOM      5  C5  I4B d   1      -0.738   3.337   0.455  0.00  0.00     0.002 A 
ATOM      6  C6  I4B d   1      -0.550   1.969   0.209  0.00  0.00     0.003 A 
ENDROOT
BRANCH   1   7
ATOM      7  C1' I4B d   1       0.280   0.111  -1.260  0.00  0.00     0.060 C 
BRANCH   7   8
ATOM      8  C2' I4B d   1      -0.447  -0.154  -2.562  0.00  0.00    -0.013 C 
ATOM      9  C4' I4B d   1       0.450  -0.839  -3.559  0.00  0.00     0.013 C 
ATOM     10  C3' I4B d   1      -1.654  -0.991  -2.256  0.00  0.00     0.013 C 
ENDBRANCH   7   8
ENDBRANCH   1   7
TORSDOF 2
ENDMDL
