MODEL 1
REMARK minimizedAffinity -1.10476899
REMARK minimizedRMSD -1
REMARK  2 active torsions:
REMARK  status: ('A' for Active; 'I' for Inactive)
REMARK    1  A    between atoms: C2'_3  and  C1'_4 
REMARK    2  A    between atoms: C1'_4  and  C1_5 
ROOT
ATOM      1  C1  I4B d   1      -1.028   3.217   0.952  0.00  0.00    -0.075 A 
ATOM      2  C2  I4B d   1      -2.326   3.345   0.526  0.00  0.00     0.003 A 
ATOM      3  C3  I4B d   1      -3.332   2.489   1.037  0.00  0.00     0.002 A 
ATOM      4  C4  I4B d   1      -2.989   1.494   1.929  0.00  0.00    -0.004 A 
ATOM      5  C5  I4B d   1      -1.676   1.380   2.378  0.00  0.00     0.002 A 
ATOM      6  C6  I4B d   1      -0.692   2.255   1.896  0.00  0.00     0.003 A 
ENDROOT
BRANCH   1   7
ATOM      7  C1' I4B d   1       0.015   4.116   0.367  0.00  0.00     0.060 C 
BRANCH   7   8
ATOM      8  C2' I4B d   1       0.220   3.713  -1.079  0.00  0.00    -0.013 C 
ATOM      9  C4' I4B d   1       0.466   2.232  -1.202  0.00  0.00     0.013 C 
ATOM     10  C3' I4B d   1      -0.996   4.126  -1.852  0.00  0.00     0.013 C 
ENDBRANCH   7   8
ENDBRANCH   1   7
TORSDOF 2
ENDMDL
