MODEL 1
REMARK minimizedAffinity -0.389374405
REMARK minimizedRMSD -1
REMARK  2 active torsions:
REMARK  status: ('A' for Active; 'I' for Inactive)
REMARK    1  A    between atoms: C2'_3  and  C1'_4 
REMARK    2  A    between atoms: C1'_4  and  C1_5 
ROOT
ATOM      1  C1  I4B d   1      -2.189   2.501   0.396  0.00  0.00    -0.075 A 
ATOM      2  C2  I4B d   1      -0.943   1.939   0.265  0.00  0.00     0.003 A 
ATOM      3  C3  I4B d   1       0.133   2.703  -0.247  0.00  0.00     0.002 A 
ATOM      4  C4  I4B d   1      -0.090   4.002  -0.658  0.00  0.00    -0.004 A 
ATOM      5  C5  I4B d   1      -1.348   4.577  -0.502  0.00  0.00     0.002 A 
ATOM      6  C6  I4B d   1      -2.401   3.826   0.040  0.00  0.00     0.003 A 
ENDROOT
BRANCH   1   7
ATOM      7  C1' I4B d   1      -3.311   1.655   0.909  0.00  0.00     0.060 C 
BRANCH   7   8
ATOM      8  C2' I4B d   1      -4.141   1.212  -0.279  0.00  0.00    -0.013 C 
ATOM      9  C4' I4B d   1      -3.315   0.416  -1.255  0.00  0.00     0.013 C 
ATOM     10  C3' I4B d   1      -5.295   0.405   0.239  0.00  0.00     0.013 C 
ENDBRANCH   7   8
ENDBRANCH   1   7
TORSDOF 2
ENDMDL
