MODEL 1
REMARK minimizedAffinity -0.826744974
REMARK minimizedRMSD -1
REMARK  2 active torsions:
REMARK  status: ('A' for Active; 'I' for Inactive)
REMARK    1  A    between atoms: C2'_3  and  C1'_4 
REMARK    2  A    between atoms: C1'_4  and  C1_5 
ROOT
ATOM      1  C1  I4B d   1      -1.043   2.540   0.457  0.00  0.00    -0.075 A 
ATOM      2  C2  I4B d   1      -0.837   1.563  -0.485  0.00  0.00     0.003 A 
ATOM      3  C3  I4B d   1      -0.166   1.868  -1.693  0.00  0.00     0.002 A 
ATOM      4  C4  I4B d   1       0.235   3.165  -1.940  0.00  0.00    -0.004 A 
ATOM      5  C5  I4B d   1       0.046   4.150  -0.974  0.00  0.00     0.002 A 
ATOM      6  C6  I4B d   1      -0.587   3.833   0.237  0.00  0.00     0.003 A 
ENDROOT
BRANCH   1   7
ATOM      7  C1' I4B d   1      -1.785   2.191   1.708  0.00  0.00     0.060 C 
BRANCH   7   8
ATOM      8  C2' I4B d   1      -0.804   1.550   2.669  0.00  0.00    -0.013 C 
ATOM      9  C4' I4B d   1      -0.830   2.232   4.011  0.00  0.00     0.013 C 
ATOM     10  C3' I4B d   1      -1.159   0.098   2.792  0.00  0.00     0.013 C 
ENDBRANCH   7   8
ENDBRANCH   1   7
TORSDOF 2
ENDMDL
