MODEL 1
REMARK minimizedAffinity -3.18304372
REMARK minimizedRMSD -1
REMARK  2 active torsions:
REMARK  status: ('A' for Active; 'I' for Inactive)
REMARK    1  A    between atoms: C2'_3  and  C1'_4 
REMARK    2  A    between atoms: C1'_4  and  C1_5 
ROOT
ATOM      1  C1  I4B d   1      -0.580   2.224  -1.576  0.00  0.00    -0.075 A 
ATOM      2  C2  I4B d   1       0.727   1.827  -1.707  0.00  0.00     0.003 A 
ATOM      3  C3  I4B d   1       1.034   0.526  -2.174  0.00  0.00     0.002 A 
ATOM      4  C4  I4B d   1       0.009  -0.357  -2.448  0.00  0.00    -0.004 A 
ATOM      5  C5  I4B d   1      -1.316   0.055  -2.336  0.00  0.00     0.002 A 
ATOM      6  C6  I4B d   1      -1.613   1.358  -1.909  0.00  0.00     0.003 A 
ENDROOT
BRANCH   1   7
ATOM      7  C1' I4B d   1      -0.868   3.594  -1.049  0.00  0.00     0.060 C 
BRANCH   7   8
ATOM      8  C2' I4B d   1      -1.830   3.455   0.113  0.00  0.00    -0.013 C 
ATOM      9  C4' I4B d   1      -1.142   2.889   1.327  0.00  0.00     0.013 C 
ATOM     10  C3' I4B d   1      -2.408   4.808   0.400  0.00  0.00     0.013 C 
ENDBRANCH   7   8
ENDBRANCH   1   7
TORSDOF 2
ENDMDL
