MODEL 1
REMARK minimizedAffinity -1.74190485
REMARK minimizedRMSD -1
REMARK  2 active torsions:
REMARK  status: ('A' for Active; 'I' for Inactive)
REMARK    1  A    between atoms: C2'_3  and  C1'_4 
REMARK    2  A    between atoms: C1'_4  and  C1_5 
ROOT
ATOM      1  C1  I4B d   1       0.542   2.331  -0.728  0.00  0.00    -0.075 A 
ATOM      2  C2  I4B d   1      -0.256   1.915   0.308  0.00  0.00     0.003 A 
ATOM      3  C3  I4B d   1      -0.796   2.859   1.215  0.00  0.00     0.002 A 
ATOM      4  C4  I4B d   1      -0.474   4.193   1.080  0.00  0.00    -0.004 A 
ATOM      5  C5  I4B d   1       0.317   4.616   0.015  0.00  0.00     0.002 A 
ATOM      6  C6  I4B d   1       0.818   3.681  -0.902  0.00  0.00     0.003 A 
ENDROOT
BRANCH   1   7
ATOM      7  C1' I4B d   1       1.122   1.305  -1.649  0.00  0.00     0.060 C 
BRANCH   7   8
ATOM      8  C2' I4B d   1       0.637  -0.057  -1.194  0.00  0.00    -0.013 C 
ATOM      9  C4' I4B d   1       0.292  -0.933  -2.370  0.00  0.00     0.013 C 
ATOM     10  C3' I4B d   1       1.714  -0.676  -0.355  0.00  0.00     0.013 C 
ENDBRANCH   7   8
ENDBRANCH   1   7
TORSDOF 2
ENDMDL
