MODEL 1
REMARK minimizedAffinity 0.197440743
REMARK minimizedRMSD -1
REMARK  2 active torsions:
REMARK  status: ('A' for Active; 'I' for Inactive)
REMARK    1  A    between atoms: C2'_3  and  C1'_4 
REMARK    2  A    between atoms: C1'_4  and  C1_5 
ROOT
ATOM      1  C1  I4B d   1       0.029   2.342  -0.287  0.00  0.00    -0.075 A 
ATOM      2  C2  I4B d   1      -0.648   1.592   0.642  0.00  0.00     0.003 A 
ATOM      3  C3  I4B d   1      -1.136   2.194   1.826  0.00  0.00     0.002 A 
ATOM      4  C4  I4B d   1      -0.883   3.530   2.064  0.00  0.00    -0.004 A 
ATOM      5  C5  I4B d   1      -0.217   4.294   1.110  0.00  0.00     0.002 A 
ATOM      6  C6  I4B d   1       0.232   3.700  -0.078  0.00  0.00     0.003 A 
ENDROOT
BRANCH   1   7
ATOM      7  C1' I4B d   1       0.559   1.667  -1.512  0.00  0.00     0.060 C 
BRANCH   7   8
ATOM      8  C2' I4B d   1       0.572   0.174  -1.253  0.00  0.00    -0.013 C 
ATOM      9  C4' I4B d   1       0.148  -0.595  -2.476  0.00  0.00     0.013 C 
ATOM     10  C3' I4B d   1       1.957  -0.210  -0.825  0.00  0.00     0.013 C 
ENDBRANCH   7   8
ENDBRANCH   1   7
TORSDOF 2
ENDMDL
