MODEL 1
REMARK minimizedAffinity 3.0148468
REMARK minimizedRMSD -1
REMARK  2 active torsions:
REMARK  status: ('A' for Active; 'I' for Inactive)
REMARK    1  A    between atoms: C2'_3  and  C1'_4 
REMARK    2  A    between atoms: C1'_4  and  C1_5 
ROOT
ATOM      1  C1  I4B d   1      -0.168   2.860  -0.791  0.00  0.00    -0.075 A 
ATOM      2  C2  I4B d   1      -0.159   3.560   0.390  0.00  0.00     0.003 A 
ATOM      3  C3  I4B d   1       0.299   4.899   0.422  0.00  0.00     0.002 A 
ATOM      4  C4  I4B d   1       0.785   5.479  -0.733  0.00  0.00    -0.004 A 
ATOM      5  C5  I4B d   1       0.755   4.775  -1.934  0.00  0.00     0.002 A 
ATOM      6  C6  I4B d   1       0.264   3.462  -1.966  0.00  0.00     0.003 A 
ENDROOT
BRANCH   1   7
ATOM      7  C1' I4B d   1      -0.628   1.437  -0.782  0.00  0.00     0.060 C 
BRANCH   7   8
ATOM      8  C2' I4B d   1       0.359   0.622  -1.593  0.00  0.00    -0.013 C 
ATOM      9  C4' I4B d   1       1.336  -0.097  -0.700  0.00  0.00     0.013 C 
ATOM     10  C3' I4B d   1      -0.420  -0.346  -2.433  0.00  0.00     0.013 C 
ENDBRANCH   7   8
ENDBRANCH   1   7
TORSDOF 2
ENDMDL
