MODEL 1
REMARK minimizedAffinity 3.84675169
REMARK minimizedRMSD -1
REMARK  2 active torsions:
REMARK  status: ('A' for Active; 'I' for Inactive)
REMARK    1  A    between atoms: C2'_3  and  C1'_4 
REMARK    2  A    between atoms: C1'_4  and  C1_5 
ROOT
ATOM      1  C1  I4B d   1      -0.108   1.169  -1.012  0.00  0.00    -0.075 A 
ATOM      2  C2  I4B d   1      -1.234   0.737  -1.667  0.00  0.00     0.003 A 
ATOM      3  C3  I4B d   1      -1.247  -0.528  -2.304  0.00  0.00     0.002 A 
ATOM      4  C4  I4B d   1      -0.103  -1.300  -2.304  0.00  0.00    -0.004 A 
ATOM      5  C5  I4B d   1       1.030  -0.870  -1.620  0.00  0.00     0.002 A 
ATOM      6  C6  I4B d   1       1.024   0.367  -0.959  0.00  0.00     0.003 A 
ENDROOT
BRANCH   1   7
ATOM      7  C1' I4B d   1      -0.119   2.524  -0.379  0.00  0.00     0.060 C 
BRANCH   7   8
ATOM      8  C2' I4B d   1      -1.366   2.630   0.476  0.00  0.00    -0.013 C 
ATOM      9  C4' I4B d   1      -1.131   2.071   1.855  0.00  0.00     0.013 C 
ATOM     10  C3' I4B d   1      -1.763   4.075   0.538  0.00  0.00     0.013 C 
ENDBRANCH   7   8
ENDBRANCH   1   7
TORSDOF 2
ENDMDL
