MODEL 1
REMARK minimizedAffinity 1.53988016
REMARK minimizedRMSD -1
REMARK  2 active torsions:
REMARK  status: ('A' for Active; 'I' for Inactive)
REMARK    1  A    between atoms: C2'_3  and  C1'_4 
REMARK    2  A    between atoms: C1'_4  and  C1_5 
ROOT
ATOM      1  C1  I4B d   1      -1.229   1.885   1.234  0.00  0.00    -0.075 A 
ATOM      2  C2  I4B d   1      -1.382   3.246   1.322  0.00  0.00     0.003 A 
ATOM      3  C3  I4B d   1      -0.813   4.093   0.340  0.00  0.00     0.002 A 
ATOM      4  C4  I4B d   1      -0.062   3.543  -0.678  0.00  0.00    -0.004 A 
ATOM      5  C5  I4B d   1       0.073   2.161  -0.779  0.00  0.00     0.002 A 
ATOM      6  C6  I4B d   1      -0.524   1.326   0.176  0.00  0.00     0.003 A 
ENDROOT
BRANCH   1   7
ATOM      7  C1' I4B d   1      -1.815   1.023   2.307  0.00  0.00     0.060 C 
BRANCH   7   8
ATOM      8  C2' I4B d   1      -1.092  -0.309   2.282  0.00  0.00    -0.013 C 
ATOM      9  C4' I4B d   1       0.372  -0.140   2.593  0.00  0.00     0.013 C 
ATOM     10  C3' I4B d   1      -1.756  -1.214   3.276  0.00  0.00     0.013 C 
ENDBRANCH   7   8
ENDBRANCH   1   7
TORSDOF 2
ENDMDL
