MODEL 1
REMARK minimizedAffinity 8.4446249
REMARK minimizedRMSD -1
REMARK  2 active torsions:
REMARK  status: ('A' for Active; 'I' for Inactive)
REMARK    1  A    between atoms: C2'_3  and  C1'_4 
REMARK    2  A    between atoms: C1'_4  and  C1_5 
ROOT
ATOM      1  C1  I4B d   1      -1.089   2.145   0.869  0.00  0.00    -0.075 A 
ATOM      2  C2  I4B d   1      -0.762   3.457   1.103  0.00  0.00     0.003 A 
ATOM      3  C3  I4B d   1      -0.229   4.255   0.061  0.00  0.00     0.002 A 
ATOM      4  C4  I4B d   1       0.005   3.691  -1.176  0.00  0.00    -0.004 A 
ATOM      5  C5  I4B d   1      -0.349   2.366  -1.417  0.00  0.00     0.002 A 
ATOM      6  C6  I4B d   1      -0.911   1.592  -0.392  0.00  0.00     0.003 A 
ENDROOT
BRANCH   1   7
ATOM      7  C1' I4B d   1      -1.618   1.321   2.000  0.00  0.00     0.060 C 
BRANCH   7   8
ATOM      8  C2' I4B d   1      -0.811   0.041   2.063  0.00  0.00    -0.013 C 
ATOM      9  C4' I4B d   1       0.620   0.317   2.445  0.00  0.00     0.013 C 
ATOM     10  C3' I4B d   1      -1.469  -0.873   3.053  0.00  0.00     0.013 C 
ENDBRANCH   7   8
ENDBRANCH   1   7
TORSDOF 2
ENDMDL
