MODEL 1
REMARK minimizedAffinity 7.92121124
REMARK minimizedRMSD -1
REMARK  2 active torsions:
REMARK  status: ('A' for Active; 'I' for Inactive)
REMARK    1  A    between atoms: C2'_3  and  C1'_4 
REMARK    2  A    between atoms: C1'_4  and  C1_5 
ROOT
ATOM      1  C1  I4B d   1      -0.425   2.472   0.538  0.00  0.00    -0.075 A 
ATOM      2  C2  I4B d   1      -0.284   1.307  -0.172  0.00  0.00     0.003 A 
ATOM      3  C3  I4B d   1       0.167   1.340  -1.514  0.00  0.00     0.002 A 
ATOM      4  C4  I4B d   1       0.413   2.556  -2.118  0.00  0.00    -0.004 A 
ATOM      5  C5  I4B d   1       0.291   3.736  -1.389  0.00  0.00     0.002 A 
ATOM      6  C6  I4B d   1      -0.119   3.693  -0.049  0.00  0.00     0.003 A 
ENDROOT
BRANCH   1   7
ATOM      7  C1' I4B d   1      -0.934   2.403   1.943  0.00  0.00     0.060 C 
BRANCH   7   8
ATOM      8  C2' I4B d   1      -0.307   1.194   2.607  0.00  0.00    -0.013 C 
ATOM      9  C4' I4B d   1       0.573   1.600   3.759  0.00  0.00     0.013 C 
ATOM     10  C3' I4B d   1      -1.414   0.291   3.065  0.00  0.00     0.013 C 
ENDBRANCH   7   8
ENDBRANCH   1   7
TORSDOF 2
ENDMDL
