MODEL 1
REMARK minimizedAffinity 9.47590923
REMARK minimizedRMSD -1
REMARK  2 active torsions:
REMARK  status: ('A' for Active; 'I' for Inactive)
REMARK    1  A    between atoms: C2'_3  and  C1'_4 
REMARK    2  A    between atoms: C1'_4  and  C1_5 
ROOT
ATOM      1  C1  I4B d   1      -0.727   1.926   0.693  0.00  0.00    -0.075 A 
ATOM      2  C2  I4B d   1      -0.654   3.285   0.516  0.00  0.00     0.003 A 
ATOM      3  C3  I4B d   1      -0.096   3.820  -0.670  0.00  0.00     0.002 A 
ATOM      4  C4  I4B d   1       0.418   2.967  -1.625  0.00  0.00    -0.004 A 
ATOM      5  C5  I4B d   1       0.322   1.589  -1.454  0.00  0.00     0.002 A 
ATOM      6  C6  I4B d   1      -0.266   1.064  -0.294  0.00  0.00     0.003 A 
ENDROOT
BRANCH   1   7
ATOM      7  C1' I4B d   1      -1.292   1.395   1.972  0.00  0.00     0.060 C 
BRANCH   7   8
ATOM      8  C2' I4B d   1      -0.794  -0.026   2.148  0.00  0.00    -0.013 C 
ATOM      9  C4' I4B d   1       0.628  -0.048   2.642  0.00  0.00     0.013 C 
ATOM     10  C3' I4B d   1      -1.712  -0.722   3.108  0.00  0.00     0.013 C 
ENDBRANCH   7   8
ENDBRANCH   1   7
TORSDOF 2
ENDMDL
