MODEL 1
REMARK minimizedAffinity -3.15785241
REMARK minimizedRMSD -1
REMARK  0 active torsions:
REMARK  status: ('A' for Active; 'I' for Inactive)
ROOT
ATOM      1  C2' OXE d   1      -0.871   0.545  -0.260  0.00  0.00     0.078 C 
ATOM      2  C1' OXE d   1       1.389   2.151   0.178  0.00  0.00     0.078 C 
ATOM      3  C1  OXE d   1       1.600   0.666   0.025  0.00  0.00    -0.078 A 
ATOM      4  C2  OXE d   1       0.484  -0.118  -0.142  0.00  0.00    -0.078 A 
ATOM      5  C3  OXE d   1       0.628  -1.488  -0.344  0.00  0.00     0.003 A 
ATOM      6  C4  OXE d   1       1.884  -2.095  -0.224  0.00  0.00    -0.002 A 
ATOM      7  C5  OXE d   1       3.029  -1.319  -0.014  0.00  0.00    -0.002 A 
ATOM      8  C6  OXE d   1       2.910   0.064   0.070  0.00  0.00     0.003 A 
ENDROOT
TORSDOF 0
ENDMDL
