MODEL 1
REMARK minimizedAffinity -1.74623096
REMARK minimizedRMSD -1
REMARK  0 active torsions:
REMARK  status: ('A' for Active; 'I' for Inactive)
ROOT
ATOM      1  C2' OXE d   1      -0.414   1.164   1.926  0.00  0.00     0.078 C 
ATOM      2  C1' OXE d   1      -0.584   0.521  -0.801  0.00  0.00     0.078 C 
ATOM      3  C1  OXE d   1      -1.865   0.838  -0.072  0.00  0.00    -0.078 A 
ATOM      4  C2  OXE d   1      -1.778   1.106   1.273  0.00  0.00    -0.078 A 
ATOM      5  C3  OXE d   1      -2.923   1.458   1.981  0.00  0.00     0.003 A 
ATOM      6  C4  OXE d   1      -4.182   1.393   1.372  0.00  0.00    -0.002 A 
ATOM      7  C5  OXE d   1      -4.297   1.083   0.013  0.00  0.00    -0.002 A 
ATOM      8  C6  OXE d   1      -3.148   0.845  -0.732  0.00  0.00     0.003 A 
ENDROOT
TORSDOF 0
ENDMDL
