MODEL 1
REMARK minimizedAffinity 2.46594524
REMARK minimizedRMSD -1
REMARK  0 active torsions:
REMARK  status: ('A' for Active; 'I' for Inactive)
ROOT
ATOM      1  C2' OXE d   1       4.046  -1.226   1.805  0.00  0.00     0.078 C 
ATOM      2  C1' OXE d   1       2.147  -2.172  -0.034  0.00  0.00     0.078 C 
ATOM      3  C1  OXE d   1       2.186  -0.688   0.237  0.00  0.00    -0.078 A 
ATOM      4  C2  OXE d   1       3.087  -0.240   1.173  0.00  0.00    -0.078 A 
ATOM      5  C3  OXE d   1       3.202   1.125   1.421  0.00  0.00     0.003 A 
ATOM      6  C4  OXE d   1       2.304   2.029   0.840  0.00  0.00    -0.002 A 
ATOM      7  C5  OXE d   1       1.353   1.588  -0.086  0.00  0.00    -0.002 A 
ATOM      8  C6  OXE d   1       1.309   0.242  -0.430  0.00  0.00     0.003 A 
ENDROOT
TORSDOF 0
ENDMDL
