MODEL 1
REMARK minimizedAffinity -4.47086668
REMARK minimizedRMSD -1
REMARK  0 active torsions:
REMARK  status: ('A' for Active; 'I' for Inactive)
ROOT
ATOM      1  C2' OXE d   1       0.184  -0.205  -0.037  0.00  0.00     0.078 C 
ATOM      2  C1' OXE d   1      -1.233   1.531  -1.727  0.00  0.00     0.078 C 
ATOM      3  C1  OXE d   1      -1.769   1.312  -0.334  0.00  0.00    -0.078 A 
ATOM      4  C2  OXE d   1      -1.095   0.425   0.470  0.00  0.00    -0.078 A 
ATOM      5  C3  OXE d   1      -1.516   0.227   1.782  0.00  0.00     0.003 A 
ATOM      6  C4  OXE d   1      -2.706   0.806   2.239  0.00  0.00    -0.002 A 
ATOM      7  C5  OXE d   1      -3.429   1.682   1.423  0.00  0.00    -0.002 A 
ATOM      8  C6  OXE d   1      -2.952   1.978   0.151  0.00  0.00     0.003 A 
ENDROOT
TORSDOF 0
ENDMDL
