MODEL 1
REMARK minimizedAffinity -4.75194979
REMARK minimizedRMSD -1
REMARK  0 active torsions:
REMARK  status: ('A' for Active; 'I' for Inactive)
ROOT
ATOM      1  C2' OXE d   1       2.459  -1.425   0.740  0.00  0.00     0.078 C 
ATOM      2  C1' OXE d   1       2.085   1.335   1.097  0.00  0.00     0.078 C 
ATOM      3  C1  OXE d   1       1.056   0.584   0.290  0.00  0.00    -0.078 A 
ATOM      4  C2  OXE d   1       1.271  -0.757   0.081  0.00  0.00    -0.078 A 
ATOM      5  C3  OXE d   1       0.324  -1.508  -0.609  0.00  0.00     0.003 A 
ATOM      6  C4  OXE d   1      -0.767  -0.881  -1.224  0.00  0.00    -0.002 A 
ATOM      7  C5  OXE d   1      -0.984   0.491  -1.057  0.00  0.00    -0.002 A 
ATOM      8  C6  OXE d   1      -0.107   1.229  -0.269  0.00  0.00     0.003 A 
ENDROOT
TORSDOF 0
ENDMDL
