MODEL 1
REMARK minimizedAffinity -3.66176248
REMARK minimizedRMSD -1
REMARK  0 active torsions:
REMARK  status: ('A' for Active; 'I' for Inactive)
ROOT
ATOM      1  C2' OXE d   1      -0.694  -2.033  -0.871  0.00  0.00     0.078 C 
ATOM      2  C1' OXE d   1       1.876  -1.596   0.169  0.00  0.00     0.078 C 
ATOM      3  C1  OXE d   1       1.048  -0.388  -0.190  0.00  0.00    -0.078 A 
ATOM      4  C2  OXE d   1      -0.191  -0.612  -0.742  0.00  0.00    -0.078 A 
ATOM      5  C3  OXE d   1      -1.017   0.468  -1.040  0.00  0.00     0.003 A 
ATOM      6  C4  OXE d   1      -0.540   1.779  -0.927  0.00  0.00    -0.002 A 
ATOM      7  C5  OXE d   1       0.734   2.028  -0.404  0.00  0.00    -0.002 A 
ATOM      8  C6  OXE d   1       1.522   0.960   0.008  0.00  0.00     0.003 A 
ENDROOT
TORSDOF 0
ENDMDL
