MODEL 1
REMARK minimizedAffinity -5.02648067
REMARK minimizedRMSD -1
REMARK  0 active torsions:
REMARK  status: ('A' for Active; 'I' for Inactive)
ROOT
ATOM      1  C2' OXE d   1       0.108  -1.669  -0.924  0.00  0.00     0.078 C 
ATOM      2  C1' OXE d   1      -0.604   1.016  -0.516  0.00  0.00     0.078 C 
ATOM      3  C1  OXE d   1       0.852   0.646  -0.382  0.00  0.00    -0.078 A 
ATOM      4  C2  OXE d   1       1.185  -0.679  -0.537  0.00  0.00    -0.078 A 
ATOM      5  C3  OXE d   1       2.521  -1.065  -0.479  0.00  0.00     0.003 A 
ATOM      6  C4  OXE d   1       3.510  -0.145  -0.111  0.00  0.00    -0.002 A 
ATOM      7  C5  OXE d   1       3.187   1.201   0.091  0.00  0.00    -0.002 A 
ATOM      8  C6  OXE d   1       1.872   1.620  -0.082  0.00  0.00     0.003 A 
ENDROOT
TORSDOF 0
ENDMDL
