MODEL 1
REMARK minimizedAffinity -3.35985827
REMARK minimizedRMSD -1
REMARK  0 active torsions:
REMARK  status: ('A' for Active; 'I' for Inactive)
ROOT
ATOM      1  C2' OXE d   1      -0.283  -2.026  -0.920  0.00  0.00     0.078 C 
ATOM      2  C1' OXE d   1       2.070  -1.379   0.468  0.00  0.00     0.078 C 
ATOM      3  C1  OXE d   1       1.154  -0.248   0.070  0.00  0.00    -0.078 A 
ATOM      4  C2  OXE d   1       0.029  -0.569  -0.650  0.00  0.00    -0.078 A 
ATOM      5  C3  OXE d   1      -0.877   0.430  -0.994  0.00  0.00     0.003 A 
ATOM      6  C4  OXE d   1      -0.576   1.775  -0.749  0.00  0.00    -0.002 A 
ATOM      7  C5  OXE d   1       0.584   2.127  -0.052  0.00  0.00    -0.002 A 
ATOM      8  C6  OXE d   1       1.437   1.126   0.401  0.00  0.00     0.003 A 
ENDROOT
TORSDOF 0
ENDMDL
