MODEL 1
REMARK minimizedAffinity -4.03655577
REMARK minimizedRMSD -1
REMARK  0 active torsions:
REMARK  status: ('A' for Active; 'I' for Inactive)
ROOT
ATOM      1  C2' OXE d   1       2.256   1.418   1.276  0.00  0.00     0.078 C 
ATOM      2  C1' OXE d   1       2.800  -1.321   0.989  0.00  0.00     0.078 C 
ATOM      3  C1  OXE d   1       1.539  -0.785   0.359  0.00  0.00    -0.078 A 
ATOM      4  C2  OXE d   1       1.257   0.547   0.544  0.00  0.00    -0.078 A 
ATOM      5  C3  OXE d   1       0.135   1.105  -0.062  0.00  0.00     0.003 A 
ATOM      6  C4  OXE d   1      -0.789   0.291  -0.728  0.00  0.00    -0.002 A 
ATOM      7  C5  OXE d   1      -0.541  -1.075  -0.895  0.00  0.00    -0.002 A 
ATOM      8  C6  OXE d   1       0.637  -1.620  -0.395  0.00  0.00     0.003 A 
ENDROOT
TORSDOF 0
ENDMDL
