MODEL 1
REMARK minimizedAffinity -3.76260614
REMARK minimizedRMSD -1
REMARK  0 active torsions:
REMARK  status: ('A' for Active; 'I' for Inactive)
ROOT
ATOM      1  C2' OXE d   1      -0.900  -1.444  -1.484  0.00  0.00     0.078 C 
ATOM      2  C1' OXE d   1      -1.643   1.106  -0.575  0.00  0.00     0.078 C 
ATOM      3  C1  OXE d   1      -0.241   0.635  -0.281  0.00  0.00    -0.078 A 
ATOM      4  C2  OXE d   1       0.099  -0.633  -0.688  0.00  0.00    -0.078 A 
ATOM      5  C3  OXE d   1       1.397  -1.096  -0.490  0.00  0.00     0.003 A 
ATOM      6  C4  OXE d   1       2.312  -0.343   0.256  0.00  0.00    -0.002 A 
ATOM      7  C5  OXE d   1       1.973   0.935   0.715  0.00  0.00    -0.002 A 
ATOM      8  C6  OXE d   1       0.718   1.454   0.419  0.00  0.00     0.003 A 
ENDROOT
TORSDOF 0
ENDMDL
