MODEL 1
REMARK minimizedAffinity -5.48604441
REMARK minimizedRMSD -1
REMARK  0 active torsions:
REMARK  status: ('A' for Active; 'I' for Inactive)
ROOT
ATOM      1  C2' OXE d   1      -0.358  -1.852  -0.750  0.00  0.00     0.078 C 
ATOM      2  C1' OXE d   1      -0.751   0.881  -0.241  0.00  0.00     0.078 C 
ATOM      3  C1  OXE d   1       0.599   0.292   0.082  0.00  0.00    -0.078 A 
ATOM      4  C2  OXE d   1       0.768  -1.056  -0.127  0.00  0.00    -0.078 A 
ATOM      5  C3  OXE d   1       2.011  -1.639   0.103  0.00  0.00     0.003 A 
ATOM      6  C4  OXE d   1       3.044  -0.897   0.689  0.00  0.00    -0.002 A 
ATOM      7  C5  OXE d   1       2.880   0.468   0.947  0.00  0.00    -0.002 A 
ATOM      8  C6  OXE d   1       1.681   1.086   0.610  0.00  0.00     0.003 A 
ENDROOT
TORSDOF 0
ENDMDL
