MODEL 1
REMARK minimizedAffinity -3.6114552
REMARK minimizedRMSD -1
REMARK  0 active torsions:
REMARK  status: ('A' for Active; 'I' for Inactive)
ROOT
ATOM      1  C2' OXE d   1      -0.105  -1.646  -1.501  0.00  0.00     0.078 C 
ATOM      2  C1' OXE d   1      -0.597   0.964  -0.590  0.00  0.00     0.078 C 
ATOM      3  C1  OXE d   1       0.564   0.215   0.015  0.00  0.00    -0.078 A 
ATOM      4  C2  OXE d   1       0.769  -1.078  -0.403  0.00  0.00    -0.078 A 
ATOM      5  C3  OXE d   1       1.859  -1.795   0.083  0.00  0.00     0.003 A 
ATOM      6  C4  OXE d   1       2.656  -1.267   1.106  0.00  0.00    -0.002 A 
ATOM      7  C5  OXE d   1       2.440   0.034   1.574  0.00  0.00    -0.002 A 
ATOM      8  C6  OXE d   1       1.427   0.802   1.010  0.00  0.00     0.003 A 
ENDROOT
TORSDOF 0
ENDMDL
