MODEL 1
REMARK minimizedAffinity -2.51121092
REMARK minimizedRMSD -1
REMARK  0 active torsions:
REMARK  status: ('A' for Active; 'I' for Inactive)
ROOT
ATOM      1  C2' OXE d   1      -1.380   1.090   0.081  0.00  0.00     0.078 C 
ATOM      2  C1' OXE d   1       1.300   1.892   0.314  0.00  0.00     0.078 C 
ATOM      3  C1  OXE d   1       1.022   0.431   0.064  0.00  0.00    -0.078 A 
ATOM      4  C2  OXE d   1      -0.294   0.040  -0.002  0.00  0.00    -0.078 A 
ATOM      5  C3  OXE d   1      -0.606  -1.287  -0.285  0.00  0.00     0.003 A 
ATOM      6  C4  OXE d   1       0.405  -2.254  -0.350  0.00  0.00    -0.002 A 
ATOM      7  C5  OXE d   1       1.750  -1.884  -0.246  0.00  0.00    -0.002 A 
ATOM      8  C6  OXE d   1       2.076  -0.542  -0.081  0.00  0.00     0.003 A 
ENDROOT
TORSDOF 0
ENDMDL
