MODEL 1
REMARK minimizedAffinity 9.76723194
REMARK minimizedRMSD -1
REMARK  1 active torsions:
REMARK  status: ('A' for Active; 'I' for Inactive)
REMARK    1  A    between atoms: C1_2  and  C2_3 
ROOT
ATOM      1  C2  UNL d   1      -1.051  -1.008   1.224  0.00  0.00    -0.077 A 
ATOM      2  C3  UNL d   1      -1.497   0.223   1.726  0.00  0.00     0.002 A 
ATOM      3  C4  UNL d   1      -0.679   0.981   2.567  0.00  0.00     0.002 A 
ATOM      4  C5  UNL d   1       0.590   0.519   2.908  0.00  0.00    -0.004 A 
ATOM      5  C6  UNL d   1       1.042  -0.705   2.415  0.00  0.00     0.002 A 
ATOM      6  C7  UNL d   1       0.225  -1.464   1.576  0.00  0.00     0.002 A 
ENDROOT
BRANCH   1   7
ATOM      7  C1  UNL d   1      -1.912  -1.803   0.278  0.00  0.00     0.055 C 
ATOM      8  C   UNL d   1      -1.209  -2.032  -1.052  0.00  0.00     0.019 C 
ENDBRANCH   1   7
TORSDOF 1
ENDMDL
