MODEL 1
REMARK minimizedAffinity 4.28428173
REMARK minimizedRMSD -1
REMARK  1 active torsions:
REMARK  status: ('A' for Active; 'I' for Inactive)
REMARK    1  A    between atoms: C1_2  and  C2_3 
ROOT
ATOM      1  C2  UNL d   1       0.703   0.318   4.256  0.00  0.00    -0.077 A 
ATOM      2  C3  UNL d   1      -0.075   0.998   3.309  0.00  0.00     0.002 A 
ATOM      3  C4  UNL d   1      -0.377   0.402   2.084  0.00  0.00     0.002 A 
ATOM      4  C5  UNL d   1       0.091  -0.878   1.796  0.00  0.00    -0.004 A 
ATOM      5  C6  UNL d   1       0.867  -1.562   2.730  0.00  0.00     0.002 A 
ATOM      6  C7  UNL d   1       1.172  -0.968   3.955  0.00  0.00     0.002 A 
ENDROOT
BRANCH   1   7
ATOM      7  C1  UNL d   1       0.989   0.939   5.598  0.00  0.00     0.055 C 
ATOM      8  C   UNL d   1       0.050   2.103   5.881  0.00  0.00     0.019 C 
ENDBRANCH   1   7
TORSDOF 1
ENDMDL
