MODEL 1
REMARK minimizedAffinity 5.53918123
REMARK minimizedRMSD -1
REMARK  1 active torsions:
REMARK  status: ('A' for Active; 'I' for Inactive)
REMARK    1  A    between atoms: C1_2  and  C2_3 
ROOT
ATOM      1  C2  UNL d   1      -0.199  -1.154  -3.497  0.00  0.00    -0.077 A 
ATOM      2  C3  UNL d   1      -0.025  -0.914  -2.127  0.00  0.00     0.002 A 
ATOM      3  C4  UNL d   1      -0.746  -1.651  -1.185  0.00  0.00     0.002 A 
ATOM      4  C5  UNL d   1      -1.641  -2.634  -1.602  0.00  0.00    -0.004 A 
ATOM      5  C6  UNL d   1      -1.821  -2.878  -2.963  0.00  0.00     0.002 A 
ATOM      6  C7  UNL d   1      -1.103  -2.142  -3.906  0.00  0.00     0.002 A 
ENDROOT
BRANCH   1   7
ATOM      7  C1  UNL d   1       0.614  -0.395  -4.514  0.00  0.00     0.055 C 
ATOM      8  C   UNL d   1       1.729   0.400  -3.850  0.00  0.00     0.019 C 
ENDBRANCH   1   7
TORSDOF 1
ENDMDL
