MODEL 1
REMARK minimizedAffinity 6.37443447
REMARK minimizedRMSD -1
REMARK  1 active torsions:
REMARK  status: ('A' for Active; 'I' for Inactive)
REMARK    1  A    between atoms: C1_2  and  C2_3 
ROOT
ATOM      1  C2  UNL d   1      -1.485  -3.688  -3.340  0.00  0.00    -0.077 A 
ATOM      2  C3  UNL d   1      -1.833  -4.961  -2.868  0.00  0.00     0.002 A 
ATOM      3  C4  UNL d   1      -2.098  -5.999  -3.764  0.00  0.00     0.002 A 
ATOM      4  C5  UNL d   1      -2.014  -5.775  -5.136  0.00  0.00    -0.004 A 
ATOM      5  C6  UNL d   1      -1.671  -4.512  -5.616  0.00  0.00     0.002 A 
ATOM      6  C7  UNL d   1      -1.406  -3.473  -4.722  0.00  0.00     0.002 A 
ENDROOT
BRANCH   1   7
ATOM      7  C1  UNL d   1      -1.150  -2.581  -2.375  0.00  0.00     0.055 C 
ATOM      8  C   UNL d   1      -0.458  -1.423  -3.080  0.00  0.00     0.019 C 
ENDBRANCH   1   7
TORSDOF 1
ENDMDL
