MODEL 1
REMARK minimizedAffinity 12.8436699
REMARK minimizedRMSD -1
REMARK  1 active torsions:
REMARK  status: ('A' for Active; 'I' for Inactive)
REMARK    1  A    between atoms: C1_2  and  C2_3 
ROOT
ATOM      1  C2  UNL d   1      -1.307  -1.185   2.132  0.00  0.00    -0.077 A 
ATOM      2  C3  UNL d   1      -1.278   0.184   2.434  0.00  0.00     0.002 A 
ATOM      3  C4  UNL d   1      -0.105   0.780   2.899  0.00  0.00     0.002 A 
ATOM      4  C5  UNL d   1       1.049   0.017   3.063  0.00  0.00    -0.004 A 
ATOM      5  C6  UNL d   1       1.030  -1.346   2.767  0.00  0.00     0.002 A 
ATOM      6  C7  UNL d   1      -0.142  -1.944   2.303  0.00  0.00     0.002 A 
ENDROOT
BRANCH   1   7
ATOM      7  C1  UNL d   1      -2.558  -1.819   1.583  0.00  0.00     0.055 C 
ATOM      8  C   UNL d   1      -3.444  -2.353   2.700  0.00  0.00     0.019 C 
ENDBRANCH   1   7
TORSDOF 1
ENDMDL
