MODEL 1
REMARK minimizedAffinity -0.682855248
REMARK minimizedRMSD -1
REMARK  0 active torsions:
REMARK  status: ('A' for Active; 'I' for Inactive)
ROOT
ATOM      1  C   UNL d   1       4.860   0.482   2.561  0.00  0.00     0.172 C 
ATOM      2  N   UNL d   1       5.187   0.321   3.959  0.00  0.00    -0.070 N 
ATOM      3  C1  UNL d   1       5.908   1.204   4.717  0.00  0.00    -0.004 A 
ATOM      4  C2  UNL d   1       5.999   0.688   5.992  0.00  0.00    -0.047 A 
ATOM      5  C3  UNL d   1       5.310  -0.548   6.000  0.00  0.00    -0.047 A 
ATOM      6  C4  UNL d   1       4.817  -0.751   4.728  0.00  0.00    -0.004 A 
ENDROOT
TORSDOF 0
ENDMDL
