MODEL 1
REMARK minimizedAffinity 2.10495377
REMARK minimizedRMSD -1
REMARK  0 active torsions:
REMARK  status: ('A' for Active; 'I' for Inactive)
ROOT
ATOM      1  C   UNL d   1       3.847   1.348   2.535  0.00  0.00     0.172 C 
ATOM      2  N   UNL d   1       3.114   2.311   1.749  0.00  0.00    -0.070 N 
ATOM      3  C1  UNL d   1       1.821   2.172   1.319  0.00  0.00    -0.004 A 
ATOM      4  C2  UNL d   1       1.490   3.303   0.603  0.00  0.00    -0.047 A 
ATOM      5  C3  UNL d   1       2.624   4.150   0.602  0.00  0.00    -0.047 A 
ATOM      6  C4  UNL d   1       3.614   3.512   1.318  0.00  0.00    -0.004 A 
ENDROOT
TORSDOF 0
ENDMDL
