MODEL 1
REMARK minimizedAffinity 4.57821941
REMARK minimizedRMSD -1
REMARK  0 active torsions:
REMARK  status: ('A' for Active; 'I' for Inactive)
ROOT
ATOM      1  C   UNL d   1      -3.761   2.751   4.713  0.00  0.00     0.172 C 
ATOM      2  N   UNL d   1      -4.365   4.044   4.933  0.00  0.00    -0.070 N 
ATOM      3  C1  UNL d   1      -5.288   4.643   4.119  0.00  0.00    -0.004 A 
ATOM      4  C2  UNL d   1      -5.614   5.861   4.674  0.00  0.00    -0.047 A 
ATOM      5  C3  UNL d   1      -4.859   6.000   5.863  0.00  0.00    -0.047 A 
ATOM      6  C4  UNL d   1      -4.095   4.860   6.000  0.00  0.00    -0.004 A 
ENDROOT
TORSDOF 0
ENDMDL
