MODEL 1
REMARK minimizedAffinity 2.3081646
REMARK minimizedRMSD -1
REMARK  0 active torsions:
REMARK  status: ('A' for Active; 'I' for Inactive)
ROOT
ATOM      1  C   UNL d   1       5.228  -2.467   5.959  0.00  0.00     0.172 C 
ATOM      2  N   UNL d   1       5.041  -1.048   5.768  0.00  0.00    -0.070 N 
ATOM      3  C1  UNL d   1       3.891  -0.445   5.332  0.00  0.00    -0.004 A 
ATOM      4  C2  UNL d   1       4.119   0.913   5.284  0.00  0.00    -0.047 A 
ATOM      5  C3  UNL d   1       5.452   1.135   5.703  0.00  0.00    -0.047 A 
ATOM      6  C4  UNL d   1       6.000  -0.096   5.997  0.00  0.00    -0.004 A 
ENDROOT
TORSDOF 0
ENDMDL
