MODEL 1
REMARK minimizedAffinity 4.89588594
REMARK minimizedRMSD -1
REMARK  0 active torsions:
REMARK  status: ('A' for Active; 'I' for Inactive)
ROOT
ATOM      1  C   UNL d   1       0.900   0.670  -2.209  0.00  0.00     0.172 C 
ATOM      2  N   UNL d   1       1.593   1.025  -3.425  0.00  0.00    -0.070 N 
ATOM      3  C1  UNL d   1       1.001   1.314  -4.625  0.00  0.00    -0.004 A 
ATOM      4  C2  UNL d   1       2.000   1.603  -5.530  0.00  0.00    -0.047 A 
ATOM      5  C3  UNL d   1       3.235   1.482  -4.849  0.00  0.00    -0.047 A 
ATOM      6  C4  UNL d   1       2.954   1.124  -3.548  0.00  0.00    -0.004 A 
ENDROOT
TORSDOF 0
ENDMDL
