MODEL 1
REMARK minimizedAffinity 6.65300751
REMARK minimizedRMSD -1
REMARK  0 active torsions:
REMARK  status: ('A' for Active; 'I' for Inactive)
ROOT
ATOM      1  C   UNL d   1       1.407   0.850  -2.916  0.00  0.00     0.172 C 
ATOM      2  N   UNL d   1       2.103   1.505  -3.999  0.00  0.00    -0.070 N 
ATOM      3  C1  UNL d   1       2.682   2.745  -3.942  0.00  0.00    -0.004 A 
ATOM      4  C2  UNL d   1       3.241   3.007  -5.174  0.00  0.00    -0.047 A 
ATOM      5  C3  UNL d   1       2.990   1.886  -6.000  0.00  0.00    -0.047 A 
ATOM      6  C4  UNL d   1       2.283   0.971  -5.247  0.00  0.00    -0.004 A 
ENDROOT
TORSDOF 0
ENDMDL
