MODEL 1
REMARK minimizedAffinity 5.66292381
REMARK minimizedRMSD -1
REMARK  0 active torsions:
REMARK  status: ('A' for Active; 'I' for Inactive)
ROOT
ATOM      1  C   UNL d   1      -5.062  -2.139   3.951  0.00  0.00     0.172 C 
ATOM      2  N   UNL d   1      -4.149  -1.022   3.895  0.00  0.00    -0.070 N 
ATOM      3  C1  UNL d   1      -2.856  -1.070   3.446  0.00  0.00    -0.004 A 
ATOM      4  C2  UNL d   1      -2.324   0.197   3.553  0.00  0.00    -0.047 A 
ATOM      5  C3  UNL d   1      -3.332   1.035   4.087  0.00  0.00    -0.047 A 
ATOM      6  C4  UNL d   1      -4.451   0.254   4.289  0.00  0.00    -0.004 A 
ENDROOT
TORSDOF 0
ENDMDL
