MODEL 1
REMARK minimizedAffinity 3.39575434
REMARK minimizedRMSD -1
REMARK  0 active torsions:
REMARK  status: ('A' for Active; 'I' for Inactive)
ROOT
ATOM      1  C   UNL d   1       2.355  -1.845  -1.807  0.00  0.00     0.172 C 
ATOM      2  N   UNL d   1       1.132  -1.909  -1.042  0.00  0.00    -0.070 N 
ATOM      3  C1  UNL d   1       0.287  -0.860  -0.797  0.00  0.00    -0.004 A 
ATOM      4  C2  UNL d   1      -0.760  -1.331  -0.034  0.00  0.00    -0.047 A 
ATOM      5  C3  UNL d   1      -0.536  -2.711   0.187  0.00  0.00    -0.047 A 
ATOM      6  C4  UNL d   1       0.642  -3.042  -0.448  0.00  0.00    -0.004 A 
ENDROOT
TORSDOF 0
ENDMDL
