MODEL 1
REMARK minimizedAffinity 1.58180201
REMARK minimizedRMSD -1
REMARK  0 active torsions:
REMARK  status: ('A' for Active; 'I' for Inactive)
ROOT
ATOM      1  C   UNL d   1      -0.122   1.033  -0.639  0.00  0.00     0.172 C 
ATOM      2  N   UNL d   1      -0.347  -0.369  -0.374  0.00  0.00    -0.070 N 
ATOM      3  C1  UNL d   1      -1.531  -0.925   0.031  0.00  0.00    -0.004 A 
ATOM      4  C2  UNL d   1      -1.334  -2.281   0.173  0.00  0.00    -0.047 A 
ATOM      5  C3  UNL d   1       0.015  -2.550  -0.159  0.00  0.00    -0.047 A 
ATOM      6  C4  UNL d   1       0.603  -1.349  -0.493  0.00  0.00    -0.004 A 
ENDROOT
TORSDOF 0
ENDMDL
