MODEL 1
REMARK minimizedAffinity 2.30843616
REMARK minimizedRMSD -1
REMARK  0 active torsions:
REMARK  status: ('A' for Active; 'I' for Inactive)
ROOT
ATOM      1  C   UNL d   1       1.482   0.803  -4.198  0.00  0.00     0.172 C 
ATOM      2  N   UNL d   1       1.436  -0.144  -3.109  0.00  0.00    -0.070 N 
ATOM      3  C1  UNL d   1       0.769   0.032  -1.925  0.00  0.00    -0.004 A 
ATOM      4  C2  UNL d   1       0.970  -1.094  -1.156  0.00  0.00    -0.047 A 
ATOM      5  C3  UNL d   1       1.786  -1.977  -1.903  0.00  0.00    -0.047 A 
ATOM      6  C4  UNL d   1       2.059  -1.364  -3.108  0.00  0.00    -0.004 A 
ENDROOT
TORSDOF 0
ENDMDL
