MODEL 1
REMARK minimizedAffinity 1.01458013
REMARK minimizedRMSD -1
REMARK  0 active torsions:
REMARK  status: ('A' for Active; 'I' for Inactive)
ROOT
ATOM      1  C   UNL d   1      -0.060   0.781  -0.624  0.00  0.00     0.172 C 
ATOM      2  N   UNL d   1      -0.053  -0.651  -0.436  0.00  0.00    -0.070 N 
ATOM      3  C1  UNL d   1       0.988  -1.490  -0.732  0.00  0.00    -0.004 A 
ATOM      4  C2  UNL d   1       0.601  -2.772  -0.408  0.00  0.00    -0.047 A 
ATOM      5  C3  UNL d   1      -0.718  -2.702   0.099  0.00  0.00    -0.047 A 
ATOM      6  C4  UNL d   1      -1.099  -1.377   0.071  0.00  0.00    -0.004 A 
ENDROOT
TORSDOF 0
ENDMDL
