MODEL 1
REMARK minimizedAffinity -0.881779194
REMARK minimizedRMSD -1
REMARK  0 active torsions:
REMARK  status: ('A' for Active; 'I' for Inactive)
ROOT
ATOM      1  C   UNL d   1       5.512   0.445   6.000  0.00  0.00     0.172 C 
ATOM      2  N   UNL d   1       5.692  -0.836   5.358  0.00  0.00    -0.070 N 
ATOM      3  C1  UNL d   1       5.851  -2.035   5.999  0.00  0.00    -0.004 A 
ATOM      4  C2  UNL d   1       5.992  -3.013   5.038  0.00  0.00    -0.047 A 
ATOM      5  C3  UNL d   1       5.916  -2.379   3.775  0.00  0.00    -0.047 A 
ATOM      6  C4  UNL d   1       5.730  -1.031   4.003  0.00  0.00    -0.004 A 
ENDROOT
TORSDOF 0
ENDMDL
