MODEL 1
REMARK minimizedAffinity -0.824820578
REMARK minimizedRMSD -1
REMARK  0 active torsions:
REMARK  status: ('A' for Active; 'I' for Inactive)
ROOT
ATOM      1  C   UNL d   1       1.586  -1.946  -1.437  0.00  0.00     0.172 C 
ATOM      2  N   UNL d   1       1.239  -0.609  -1.860  0.00  0.00    -0.070 N 
ATOM      3  C1  UNL d   1       0.503   0.291  -1.136  0.00  0.00    -0.004 A 
ATOM      4  C2  UNL d   1       0.394   1.444  -1.883  0.00  0.00    -0.047 A 
ATOM      5  C3  UNL d   1       1.088   1.229  -3.098  0.00  0.00    -0.047 A 
ATOM      6  C4  UNL d   1       1.601  -0.050  -3.057  0.00  0.00    -0.004 A 
ENDROOT
TORSDOF 0
ENDMDL
