MODEL 1
REMARK minimizedAffinity 3.05469847
REMARK minimizedRMSD -1
REMARK  0 active torsions:
REMARK  status: ('A' for Active; 'I' for Inactive)
ROOT
ATOM      1  C   UNL d   1       4.020   2.713   5.931  0.00  0.00     0.172 C 
ATOM      2  N   UNL d   1       4.552   1.371   5.958  0.00  0.00    -0.070 N 
ATOM      3  C1  UNL d   1       3.811   0.219   5.977  0.00  0.00    -0.004 A 
ATOM      4  C2  UNL d   1       4.687  -0.845   5.999  0.00  0.00    -0.047 A 
ATOM      5  C3  UNL d   1       5.999  -0.315   5.996  0.00  0.00    -0.047 A 
ATOM      6  C4  UNL d   1       5.886   1.059   5.970  0.00  0.00    -0.004 A 
ENDROOT
TORSDOF 0
ENDMDL
