MODEL 1
REMARK minimizedAffinity -2.6099596
REMARK minimizedRMSD -1
REMARK  0 active torsions:
REMARK  status: ('A' for Active; 'I' for Inactive)
ROOT
ATOM      1  C   UNL d   1       4.903   2.096   4.824  0.00  0.00     0.172 C 
ATOM      2  N   UNL d   1       5.166   0.691   5.034  0.00  0.00    -0.070 N 
ATOM      3  C1  UNL d   1       4.628  -0.339   4.309  0.00  0.00    -0.004 A 
ATOM      4  C2  UNL d   1       5.127  -1.518   4.819  0.00  0.00    -0.047 A 
ATOM      5  C3  UNL d   1       5.992  -1.186   5.888  0.00  0.00    -0.047 A 
ATOM      6  C4  UNL d   1       5.998   0.189   5.999  0.00  0.00    -0.004 A 
ENDROOT
TORSDOF 0
ENDMDL
