MODEL 1
REMARK minimizedAffinity 14.3979654
REMARK minimizedRMSD -1
REMARK  0 active torsions:
REMARK  status: ('A' for Active; 'I' for Inactive)
ROOT
ATOM      1  C   UNL d   1      -2.966   0.458   2.731  0.00  0.00     0.124 A 
ATOM      2  C1  UNL d   1      -2.112   1.551   2.772  0.00  0.00     0.062 A 
ATOM      3  C2  UNL d   1      -2.564   2.807   2.379  0.00  0.00     0.162 A 
ATOM      4  C3  UNL d   1      -3.878   2.978   1.943  0.00  0.00    -0.034 A 
ATOM      5  C4  UNL d   1      -4.730   1.873   1.903  0.00  0.00     0.162 A 
ATOM      6  C5  UNL d   1      -4.274   0.619   2.297  0.00  0.00     0.062 A 
ATOM      7  F   UNL d   1      -5.100  -0.436   2.257  0.00  0.00    -0.097 F 
ATOM      8  F1  UNL d   1      -6.000   2.001   1.489  0.00  0.00    -0.096 F 
ATOM      9  I   UNL d   1      -4.558   4.855   1.354  0.00  0.00    -0.060 I 
ATOM     10  F2  UNL d   1      -1.717   3.846   2.429  0.00  0.00    -0.096 F 
ATOM     11  F3  UNL d   1      -0.847   1.397   3.190  0.00  0.00    -0.097 F 
ATOM     12  F4  UNL d   1      -2.527  -0.750   3.109  0.00  0.00    -0.092 F 
ENDROOT
TORSDOF 0
ENDMDL
