MODEL 1
REMARK minimizedAffinity 11.4591675
REMARK minimizedRMSD -1
REMARK  0 active torsions:
REMARK  status: ('A' for Active; 'I' for Inactive)
ROOT
ATOM      1  C   UNL d   1      -2.662   2.600   2.887  0.00  0.00     0.124 A 
ATOM      2  C1  UNL d   1      -3.767   2.697   2.053  0.00  0.00     0.062 A 
ATOM      3  C2  UNL d   1      -4.640   1.621   1.921  0.00  0.00     0.162 A 
ATOM      4  C3  UNL d   1      -4.412   0.439   2.625  0.00  0.00    -0.034 A 
ATOM      5  C4  UNL d   1      -3.298   0.349   3.462  0.00  0.00     0.162 A 
ATOM      6  C5  UNL d   1      -2.429   1.427   3.591  0.00  0.00     0.062 A 
ATOM      7  F   UNL d   1      -1.362   1.332   4.398  0.00  0.00    -0.097 F 
ATOM      8  F1  UNL d   1      -3.049  -0.773   4.154  0.00  0.00    -0.096 F 
ATOM      9  I   UNL d   1      -5.715  -1.172   2.430  0.00  0.00    -0.060 I 
ATOM     10  F2  UNL d   1      -5.700   1.742   1.107  0.00  0.00    -0.096 F 
ATOM     11  F3  UNL d   1      -3.994   3.829   1.372  0.00  0.00    -0.097 F 
ATOM     12  F4  UNL d   1      -1.823   3.637   3.012  0.00  0.00    -0.092 F 
ENDROOT
TORSDOF 0
ENDMDL
