MODEL 1
REMARK minimizedAffinity 15.882967
REMARK minimizedRMSD -1
REMARK  0 active torsions:
REMARK  status: ('A' for Active; 'I' for Inactive)
ROOT
ATOM      1  C   UNL d   1       2.954   0.260  -1.595  0.00  0.00     0.124 A 
ATOM      2  C1  UNL d   1       3.075  -0.972  -0.967  0.00  0.00     0.062 A 
ATOM      3  C2  UNL d   1       2.116  -1.960  -1.172  0.00  0.00     0.162 A 
ATOM      4  C3  UNL d   1       1.027  -1.720  -2.010  0.00  0.00    -0.034 A 
ATOM      5  C4  UNL d   1       0.911  -0.478  -2.637  0.00  0.00     0.162 A 
ATOM      6  C5  UNL d   1       1.872   0.505  -2.429  0.00  0.00     0.062 A 
ATOM      7  F   UNL d   1       1.753   1.695  -3.036  0.00  0.00    -0.097 F 
ATOM      8  F1  UNL d   1      -0.123  -0.215  -3.449  0.00  0.00    -0.096 F 
ATOM      9  I   UNL d   1      -0.409  -3.195  -2.319  0.00  0.00    -0.060 I 
ATOM     10  F2  UNL d   1       2.259  -3.141  -0.552  0.00  0.00    -0.096 F 
ATOM     11  F3  UNL d   1       4.119  -1.212  -0.160  0.00  0.00    -0.097 F 
ATOM     12  F4  UNL d   1       3.877   1.209  -1.395  0.00  0.00    -0.092 F 
ENDROOT
TORSDOF 0
ENDMDL
