MODEL 1
REMARK minimizedAffinity 20.8259964
REMARK minimizedRMSD -1
REMARK  0 active torsions:
REMARK  status: ('A' for Active; 'I' for Inactive)
ROOT
ATOM      1  C   UNL d   1      -2.113   0.302   2.572  0.00  0.00     0.124 A 
ATOM      2  C1  UNL d   1      -2.701  -0.308   1.473  0.00  0.00     0.062 A 
ATOM      3  C2  UNL d   1      -1.996  -0.428   0.278  0.00  0.00     0.162 A 
ATOM      4  C3  UNL d   1      -0.694   0.061   0.177  0.00  0.00    -0.034 A 
ATOM      5  C4  UNL d   1      -0.110   0.675   1.287  0.00  0.00     0.162 A 
ATOM      6  C5  UNL d   1      -0.818   0.793   2.478  0.00  0.00     0.062 A 
ATOM      7  F   UNL d   1      -0.248   1.383   3.539  0.00  0.00    -0.097 F 
ATOM      8  F1  UNL d   1       1.140   1.157   1.224  0.00  0.00    -0.096 F 
ATOM      9  I   UNL d   1       0.363  -0.117  -1.606  0.00  0.00    -0.060 I 
ATOM     10  F2  UNL d   1      -2.590  -1.023  -0.768  0.00  0.00    -0.096 F 
ATOM     11  F3  UNL d   1      -3.952  -0.782   1.560  0.00  0.00    -0.097 F 
ATOM     12  F4  UNL d   1      -2.794   0.418   3.719  0.00  0.00    -0.092 F 
ENDROOT
TORSDOF 0
ENDMDL
