MODEL 1
REMARK minimizedAffinity 21.5829983
REMARK minimizedRMSD -1
REMARK  0 active torsions:
REMARK  status: ('A' for Active; 'I' for Inactive)
ROOT
ATOM      1  C   UNL d   1       2.016  -3.069  -0.282  0.00  0.00     0.124 A 
ATOM      2  C1  UNL d   1       0.769  -2.991  -0.887  0.00  0.00     0.062 A 
ATOM      3  C2  UNL d   1       0.482  -1.952  -1.767  0.00  0.00     0.162 A 
ATOM      4  C3  UNL d   1       1.445  -0.983  -2.051  0.00  0.00    -0.034 A 
ATOM      5  C4  UNL d   1       2.696  -1.068  -1.438  0.00  0.00     0.162 A 
ATOM      6  C5  UNL d   1       2.978  -2.108  -0.559  0.00  0.00     0.062 A 
ATOM      7  F   UNL d   1       4.184  -2.182   0.024  0.00  0.00    -0.097 F 
ATOM      8  F1  UNL d   1       3.645  -0.153  -1.688  0.00  0.00    -0.096 F 
ATOM      9  I   UNL d   1       1.019   0.572  -3.367  0.00  0.00    -0.060 I 
ATOM     10  F2  UNL d   1      -0.732  -1.901  -2.337  0.00  0.00    -0.096 F 
ATOM     11  F3  UNL d   1      -0.163  -3.917  -0.621  0.00  0.00    -0.097 F 
ATOM     12  F4  UNL d   1       2.289  -4.069   0.566  0.00  0.00    -0.092 F 
ENDROOT
TORSDOF 0
ENDMDL
