MODEL 1
REMARK minimizedAffinity 14.7544355
REMARK minimizedRMSD -1
REMARK  0 active torsions:
REMARK  status: ('A' for Active; 'I' for Inactive)
ROOT
ATOM      1  C   UNL d   1       1.210   2.988  -2.606  0.00  0.00     0.124 A 
ATOM      2  C1  UNL d   1      -0.039   2.444  -2.342  0.00  0.00     0.062 A 
ATOM      3  C2  UNL d   1      -0.187   1.067  -2.200  0.00  0.00     0.162 A 
ATOM      4  C3  UNL d   1       0.918   0.224  -2.321  0.00  0.00    -0.034 A 
ATOM      5  C4  UNL d   1       2.171   0.779  -2.588  0.00  0.00     0.162 A 
ATOM      6  C5  UNL d   1       2.314   2.156  -2.728  0.00  0.00     0.062 A 
ATOM      7  F   UNL d   1       3.522   2.680  -2.983  0.00  0.00    -0.097 F 
ATOM      8  F1  UNL d   1       3.255  -0.002  -2.710  0.00  0.00    -0.096 F 
ATOM      9  I   UNL d   1       0.701  -1.835  -2.110  0.00  0.00    -0.060 I 
ATOM     10  F2  UNL d   1      -1.406   0.569  -1.945  0.00  0.00    -0.096 F 
ATOM     11  F3  UNL d   1      -1.107   3.246  -2.224  0.00  0.00    -0.097 F 
ATOM     12  F4  UNL d   1       1.350   4.313  -2.742  0.00  0.00    -0.092 F 
ENDROOT
TORSDOF 0
ENDMDL
