MODEL 1
REMARK minimizedAffinity 13.5349255
REMARK minimizedRMSD -1
REMARK  0 active torsions:
REMARK  status: ('A' for Active; 'I' for Inactive)
ROOT
ATOM      1  C   UNL d   1       1.260   1.093  -2.337  0.00  0.00     0.124 A 
ATOM      2  C1  UNL d   1      -0.047   1.405  -1.993  0.00  0.00     0.062 A 
ATOM      3  C2  UNL d   1      -0.871   0.439  -1.423  0.00  0.00     0.162 A 
ATOM      4  C3  UNL d   1      -0.389  -0.850  -1.193  0.00  0.00    -0.034 A 
ATOM      5  C4  UNL d   1       0.927  -1.156  -1.542  0.00  0.00     0.162 A 
ATOM      6  C5  UNL d   1       1.747  -0.187  -2.112  0.00  0.00     0.062 A 
ATOM      7  F   UNL d   1       3.010  -0.490  -2.444  0.00  0.00    -0.097 F 
ATOM      8  F1  UNL d   1       1.423  -2.385  -1.335  0.00  0.00    -0.096 F 
ATOM      9  I   UNL d   1      -1.617  -2.298  -0.340  0.00  0.00    -0.060 I 
ATOM     10  F2  UNL d   1      -2.130   0.769  -1.100  0.00  0.00    -0.096 F 
ATOM     11  F3  UNL d   1      -0.520   2.641  -2.211  0.00  0.00    -0.097 F 
ATOM     12  F4  UNL d   1       2.050   2.025  -2.887  0.00  0.00    -0.092 F 
ENDROOT
TORSDOF 0
ENDMDL
