MODEL 1
REMARK minimizedAffinity 20.8396435
REMARK minimizedRMSD -1
REMARK  0 active torsions:
REMARK  status: ('A' for Active; 'I' for Inactive)
ROOT
ATOM      1  C   UNL d   1       0.420   0.009  -4.592  0.00  0.00     0.124 A 
ATOM      2  C1  UNL d   1       0.532  -1.355  -4.822  0.00  0.00     0.062 A 
ATOM      3  C2  UNL d   1       1.050  -2.191  -3.837  0.00  0.00     0.162 A 
ATOM      4  C3  UNL d   1       1.460  -1.665  -2.612  0.00  0.00    -0.034 A 
ATOM      5  C4  UNL d   1       1.345  -0.292  -2.388  0.00  0.00     0.162 A 
ATOM      6  C5  UNL d   1       0.827   0.539  -3.375  0.00  0.00     0.062 A 
ATOM      7  F   UNL d   1       0.719   1.857  -3.151  0.00  0.00    -0.097 F 
ATOM      8  F1  UNL d   1       1.730   0.247  -1.221  0.00  0.00    -0.096 F 
ATOM      9  I   UNL d   1       2.235  -2.912  -1.137  0.00  0.00    -0.060 I 
ATOM     10  F2  UNL d   1       1.147  -3.505  -4.087  0.00  0.00    -0.096 F 
ATOM     11  F3  UNL d   1       0.141  -1.869  -5.997  0.00  0.00    -0.097 F 
ATOM     12  F4  UNL d   1      -0.078   0.812  -5.542  0.00  0.00    -0.092 F 
ENDROOT
TORSDOF 0
ENDMDL
