MODEL 1
REMARK minimizedAffinity 18.6979065
REMARK minimizedRMSD -1
REMARK  0 active torsions:
REMARK  status: ('A' for Active; 'I' for Inactive)
ROOT
ATOM      1  C   UNL d   1       1.616  -2.721  -1.885  0.00  0.00     0.124 A 
ATOM      2  C1  UNL d   1       0.903  -2.854  -3.068  0.00  0.00     0.062 A 
ATOM      3  C2  UNL d   1       0.617  -1.734  -3.843  0.00  0.00     0.162 A 
ATOM      4  C3  UNL d   1       1.045  -0.470  -3.438  0.00  0.00    -0.034 A 
ATOM      5  C4  UNL d   1       1.760  -0.343  -2.245  0.00  0.00     0.162 A 
ATOM      6  C5  UNL d   1       2.043  -1.466  -1.474  0.00  0.00     0.062 A 
ATOM      7  F   UNL d   1       2.732  -1.335  -0.331  0.00  0.00    -0.097 F 
ATOM      8  F1  UNL d   1       2.187   0.857  -1.826  0.00  0.00    -0.096 F 
ATOM      9  I   UNL d   1       0.620   1.208  -4.594  0.00  0.00    -0.060 I 
ATOM     10  F2  UNL d   1      -0.073  -1.892  -4.983  0.00  0.00    -0.096 F 
ATOM     11  F3  UNL d   1       0.488  -4.065  -3.466  0.00  0.00    -0.097 F 
ATOM     12  F4  UNL d   1       1.888  -3.800  -1.140  0.00  0.00    -0.092 F 
ENDROOT
TORSDOF 0
ENDMDL
