MODEL 1
REMARK minimizedAffinity 18.2204094
REMARK minimizedRMSD -1
REMARK  0 active torsions:
REMARK  status: ('A' for Active; 'I' for Inactive)
ROOT
ATOM      1  C   UNL d   1       2.088  -2.738  -0.752  0.00  0.00     0.124 A 
ATOM      2  C1  UNL d   1       3.012  -1.792  -1.174  0.00  0.00     0.062 A 
ATOM      3  C2  UNL d   1       2.592  -0.676  -1.892  0.00  0.00     0.162 A 
ATOM      4  C3  UNL d   1       1.241  -0.498  -2.192  0.00  0.00    -0.034 A 
ATOM      5  C4  UNL d   1       0.318  -1.455  -1.765  0.00  0.00     0.162 A 
ATOM      6  C5  UNL d   1       0.743  -2.569  -1.048  0.00  0.00     0.062 A 
ATOM      7  F   UNL d   1      -0.151  -3.482  -0.641  0.00  0.00    -0.097 F 
ATOM      8  F1  UNL d   1      -0.988  -1.315  -2.035  0.00  0.00    -0.096 F 
ATOM      9  I   UNL d   1       0.610   1.170  -3.264  0.00  0.00    -0.060 I 
ATOM     10  F2  UNL d   1       3.507   0.223  -2.287  0.00  0.00    -0.096 F 
ATOM     11  F3  UNL d   1       4.312  -1.954  -0.891  0.00  0.00    -0.097 F 
ATOM     12  F4  UNL d   1       2.494  -3.812  -0.063  0.00  0.00    -0.092 F 
ENDROOT
TORSDOF 0
ENDMDL
