MODEL 1
REMARK minimizedAffinity 19.7940483
REMARK minimizedRMSD -1
REMARK  0 active torsions:
REMARK  status: ('A' for Active; 'I' for Inactive)
ROOT
ATOM      1  C   UNL d   1      -2.351  -0.590   3.038  0.00  0.00     0.124 A 
ATOM      2  C1  UNL d   1      -1.517   0.327   2.414  0.00  0.00     0.062 A 
ATOM      3  C2  UNL d   1      -1.283   1.570   2.996  0.00  0.00     0.162 A 
ATOM      4  C3  UNL d   1      -1.883   1.902   4.210  0.00  0.00    -0.034 A 
ATOM      5  C4  UNL d   1      -2.722   0.975   4.832  0.00  0.00     0.162 A 
ATOM      6  C5  UNL d   1      -2.952  -0.266   4.246  0.00  0.00     0.062 A 
ATOM      7  F   UNL d   1      -3.759  -1.150   4.850  0.00  0.00    -0.097 F 
ATOM      8  F1  UNL d   1      -3.315   1.262   6.000  0.00  0.00    -0.096 F 
ATOM      9  I   UNL d   1      -1.536   3.759   5.083  0.00  0.00    -0.060 I 
ATOM     10  F2  UNL d   1      -0.472   2.436   2.371  0.00  0.00    -0.096 F 
ATOM     11  F3  UNL d   1      -0.935   0.016   1.247  0.00  0.00    -0.097 F 
ATOM     12  F4  UNL d   1      -2.575  -1.785   2.476  0.00  0.00    -0.092 F 
ENDROOT
TORSDOF 0
ENDMDL
