MODEL 1
REMARK minimizedAffinity 18.9024639
REMARK minimizedRMSD -1
REMARK  0 active torsions:
REMARK  status: ('A' for Active; 'I' for Inactive)
ROOT
ATOM      1  C   UNL d   1       0.934  -0.952  -3.690  0.00  0.00     0.124 A 
ATOM      2  C1  UNL d   1       1.417  -2.049  -2.990  0.00  0.00     0.062 A 
ATOM      3  C2  UNL d   1       2.040  -1.875  -1.758  0.00  0.00     0.162 A 
ATOM      4  C3  UNL d   1       2.185  -0.597  -1.218  0.00  0.00    -0.034 A 
ATOM      5  C4  UNL d   1       1.698   0.502  -1.928  0.00  0.00     0.162 A 
ATOM      6  C5  UNL d   1       1.076   0.322  -3.159  0.00  0.00     0.062 A 
ATOM      7  F   UNL d   1       0.611   1.383  -3.834  0.00  0.00    -0.097 F 
ATOM      8  F1  UNL d   1       1.821   1.744  -1.437  0.00  0.00    -0.096 F 
ATOM      9  I   UNL d   1       3.117  -0.332   0.624  0.00  0.00    -0.060 I 
ATOM     10  F2  UNL d   1       2.497  -2.953  -1.104  0.00  0.00    -0.096 F 
ATOM     11  F3  UNL d   1       1.282  -3.281  -3.502  0.00  0.00    -0.097 F 
ATOM     12  F4  UNL d   1       0.336  -1.123  -4.876  0.00  0.00    -0.092 F 
ENDROOT
TORSDOF 0
ENDMDL
