MODEL 1
REMARK minimizedAffinity 15.6165133
REMARK minimizedRMSD -1
REMARK  0 active torsions:
REMARK  status: ('A' for Active; 'I' for Inactive)
ROOT
ATOM      1  C   UNL d   1      -2.904  -0.338   1.838  0.00  0.00     0.124 A 
ATOM      2  C1  UNL d   1      -4.028  -1.109   1.573  0.00  0.00     0.062 A 
ATOM      3  C2  UNL d   1      -4.913  -1.431   2.598  0.00  0.00     0.162 A 
ATOM      4  C3  UNL d   1      -4.679  -0.982   3.897  0.00  0.00    -0.034 A 
ATOM      5  C4  UNL d   1      -3.546  -0.208   4.156  0.00  0.00     0.162 A 
ATOM      6  C5  UNL d   1      -2.664   0.111   3.129  0.00  0.00     0.062 A 
ATOM      7  F   UNL d   1      -1.579   0.855   3.386  0.00  0.00    -0.097 F 
ATOM      8  F1  UNL d   1      -3.290   0.240   5.394  0.00  0.00    -0.096 F 
ATOM      9  I   UNL d   1      -6.000  -1.461   5.432  0.00  0.00    -0.060 I 
ATOM     10  F2  UNL d   1      -5.991  -2.176   2.313  0.00  0.00    -0.096 F 
ATOM     11  F3  UNL d   1      -4.262  -1.545   0.327  0.00  0.00    -0.097 F 
ATOM     12  F4  UNL d   1      -2.053  -0.031   0.850  0.00  0.00    -0.092 F 
ENDROOT
TORSDOF 0
ENDMDL
