MODEL 1
REMARK minimizedAffinity 17.0663605
REMARK minimizedRMSD -1
REMARK  0 active torsions:
REMARK  status: ('A' for Active; 'I' for Inactive)
ROOT
ATOM      1  C   UNL d   1       1.433   1.028  -0.907  0.00  0.00     0.124 A 
ATOM      2  C1  UNL d   1       0.163   0.837  -1.435  0.00  0.00     0.062 A 
ATOM      3  C2  UNL d   1      -0.954   0.880  -0.606  0.00  0.00     0.162 A 
ATOM      4  C3  UNL d   1      -0.807   1.117   0.761  0.00  0.00    -0.034 A 
ATOM      5  C4  UNL d   1       0.473   1.308   1.285  0.00  0.00     0.162 A 
ATOM      6  C5  UNL d   1       1.586   1.264   0.452  0.00  0.00     0.062 A 
ATOM      7  F   UNL d   1       2.811   1.449   0.964  0.00  0.00    -0.097 F 
ATOM      8  F1  UNL d   1       0.650   1.538   2.594  0.00  0.00    -0.096 F 
ATOM      9  I   UNL d   1      -2.475   1.183   2.004  0.00  0.00    -0.060 I 
ATOM     10  F2  UNL d   1      -2.168   0.691  -1.144  0.00  0.00    -0.096 F 
ATOM     11  F3  UNL d   1       0.013   0.608  -2.748  0.00  0.00    -0.097 F 
ATOM     12  F4  UNL d   1       2.506   0.985  -1.707  0.00  0.00    -0.092 F 
ENDROOT
TORSDOF 0
ENDMDL
