MODEL 1
REMARK minimizedAffinity 17.8855629
REMARK minimizedRMSD -1
REMARK  0 active torsions:
REMARK  status: ('A' for Active; 'I' for Inactive)
ROOT
ATOM      1  C   UNL d   1      -2.598  -0.037   2.172  0.00  0.00     0.124 A 
ATOM      2  C1  UNL d   1      -3.014  -0.735   1.047  0.00  0.00     0.062 A 
ATOM      3  C2  UNL d   1      -2.213  -0.770  -0.091  0.00  0.00     0.162 A 
ATOM      4  C3  UNL d   1      -0.987  -0.104  -0.109  0.00  0.00    -0.034 A 
ATOM      5  C4  UNL d   1      -0.576   0.597   1.026  0.00  0.00     0.162 A 
ATOM      6  C5  UNL d   1      -1.380   0.629   2.161  0.00  0.00     0.062 A 
ATOM      7  F   UNL d   1      -0.977   1.304   3.247  0.00  0.00    -0.097 F 
ATOM      8  F1  UNL d   1       0.596   1.248   1.042  0.00  0.00    -0.096 F 
ATOM      9  I   UNL d   1       0.213  -0.153  -1.809  0.00  0.00    -0.060 I 
ATOM     10  F2  UNL d   1      -2.640  -1.453  -1.164  0.00  0.00    -0.096 F 
ATOM     11  F3  UNL d   1      -4.190  -1.378   1.055  0.00  0.00    -0.097 F 
ATOM     12  F4  UNL d   1      -3.371  -0.005   3.265  0.00  0.00    -0.092 F 
ENDROOT
TORSDOF 0
ENDMDL
