MODEL 1
REMARK minimizedAffinity 22.4535885
REMARK minimizedRMSD -1
REMARK  0 active torsions:
REMARK  status: ('A' for Active; 'I' for Inactive)
ROOT
ATOM      1  C   UNL d   1      -1.676   0.936   3.017  0.00  0.00     0.124 A 
ATOM      2  C1  UNL d   1      -0.958   1.119   1.844  0.00  0.00     0.062 A 
ATOM      3  C2  UNL d   1      -1.251   0.358   0.717  0.00  0.00     0.162 A 
ATOM      4  C3  UNL d   1      -2.270  -0.594   0.757  0.00  0.00    -0.034 A 
ATOM      5  C4  UNL d   1      -2.988  -0.774   1.940  0.00  0.00     0.162 A 
ATOM      6  C5  UNL d   1      -2.691  -0.010   3.064  0.00  0.00     0.062 A 
ATOM      7  F   UNL d   1      -3.386  -0.189   4.197  0.00  0.00    -0.097 F 
ATOM      8  F1  UNL d   1      -3.974  -1.680   2.013  0.00  0.00    -0.096 F 
ATOM      9  I   UNL d   1      -2.712  -1.735  -0.927  0.00  0.00    -0.060 I 
ATOM     10  F2  UNL d   1      -0.540   0.556  -0.403  0.00  0.00    -0.096 F 
ATOM     11  F3  UNL d   1       0.024   2.032   1.796  0.00  0.00    -0.097 F 
ATOM     12  F4  UNL d   1      -1.391   1.669   4.101  0.00  0.00    -0.092 F 
ENDROOT
TORSDOF 0
ENDMDL
