MODEL 1
REMARK minimizedAffinity 5.66345119
REMARK minimizedRMSD -1
REMARK  1 active torsions:
REMARK  status: ('A' for Active; 'I' for Inactive)
REMARK    1  A    between atoms: C3_4  and  O_7 
ROOT
ATOM      1  C   UNL d   1       2.382   2.218   2.787  0.00  0.00    -0.033 A 
ATOM      2  C1  UNL d   1       3.572   2.609   2.169  0.00  0.00     0.039 A 
ATOM      3  C2  UNL d   1       3.851   2.199   0.864  0.00  0.00    -0.080 A 
ATOM      4  C3  UNL d   1       2.933   1.399   0.188  0.00  0.00     0.150 A 
ATOM      5  C4  UNL d   1       1.745   1.008   0.796  0.00  0.00    -0.007 A 
ATOM      6  C5  UNL d   1       1.468   1.419   2.100  0.00  0.00     0.039 A 
ENDROOT
BRANCH   4   7
ATOM      7  O   UNL d   1       3.164   0.969  -1.085  0.00  0.00    -0.526 OA
ATOM      8  H5  UNL d   1       4.037   1.292  -1.365  0.00  0.00     0.418 HD
ENDBRANCH   4   7
TORSDOF 1
ENDMDL
