MODEL 1
REMARK minimizedAffinity 7.28115845
REMARK minimizedRMSD -1
REMARK  1 active torsions:
REMARK  status: ('A' for Active; 'I' for Inactive)
REMARK    1  A    between atoms: C3_4  and  O_7 
ROOT
ATOM      1  C   UNL d   1       0.420   1.276  -2.955  0.00  0.00    -0.033 A 
ATOM      2  C1  UNL d   1       0.410  -0.027  -2.452  0.00  0.00     0.039 A 
ATOM      3  C2  UNL d   1       1.610  -0.718  -2.276  0.00  0.00    -0.080 A 
ATOM      4  C3  UNL d   1       2.811  -0.097  -2.605  0.00  0.00     0.150 A 
ATOM      5  C4  UNL d   1       2.829   1.202  -3.103  0.00  0.00    -0.007 A 
ATOM      6  C5  UNL d   1       1.630   1.891  -3.279  0.00  0.00     0.039 A 
ENDROOT
BRANCH   4   7
ATOM      7  O   UNL d   1       4.007  -0.734  -2.456  0.00  0.00    -0.526 OA
ATOM      8  H5  UNL d   1       3.838  -1.633  -2.130  0.00  0.00     0.418 HD
ENDBRANCH   4   7
TORSDOF 1
ENDMDL
