MODEL 1
REMARK minimizedAffinity 7.27916527
REMARK minimizedRMSD -1
REMARK  1 active torsions:
REMARK  status: ('A' for Active; 'I' for Inactive)
REMARK    1  A    between atoms: C3_4  and  O_7 
ROOT
ATOM      1  C   UNL d   1       3.077   0.282  -2.910  0.00  0.00    -0.033 A 
ATOM      2  C1  UNL d   1       3.937   1.128  -2.206  0.00  0.00     0.039 A 
ATOM      3  C2  UNL d   1       3.648   1.476  -0.885  0.00  0.00    -0.080 A 
ATOM      4  C3  UNL d   1       2.500   0.972  -0.280  0.00  0.00     0.150 A 
ATOM      5  C4  UNL d   1       1.641   0.126  -0.975  0.00  0.00    -0.007 A 
ATOM      6  C5  UNL d   1       1.931  -0.220  -2.294  0.00  0.00     0.039 A 
ENDROOT
BRANCH   4   7
ATOM      7  O   UNL d   1       2.174   1.289   1.005  0.00  0.00    -0.526 OA
ATOM      8  H5  UNL d   1       2.842   1.904   1.350  0.00  0.00     0.418 HD
ENDBRANCH   4   7
TORSDOF 1
ENDMDL
