MODEL 1
REMARK minimizedAffinity 4.48178577
REMARK minimizedRMSD -1
REMARK  1 active torsions:
REMARK  status: ('A' for Active; 'I' for Inactive)
REMARK    1  A    between atoms: C3_4  and  O_7 
ROOT
ATOM      1  C   UNL d   1       1.445   1.142   0.928  0.00  0.00    -0.033 A 
ATOM      2  C1  UNL d   1       1.266  -0.185   0.533  0.00  0.00     0.039 A 
ATOM      3  C2  UNL d   1       1.697  -0.606  -0.726  0.00  0.00    -0.080 A 
ATOM      4  C3  UNL d   1       2.307   0.310  -1.580  0.00  0.00     0.150 A 
ATOM      5  C4  UNL d   1       2.492   1.633  -1.192  0.00  0.00    -0.007 A 
ATOM      6  C5  UNL d   1       2.059   2.051   0.065  0.00  0.00     0.039 A 
ENDROOT
BRANCH   4   7
ATOM      7  O   UNL d   1       2.740  -0.052  -2.821  0.00  0.00    -0.526 OA
ATOM      8  H5  UNL d   1       2.520  -0.988  -2.963  0.00  0.00     0.418 HD
ENDBRANCH   4   7
TORSDOF 1
ENDMDL
