MODEL 1
REMARK minimizedAffinity 7.47203922
REMARK minimizedRMSD -1
REMARK  1 active torsions:
REMARK  status: ('A' for Active; 'I' for Inactive)
REMARK    1  A    between atoms: C3_4  and  O_7 
ROOT
ATOM      1  C   UNL d   1      -0.056   1.703   1.573  0.00  0.00    -0.033 A 
ATOM      2  C1  UNL d   1       1.016   1.352   0.750  0.00  0.00     0.039 A 
ATOM      3  C2  UNL d   1       2.325   1.462   1.222  0.00  0.00    -0.080 A 
ATOM      4  C3  UNL d   1       2.549   1.922   2.517  0.00  0.00     0.150 A 
ATOM      5  C4  UNL d   1       1.485   2.270   3.343  0.00  0.00    -0.007 A 
ATOM      6  C5  UNL d   1       0.178   2.161   2.870  0.00  0.00     0.039 A 
ENDROOT
BRANCH   4   7
ATOM      7  O   UNL d   1       3.809   2.051   3.020  0.00  0.00    -0.526 OA
ATOM      8  H5  UNL d   1       4.444   1.802   2.328  0.00  0.00     0.418 HD
ENDBRANCH   4   7
TORSDOF 1
ENDMDL
