MODEL 1
REMARK minimizedAffinity -0.0877687708
REMARK minimizedRMSD -1
REMARK  1 active torsions:
REMARK  status: ('A' for Active; 'I' for Inactive)
REMARK    1  A    between atoms: C3_4  and  O_7 
ROOT
ATOM      1  C   UNL d   1       1.386   2.831   3.066  0.00  0.00    -0.033 A 
ATOM      2  C1  UNL d   1       2.721   2.648   2.698  0.00  0.00     0.039 A 
ATOM      3  C2  UNL d   1       3.039   1.881   1.576  0.00  0.00    -0.080 A 
ATOM      4  C3  UNL d   1       2.015   1.305   0.829  0.00  0.00     0.150 A 
ATOM      5  C4  UNL d   1       0.683   1.486   1.187  0.00  0.00    -0.007 A 
ATOM      6  C5  UNL d   1       0.367   2.251   2.309  0.00  0.00     0.039 A 
ENDROOT
BRANCH   4   7
ATOM      7  O   UNL d   1       2.276   0.545  -0.272  0.00  0.00    -0.526 OA
ATOM      8  H5  UNL d   1       3.240   0.483  -0.381  0.00  0.00     0.418 HD
ENDBRANCH   4   7
TORSDOF 1
ENDMDL
