MODEL 1
REMARK minimizedAffinity 5.73937559
REMARK minimizedRMSD -1
REMARK  1 active torsions:
REMARK  status: ('A' for Active; 'I' for Inactive)
REMARK    1  A    between atoms: C3_4  and  O_7 
ROOT
ATOM      1  C   UNL d   1       2.035   1.440   1.450  0.00  0.00    -0.033 A 
ATOM      2  C1  UNL d   1       1.356   0.359   0.885  0.00  0.00     0.039 A 
ATOM      3  C2  UNL d   1       1.718  -0.114  -0.377  0.00  0.00    -0.080 A 
ATOM      4  C3  UNL d   1       2.761   0.502  -1.064  0.00  0.00     0.150 A 
ATOM      5  C4  UNL d   1       3.445   1.577  -0.506  0.00  0.00    -0.007 A 
ATOM      6  C5  UNL d   1       3.081   2.048   0.754  0.00  0.00     0.039 A 
ENDROOT
BRANCH   4   7
ATOM      7  O   UNL d   1       3.147   0.079  -2.301  0.00  0.00    -0.526 OA
ATOM      8  H5  UNL d   1       2.567  -0.652  -2.571  0.00  0.00     0.418 HD
ENDBRANCH   4   7
TORSDOF 1
ENDMDL
