MODEL 1
REMARK minimizedAffinity 10.5357075
REMARK minimizedRMSD -1
REMARK  1 active torsions:
REMARK  status: ('A' for Active; 'I' for Inactive)
REMARK    1  A    between atoms: C3_4  and  O_7 
ROOT
ATOM      1  C   UNL d   1       0.926   1.354   0.511  0.00  0.00    -0.033 A 
ATOM      2  C1  UNL d   1       0.621   1.954   1.734  0.00  0.00     0.039 A 
ATOM      3  C2  UNL d   1       1.626   2.571   2.481  0.00  0.00    -0.080 A 
ATOM      4  C3  UNL d   1       2.931   2.581   1.995  0.00  0.00     0.150 A 
ATOM      5  C4  UNL d   1       3.241   1.988   0.776  0.00  0.00    -0.007 A 
ATOM      6  C5  UNL d   1       2.236   1.372   0.031  0.00  0.00     0.039 A 
ENDROOT
BRANCH   4   7
ATOM      7  O   UNL d   1       3.946   3.167   2.691  0.00  0.00    -0.526 OA
ATOM      8  H5  UNL d   1       3.589   3.509   3.527  0.00  0.00     0.418 HD
ENDBRANCH   4   7
TORSDOF 1
ENDMDL
