MODEL 1
REMARK minimizedAffinity 2.62150478
REMARK minimizedRMSD -1
REMARK  1 active torsions:
REMARK  status: ('A' for Active; 'I' for Inactive)
REMARK    1  A    between atoms: C3_4  and  O_7 
ROOT
ATOM      1  C   UNL d   1       2.182   1.773   1.955  0.00  0.00    -0.033 A 
ATOM      2  C1  UNL d   1       1.851   1.015   0.830  0.00  0.00     0.039 A 
ATOM      3  C2  UNL d   1       0.522   0.925   0.413  0.00  0.00    -0.080 A 
ATOM      4  C3  UNL d   1      -0.466   1.597   1.128  0.00  0.00     0.150 A 
ATOM      5  C4  UNL d   1      -0.143   2.357   2.247  0.00  0.00    -0.007 A 
ATOM      6  C5  UNL d   1       1.185   2.445   2.663  0.00  0.00     0.039 A 
ENDROOT
BRANCH   4   7
ATOM      7  O   UNL d   1      -1.777   1.535   0.761  0.00  0.00    -0.526 OA
ATOM      8  H5  UNL d   1      -1.854   0.951  -0.012  0.00  0.00     0.418 HD
ENDBRANCH   4   7
TORSDOF 1
ENDMDL
