MODEL 1
REMARK minimizedAffinity 9.34976006
REMARK minimizedRMSD -1
REMARK  1 active torsions:
REMARK  status: ('A' for Active; 'I' for Inactive)
REMARK    1  A    between atoms: C3_4  and  O_7 
ROOT
ATOM      1  C   UNL d   1       2.395   0.131  -3.572  0.00  0.00    -0.033 A 
ATOM      2  C1  UNL d   1       3.289  -0.473  -2.686  0.00  0.00     0.039 A 
ATOM      3  C2  UNL d   1       3.104  -0.344  -1.308  0.00  0.00    -0.080 A 
ATOM      4  C3  UNL d   1       2.023   0.392  -0.830  0.00  0.00     0.150 A 
ATOM      5  C4  UNL d   1       1.127   0.994  -1.707  0.00  0.00    -0.007 A 
ATOM      6  C5  UNL d   1       1.313   0.864  -3.082  0.00  0.00     0.039 A 
ENDROOT
BRANCH   4   7
ATOM      7  O   UNL d   1       1.804   0.550   0.507  0.00  0.00    -0.526 OA
ATOM      8  H5  UNL d   1       2.519   0.104   0.990  0.00  0.00     0.418 HD
ENDBRANCH   4   7
TORSDOF 1
ENDMDL
