MODEL 1
REMARK minimizedAffinity 5.77648592
REMARK minimizedRMSD -1
REMARK  1 active torsions:
REMARK  status: ('A' for Active; 'I' for Inactive)
REMARK    1  A    between atoms: C3_4  and  O_7 
ROOT
ATOM      1  C   UNL d   1       2.892  -1.604  -0.741  0.00  0.00    -0.033 A 
ATOM      2  C1  UNL d   1       2.662  -0.484  -1.542  0.00  0.00     0.039 A 
ATOM      3  C2  UNL d   1       2.004   0.629  -1.016  0.00  0.00    -0.080 A 
ATOM      4  C3  UNL d   1       1.583   0.610   0.311  0.00  0.00     0.150 A 
ATOM      5  C4  UNL d   1       1.812  -0.501   1.116  0.00  0.00    -0.007 A 
ATOM      6  C5  UNL d   1       2.468  -1.612   0.588  0.00  0.00     0.039 A 
ENDROOT
BRANCH   4   7
ATOM      7  O   UNL d   1       0.932   1.672   0.867  0.00  0.00    -0.526 OA
ATOM      8  H5  UNL d   1       0.819   2.355   0.185  0.00  0.00     0.418 HD
ENDBRANCH   4   7
TORSDOF 1
ENDMDL
