MODEL 1
REMARK minimizedAffinity 1.55720425
REMARK minimizedRMSD -1
REMARK  1 active torsions:
REMARK  status: ('A' for Active; 'I' for Inactive)
REMARK    1  A    between atoms: C3_4  and  O_7 
ROOT
ATOM      1  C   UNL d   1       2.151   0.656   1.255  0.00  0.00    -0.033 A 
ATOM      2  C1  UNL d   1       1.973  -0.588   0.646  0.00  0.00     0.039 A 
ATOM      3  C2  UNL d   1       2.336  -0.772  -0.689  0.00  0.00    -0.080 A 
ATOM      4  C3  UNL d   1       2.876   0.294  -1.403  0.00  0.00     0.150 A 
ATOM      5  C4  UNL d   1       3.061   1.535  -0.802  0.00  0.00    -0.007 A 
ATOM      6  C5  UNL d   1       2.697   1.717   0.531  0.00  0.00     0.039 A 
ENDROOT
BRANCH   4   7
ATOM      7  O   UNL d   1       3.241   0.164  -2.711  0.00  0.00    -0.526 OA
ATOM      8  H5  UNL d   1       3.030  -0.739  -3.001  0.00  0.00     0.418 HD
ENDBRANCH   4   7
TORSDOF 1
ENDMDL
