MODEL 1
REMARK minimizedAffinity 3.33365655
REMARK minimizedRMSD -1
REMARK  1 active torsions:
REMARK  status: ('A' for Active; 'I' for Inactive)
REMARK    1  A    between atoms: C3_4  and  O_7 
ROOT
ATOM      1  C   UNL d   1       2.641   0.390  -2.028  0.00  0.00    -0.033 A 
ATOM      2  C1  UNL d   1       2.250   1.728  -1.954  0.00  0.00     0.039 A 
ATOM      3  C2  UNL d   1       1.482   2.290  -2.976  0.00  0.00    -0.080 A 
ATOM      4  C3  UNL d   1       1.111   1.504  -4.063  0.00  0.00     0.150 A 
ATOM      5  C4  UNL d   1       1.494   0.169  -4.142  0.00  0.00    -0.007 A 
ATOM      6  C5  UNL d   1       2.262  -0.390  -3.121  0.00  0.00     0.039 A 
ENDROOT
BRANCH   4   7
ATOM      7  O   UNL d   1       0.366   2.010  -5.087  0.00  0.00    -0.526 OA
ATOM      8  H5  UNL d   1       0.200   2.951  -4.911  0.00  0.00     0.418 HD
ENDBRANCH   4   7
TORSDOF 1
ENDMDL
