MODEL 1
REMARK minimizedAffinity 8.03037548
REMARK minimizedRMSD -1
REMARK  1 active torsions:
REMARK  status: ('A' for Active; 'I' for Inactive)
REMARK    1  A    between atoms: C3_4  and  O_7 
ROOT
ATOM      1  C   UNL d   1       3.132   0.456   0.498  0.00  0.00    -0.033 A 
ATOM      2  C1  UNL d   1       2.882   1.437   1.459  0.00  0.00     0.039 A 
ATOM      3  C2  UNL d   1       1.589   1.933   1.634  0.00  0.00    -0.080 A 
ATOM      4  C3  UNL d   1       0.555   1.439   0.843  0.00  0.00     0.150 A 
ATOM      5  C4  UNL d   1       0.796   0.459  -0.114  0.00  0.00    -0.007 A 
ATOM      6  C5  UNL d   1       2.089  -0.034  -0.288  0.00  0.00     0.039 A 
ENDROOT
BRANCH   4   7
ATOM      7  O   UNL d   1      -0.723   1.895   0.974  0.00  0.00    -0.526 OA
ATOM      8  H5  UNL d   1      -0.733   2.590   1.653  0.00  0.00     0.418 HD
ENDBRANCH   4   7
TORSDOF 1
ENDMDL
