MODEL 1
REMARK minimizedAffinity 8.6726017
REMARK minimizedRMSD -1
REMARK  1 active torsions:
REMARK  status: ('A' for Active; 'I' for Inactive)
REMARK    1  A    between atoms: C3_4  and  O_7 
ROOT
ATOM      1  C   UNL d   1       2.498  -0.104  -3.255  0.00  0.00    -0.033 A 
ATOM      2  C1  UNL d   1       3.421  -0.659  -2.367  0.00  0.00     0.039 A 
ATOM      3  C2  UNL d   1       3.283  -0.451  -0.993  0.00  0.00    -0.080 A 
ATOM      4  C3  UNL d   1       2.218   0.312  -0.522  0.00  0.00     0.150 A 
ATOM      5  C4  UNL d   1       1.293   0.865  -1.401  0.00  0.00    -0.007 A 
ATOM      6  C5  UNL d   1       1.433   0.657  -2.772  0.00  0.00     0.039 A 
ENDROOT
BRANCH   4   7
ATOM      7  O   UNL d   1       2.044   0.547   0.810  0.00  0.00    -0.526 OA
ATOM      8  H5  UNL d   1       2.775   0.128   1.294  0.00  0.00     0.418 HD
ENDBRANCH   4   7
TORSDOF 1
ENDMDL
