MODEL 1
REMARK minimizedAffinity 5.22837114
REMARK minimizedRMSD -1
REMARK  1 active torsions:
REMARK  status: ('A' for Active; 'I' for Inactive)
REMARK    1  A    between atoms: C3_4  and  O_7 
ROOT
ATOM      1  C   UNL d   1       1.267   0.040   0.898  0.00  0.00    -0.033 A 
ATOM      2  C1  UNL d   1       1.486  -1.192   0.278  0.00  0.00     0.039 A 
ATOM      3  C2  UNL d   1       1.989  -1.241  -1.023  0.00  0.00    -0.080 A 
ATOM      4  C3  UNL d   1       2.268  -0.053  -1.693  0.00  0.00     0.150 A 
ATOM      5  C4  UNL d   1       2.055   1.178  -1.081  0.00  0.00    -0.007 A 
ATOM      6  C5  UNL d   1       1.552   1.225   0.219  0.00  0.00     0.039 A 
ENDROOT
BRANCH   4   7
ATOM      7  O   UNL d   1       2.755  -0.051  -2.967  0.00  0.00    -0.526 OA
ATOM      8  H5  UNL d   1       2.824  -0.971  -3.271  0.00  0.00     0.418 HD
ENDBRANCH   4   7
TORSDOF 1
ENDMDL
