MODEL 1
REMARK minimizedAffinity 4.0962038
REMARK minimizedRMSD -1
REMARK  1 active torsions:
REMARK  status: ('A' for Active; 'I' for Inactive)
REMARK    1  A    between atoms: C3_4  and  O_7 
ROOT
ATOM      1  C   UNL d   1      -5.999   4.870  -0.052  0.00  0.00    -0.033 A 
ATOM      2  C1  UNL d   1      -6.000   3.900  -1.057  0.00  0.00     0.039 A 
ATOM      3  C2  UNL d   1      -5.497   2.623  -0.797  0.00  0.00    -0.080 A 
ATOM      4  C3  UNL d   1      -4.999   2.329   0.469  0.00  0.00     0.150 A 
ATOM      5  C4  UNL d   1      -4.999   3.290   1.475  0.00  0.00    -0.007 A 
ATOM      6  C5  UNL d   1      -5.500   4.564   1.214  0.00  0.00     0.039 A 
ENDROOT
BRANCH   4   7
ATOM      7  O   UNL d   1      -4.494   1.099   0.768  0.00  0.00    -0.526 OA
ATOM      8  H5  UNL d   1      -4.532   0.548  -0.032  0.00  0.00     0.418 HD
ENDBRANCH   4   7
TORSDOF 1
ENDMDL
