MODEL 1
REMARK minimizedAffinity 12.6041956
REMARK minimizedRMSD -1
REMARK  0 active torsions:
REMARK  status: ('A' for Active; 'I' for Inactive)
ROOT
ATOM      1  N1  IND d   1      -1.712  -1.793   1.401  0.00  0.00    -0.196 N 
ATOM      2  C2  IND d   1      -2.129  -3.014   0.950  0.00  0.00     0.054 A 
ATOM      3  C3  IND d   1      -1.086  -3.870   0.877  0.00  0.00    -0.031 A 
ATOM      4  C4  IND d   1       1.374  -3.511   1.544  0.00  0.00     0.051 A 
ATOM      5  C5  IND d   1       2.244  -2.549   1.975  0.00  0.00    -0.031 A 
ATOM      6  C6  IND d   1       1.831  -1.260   2.244  0.00  0.00     0.015 A 
ATOM      7  C7  IND d   1       0.524  -0.887   2.103  0.00  0.00    -0.016 A 
ATOM      8  C8  IND d   1      -0.360  -1.859   1.659  0.00  0.00    -0.047 A 
ATOM      9  C9  IND d   1       0.061  -3.158   1.344  0.00  0.00    -0.096 A 
ATOM     10  HN1 IND d   1      -2.210  -1.099   1.506  0.00  0.00     0.298 HD
ENDROOT
TORSDOF 0
ENDMDL
