MODEL 1
REMARK minimizedAffinity 9.26119041
REMARK minimizedRMSD -1
REMARK  0 active torsions:
REMARK  status: ('A' for Active; 'I' for Inactive)
ROOT
ATOM      1  N1  IND d   1       1.185  -0.443   3.117  0.00  0.00    -0.196 N 
ATOM      2  C2  IND d   1       1.568  -0.780   1.849  0.00  0.00     0.054 A 
ATOM      3  C3  IND d   1       2.224  -1.962   1.854  0.00  0.00    -0.031 A 
ATOM      4  C4  IND d   1       2.692  -3.564   3.815  0.00  0.00     0.051 A 
ATOM      5  C5  IND d   1       2.567  -3.671   5.171  0.00  0.00    -0.031 A 
ATOM      6  C6  IND d   1       1.960  -2.690   5.928  0.00  0.00     0.015 A 
ATOM      7  C7  IND d   1       1.443  -1.564   5.351  0.00  0.00    -0.016 A 
ATOM      8  C8  IND d   1       1.575  -1.448   3.975  0.00  0.00    -0.047 A 
ATOM      9  C9  IND d   1       2.228  -2.421   3.207  0.00  0.00    -0.096 A 
ATOM     10  HN1 IND d   1       0.770   0.276   3.342  0.00  0.00     0.298 HD
ENDROOT
TORSDOF 0
ENDMDL
