MODEL 1
REMARK minimizedAffinity 8.26140404
REMARK minimizedRMSD -1
REMARK  0 active torsions:
REMARK  status: ('A' for Active; 'I' for Inactive)
ROOT
ATOM      1  N1  IND d   1       3.089  -3.947   3.196  0.00  0.00    -0.196 N 
ATOM      2  C2  IND d   1       2.999  -3.474   1.916  0.00  0.00     0.054 A 
ATOM      3  C3  IND d   1       2.422  -2.252   1.907  0.00  0.00    -0.031 A 
ATOM      4  C4  IND d   1       1.640  -0.796   3.881  0.00  0.00     0.051 A 
ATOM      5  C5  IND d   1       1.483  -0.817   5.238  0.00  0.00    -0.031 A 
ATOM      6  C6  IND d   1       1.863  -1.903   6.000  0.00  0.00     0.015 A 
ATOM      7  C7  IND d   1       2.428  -3.009   5.431  0.00  0.00    -0.016 A 
ATOM      8  C8  IND d   1       2.583  -2.995   4.052  0.00  0.00    -0.047 A 
ATOM      9  C9  IND d   1       2.159  -1.913   3.269  0.00  0.00    -0.096 A 
ATOM     10  HN1 IND d   1       3.408  -4.712   3.427  0.00  0.00     0.298 HD
ENDROOT
TORSDOF 0
ENDMDL
