MODEL 1
REMARK minimizedAffinity 5.98552132
REMARK minimizedRMSD -1
REMARK  0 active torsions:
REMARK  status: ('A' for Active; 'I' for Inactive)
ROOT
ATOM      1  N1  IND d   1      -3.665   1.516  -4.432  0.00  0.00    -0.196 N 
ATOM      2  C2  IND d   1      -3.740   1.397  -3.072  0.00  0.00     0.054 A 
ATOM      3  C3  IND d   1      -3.888   2.613  -2.501  0.00  0.00    -0.031 A 
ATOM      4  C4  IND d   1      -4.131   4.923  -3.611  0.00  0.00     0.051 A 
ATOM      5  C5  IND d   1      -4.088   5.543  -4.828  0.00  0.00    -0.031 A 
ATOM      6  C6  IND d   1      -3.900   4.838  -6.000  0.00  0.00     0.015 A 
ATOM      7  C7  IND d   1      -3.760   3.479  -5.998  0.00  0.00    -0.016 A 
ATOM      8  C8  IND d   1      -3.796   2.847  -4.763  0.00  0.00    -0.047 A 
ATOM      9  C9  IND d   1      -3.944   3.561  -3.568  0.00  0.00    -0.096 A 
ATOM     10  HN1 IND d   1      -3.553   0.869  -4.987  0.00  0.00     0.298 HD
ENDROOT
TORSDOF 0
ENDMDL
