MODEL 1
REMARK minimizedAffinity 5.80962372
REMARK minimizedRMSD -1
REMARK  0 active torsions:
REMARK  status: ('A' for Active; 'I' for Inactive)
ROOT
ATOM      1  N1  IND d   1       1.275  -0.554   2.734  0.00  0.00    -0.196 N 
ATOM      2  C2  IND d   1       1.870  -1.103   1.633  0.00  0.00     0.054 A 
ATOM      3  C3  IND d   1       2.515  -2.244   1.966  0.00  0.00    -0.031 A 
ATOM      4  C4  IND d   1       2.640  -3.448   4.238  0.00  0.00     0.051 A 
ATOM      5  C5  IND d   1       2.285  -3.312   5.550  0.00  0.00    -0.031 A 
ATOM      6  C6  IND d   1       1.557  -2.229   6.000  0.00  0.00     0.015 A 
ATOM      7  C7  IND d   1       1.147  -1.243   5.148  0.00  0.00    -0.016 A 
ATOM      8  C8  IND d   1       1.513  -1.375   3.815  0.00  0.00    -0.047 A 
ATOM      9  C9  IND d   1       2.287  -2.450   3.361  0.00  0.00    -0.096 A 
ATOM     10  HN1 IND d   1       0.828   0.180   2.749  0.00  0.00     0.298 HD
ENDROOT
TORSDOF 0
ENDMDL
