MODEL 1
REMARK minimizedAffinity 9.12982178
REMARK minimizedRMSD -1
REMARK  0 active torsions:
REMARK  status: ('A' for Active; 'I' for Inactive)
ROOT
ATOM      1  N1  IND d   1       0.400  -4.298  -2.604  0.00  0.00    -0.196 N 
ATOM      2  C2  IND d   1       1.612  -4.637  -2.071  0.00  0.00     0.054 A 
ATOM      3  C3  IND d   1       1.530  -4.704  -0.723  0.00  0.00    -0.031 A 
ATOM      4  C4  IND d   1      -0.515  -4.397   0.809  0.00  0.00     0.051 A 
ATOM      5  C5  IND d   1      -1.835  -4.041   0.786  0.00  0.00    -0.031 A 
ATOM      6  C6  IND d   1      -2.491  -3.750  -0.392  0.00  0.00     0.015 A 
ATOM      7  C7  IND d   1      -1.852  -3.814  -1.598  0.00  0.00    -0.016 A 
ATOM      8  C8  IND d   1      -0.510  -4.168  -1.578  0.00  0.00    -0.047 A 
ATOM      9  C9  IND d   1       0.172  -4.424  -0.381  0.00  0.00    -0.096 A 
ATOM     10  HN1 IND d   1       0.233  -4.184  -3.440  0.00  0.00     0.298 HD
ENDROOT
TORSDOF 0
ENDMDL
