MODEL 1
REMARK minimizedAffinity 3.66128564
REMARK minimizedRMSD -1
REMARK  0 active torsions:
REMARK  status: ('A' for Active; 'I' for Inactive)
ROOT
ATOM      1  N1  IND d   1       2.491  -3.613   4.900  0.00  0.00    -0.196 N 
ATOM      2  C2  IND d   1       2.001  -2.964   5.999  0.00  0.00     0.054 A 
ATOM      3  C3  IND d   1       1.445  -1.785   5.641  0.00  0.00    -0.031 A 
ATOM      4  C4  IND d   1       1.137  -0.767   3.297  0.00  0.00     0.051 A 
ATOM      5  C5  IND d   1       1.454  -0.972   1.984  0.00  0.00    -0.031 A 
ATOM      6  C6  IND d   1       2.144  -2.091   1.566  0.00  0.00     0.015 A 
ATOM      7  C7  IND d   1       2.535  -3.058   2.449  0.00  0.00    -0.016 A 
ATOM      8  C8  IND d   1       2.221  -2.849   3.785  0.00  0.00    -0.047 A 
ATOM      9  C9  IND d   1       1.558  -1.695   4.220  0.00  0.00    -0.096 A 
ATOM     10  HN1 IND d   1       2.898  -4.370   4.904  0.00  0.00     0.298 HD
ENDROOT
TORSDOF 0
ENDMDL
