MODEL 1
REMARK minimizedAffinity 12.1003218
REMARK minimizedRMSD -1
REMARK  0 active torsions:
REMARK  status: ('A' for Active; 'I' for Inactive)
ROOT
ATOM      1  N1  IND d   1      -2.525   2.689  -3.463  0.00  0.00    -0.196 N 
ATOM      2  C2  IND d   1      -2.279   1.813  -2.444  0.00  0.00     0.054 A 
ATOM      3  C3  IND d   1      -3.162   2.001  -1.438  0.00  0.00    -0.031 A 
ATOM      4  C4  IND d   1      -5.156   3.623  -1.295  0.00  0.00     0.051 A 
ATOM      5  C5  IND d   1      -5.761   4.648  -1.967  0.00  0.00    -0.031 A 
ATOM      6  C6  IND d   1      -5.311   5.080  -3.197  0.00  0.00     0.015 A 
ATOM      7  C7  IND d   1      -4.241   4.492  -3.810  0.00  0.00    -0.016 A 
ATOM      8  C8  IND d   1      -3.620   3.455  -3.128  0.00  0.00    -0.047 A 
ATOM      9  C9  IND d   1      -4.046   3.041  -1.860  0.00  0.00    -0.096 A 
ATOM     10  HN1 IND d   1      -2.072   2.752  -4.192  0.00  0.00     0.298 HD
ENDROOT
TORSDOF 0
ENDMDL
