MODEL 1
REMARK minimizedAffinity 8.71542931
REMARK minimizedRMSD -1
REMARK  0 active torsions:
REMARK  status: ('A' for Active; 'I' for Inactive)
ROOT
ATOM      1  N1  IND d   1       0.869  -0.236   3.970  0.00  0.00    -0.196 N 
ATOM      2  C2  IND d   1       1.119  -0.202   2.627  0.00  0.00     0.054 A 
ATOM      3  C3  IND d   1       1.845  -1.280   2.256  0.00  0.00    -0.031 A 
ATOM      4  C4  IND d   1       2.647  -3.277   3.669  0.00  0.00     0.051 A 
ATOM      5  C5  IND d   1       2.694  -3.737   4.955  0.00  0.00    -0.031 A 
ATOM      6  C6  IND d   1       2.120  -3.040   5.999  0.00  0.00     0.015 A 
ATOM      7  C7  IND d   1       1.466  -1.859   5.794  0.00  0.00    -0.016 A 
ATOM      8  C8  IND d   1       1.424  -1.385   4.490  0.00  0.00    -0.047 A 
ATOM      9  C9  IND d   1       2.041  -2.066   3.433  0.00  0.00    -0.096 A 
ATOM     10  HN1 IND d   1       0.439   0.360   4.416  0.00  0.00     0.298 HD
ENDROOT
TORSDOF 0
ENDMDL
