MODEL 1
REMARK minimizedAffinity 8.99417305
REMARK minimizedRMSD -1
REMARK  2 active torsions:
REMARK  status: ('A' for Active; 'I' for Inactive)
REMARK    1  A    between atoms: C2'_3  and  C1'_4 
REMARK    2  A    between atoms: C1'_4  and  C1_5 
ROOT
ATOM      1  C1  I4B d   1      -3.724   2.387  -0.729  0.00  0.00    -0.075 A 
ATOM      2  C2  I4B d   1      -3.695   1.076  -1.133  0.00  0.00     0.003 A 
ATOM      3  C3  I4B d   1      -4.007   0.041  -0.219  0.00  0.00     0.002 A 
ATOM      4  C4  I4B d   1      -4.292   0.357   1.094  0.00  0.00    -0.004 A 
ATOM      5  C5  I4B d   1      -4.343   1.688   1.496  0.00  0.00     0.002 A 
ATOM      6  C6  I4B d   1      -4.069   2.711   0.577  0.00  0.00     0.003 A 
ENDROOT
BRANCH   1   7
ATOM      7  C1' I4B d   1      -3.356   3.453  -1.712  0.00  0.00     0.060 C 
BRANCH   7   8
ATOM      8  C2' I4B d   1      -4.068   3.152  -3.015  0.00  0.00    -0.013 C 
ATOM      9  C4' I4B d   1      -5.383   3.882  -3.099  0.00  0.00     0.013 C 
ATOM     10  C3' I4B d   1      -3.159   3.543  -4.141  0.00  0.00     0.013 C 
ENDBRANCH   7   8
ENDBRANCH   1   7
TORSDOF 2
ENDMDL
