MODEL 1
REMARK minimizedAffinity -4.20901918
REMARK minimizedRMSD -1
REMARK  2 active torsions:
REMARK  status: ('A' for Active; 'I' for Inactive)
REMARK    1  A    between atoms: C2'_3  and  C1'_4 
REMARK    2  A    between atoms: C1'_4  and  C1_5 
ROOT
ATOM      1  C1  I4B d   1       0.065   0.013   0.004  0.00  0.00    -0.075 A 
ATOM      2  C2  I4B d   1      -0.008  -1.184  -0.664  0.00  0.00     0.003 A 
ATOM      3  C3  I4B d   1       1.044  -2.126  -0.556  0.00  0.00     0.002 A 
ATOM      4  C4  I4B d   1       2.164  -1.812   0.185  0.00  0.00    -0.004 A 
ATOM      5  C5  I4B d   1       2.227  -0.607   0.880  0.00  0.00     0.002 A 
ATOM      6  C6  I4B d   1       1.165   0.306   0.800  0.00  0.00     0.003 A 
ENDROOT
BRANCH   1   7
ATOM      7  C1' I4B d   1      -1.048   0.998  -0.159  0.00  0.00     0.060 C 
BRANCH   7   8
ATOM      8  C2' I4B d   1      -2.259   0.460   0.577  0.00  0.00    -0.013 C 
ATOM      9  C4' I4B d   1      -2.577   1.297   1.788  0.00  0.00     0.013 C 
ATOM     10  C3' I4B d   1      -3.411   0.437  -0.383  0.00  0.00     0.013 C 
ENDBRANCH   7   8
ENDBRANCH   1   7
TORSDOF 2
ENDMDL
