MODEL 1
REMARK minimizedAffinity -3.83906221
REMARK minimizedRMSD -1
REMARK  2 active torsions:
REMARK  status: ('A' for Active; 'I' for Inactive)
REMARK    1  A    between atoms: C2'_3  and  C1'_4 
REMARK    2  A    between atoms: C1'_4  and  C1_5 
ROOT
ATOM      1  C1  I4B d   1       1.230   0.317   0.163  0.00  0.00    -0.075 A 
ATOM      2  C2  I4B d   1       1.978   0.923   1.141  0.00  0.00     0.003 A 
ATOM      3  C3  I4B d   1       3.213   0.358   1.546  0.00  0.00     0.002 A 
ATOM      4  C4  I4B d   1       3.633  -0.831   0.986  0.00  0.00    -0.004 A 
ATOM      5  C5  I4B d   1       2.883  -1.431  -0.022  0.00  0.00     0.002 A 
ATOM      6  C6  I4B d   1       1.681  -0.847  -0.445  0.00  0.00     0.003 A 
ENDROOT
BRANCH   1   7
ATOM      7  C1' I4B d   1      -0.084   0.922  -0.217  0.00  0.00     0.060 C 
BRANCH   7   8
ATOM      8  C2' I4B d   1      -1.183   0.050   0.355  0.00  0.00    -0.013 C 
ATOM      9  C4' I4B d   1      -0.712  -0.685   1.582  0.00  0.00     0.013 C 
ATOM     10  C3' I4B d   1      -2.357   0.929   0.668  0.00  0.00     0.013 C 
ENDBRANCH   7   8
ENDBRANCH   1   7
TORSDOF 2
ENDMDL
