MODEL 1
REMARK minimizedAffinity -4.97067499
REMARK minimizedRMSD -1
REMARK  2 active torsions:
REMARK  status: ('A' for Active; 'I' for Inactive)
REMARK    1  A    between atoms: C2'_3  and  C1'_4 
REMARK    2  A    between atoms: C1'_4  and  C1_5 
ROOT
ATOM      1  C1  I4B d   1      -0.135   0.649  -0.107  0.00  0.00    -0.075 A 
ATOM      2  C2  I4B d   1       0.970   0.867   0.676  0.00  0.00     0.003 A 
ATOM      3  C3  I4B d   1       1.965  -0.133   0.799  0.00  0.00     0.002 A 
ATOM      4  C4  I4B d   1       1.791  -1.347   0.166  0.00  0.00    -0.004 A 
ATOM      5  C5  I4B d   1       0.681  -1.558  -0.646  0.00  0.00     0.002 A 
ATOM      6  C6  I4B d   1      -0.283  -0.550  -0.794  0.00  0.00     0.003 A 
ENDROOT
BRANCH   1   7
ATOM      7  C1' I4B d   1      -1.182   1.714  -0.189  0.00  0.00     0.060 C 
BRANCH   7   8
ATOM      8  C2' I4B d   1      -2.452   1.168   0.432  0.00  0.00    -0.013 C 
ATOM      9  C4' I4B d   1      -2.947   2.063   1.538  0.00  0.00     0.013 C 
ATOM     10  C3' I4B d   1      -3.477   1.032  -0.654  0.00  0.00     0.013 C 
ENDBRANCH   7   8
ENDBRANCH   1   7
TORSDOF 2
ENDMDL
