MODEL 1
REMARK minimizedAffinity -4.24466515
REMARK minimizedRMSD -1
REMARK  2 active torsions:
REMARK  status: ('A' for Active; 'I' for Inactive)
REMARK    1  A    between atoms: C2'_3  and  C1'_4 
REMARK    2  A    between atoms: C1'_4  and  C1_5 
ROOT
ATOM      1  C1  I4B d   1      -0.961   0.800   0.385  0.00  0.00    -0.075 A 
ATOM      2  C2  I4B d   1      -2.050   0.426  -0.362  0.00  0.00     0.003 A 
ATOM      3  C3  I4B d   1      -3.359   0.727   0.086  0.00  0.00     0.002 A 
ATOM      4  C4  I4B d   1      -3.534   1.353   1.303  0.00  0.00    -0.004 A 
ATOM      5  C5  I4B d   1      -2.428   1.751   2.049  0.00  0.00     0.002 A 
ATOM      6  C6  I4B d   1      -1.133   1.484   1.581  0.00  0.00     0.003 A 
ENDROOT
BRANCH   1   7
ATOM      7  C1' I4B d   1       0.406   0.438  -0.103  0.00  0.00     0.060 C 
BRANCH   7   8
ATOM      8  C2' I4B d   1       0.547  -1.068  -0.021  0.00  0.00    -0.013 C 
ATOM      9  C4' I4B d   1      -0.012  -1.736  -1.250  0.00  0.00     0.013 C 
ATOM     10  C3' I4B d   1       2.001  -1.389   0.155  0.00  0.00     0.013 C 
ENDBRANCH   7   8
ENDBRANCH   1   7
TORSDOF 2
ENDMDL
