MODEL 1
REMARK minimizedAffinity -4.83589745
REMARK minimizedRMSD -1
REMARK  2 active torsions:
REMARK  status: ('A' for Active; 'I' for Inactive)
REMARK    1  A    between atoms: C1_2  and  C2_3 
REMARK    2  A    between atoms: C2_3  and  C3_4 
ROOT
ATOM      1  C3  UNL d   1       0.102  -0.128   0.037  0.00  0.00    -0.075 A 
ATOM      2  C4  UNL d   1      -0.148   0.236  -1.294  0.00  0.00     0.002 A 
ATOM      3  C5  UNL d   1      -1.442   0.185  -1.812  0.00  0.00     0.002 A 
ATOM      4  C6  UNL d   1      -2.500  -0.239  -1.010  0.00  0.00    -0.004 A 
ATOM      5  C7  UNL d   1      -2.261  -0.619   0.309  0.00  0.00     0.002 A 
ATOM      6  C8  UNL d   1      -0.967  -0.565   0.830  0.00  0.00     0.002 A 
ENDROOT
BRANCH   1   7
ATOM      7  C2  UNL d   1       1.496  -0.048   0.611  0.00  0.00     0.056 C 
BRANCH   7   8
ATOM      8  C1  UNL d   1       2.257   1.225   0.226  0.00  0.00     0.007 C 
ATOM      9  C   UNL d   1       2.750   2.018   1.429  0.00  0.00     0.009 C 
ENDBRANCH   7   8
ENDBRANCH   1   7
TORSDOF 2
ENDMDL
