MODEL 1
REMARK minimizedAffinity -6.00867224
REMARK minimizedRMSD -1
REMARK  2 active torsions:
REMARK  status: ('A' for Active; 'I' for Inactive)
REMARK    1  A    between atoms: C1_2  and  C2_3 
REMARK    2  A    between atoms: C2_3  and  C3_4 
ROOT
ATOM      1  C3  UNL d   1      -0.920  -0.588  -0.181  0.00  0.00    -0.075 A 
ATOM      2  C4  UNL d   1      -0.642  -1.501   0.848  0.00  0.00     0.002 A 
ATOM      3  C5  UNL d   1      -1.644  -2.334   1.345  0.00  0.00     0.002 A 
ATOM      4  C6  UNL d   1      -2.936  -2.259   0.830  0.00  0.00    -0.004 A 
ATOM      5  C7  UNL d   1      -3.228  -1.344  -0.180  0.00  0.00     0.002 A 
ATOM      6  C8  UNL d   1      -2.226  -0.512  -0.683  0.00  0.00     0.002 A 
ENDROOT
BRANCH   1   7
ATOM      7  C2  UNL d   1       0.167   0.296  -0.744  0.00  0.00     0.056 C 
BRANCH   7   8
ATOM      8  C1  UNL d   1       1.530   0.116  -0.067  0.00  0.00     0.007 C 
ATOM      9  C   UNL d   1       2.023   1.375   0.634  0.00  0.00     0.009 C 
ENDBRANCH   7   8
ENDBRANCH   1   7
TORSDOF 2
ENDMDL
