MODEL 1
REMARK minimizedAffinity -6.05658245
REMARK minimizedRMSD -1
REMARK  2 active torsions:
REMARK  status: ('A' for Active; 'I' for Inactive)
REMARK    1  A    between atoms: C1_2  and  C2_3 
REMARK    2  A    between atoms: C2_3  and  C3_4 
ROOT
ATOM      1  C3  UNL d   1      -0.181  -0.288   0.092  0.00  0.00    -0.075 A 
ATOM      2  C4  UNL d   1      -1.127  -1.016   0.828  0.00  0.00     0.002 A 
ATOM      3  C5  UNL d   1      -2.402  -1.249   0.309  0.00  0.00     0.002 A 
ATOM      4  C6  UNL d   1      -2.749  -0.749  -0.944  0.00  0.00    -0.004 A 
ATOM      5  C7  UNL d   1      -1.823  -0.010  -1.676  0.00  0.00     0.002 A 
ATOM      6  C8  UNL d   1      -0.546   0.221  -1.162  0.00  0.00     0.002 A 
ENDROOT
BRANCH   1   7
ATOM      7  C2  UNL d   1       1.209  -0.058   0.635  0.00  0.00     0.056 C 
BRANCH   7   8
ATOM      8  C1  UNL d   1       1.667   1.403   0.577  0.00  0.00     0.007 C 
ATOM      9  C   UNL d   1       2.462   1.832   1.803  0.00  0.00     0.009 C 
ENDBRANCH   7   8
ENDBRANCH   1   7
TORSDOF 2
ENDMDL
