MODEL 1
REMARK minimizedAffinity -6.27137518
REMARK minimizedRMSD -1
REMARK  2 active torsions:
REMARK  status: ('A' for Active; 'I' for Inactive)
REMARK    1  A    between atoms: C1_2  and  C2_3 
REMARK    2  A    between atoms: C2_3  and  C3_4 
ROOT
ATOM      1  C3  UNL d   1      -0.733  -0.134  -0.280  0.00  0.00    -0.075 A 
ATOM      2  C4  UNL d   1      -0.784  -1.090   0.745  0.00  0.00     0.002 A 
ATOM      3  C5  UNL d   1      -1.931  -1.860   0.940  0.00  0.00     0.002 A 
ATOM      4  C6  UNL d   1      -3.043  -1.678   0.120  0.00  0.00    -0.004 A 
ATOM      5  C7  UNL d   1      -3.010  -0.720  -0.891  0.00  0.00     0.002 A 
ATOM      6  C8  UNL d   1      -1.862   0.049  -1.090  0.00  0.00     0.002 A 
ENDROOT
BRANCH   1   7
ATOM      7  C2  UNL d   1       0.516   0.682  -0.514  0.00  0.00     0.056 C 
BRANCH   7   8
ATOM      8  C1  UNL d   1       1.561   0.556   0.600  0.00  0.00     0.007 C 
ATOM      9  C   UNL d   1       2.596   1.673   0.580  0.00  0.00     0.009 C 
ENDBRANCH   7   8
ENDBRANCH   1   7
TORSDOF 2
ENDMDL
