MODEL 1
REMARK minimizedAffinity -4.11774778
REMARK minimizedRMSD -1
REMARK  2 active torsions:
REMARK  status: ('A' for Active; 'I' for Inactive)
REMARK    1  A    between atoms: C1_2  and  C2_3 
REMARK    2  A    between atoms: C2_3  and  C3_4 
ROOT
ATOM      1  C3  UNL d   1       0.805   1.336   0.650  0.00  0.00    -0.075 A 
ATOM      2  C4  UNL d   1       2.085   1.033   0.164  0.00  0.00     0.002 A 
ATOM      3  C5  UNL d   1       3.158   1.889   0.413  0.00  0.00     0.002 A 
ATOM      4  C6  UNL d   1       2.964   3.062   1.139  0.00  0.00    -0.004 A 
ATOM      5  C7  UNL d   1       1.693   3.381   1.612  0.00  0.00     0.002 A 
ATOM      6  C8  UNL d   1       0.618   2.524   1.369  0.00  0.00     0.002 A 
ENDROOT
BRANCH   1   7
ATOM      7  C2  UNL d   1      -0.354   0.399   0.410  0.00  0.00     0.056 C 
BRANCH   7   8
ATOM      8  C1  UNL d   1      -0.885   0.419  -1.028  0.00  0.00     0.007 C 
ATOM      9  C   UNL d   1      -1.994  -0.596  -1.272  0.00  0.00     0.009 C 
ENDBRANCH   7   8
ENDBRANCH   1   7
TORSDOF 2
ENDMDL
