MODEL 1
REMARK minimizedAffinity -5.47705507
REMARK minimizedRMSD -1
REMARK  2 active torsions:
REMARK  status: ('A' for Active; 'I' for Inactive)
REMARK    1  A    between atoms: C1_2  and  C2_3 
REMARK    2  A    between atoms: C2_3  and  C3_4 
ROOT
ATOM      1  C3  UNL d   1      -0.870  -0.740  -0.002  0.00  0.00    -0.075 A 
ATOM      2  C4  UNL d   1      -0.521  -1.649   1.006  0.00  0.00     0.002 A 
ATOM      3  C5  UNL d   1      -1.425  -2.627   1.423  0.00  0.00     0.002 A 
ATOM      4  C6  UNL d   1      -2.690  -2.701   0.844  0.00  0.00    -0.004 A 
ATOM      5  C7  UNL d   1      -3.053  -1.792  -0.147  0.00  0.00     0.002 A 
ATOM      6  C8  UNL d   1      -2.149  -0.816  -0.568  0.00  0.00     0.002 A 
ENDROOT
BRANCH   1   7
ATOM      7  C2  UNL d   1       0.115   0.302  -0.478  0.00  0.00     0.056 C 
BRANCH   7   8
ATOM      8  C1  UNL d   1       1.560   0.039  -0.043  0.00  0.00     0.007 C 
ATOM      9  C   UNL d   1       2.301   1.302   0.374  0.00  0.00     0.009 C 
ENDBRANCH   7   8
ENDBRANCH   1   7
TORSDOF 2
ENDMDL
