MODEL 1
REMARK minimizedAffinity -4.75064278
REMARK minimizedRMSD -1
REMARK  2 active torsions:
REMARK  status: ('A' for Active; 'I' for Inactive)
REMARK    1  A    between atoms: C1_2  and  C2_3 
REMARK    2  A    between atoms: C2_3  and  C3_4 
ROOT
ATOM      1  C3  UNL d   1      -0.876  -0.562  -0.088  0.00  0.00    -0.075 A 
ATOM      2  C4  UNL d   1      -0.642  -1.380   1.026  0.00  0.00     0.002 A 
ATOM      3  C5  UNL d   1      -1.616  -2.278   1.463  0.00  0.00     0.002 A 
ATOM      4  C6  UNL d   1      -2.839  -2.362   0.800  0.00  0.00    -0.004 A 
ATOM      5  C7  UNL d   1      -3.089  -1.541  -0.298  0.00  0.00     0.002 A 
ATOM      6  C8  UNL d   1      -2.114  -0.645  -0.740  0.00  0.00     0.002 A 
ENDROOT
BRANCH   1   7
ATOM      7  C2  UNL d   1       0.185   0.391  -0.584  0.00  0.00     0.056 C 
BRANCH   7   8
ATOM      8  C1  UNL d   1       1.489   0.345   0.220  0.00  0.00     0.007 C 
ATOM      9  C   UNL d   1       2.234   1.673   0.232  0.00  0.00     0.009 C 
ENDBRANCH   7   8
ENDBRANCH   1   7
TORSDOF 2
ENDMDL
