MODEL 1
REMARK minimizedAffinity -4.68270683
REMARK minimizedRMSD -1
REMARK  2 active torsions:
REMARK  status: ('A' for Active; 'I' for Inactive)
REMARK    1  A    between atoms: C1_2  and  C2_3 
REMARK    2  A    between atoms: C2_3  and  C3_4 
ROOT
ATOM      1  C3  UNL d   1      -0.945  -0.489  -0.102  0.00  0.00    -0.075 A 
ATOM      2  C4  UNL d   1      -0.761  -1.204   1.090  0.00  0.00     0.002 A 
ATOM      3  C5  UNL d   1      -1.815  -1.924   1.654  0.00  0.00     0.002 A 
ATOM      4  C6  UNL d   1      -3.065  -1.930   1.040  0.00  0.00    -0.004 A 
ATOM      5  C7  UNL d   1      -3.264  -1.209  -0.136  0.00  0.00     0.002 A 
ATOM      6  C8  UNL d   1      -2.210  -0.492  -0.705  0.00  0.00     0.002 A 
ENDROOT
BRANCH   1   7
ATOM      7  C2  UNL d   1       0.200   0.268  -0.733  0.00  0.00     0.056 C 
BRANCH   7   8
ATOM      8  C1  UNL d   1       1.529   0.126   0.015  0.00  0.00     0.007 C 
ATOM      9  C   UNL d   1       2.004   1.427   0.648  0.00  0.00     0.009 C 
ENDBRANCH   7   8
ENDBRANCH   1   7
TORSDOF 2
ENDMDL
