MODEL 1
REMARK minimizedAffinity -4.59597349
REMARK minimizedRMSD -1
REMARK  2 active torsions:
REMARK  status: ('A' for Active; 'I' for Inactive)
REMARK    1  A    between atoms: C1_2  and  C2_3 
REMARK    2  A    between atoms: C2_3  and  C3_4 
ROOT
ATOM      1  C3  UNL d   1      -0.920  -0.516   0.295  0.00  0.00    -0.075 A 
ATOM      2  C4  UNL d   1      -0.905  -1.512   1.282  0.00  0.00     0.002 A 
ATOM      3  C5  UNL d   1      -1.828  -2.557   1.247  0.00  0.00     0.002 A 
ATOM      4  C6  UNL d   1      -2.783  -2.614   0.235  0.00  0.00    -0.004 A 
ATOM      5  C7  UNL d   1      -2.818  -1.620  -0.741  0.00  0.00     0.002 A 
ATOM      6  C8  UNL d   1      -1.892  -0.576  -0.712  0.00  0.00     0.002 A 
ENDROOT
BRANCH   1   7
ATOM      7  C2  UNL d   1       0.096   0.602   0.310  0.00  0.00     0.056 C 
BRANCH   7   8
ATOM      8  C1  UNL d   1       1.550   0.122   0.377  0.00  0.00     0.007 C 
ATOM      9  C   UNL d   1       2.529   1.226   0.756  0.00  0.00     0.009 C 
ENDBRANCH   7   8
ENDBRANCH   1   7
TORSDOF 2
ENDMDL
