MODEL 1
REMARK minimizedAffinity -4.62013483
REMARK minimizedRMSD -1
REMARK  2 active torsions:
REMARK  status: ('A' for Active; 'I' for Inactive)
REMARK    1  A    between atoms: C1_2  and  C2_3 
REMARK    2  A    between atoms: C2_3  and  C3_4 
ROOT
ATOM      1  C3  UNL d   1      -0.820  -0.847   0.861  0.00  0.00    -0.075 A 
ATOM      2  C4  UNL d   1      -1.356  -2.033   1.383  0.00  0.00     0.002 A 
ATOM      3  C5  UNL d   1      -2.627  -2.464   1.002  0.00  0.00     0.002 A 
ATOM      4  C6  UNL d   1      -3.381  -1.712   0.103  0.00  0.00    -0.004 A 
ATOM      5  C7  UNL d   1      -2.865  -0.524  -0.409  0.00  0.00     0.002 A 
ATOM      6  C8  UNL d   1      -1.592  -0.092  -0.033  0.00  0.00     0.002 A 
ENDROOT
BRANCH   1   7
ATOM      7  C2  UNL d   1       0.566  -0.389   1.247  0.00  0.00     0.056 C 
BRANCH   7   8
ATOM      8  C1  UNL d   1       1.302   0.373   0.140  0.00  0.00     0.007 C 
ATOM      9  C   UNL d   1       2.291   1.401   0.675  0.00  0.00     0.009 C 
ENDBRANCH   7   8
ENDBRANCH   1   7
TORSDOF 2
ENDMDL
