MODEL 1
REMARK minimizedAffinity -4.05172873
REMARK minimizedRMSD -1
REMARK  2 active torsions:
REMARK  status: ('A' for Active; 'I' for Inactive)
REMARK    1  A    between atoms: C1_2  and  C2_3 
REMARK    2  A    between atoms: C2_3  and  C3_4 
ROOT
ATOM      1  C3  UNL d   1      -0.278  -0.661   0.106  0.00  0.00    -0.075 A 
ATOM      2  C4  UNL d   1      -0.919  -1.684   0.820  0.00  0.00     0.002 A 
ATOM      3  C5  UNL d   1      -2.211  -2.084   0.479  0.00  0.00     0.002 A 
ATOM      4  C6  UNL d   1      -2.882  -1.462  -0.572  0.00  0.00    -0.004 A 
ATOM      5  C7  UNL d   1      -2.261  -0.433  -1.277  0.00  0.00     0.002 A 
ATOM      6  C8  UNL d   1      -0.967  -0.034  -0.941  0.00  0.00     0.002 A 
ENDROOT
BRANCH   1   7
ATOM      7  C2  UNL d   1       1.131  -0.244   0.452  0.00  0.00     0.056 C 
BRANCH   7   8
ATOM      8  C1  UNL d   1       1.483   1.183   0.018  0.00  0.00     0.007 C 
ATOM      9  C   UNL d   1       2.665   1.768   0.779  0.00  0.00     0.009 C 
ENDBRANCH   7   8
ENDBRANCH   1   7
TORSDOF 2
ENDMDL
