MODEL 1
REMARK minimizedAffinity 0.991763949
REMARK minimizedRMSD -1
REMARK  2 active torsions:
REMARK  status: ('A' for Active; 'I' for Inactive)
REMARK    1  A    between atoms: C1_2  and  C2_3 
REMARK    2  A    between atoms: C2_3  and  C3_4 
ROOT
ATOM      1  C3  UNL d   1       0.769   1.643   1.660  0.00  0.00    -0.075 A 
ATOM      2  C4  UNL d   1       0.288   2.365   0.559  0.00  0.00     0.002 A 
ATOM      3  C5  UNL d   1       0.806   3.625   0.257  0.00  0.00     0.002 A 
ATOM      4  C6  UNL d   1       1.801   4.182   1.056  0.00  0.00    -0.004 A 
ATOM      5  C7  UNL d   1       2.275   3.480   2.163  0.00  0.00     0.002 A 
ATOM      6  C8  UNL d   1       1.762   2.218   2.464  0.00  0.00     0.002 A 
ENDROOT
BRANCH   1   7
ATOM      7  C2  UNL d   1       0.234   0.266   1.975  0.00  0.00     0.056 C 
BRANCH   7   8
ATOM      8  C1  UNL d   1      -0.087  -0.577   0.736  0.00  0.00     0.007 C 
ATOM      9  C   UNL d   1       1.151  -1.167   0.074  0.00  0.00     0.009 C 
ENDBRANCH   7   8
ENDBRANCH   1   7
TORSDOF 2
ENDMDL
