MODEL 1
REMARK minimizedAffinity 3.964679
REMARK minimizedRMSD -1
REMARK  2 active torsions:
REMARK  status: ('A' for Active; 'I' for Inactive)
REMARK    1  A    between atoms: C1_2  and  C2_3 
REMARK    2  A    between atoms: C2_3  and  C3_4 
ROOT
ATOM      1  C3  UNL d   1      -0.336   2.086  -0.527  0.00  0.00    -0.075 A 
ATOM      2  C4  UNL d   1       0.373   0.876  -0.493  0.00  0.00     0.002 A 
ATOM      3  C5  UNL d   1       0.580   0.143  -1.662  0.00  0.00     0.002 A 
ATOM      4  C6  UNL d   1       0.074   0.604  -2.875  0.00  0.00    -0.004 A 
ATOM      5  C7  UNL d   1      -0.646   1.796  -2.918  0.00  0.00     0.002 A 
ATOM      6  C8  UNL d   1      -0.851   2.533  -1.751  0.00  0.00     0.002 A 
ENDROOT
BRANCH   1   7
ATOM      7  C2  UNL d   1      -0.538   2.898   0.729  0.00  0.00     0.056 C 
BRANCH   7   8
ATOM      8  C1  UNL d   1      -1.117   2.100   1.902  0.00  0.00     0.007 C 
ATOM      9  C   UNL d   1      -0.063   1.312   2.670  0.00  0.00     0.009 C 
ENDBRANCH   7   8
ENDBRANCH   1   7
TORSDOF 2
ENDMDL
