MODEL 1
REMARK minimizedAffinity 6.54049301
REMARK minimizedRMSD -1
REMARK  2 active torsions:
REMARK  status: ('A' for Active; 'I' for Inactive)
REMARK    1  A    between atoms: C1_2  and  C2_3 
REMARK    2  A    between atoms: C2_3  and  C3_4 
ROOT
ATOM      1  C3  UNL d   1      -0.309   2.022   0.002  0.00  0.00    -0.075 A 
ATOM      2  C4  UNL d   1      -0.538   2.000   1.386  0.00  0.00     0.002 A 
ATOM      3  C5  UNL d   1      -1.318   2.987   1.990  0.00  0.00     0.002 A 
ATOM      4  C6  UNL d   1      -1.868   4.012   1.223  0.00  0.00    -0.004 A 
ATOM      5  C7  UNL d   1      -1.633   4.053  -0.149  0.00  0.00     0.002 A 
ATOM      6  C8  UNL d   1      -0.857   3.064  -0.758  0.00  0.00     0.002 A 
ENDROOT
BRANCH   1   7
ATOM      7  C2  UNL d   1       0.509   0.941  -0.662  0.00  0.00     0.056 C 
BRANCH   7   8
ATOM      8  C1  UNL d   1      -0.004   0.534  -2.048  0.00  0.00     0.007 C 
ATOM      9  C   UNL d   1      -0.728  -0.805  -2.050  0.00  0.00     0.009 C 
ENDBRANCH   7   8
ENDBRANCH   1   7
TORSDOF 2
ENDMDL
