MODEL 1
REMARK minimizedAffinity 6.51327801
REMARK minimizedRMSD -1
REMARK  2 active torsions:
REMARK  status: ('A' for Active; 'I' for Inactive)
REMARK    1  A    between atoms: C1_2  and  C2_3 
REMARK    2  A    between atoms: C2_3  and  C3_4 
ROOT
ATOM      1  C3  UNL d   1      -0.923   2.742   1.786  0.00  0.00    -0.075 A 
ATOM      2  C4  UNL d   1       0.399   2.318   1.588  0.00  0.00     0.002 A 
ATOM      3  C5  UNL d   1       0.870   1.157   2.203  0.00  0.00     0.002 A 
ATOM      4  C6  UNL d   1       0.030   0.413   3.029  0.00  0.00    -0.004 A 
ATOM      5  C7  UNL d   1      -1.280   0.834   3.245  0.00  0.00     0.002 A 
ATOM      6  C8  UNL d   1      -1.755   1.992   2.628  0.00  0.00     0.002 A 
ENDROOT
BRANCH   1   7
ATOM      7  C2  UNL d   1      -1.447   3.981   1.100  0.00  0.00     0.056 C 
BRANCH   7   8
ATOM      8  C1  UNL d   1      -2.498   4.746   1.912  0.00  0.00     0.007 C 
ATOM      9  C   UNL d   1      -3.006   5.998   1.209  0.00  0.00     0.009 C 
ENDBRANCH   7   8
ENDBRANCH   1   7
TORSDOF 2
ENDMDL
