MODEL 1
REMARK minimizedAffinity -1.54070461
REMARK minimizedRMSD -1
REMARK  2 active torsions:
REMARK  status: ('A' for Active; 'I' for Inactive)
REMARK    1  A    between atoms: C1_2  and  C2_3 
REMARK    2  A    between atoms: C2_3  and  C3_4 
ROOT
ATOM      1  C3  UNL d   1      -0.865   3.766   1.233  0.00  0.00    -0.075 A 
ATOM      2  C4  UNL d   1       0.319   4.412   0.848  0.00  0.00     0.002 A 
ATOM      3  C5  UNL d   1       1.518   4.150   1.512  0.00  0.00     0.002 A 
ATOM      4  C6  UNL d   1       1.546   3.249   2.574  0.00  0.00    -0.004 A 
ATOM      5  C7  UNL d   1       0.373   2.614   2.976  0.00  0.00     0.002 A 
ATOM      6  C8  UNL d   1      -0.827   2.871   2.311  0.00  0.00     0.002 A 
ENDROOT
BRANCH   1   7
ATOM      7  C2  UNL d   1      -2.159   4.023   0.499  0.00  0.00     0.056 C 
BRANCH   7   8
ATOM      8  C1  UNL d   1      -3.275   4.590   1.383  0.00  0.00     0.007 C 
ATOM      9  C   UNL d   1      -2.989   6.000   1.882  0.00  0.00     0.009 C 
ENDBRANCH   7   8
ENDBRANCH   1   7
TORSDOF 2
ENDMDL
