MODEL 1
REMARK minimizedAffinity 2.73683357
REMARK minimizedRMSD -1
REMARK  2 active torsions:
REMARK  status: ('A' for Active; 'I' for Inactive)
REMARK    1  A    between atoms: C1_2  and  C2_3 
REMARK    2  A    between atoms: C2_3  and  C3_4 
ROOT
ATOM      1  C3  UNL d   1       0.495  -0.197   0.839  0.00  0.00    -0.075 A 
ATOM      2  C4  UNL d   1       1.610  -1.047   0.845  0.00  0.00     0.002 A 
ATOM      3  C5  UNL d   1       2.266  -1.362  -0.346  0.00  0.00     0.002 A 
ATOM      4  C6  UNL d   1       1.810  -0.842  -1.555  0.00  0.00    -0.004 A 
ATOM      5  C7  UNL d   1       0.693  -0.009  -1.574  0.00  0.00     0.002 A 
ATOM      6  C8  UNL d   1       0.038   0.312  -0.384  0.00  0.00     0.002 A 
ENDROOT
BRANCH   1   7
ATOM      7  C2  UNL d   1      -0.201   0.172   2.128  0.00  0.00     0.056 C 
BRANCH   7   8
ATOM      8  C1  UNL d   1      -0.420   1.678   2.309  0.00  0.00     0.007 C 
ATOM      9  C   UNL d   1       0.845   2.499   2.097  0.00  0.00     0.009 C 
ENDBRANCH   7   8
ENDBRANCH   1   7
TORSDOF 2
ENDMDL
