MODEL 1
REMARK minimizedAffinity 14.1292057
REMARK minimizedRMSD -1
REMARK  0 active torsions:
REMARK  status: ('A' for Active; 'I' for Inactive)
ROOT
ATOM      1  C4' PXY d   1       5.303  -5.997   0.041  0.00  0.00     0.077 C 
ATOM      2  C1' PXY d   1       3.990  -3.370  -4.937  0.00  0.00     0.077 C 
ATOM      3  C1  PXY d   1       4.340  -4.048  -3.627  0.00  0.00    -0.082 A 
ATOM      4  C2  PXY d   1       4.460  -5.365  -3.584  0.00  0.00     0.003 A 
ATOM      5  C3  PXY d   1       4.744  -5.997  -2.401  0.00  0.00     0.003 A 
ATOM      6  C4  PXY d   1       4.961  -5.269  -1.261  0.00  0.00    -0.082 A 
ATOM      7  C5  PXY d   1       4.851  -3.924  -1.300  0.00  0.00     0.003 A 
ATOM      8  C6  PXY d   1       4.521  -3.305  -2.502  0.00  0.00     0.003 A 
ENDROOT
TORSDOF 0
ENDMDL
