MODEL 1
REMARK minimizedAffinity 4.15788078
REMARK minimizedRMSD -1
REMARK  0 active torsions:
REMARK  status: ('A' for Active; 'I' for Inactive)
ROOT
ATOM      1  C4' PXY d   1      -1.612   4.509  -2.292  0.00  0.00     0.077 C 
ATOM      2  C1' PXY d   1       0.370   2.402   2.712  0.00  0.00     0.077 C 
ATOM      3  C1  PXY d   1      -0.140   2.949   1.393  0.00  0.00    -0.082 A 
ATOM      4  C2  PXY d   1      -0.911   4.025   1.385  0.00  0.00     0.003 A 
ATOM      5  C3  PXY d   1      -1.407   4.514   0.204  0.00  0.00     0.003 A 
ATOM      6  C4  PXY d   1      -1.067   3.928  -0.985  0.00  0.00    -0.082 A 
ATOM      7  C5  PXY d   1      -0.273   2.836  -0.986  0.00  0.00     0.003 A 
ATOM      8  C6  PXY d   1       0.187   2.331   0.226  0.00  0.00     0.003 A 
ENDROOT
TORSDOF 0
ENDMDL
