MODEL 1
REMARK minimizedAffinity -1.55639648
REMARK minimizedRMSD -1
REMARK  0 active torsions:
REMARK  status: ('A' for Active; 'I' for Inactive)
ROOT
ATOM      1  C4' PXY d   1      -5.999   0.679  -5.971  0.00  0.00     0.077 C 
ATOM      2  C1' PXY d   1      -5.960   5.505  -2.789  0.00  0.00     0.077 C 
ATOM      3  C1  PXY d   1      -5.975   4.246  -3.633  0.00  0.00    -0.082 A 
ATOM      4  C2  PXY d   1      -5.990   3.062  -3.043  0.00  0.00     0.003 A 
ATOM      5  C3  PXY d   1      -5.972   1.914  -3.791  0.00  0.00     0.003 A 
ATOM      6  C4  PXY d   1      -5.993   1.977  -5.158  0.00  0.00    -0.082 A 
ATOM      7  C5  PXY d   1      -5.988   3.181  -5.769  0.00  0.00     0.003 A 
ATOM      8  C6  PXY d   1      -5.965   4.335  -4.991  0.00  0.00     0.003 A 
ENDROOT
TORSDOF 0
ENDMDL
