MODEL 1
REMARK minimizedAffinity -1.12376273
REMARK minimizedRMSD -1
REMARK  0 active torsions:
REMARK  status: ('A' for Active; 'I' for Inactive)
ROOT
ATOM      1  C4' PXY d   1      -5.987   0.463  -5.884  0.00  0.00     0.077 C 
ATOM      2  C1' PXY d   1      -5.983   5.516  -3.077  0.00  0.00     0.077 C 
ATOM      3  C1  PXY d   1      -5.979   4.185  -3.803  0.00  0.00    -0.082 A 
ATOM      4  C2  PXY d   1      -5.965   4.161  -5.126  0.00  0.00     0.003 A 
ATOM      5  C3  PXY d   1      -5.993   2.966  -5.798  0.00  0.00     0.003 A 
ATOM      6  C4  PXY d   1      -5.982   1.783  -5.110  0.00  0.00    -0.082 A 
ATOM      7  C5  PXY d   1      -5.986   1.799  -3.760  0.00  0.00     0.003 A 
ATOM      8  C6  PXY d   1      -5.998   3.022  -3.096  0.00  0.00     0.003 A 
ENDROOT
TORSDOF 0
ENDMDL
