MODEL 1
REMARK minimizedAffinity 2.96717715
REMARK minimizedRMSD -1
REMARK  0 active torsions:
REMARK  status: ('A' for Active; 'I' for Inactive)
ROOT
ATOM      1  C4' PXY d   1       0.415   0.470  -0.099  0.00  0.00     0.077 C 
ATOM      2  C1' PXY d   1       0.711  -5.186  -1.258  0.00  0.00     0.077 C 
ATOM      3  C1  PXY d   1       0.642  -3.704  -0.944  0.00  0.00    -0.082 A 
ATOM      4  C2  PXY d   1      -0.423  -3.008  -1.307  0.00  0.00     0.003 A 
ATOM      5  C3  PXY d   1      -0.488  -1.661  -1.060  0.00  0.00     0.003 A 
ATOM      6  C4  PXY d   1       0.524  -1.030  -0.387  0.00  0.00    -0.082 A 
ATOM      7  C5  PXY d   1       1.609  -1.736  -0.003  0.00  0.00     0.003 A 
ATOM      8  C6  PXY d   1       1.674  -3.094  -0.300  0.00  0.00     0.003 A 
ENDROOT
TORSDOF 0
ENDMDL
