MODEL 1
REMARK minimizedAffinity 20.998539
REMARK minimizedRMSD -1
REMARK  0 active torsions:
REMARK  status: ('A' for Active; 'I' for Inactive)
ROOT
ATOM      1  C4' PXY d   1      -1.533   5.996  -3.387  0.00  0.00     0.077 C 
ATOM      2  C1' PXY d   1       0.492   2.965   1.099  0.00  0.00     0.077 C 
ATOM      3  C1  PXY d   1      -0.045   3.769  -0.069  0.00  0.00    -0.082 A 
ATOM      4  C2  PXY d   1      -0.242   3.175  -1.235  0.00  0.00     0.003 A 
ATOM      5  C3  PXY d   1      -0.696   3.894  -2.311  0.00  0.00     0.003 A 
ATOM      6  C4  PXY d   1      -1.002   5.222  -2.178  0.00  0.00    -0.082 A 
ATOM      7  C5  PXY d   1      -0.813   5.832  -0.988  0.00  0.00     0.003 A 
ATOM      8  C6  PXY d   1      -0.312   5.094   0.080  0.00  0.00     0.003 A 
ENDROOT
TORSDOF 0
ENDMDL
