MODEL 1
REMARK minimizedAffinity 7.48119497
REMARK minimizedRMSD -1
REMARK  0 active torsions:
REMARK  status: ('A' for Active; 'I' for Inactive)
ROOT
ATOM      1  C4' PXY d   1      -4.815  -6.000  -5.585  0.00  0.00     0.077 C 
ATOM      2  C1' PXY d   1       0.301  -3.312  -5.687  0.00  0.00     0.077 C 
ATOM      3  C1  PXY d   1      -1.036  -4.025  -5.669  0.00  0.00    -0.082 A 
ATOM      4  C2  PXY d   1      -2.127  -3.362  -5.323  0.00  0.00     0.003 A 
ATOM      5  C3  PXY d   1      -3.340  -4.000  -5.270  0.00  0.00     0.003 A 
ATOM      6  C4  PXY d   1      -3.445  -5.317  -5.626  0.00  0.00    -0.082 A 
ATOM      7  C5  PXY d   1      -2.338  -5.999  -5.991  0.00  0.00     0.003 A 
ATOM      8  C6  PXY d   1      -1.110  -5.343  -5.998  0.00  0.00     0.003 A 
ENDROOT
TORSDOF 0
ENDMDL
