MODEL 1
REMARK minimizedAffinity 6.30681562
REMARK minimizedRMSD -1
REMARK  0 active torsions:
REMARK  status: ('A' for Active; 'I' for Inactive)
ROOT
ATOM      1  C4' PXY d   1       1.135  -1.084   4.074  0.00  0.00     0.077 C 
ATOM      2  C1' PXY d   1       4.219  -1.911  -0.745  0.00  0.00     0.077 C 
ATOM      3  C1  PXY d   1       3.417  -1.683   0.521  0.00  0.00    -0.082 A 
ATOM      4  C2  PXY d   1       2.836  -2.710   1.121  0.00  0.00     0.003 A 
ATOM      5  C3  PXY d   1       2.080  -2.517   2.249  0.00  0.00     0.003 A 
ATOM      6  C4  PXY d   1       1.962  -1.268   2.799  0.00  0.00    -0.082 A 
ATOM      7  C5  PXY d   1       2.561  -0.218   2.199  0.00  0.00     0.003 A 
ATOM      8  C6  PXY d   1       3.289  -0.428   1.031  0.00  0.00     0.003 A 
ENDROOT
TORSDOF 0
ENDMDL
