MODEL 1
REMARK minimizedAffinity 13.5006285
REMARK minimizedRMSD -1
REMARK  0 active torsions:
REMARK  status: ('A' for Active; 'I' for Inactive)
ROOT
ATOM      1  C4' PXY d   1      -1.847   5.998  -2.958  0.00  0.00     0.077 C 
ATOM      2  C1' PXY d   1       0.803   2.158   0.455  0.00  0.00     0.077 C 
ATOM      3  C1  PXY d   1       0.115   3.161  -0.450  0.00  0.00    -0.082 A 
ATOM      4  C2  PXY d   1      -0.439   4.242   0.074  0.00  0.00     0.003 A 
ATOM      5  C3  PXY d   1      -1.093   5.144  -0.726  0.00  0.00     0.003 A 
ATOM      6  C4  PXY d   1      -1.133   4.963  -2.083  0.00  0.00    -0.082 A 
ATOM      7  C5  PXY d   1      -0.561   3.868  -2.626  0.00  0.00     0.003 A 
ATOM      8  C6  PXY d   1       0.062   2.944  -1.792  0.00  0.00     0.003 A 
ENDROOT
TORSDOF 0
ENDMDL
