MODEL 1
REMARK minimizedAffinity 4.45291519
REMARK minimizedRMSD -1
REMARK  0 active torsions:
REMARK  status: ('A' for Active; 'I' for Inactive)
ROOT
ATOM      1  C4' PXY d   1      -0.356   4.131  -2.273  0.00  0.00     0.077 C 
ATOM      2  C1' PXY d   1       0.463   2.214   3.119  0.00  0.00     0.077 C 
ATOM      3  C1  PXY d   1       0.249   2.729   1.709  0.00  0.00    -0.082 A 
ATOM      4  C2  PXY d   1      -0.352   1.960   0.816  0.00  0.00     0.003 A 
ATOM      5  C3  PXY d   1      -0.525   2.398  -0.472  0.00  0.00     0.003 A 
ATOM      6  C4  PXY d   1      -0.127   3.656  -0.835  0.00  0.00    -0.082 A 
ATOM      7  C5  PXY d   1       0.478   4.451   0.073  0.00  0.00     0.003 A 
ATOM      8  C6  PXY d   1       0.681   3.972   1.364  0.00  0.00     0.003 A 
ENDROOT
TORSDOF 0
ENDMDL
