MODEL 1
REMARK minimizedAffinity 4.72137213
REMARK minimizedRMSD -1
REMARK  0 active torsions:
REMARK  status: ('A' for Active; 'I' for Inactive)
ROOT
ATOM      1  C4' PXY d   1      -0.832   3.745   0.662  0.00  0.00     0.077 C 
ATOM      2  C1' PXY d   1       0.255   6.000  -4.549  0.00  0.00     0.077 C 
ATOM      3  C1  PXY d   1      -0.042   5.414  -3.182  0.00  0.00    -0.082 A 
ATOM      4  C2  PXY d   1       0.958   5.067  -2.388  0.00  0.00     0.003 A 
ATOM      5  C3  PXY d   1       0.707   4.506  -1.162  0.00  0.00     0.003 A 
ATOM      6  C4  PXY d   1      -0.580   4.348  -0.723  0.00  0.00    -0.082 A 
ATOM      7  C5  PXY d   1      -1.605   4.710  -1.522  0.00  0.00     0.003 A 
ATOM      8  C6  PXY d   1      -1.330   5.240  -2.780  0.00  0.00     0.003 A 
ENDROOT
TORSDOF 0
ENDMDL
