MODEL 1
REMARK minimizedAffinity 8.59648991
REMARK minimizedRMSD -1
REMARK  0 active torsions:
REMARK  status: ('A' for Active; 'I' for Inactive)
ROOT
ATOM      1  C4' PXY d   1       2.263   2.561   2.682  0.00  0.00     0.077 C 
ATOM      2  C1' PXY d   1      -0.844   4.454  -1.810  0.00  0.00     0.077 C 
ATOM      3  C1  PXY d   1      -0.040   3.955  -0.626  0.00  0.00    -0.082 A 
ATOM      4  C2  PXY d   1       1.177   4.428  -0.415  0.00  0.00     0.003 A 
ATOM      5  C3  PXY d   1       1.930   3.964   0.633  0.00  0.00     0.003 A 
ATOM      6  C4  PXY d   1       1.411   3.044   1.504  0.00  0.00    -0.082 A 
ATOM      7  C5  PXY d   1       0.166   2.564   1.302  0.00  0.00     0.003 A 
ATOM      8  C6  PXY d   1      -0.566   3.018   0.209  0.00  0.00     0.003 A 
ENDROOT
TORSDOF 0
ENDMDL
