MODEL 1
REMARK minimizedAffinity 8.71795177
REMARK minimizedRMSD -1
REMARK  0 active torsions:
REMARK  status: ('A' for Active; 'I' for Inactive)
ROOT
ATOM      1  C4' PXY d   1      -6.000   1.518  -5.565  0.00  0.00     0.077 C 
ATOM      2  C1' PXY d   1      -4.669   5.583  -1.677  0.00  0.00     0.077 C 
ATOM      3  C1  PXY d   1      -5.017   4.526  -2.706  0.00  0.00    -0.082 A 
ATOM      4  C2  PXY d   1      -5.704   3.456  -2.339  0.00  0.00     0.003 A 
ATOM      5  C3  PXY d   1      -6.000   2.475  -3.250  0.00  0.00     0.003 A 
ATOM      6  C4  PXY d   1      -5.634   2.615  -4.562  0.00  0.00    -0.082 A 
ATOM      7  C5  PXY d   1      -4.942   3.708  -4.947  0.00  0.00     0.003 A 
ATOM      8  C6  PXY d   1      -4.617   4.673  -3.998  0.00  0.00     0.003 A 
ENDROOT
TORSDOF 0
ENDMDL
