MODEL 1
REMARK minimizedAffinity 4.39299726
REMARK minimizedRMSD -1
REMARK  2 active torsions:
REMARK  status: ('A' for Active; 'I' for Inactive)
REMARK    1  A    between atoms: C2'_3  and  C1'_4 
REMARK    2  A    between atoms: C1'_4  and  C1_5 
ROOT
ATOM      1  C1  I4B d   1       1.541  -1.253   2.470  0.00  0.00    -0.075 A 
ATOM      2  C2  I4B d   1       0.805  -1.751   3.516  0.00  0.00     0.003 A 
ATOM      3  C3  I4B d   1       1.122  -3.013   4.074  0.00  0.00     0.002 A 
ATOM      4  C4  I4B d   1       2.144  -3.761   3.526  0.00  0.00    -0.004 A 
ATOM      5  C5  I4B d   1       2.904  -3.244   2.480  0.00  0.00     0.002 A 
ATOM      6  C6  I4B d   1       2.609  -1.977   1.957  0.00  0.00     0.003 A 
ENDROOT
BRANCH   1   7
ATOM      7  C1' I4B d   1       1.158   0.069   1.884  0.00  0.00     0.060 C 
BRANCH   7   8
ATOM      8  C2' I4B d   1       2.141   1.106   2.388  0.00  0.00    -0.013 C 
ATOM      9  C4' I4B d   1       2.811   1.823   1.245  0.00  0.00     0.013 C 
ATOM     10  C3' I4B d   1       1.394   2.065   3.266  0.00  0.00     0.013 C 
ENDBRANCH   7   8
ENDBRANCH   1   7
TORSDOF 2
ENDMDL
