MODEL 1
REMARK minimizedAffinity 10.2034197
REMARK minimizedRMSD -1
REMARK  2 active torsions:
REMARK  status: ('A' for Active; 'I' for Inactive)
REMARK    1  A    between atoms: C2'_3  and  C1'_4 
REMARK    2  A    between atoms: C1'_4  and  C1_5 
ROOT
ATOM      1  C1  I4B d   1       3.631  -3.554   3.354  0.00  0.00    -0.075 A 
ATOM      2  C2  I4B d   1       3.204  -2.429   2.693  0.00  0.00     0.003 A 
ATOM      3  C3  I4B d   1       1.895  -1.933   2.903  0.00  0.00     0.002 A 
ATOM      4  C4  I4B d   1       1.035  -2.618   3.737  0.00  0.00    -0.004 A 
ATOM      5  C5  I4B d   1       1.477  -3.745   4.424  0.00  0.00     0.002 A 
ATOM      6  C6  I4B d   1       2.787  -4.209   4.241  0.00  0.00     0.003 A 
ENDROOT
BRANCH   1   7
ATOM      7  C1' I4B d   1       5.010  -4.069   3.084  0.00  0.00     0.060 C 
BRANCH   7   8
ATOM      8  C2' I4B d   1       5.999  -3.019   3.548  0.00  0.00    -0.013 C 
ATOM      9  C4' I4B d   1       6.000  -1.826   2.630  0.00  0.00     0.013 C 
ATOM     10  C3' I4B d   1       5.633  -2.625   4.948  0.00  0.00     0.013 C 
ENDBRANCH   7   8
ENDBRANCH   1   7
TORSDOF 2
ENDMDL
