MODEL 1
REMARK minimizedAffinity 10.2182207
REMARK minimizedRMSD -1
REMARK  2 active torsions:
REMARK  status: ('A' for Active; 'I' for Inactive)
REMARK    1  A    between atoms: C2'_3  and  C1'_4 
REMARK    2  A    between atoms: C1'_4  and  C1_5 
ROOT
ATOM      1  C1  I4B d   1       2.715  -2.236   2.473  0.00  0.00    -0.075 A 
ATOM      2  C2  I4B d   1       2.776  -1.194   1.582  0.00  0.00     0.003 A 
ATOM      3  C3  I4B d   1       1.818  -0.153   1.635  0.00  0.00     0.002 A 
ATOM      4  C4  I4B d   1       0.794  -0.218   2.558  0.00  0.00    -0.004 A 
ATOM      5  C5  I4B d   1       0.747  -1.263   3.476  0.00  0.00     0.002 A 
ATOM      6  C6  I4B d   1       1.720  -2.272   3.442  0.00  0.00     0.003 A 
ENDROOT
BRANCH   1   7
ATOM      7  C1' I4B d   1       3.723  -3.335   2.367  0.00  0.00     0.060 C 
BRANCH   7   8
ATOM      8  C2' I4B d   1       2.975  -4.637   2.166  0.00  0.00    -0.013 C 
ATOM      9  C4' I4B d   1       1.974  -4.867   3.268  0.00  0.00     0.013 C 
ATOM     10  C3' I4B d   1       2.302  -4.582   0.827  0.00  0.00     0.013 C 
ENDBRANCH   7   8
ENDBRANCH   1   7
TORSDOF 2
ENDMDL
