MODEL 1
REMARK minimizedAffinity 12.7204504
REMARK minimizedRMSD -1
REMARK  0 active torsions:
REMARK  status: ('A' for Active; 'I' for Inactive)
ROOT
ATOM      1  C   UNL d   1      -0.613  -0.880   3.248  0.00  0.00     0.023 A 
ATOM      2  C1  UNL d   1      -1.491   0.074   3.761  0.00  0.00     0.003 A 
ATOM      3  C2  UNL d   1      -2.573   0.513   2.996  0.00  0.00     0.048 A 
ATOM      4  C3  UNL d   1      -2.772  -0.008   1.718  0.00  0.00     0.023 A 
ATOM      5  C4  UNL d   1      -1.897  -0.963   1.200  0.00  0.00     0.048 A 
ATOM      6  C5  UNL d   1      -0.815  -1.398   1.968  0.00  0.00     0.003 A 
ATOM      7  I   UNL d   1      -4.383   0.643   0.576  0.00  0.00    -0.146 I 
ENDROOT
TORSDOF 0
ENDMDL
