MODEL 1
REMARK minimizedAffinity 10.7942801
REMARK minimizedRMSD -1
REMARK  0 active torsions:
REMARK  status: ('A' for Active; 'I' for Inactive)
ROOT
ATOM      1  C   UNL d   1      -1.667   0.398   3.654  0.00  0.00     0.023 A 
ATOM      2  C1  UNL d   1      -2.639   1.115   2.955  0.00  0.00     0.003 A 
ATOM      3  C2  UNL d   1      -3.451   2.030   3.627  0.00  0.00     0.048 A 
ATOM      4  C3  UNL d   1      -3.285   2.226   4.998  0.00  0.00     0.023 A 
ATOM      5  C4  UNL d   1      -2.313   1.512   5.701  0.00  0.00     0.048 A 
ATOM      6  C5  UNL d   1      -1.504   0.597   5.025  0.00  0.00     0.003 A 
ATOM      7  I   UNL d   1      -4.493   3.588   6.000  0.00  0.00    -0.146 I 
ENDROOT
TORSDOF 0
ENDMDL
