MODEL 1
REMARK minimizedAffinity 15.3016281
REMARK minimizedRMSD -1
REMARK  0 active torsions:
REMARK  status: ('A' for Active; 'I' for Inactive)
ROOT
ATOM      1  C   UNL d   1      -1.803   0.102   3.923  0.00  0.00     0.023 A 
ATOM      2  C1  UNL d   1      -2.610   0.916   3.128  0.00  0.00     0.003 A 
ATOM      3  C2  UNL d   1      -3.477   1.835   3.721  0.00  0.00     0.048 A 
ATOM      4  C3  UNL d   1      -3.532   1.936   5.111  0.00  0.00     0.023 A 
ATOM      5  C4  UNL d   1      -2.726   1.124   5.911  0.00  0.00     0.048 A 
ATOM      6  C5  UNL d   1      -1.861   0.206   5.313  0.00  0.00     0.003 A 
ATOM      7  I   UNL d   1      -4.822   3.303   5.997  0.00  0.00    -0.146 I 
ENDROOT
TORSDOF 0
ENDMDL
