MODEL 1
REMARK minimizedAffinity 6.2979455
REMARK minimizedRMSD -1
REMARK  0 active torsions:
REMARK  status: ('A' for Active; 'I' for Inactive)
ROOT
ATOM      1  C   UNL d   1      -1.830   1.116   4.235  0.00  0.00     0.023 A 
ATOM      2  C1  UNL d   1      -1.588   0.733   2.916  0.00  0.00     0.003 A 
ATOM      3  C2  UNL d   1      -0.618  -0.231   2.634  0.00  0.00     0.048 A 
ATOM      4  C3  UNL d   1       0.105  -0.810   3.677  0.00  0.00     0.023 A 
ATOM      5  C4  UNL d   1      -0.135  -0.430   4.999  0.00  0.00     0.048 A 
ATOM      6  C5  UNL d   1      -1.105   0.535   5.275  0.00  0.00     0.003 A 
ATOM      7  I   UNL d   1       1.548  -2.246   3.260  0.00  0.00    -0.146 I 
ENDROOT
TORSDOF 0
ENDMDL
