MODEL 1
REMARK minimizedAffinity 11.2869835
REMARK minimizedRMSD -1
REMARK  0 active torsions:
REMARK  status: ('A' for Active; 'I' for Inactive)
ROOT
ATOM      1  C   UNL d   1      -2.932  -0.718   1.835  0.00  0.00     0.023 A 
ATOM      2  C1  UNL d   1      -2.094  -0.078   2.748  0.00  0.00     0.003 A 
ATOM      3  C2  UNL d   1      -2.630   0.796   3.696  0.00  0.00     0.048 A 
ATOM      4  C3  UNL d   1      -4.005   1.024   3.727  0.00  0.00     0.023 A 
ATOM      5  C4  UNL d   1      -4.848   0.385   2.816  0.00  0.00     0.048 A 
ATOM      6  C5  UNL d   1      -4.307  -0.487   1.869  0.00  0.00     0.003 A 
ATOM      7  I   UNL d   1      -4.805   2.323   5.137  0.00  0.00    -0.146 I 
ENDROOT
TORSDOF 0
ENDMDL
