MODEL 1
REMARK minimizedAffinity 16.70331
REMARK minimizedRMSD -1
REMARK  0 active torsions:
REMARK  status: ('A' for Active; 'I' for Inactive)
ROOT
ATOM      1  C   UNL d   1       4.261  -4.814  -1.041  0.00  0.00     0.023 A 
ATOM      2  C1  UNL d   1       4.906  -3.681  -0.546  0.00  0.00     0.003 A 
ATOM      3  C2  UNL d   1       4.309  -2.920   0.460  0.00  0.00     0.048 A 
ATOM      4  C3  UNL d   1       3.066  -3.297   0.968  0.00  0.00     0.023 A 
ATOM      5  C4  UNL d   1       2.417  -4.431   0.476  0.00  0.00     0.048 A 
ATOM      6  C5  UNL d   1       3.018  -5.189  -0.531  0.00  0.00     0.003 A 
ATOM      7  I   UNL d   1       2.175  -2.165   2.466  0.00  0.00    -0.146 I 
ENDROOT
TORSDOF 0
ENDMDL
