MODEL 1
REMARK minimizedAffinity 9.95113564
REMARK minimizedRMSD -1
REMARK  0 active torsions:
REMARK  status: ('A' for Active; 'I' for Inactive)
ROOT
ATOM      1  C   UNL d   1      -4.293  -1.339  -1.836  0.00  0.00     0.023 A 
ATOM      2  C1  UNL d   1      -2.927  -1.510  -2.062  0.00  0.00     0.003 A 
ATOM      3  C2  UNL d   1      -2.050  -1.637  -0.982  0.00  0.00     0.048 A 
ATOM      4  C3  UNL d   1      -2.546  -1.593   0.320  0.00  0.00     0.023 A 
ATOM      5  C4  UNL d   1      -3.912  -1.423   0.551  0.00  0.00     0.048 A 
ATOM      6  C5  UNL d   1      -4.785  -1.296  -0.531  0.00  0.00     0.003 A 
ATOM      7  I   UNL d   1      -1.243  -1.783   1.928  0.00  0.00    -0.146 I 
ENDROOT
TORSDOF 0
ENDMDL
