MODEL 1
REMARK minimizedAffinity 5.65239906
REMARK minimizedRMSD -1
REMARK  0 active torsions:
REMARK  status: ('A' for Active; 'I' for Inactive)
ROOT
ATOM      1  C   UNL d   1      -2.786   0.040   2.415  0.00  0.00     0.023 A 
ATOM      2  C1  UNL d   1      -4.136   0.379   2.321  0.00  0.00     0.003 A 
ATOM      3  C2  UNL d   1      -4.750   1.097   3.350  0.00  0.00     0.048 A 
ATOM      4  C3  UNL d   1      -4.008   1.474   4.468  0.00  0.00     0.023 A 
ATOM      5  C4  UNL d   1      -2.657   1.138   4.566  0.00  0.00     0.048 A 
ATOM      6  C5  UNL d   1      -2.048   0.419   3.536  0.00  0.00     0.003 A 
ATOM      7  I   UNL d   1      -4.920   2.543   6.000  0.00  0.00    -0.146 I 
ENDROOT
TORSDOF 0
ENDMDL
