MODEL 1
REMARK minimizedAffinity 9.22973442
REMARK minimizedRMSD -1
REMARK  0 active torsions:
REMARK  status: ('A' for Active; 'I' for Inactive)
ROOT
ATOM      1  C   UNL d   1       1.166   4.260  -3.221  0.00  0.00     0.023 A 
ATOM      2  C1  UNL d   1       1.128   4.862  -1.963  0.00  0.00     0.003 A 
ATOM      3  C2  UNL d   1       1.542   4.151  -0.835  0.00  0.00     0.048 A 
ATOM      4  C3  UNL d   1       1.995   2.839  -0.972  0.00  0.00     0.023 A 
ATOM      5  C4  UNL d   1       2.035   2.233  -2.229  0.00  0.00     0.048 A 
ATOM      6  C5  UNL d   1       1.619   2.948  -3.354  0.00  0.00     0.003 A 
ATOM      7  I   UNL d   1       2.612   1.779   0.706  0.00  0.00    -0.146 I 
ENDROOT
TORSDOF 0
ENDMDL
