MODEL 1
REMARK minimizedAffinity 16.9551983
REMARK minimizedRMSD -1
REMARK  0 active torsions:
REMARK  status: ('A' for Active; 'I' for Inactive)
ROOT
ATOM      1  C   UNL d   1      -2.453   5.229  -5.936  0.00  0.00     0.023 A 
ATOM      2  C1  UNL d   1      -2.701   4.403  -4.840  0.00  0.00     0.003 A 
ATOM      3  C2  UNL d   1      -1.772   4.322  -3.800  0.00  0.00     0.048 A 
ATOM      4  C3  UNL d   1      -0.598   5.072  -3.863  0.00  0.00     0.023 A 
ATOM      5  C4  UNL d   1      -0.346   5.901  -4.957  0.00  0.00     0.048 A 
ATOM      6  C5  UNL d   1      -1.277   5.977  -5.995  0.00  0.00     0.003 A 
ATOM      7  I   UNL d   1       0.786   4.953  -2.317  0.00  0.00    -0.146 I 
ENDROOT
TORSDOF 0
ENDMDL
