MODEL 1
REMARK minimizedAffinity -0.460089564
REMARK minimizedRMSD -1
REMARK  0 active torsions:
REMARK  status: ('A' for Active; 'I' for Inactive)
ROOT
ATOM      1  C   UNL d   1      -3.317  -0.008   2.268  0.00  0.00     0.023 A 
ATOM      2  C1  UNL d   1      -4.700   0.150   2.169  0.00  0.00     0.003 A 
ATOM      3  C2  UNL d   1      -5.421   0.684   3.238  0.00  0.00     0.048 A 
ATOM      4  C3  UNL d   1      -4.754   1.060   4.403  0.00  0.00     0.023 A 
ATOM      5  C4  UNL d   1      -3.371   0.905   4.507  0.00  0.00     0.048 A 
ATOM      6  C5  UNL d   1      -2.654   0.370   3.435  0.00  0.00     0.003 A 
ATOM      7  I   UNL d   1      -5.827   1.855   5.996  0.00  0.00    -0.146 I 
ENDROOT
TORSDOF 0
ENDMDL
