MODEL 1
REMARK minimizedAffinity 8.76852417
REMARK minimizedRMSD -1
REMARK  0 active torsions:
REMARK  status: ('A' for Active; 'I' for Inactive)
ROOT
ATOM      1  C   UNL d   1       1.433   2.262  -1.342  0.00  0.00     0.023 A 
ATOM      2  C1  UNL d   1       0.586   1.541  -2.184  0.00  0.00     0.003 A 
ATOM      3  C2  UNL d   1      -0.213   2.212  -3.112  0.00  0.00     0.048 A 
ATOM      4  C3  UNL d   1      -0.159   3.603  -3.194  0.00  0.00     0.023 A 
ATOM      5  C4  UNL d   1       0.688   4.328  -2.354  0.00  0.00     0.048 A 
ATOM      6  C5  UNL d   1       1.485   3.653  -1.427  0.00  0.00     0.003 A 
ATOM      7  I   UNL d   1      -1.347   4.603  -4.575  0.00  0.00    -0.146 I 
ENDROOT
TORSDOF 0
ENDMDL
