MODEL 1
REMARK minimizedAffinity 9.48115921
REMARK minimizedRMSD -1
REMARK  0 active torsions:
REMARK  status: ('A' for Active; 'I' for Inactive)
ROOT
ATOM      1  C   UNL d   1       5.384   3.791   2.213  0.00  0.00     0.023 A 
ATOM      2  C1  UNL d   1       4.128   3.222   2.426  0.00  0.00     0.003 A 
ATOM      3  C2  UNL d   1       3.484   2.540   1.391  0.00  0.00     0.048 A 
ATOM      4  C3  UNL d   1       4.103   2.430   0.146  0.00  0.00     0.023 A 
ATOM      5  C4  UNL d   1       5.360   2.997  -0.071  0.00  0.00     0.048 A 
ATOM      6  C5  UNL d   1       5.999   3.678   0.966  0.00  0.00     0.003 A 
ATOM      7  I   UNL d   1       3.147   1.415  -1.396  0.00  0.00    -0.146 I 
ENDROOT
TORSDOF 0
ENDMDL
