MODEL 1
REMARK minimizedAffinity 11.3530865
REMARK minimizedRMSD -1
REMARK  0 active torsions:
REMARK  status: ('A' for Active; 'I' for Inactive)
ROOT
ATOM      1  C   UNL d   1       6.000   4.127   0.867  0.00  0.00     0.023 A 
ATOM      2  C1  UNL d   1       5.052   4.025   1.885  0.00  0.00     0.003 A 
ATOM      3  C2  UNL d   1       4.101   3.003   1.856  0.00  0.00     0.048 A 
ATOM      4  C3  UNL d   1       4.104   2.086   0.806  0.00  0.00     0.023 A 
ATOM      5  C4  UNL d   1       5.052   2.183  -0.215  0.00  0.00     0.048 A 
ATOM      6  C5  UNL d   1       6.000   3.207  -0.181  0.00  0.00     0.003 A 
ATOM      7  I   UNL d   1       2.690   0.564   0.760  0.00  0.00    -0.146 I 
ENDROOT
TORSDOF 0
ENDMDL
