MODEL 1
REMARK minimizedAffinity 11.4456711
REMARK minimizedRMSD -1
REMARK  0 active torsions:
REMARK  status: ('A' for Active; 'I' for Inactive)
ROOT
ATOM      1  C   UNL d   1      -3.048   4.656  -5.862  0.00  0.00     0.023 A 
ATOM      2  C1  UNL d   1      -1.780   4.089  -5.998  0.00  0.00     0.003 A 
ATOM      3  C2  UNL d   1      -0.746   4.474  -5.142  0.00  0.00     0.048 A 
ATOM      4  C3  UNL d   1      -0.987   5.426  -4.152  0.00  0.00     0.023 A 
ATOM      5  C4  UNL d   1      -2.254   5.995  -4.011  0.00  0.00     0.048 A 
ATOM      6  C5  UNL d   1      -3.284   5.607  -4.870  0.00  0.00     0.003 A 
ATOM      7  I   UNL d   1       0.550   6.000  -2.876  0.00  0.00    -0.146 I 
ENDROOT
TORSDOF 0
ENDMDL
