MODEL 1
REMARK minimizedAffinity -4.52447891
REMARK minimizedRMSD -1
REMARK  0 active torsions:
REMARK  status: ('A' for Active; 'I' for Inactive)
ROOT
ATOM      1  C1  DEN d   1      -0.302  -0.098   0.956  0.00  0.00     0.130 A 
ATOM      2  C2  DEN d   1       0.532  -0.581  -0.142  0.00  0.00    -0.031 A 
ATOM      3  C3  DEN d   1       0.718   0.530  -1.097  0.00  0.00     0.027 A 
ATOM      4  C4  DEN d   1      -0.195   2.940  -0.980  0.00  0.00     0.027 A 
ATOM      5  C5  DEN d   1      -0.962   3.815  -0.244  0.00  0.00    -0.003 A 
ATOM      6  C6  DEN d   1      -1.586   3.441   0.917  0.00  0.00     0.001 A 
ATOM      7  C7  DEN d   1      -1.416   2.170   1.400  0.00  0.00     0.017 A 
ATOM      8  C8  DEN d   1      -0.650   1.280   0.659  0.00  0.00    -0.094 A 
ATOM      9  C9  DEN d   1      -0.018   1.681  -0.506  0.00  0.00    -0.072 A 
ENDROOT
TORSDOF 0
ENDMDL
