MODEL 1
REMARK minimizedAffinity -4.8858552
REMARK minimizedRMSD -1
REMARK  0 active torsions:
REMARK  status: ('A' for Active; 'I' for Inactive)
ROOT
ATOM      1  C1  DEN d   1       0.854   0.088  -1.433  0.00  0.00     0.130 A 
ATOM      2  C2  DEN d   1       0.674  -1.159  -0.696  0.00  0.00    -0.031 A 
ATOM      3  C3  DEN d   1      -0.113  -0.862   0.518  0.00  0.00     0.027 A 
ATOM      4  C4  DEN d   1      -1.069   1.395   1.320  0.00  0.00     0.027 A 
ATOM      5  C5  DEN d   1      -1.165   2.739   1.033  0.00  0.00    -0.003 A 
ATOM      6  C6  DEN d   1      -0.571   3.294  -0.069  0.00  0.00     0.001 A 
ATOM      7  C7  DEN d   1       0.108   2.495  -0.949  0.00  0.00     0.017 A 
ATOM      8  C8  DEN d   1       0.216   1.140  -0.663  0.00  0.00    -0.094 A 
ATOM      9  C9  DEN d   1      -0.402   0.595   0.450  0.00  0.00    -0.072 A 
ENDROOT
TORSDOF 0
ENDMDL
