MODEL 1
REMARK minimizedAffinity -6.38889933
REMARK minimizedRMSD -1
REMARK  0 active torsions:
REMARK  status: ('A' for Active; 'I' for Inactive)
ROOT
ATOM      1  C1  DEN d   1       0.533   0.070  -0.605  0.00  0.00     0.130 A 
ATOM      2  C2  DEN d   1       0.572  -1.108   0.258  0.00  0.00    -0.031 A 
ATOM      3  C3  DEN d   1      -0.275  -0.838   1.437  0.00  0.00     0.027 A 
ATOM      4  C4  DEN d   1      -1.640   1.275   2.006  0.00  0.00     0.027 A 
ATOM      5  C5  DEN d   1      -1.975   2.542   1.582  0.00  0.00    -0.003 A 
ATOM      6  C6  DEN d   1      -1.475   3.083   0.427  0.00  0.00     0.001 A 
ATOM      7  C7  DEN d   1      -0.647   2.336  -0.369  0.00  0.00     0.017 A 
ATOM      8  C8  DEN d   1      -0.299   1.060   0.055  0.00  0.00    -0.094 A 
ATOM      9  C9  DEN d   1      -0.824   0.527   1.220  0.00  0.00    -0.072 A 
ENDROOT
TORSDOF 0
ENDMDL
