MODEL 1
REMARK minimizedAffinity -2.54335904
REMARK minimizedRMSD -1
REMARK  0 active torsions:
REMARK  status: ('A' for Active; 'I' for Inactive)
ROOT
ATOM      1  C1  DEN d   1       0.311   2.832  -0.890  0.00  0.00     0.130 A 
ATOM      2  C2  DEN d   1      -0.109   4.146  -0.413  0.00  0.00    -0.031 A 
ATOM      3  C3  DEN d   1      -0.834   3.960   0.860  0.00  0.00     0.027 A 
ATOM      4  C4  DEN d   1      -1.339   1.775   2.135  0.00  0.00     0.027 A 
ATOM      5  C5  DEN d   1      -1.193   0.405   2.116  0.00  0.00    -0.003 A 
ATOM      6  C6  DEN d   1      -0.571  -0.249   1.086  0.00  0.00     0.001 A 
ATOM      7  C7  DEN d   1      -0.031   0.470   0.053  0.00  0.00     0.017 A 
ATOM      8  C8  DEN d   1      -0.180   1.851   0.061  0.00  0.00    -0.094 A 
ATOM      9  C9  DEN d   1      -0.802   2.495   1.117  0.00  0.00    -0.072 A 
ENDROOT
TORSDOF 0
ENDMDL
