MODEL 1
REMARK minimizedAffinity -1.16331077
REMARK minimizedRMSD -1
REMARK  0 active torsions:
REMARK  status: ('A' for Active; 'I' for Inactive)
ROOT
ATOM      1  C1  DEN d   1       0.967  -0.086  -0.613  0.00  0.00     0.130 A 
ATOM      2  C2  DEN d   1      -0.044  -0.034   0.440  0.00  0.00    -0.031 A 
ATOM      3  C3  DEN d   1      -0.795  -1.305   0.414  0.00  0.00     0.027 A 
ATOM      4  C4  DEN d   1      -0.491  -3.338  -1.143  0.00  0.00     0.027 A 
ATOM      5  C5  DEN d   1       0.231  -3.843  -2.202  0.00  0.00    -0.003 A 
ATOM      6  C6  DEN d   1       1.218  -3.124  -2.822  0.00  0.00     0.001 A 
ATOM      7  C7  DEN d   1       1.541  -1.876  -2.359  0.00  0.00     0.017 A 
ATOM      8  C8  DEN d   1       0.812  -1.357  -1.297  0.00  0.00    -0.094 A 
ATOM      9  C9  DEN d   1      -0.174  -2.105  -0.676  0.00  0.00    -0.072 A 
ENDROOT
TORSDOF 0
ENDMDL
