MODEL 1
REMARK minimizedAffinity 2.05515122
REMARK minimizedRMSD -1
REMARK  0 active torsions:
REMARK  status: ('A' for Active; 'I' for Inactive)
ROOT
ATOM      1  C1  DEN d   1       0.481   0.185  -0.188  0.00  0.00     0.130 A 
ATOM      2  C2  DEN d   1      -0.048  -0.203   1.117  0.00  0.00    -0.031 A 
ATOM      3  C3  DEN d   1      -0.241  -1.667   1.114  0.00  0.00     0.027 A 
ATOM      4  C4  DEN d   1       0.229  -3.362  -0.773  0.00  0.00     0.027 A 
ATOM      5  C5  DEN d   1       0.672  -3.504  -2.069  0.00  0.00    -0.003 A 
ATOM      6  C6  DEN d   1       1.047  -2.432  -2.834  0.00  0.00     0.001 A 
ATOM      7  C7  DEN d   1       1.029  -1.173  -2.294  0.00  0.00     0.017 A 
ATOM      8  C8  DEN d   1       0.576  -1.021  -0.990  0.00  0.00    -0.094 A 
ATOM      9  C9  DEN d   1       0.213  -2.119  -0.229  0.00  0.00    -0.072 A 
ENDROOT
TORSDOF 0
ENDMDL
