MODEL 1
REMARK minimizedAffinity -2.5846734
REMARK minimizedRMSD -1
REMARK  0 active torsions:
REMARK  status: ('A' for Active; 'I' for Inactive)
ROOT
ATOM      1  C1  DEN d   1       1.131  -0.406  -0.749  0.00  0.00     0.130 A 
ATOM      2  C2  DEN d   1       0.841  -1.380   0.299  0.00  0.00    -0.031 A 
ATOM      3  C3  DEN d   1       0.332  -0.647   1.476  0.00  0.00     0.027 A 
ATOM      4  C4  DEN d   1      -0.038   1.888   1.773  0.00  0.00     0.027 A 
ATOM      5  C5  DEN d   1       0.076   3.118   1.163  0.00  0.00    -0.003 A 
ATOM      6  C6  DEN d   1       0.577   3.262  -0.103  0.00  0.00     0.001 A 
ATOM      7  C7  DEN d   1       0.941   2.152  -0.819  0.00  0.00     0.017 A 
ATOM      8  C8  DEN d   1       0.837   0.909  -0.209  0.00  0.00    -0.094 A 
ATOM      9  C9  DEN d   1       0.316   0.784   1.068  0.00  0.00    -0.072 A 
ENDROOT
TORSDOF 0
ENDMDL
