MODEL 1
REMARK minimizedAffinity -6.28325367
REMARK minimizedRMSD -1
REMARK  0 active torsions:
REMARK  status: ('A' for Active; 'I' for Inactive)
ROOT
ATOM      1  C1  DEN d   1      -0.179   0.332   0.638  0.00  0.00     0.130 A 
ATOM      2  C2  DEN d   1      -1.218   0.087   1.635  0.00  0.00    -0.031 A 
ATOM      3  C3  DEN d   1      -2.103   1.268   1.671  0.00  0.00     0.027 A 
ATOM      4  C4  DEN d   1      -1.971   3.438   0.283  0.00  0.00     0.027 A 
ATOM      5  C5  DEN d   1      -1.256   4.111  -0.683  0.00  0.00    -0.003 A 
ATOM      6  C6  DEN d   1      -0.122   3.590  -1.248  0.00  0.00     0.001 A 
ATOM      7  C7  DEN d   1       0.305   2.341  -0.883  0.00  0.00     0.017 A 
ATOM      8  C8  DEN d   1      -0.406   1.659   0.096  0.00  0.00    -0.094 A 
ATOM      9  C9  DEN d   1      -1.557   2.198   0.646  0.00  0.00    -0.072 A 
ENDROOT
TORSDOF 0
ENDMDL
