MODEL 1
REMARK minimizedAffinity -3.89113593
REMARK minimizedRMSD -1
REMARK  0 active torsions:
REMARK  status: ('A' for Active; 'I' for Inactive)
ROOT
ATOM      1  C1  DEN d   1      -1.491   2.233   1.818  0.00  0.00     0.130 A 
ATOM      2  C2  DEN d   1      -1.889   0.957   2.407  0.00  0.00    -0.031 A 
ATOM      3  C3  DEN d   1      -1.210  -0.122   1.662  0.00  0.00     0.027 A 
ATOM      4  C4  DEN d   1       0.414   0.058  -0.334  0.00  0.00     0.027 A 
ATOM      5  C5  DEN d   1       1.044   0.931  -1.193  0.00  0.00    -0.003 A 
ATOM      6  C6  DEN d   1       0.849   2.285  -1.132  0.00  0.00     0.001 A 
ATOM      7  C7  DEN d   1       0.037   2.810  -0.161  0.00  0.00     0.017 A 
ATOM      8  C8  DEN d   1      -0.608   1.936   0.704  0.00  0.00    -0.094 A 
ATOM      9  C9  DEN d   1      -0.388   0.571   0.633  0.00  0.00    -0.072 A 
ENDROOT
TORSDOF 0
ENDMDL
