MODEL 1
REMARK minimizedAffinity -7.12104225
REMARK minimizedRMSD -1
REMARK  0 active torsions:
REMARK  status: ('A' for Active; 'I' for Inactive)
ROOT
ATOM      1  C1  DEN d   1       0.873   0.545  -0.421  0.00  0.00     0.130 A 
ATOM      2  C2  DEN d   1       0.579  -0.661   0.349  0.00  0.00    -0.031 A 
ATOM      3  C3  DEN d   1      -0.554  -0.363   1.248  0.00  0.00     0.027 A 
ATOM      4  C4  DEN d   1      -1.878   1.834   1.517  0.00  0.00     0.027 A 
ATOM      5  C5  DEN d   1      -1.989   3.137   1.087  0.00  0.00    -0.003 A 
ATOM      6  C6  DEN d   1      -1.139   3.674   0.156  0.00  0.00     0.001 A 
ATOM      7  C7  DEN d   1      -0.168   2.890  -0.408  0.00  0.00     0.017 A 
ATOM      8  C8  DEN d   1      -0.046   1.576   0.026  0.00  0.00    -0.094 A 
ATOM      9  C9  DEN d   1      -0.922   1.049   0.959  0.00  0.00    -0.072 A 
ENDROOT
TORSDOF 0
ENDMDL
