MODEL 1
REMARK minimizedAffinity -6.85436964
REMARK minimizedRMSD -1
REMARK  0 active torsions:
REMARK  status: ('A' for Active; 'I' for Inactive)
ROOT
ATOM      1  C1  DEN d   1       1.126   2.100  -1.015  0.00  0.00     0.130 A 
ATOM      2  C2  DEN d   1       1.464   0.697  -0.795  0.00  0.00    -0.031 A 
ATOM      3  C3  DEN d   1       0.395   0.093   0.026  0.00  0.00     0.027 A 
ATOM      4  C4  DEN d   1      -1.742   1.190   0.969  0.00  0.00     0.027 A 
ATOM      5  C5  DEN d   1      -2.456   2.364   1.055  0.00  0.00    -0.003 A 
ATOM      6  C6  DEN d   1      -2.013   3.531   0.492  0.00  0.00     0.001 A 
ATOM      7  C7  DEN d   1      -0.845   3.539  -0.223  0.00  0.00     0.017 A 
ATOM      8  C8  DEN d   1      -0.115   2.361  -0.309  0.00  0.00    -0.094 A 
ATOM      9  C9  DEN d   1      -0.586   1.188   0.257  0.00  0.00    -0.072 A 
ENDROOT
TORSDOF 0
ENDMDL
