MODEL 1
REMARK minimizedAffinity 3.23060656
REMARK minimizedRMSD -1
REMARK  3 active torsions:
REMARK  status: ('A' for Active; 'I' for Inactive)
REMARK    1  A    between atoms: C3'_2  and  C2'_3 
REMARK    2  A    between atoms: C2'_3  and  C1'_4 
REMARK    3  A    between atoms: C1'_4  and  C1_5 
ROOT
ATOM      1  C1  N4B d   1      -0.854   1.751   1.715  0.00  0.00    -0.075 A 
ATOM      2  C2  N4B d   1      -0.975   2.117   0.357  0.00  0.00     0.002 A 
ATOM      3  C3  N4B d   1       0.119   2.049  -0.472  0.00  0.00     0.002 A 
ATOM      4  C4  N4B d   1       1.341   1.638   0.038  0.00  0.00    -0.004 A 
ATOM      5  C5  N4B d   1       1.443   1.263   1.346  0.00  0.00     0.002 A 
ATOM      6  C6  N4B d   1       0.352   1.322   2.189  0.00  0.00     0.002 A 
ENDROOT
BRANCH   1   7
ATOM      7  C1' N4B d   1      -2.001   1.891   2.680  0.00  0.00     0.057 C 
BRANCH   7   8
ATOM      8  C2' N4B d   1      -3.240   2.356   1.921  0.00  0.00     0.009 C 
BRANCH   8   9
ATOM      9  C3' N4B d   1      -4.179   1.204   1.605  0.00  0.00     0.004 C 
ATOM     10  C4' N4B d   1      -4.120   0.783   0.167  0.00  0.00     0.003 C 
ENDBRANCH   8   9
ENDBRANCH   7   8
ENDBRANCH   1   7
TORSDOF 3
ENDMDL
