MODEL 1
REMARK minimizedAffinity 1.59032643
REMARK minimizedRMSD -1
REMARK  3 active torsions:
REMARK  status: ('A' for Active; 'I' for Inactive)
REMARK    1  A    between atoms: C3'_2  and  C2'_3 
REMARK    2  A    between atoms: C2'_3  and  C1'_4 
REMARK    3  A    between atoms: C1'_4  and  C1_5 
ROOT
ATOM      1  C1  N4B d   1       0.293   0.210  -0.052  0.00  0.00    -0.075 A 
ATOM      2  C2  N4B d   1       0.754  -1.123  -0.116  0.00  0.00     0.002 A 
ATOM      3  C3  N4B d   1       0.238  -1.983  -1.055  0.00  0.00     0.002 A 
ATOM      4  C4  N4B d   1      -0.748  -1.540  -1.922  0.00  0.00    -0.004 A 
ATOM      5  C5  N4B d   1      -1.170  -0.243  -1.870  0.00  0.00     0.002 A 
ATOM      6  C6  N4B d   1      -0.658   0.633  -0.935  0.00  0.00     0.002 A 
ENDROOT
BRANCH   1   7
ATOM      7  C1' N4B d   1       0.765   1.163   1.012  0.00  0.00     0.057 C 
BRANCH   7   8
ATOM      8  C2' N4B d   1       1.491   0.378   2.101  0.00  0.00     0.009 C 
BRANCH   8   9
ATOM      9  C3' N4B d   1       1.681   1.201   3.364  0.00  0.00     0.004 C 
ATOM     10  C4' N4B d   1       2.965   1.976   3.364  0.00  0.00     0.003 C 
ENDBRANCH   8   9
ENDBRANCH   7   8
ENDBRANCH   1   7
TORSDOF 3
ENDMDL
