MODEL 1
REMARK minimizedAffinity 0.00999109261
REMARK minimizedRMSD -1
REMARK  3 active torsions:
REMARK  status: ('A' for Active; 'I' for Inactive)
REMARK    1  A    between atoms: C3'_2  and  C2'_3 
REMARK    2  A    between atoms: C2'_3  and  C1'_4 
REMARK    3  A    between atoms: C1'_4  and  C1_5 
ROOT
ATOM      1  C1  N4B d   1       1.360  -2.375  -1.641  0.00  0.00    -0.075 A 
ATOM      2  C2  N4B d   1       1.242  -1.568  -0.488  0.00  0.00     0.002 A 
ATOM      3  C3  N4B d   1       0.003  -1.151  -0.067  0.00  0.00     0.002 A 
ATOM      4  C4  N4B d   1      -1.125  -1.510  -0.790  0.00  0.00    -0.004 A 
ATOM      5  C5  N4B d   1      -1.004  -2.311  -1.888  0.00  0.00     0.002 A 
ATOM      6  C6  N4B d   1       0.234  -2.741  -2.321  0.00  0.00     0.002 A 
ENDROOT
BRANCH   1   7
ATOM      7  C1' N4B d   1       2.700  -2.784  -2.190  0.00  0.00     0.057 C 
BRANCH   7   8
ATOM      8  C2' N4B d   1       3.795  -1.994  -1.479  0.00  0.00     0.009 C 
BRANCH   8   9
ATOM      9  C3' N4B d   1       4.800  -1.410  -2.457  0.00  0.00     0.004 C 
ATOM     10  C4' N4B d   1       5.412  -0.132  -1.966  0.00  0.00     0.003 C 
ENDBRANCH   8   9
ENDBRANCH   7   8
ENDBRANCH   1   7
TORSDOF 3
ENDMDL
