MODEL 1
REMARK minimizedAffinity 5.12537956
REMARK minimizedRMSD -1
REMARK  1 active torsions:
REMARK  status: ('A' for Active; 'I' for Inactive)
REMARK    1  A    between atoms: N_2  and  C1_3 
ROOT
ATOM      1  C1  UNL d   1      -4.849  -1.187   0.717  0.00  0.00     0.143 A 
ATOM      2  C2  UNL d   1      -4.350   0.120   0.739  0.00  0.00    -0.057 A 
ATOM      3  C3  UNL d   1      -3.255   0.465   1.539  0.00  0.00     0.033 A 
ATOM      4  C4  UNL d   1      -2.655  -0.487   2.357  0.00  0.00    -0.042 A 
ATOM      5  C5  UNL d   1      -3.151  -1.786   2.370  0.00  0.00     0.033 A 
ATOM      6  C6  UNL d   1      -4.240  -2.127   1.563  0.00  0.00    -0.057 A 
ENDROOT
BRANCH   1   7
ATOM      7  N   UNL d   1      -5.996  -1.570   0.017  0.00  0.00    -0.732 N 
ATOM      8  C   UNL d   1      -5.996  -1.616  -1.429  0.00  0.00     0.284 C 
ATOM      9  H3  UNL d   1      -6.478  -2.350   0.458  0.00  0.00     0.395 HD
ENDBRANCH   1   7
TORSDOF 1
ENDMDL
