MODEL 1
REMARK minimizedAffinity 6.95256472
REMARK minimizedRMSD -1
REMARK  1 active torsions:
REMARK  status: ('A' for Active; 'I' for Inactive)
REMARK    1  A    between atoms: N_2  and  C1_3 
ROOT
ATOM      1  C1  UNL d   1      -3.502  -2.212   0.937  0.00  0.00     0.143 A 
ATOM      2  C2  UNL d   1      -4.488  -2.342  -0.047  0.00  0.00    -0.057 A 
ATOM      3  C3  UNL d   1      -5.414  -1.318  -0.286  0.00  0.00     0.033 A 
ATOM      4  C4  UNL d   1      -5.386  -0.155   0.476  0.00  0.00    -0.042 A 
ATOM      5  C5  UNL d   1      -4.430  -0.015   1.475  0.00  0.00     0.033 A 
ATOM      6  C6  UNL d   1      -3.505  -1.037   1.705  0.00  0.00    -0.057 A 
ENDROOT
BRANCH   1   7
ATOM      7  N   UNL d   1      -2.616  -3.233   1.289  0.00  0.00    -0.732 N 
ATOM      8  C   UNL d   1      -2.144  -4.175   0.297  0.00  0.00     0.284 C 
ATOM      9  H3  UNL d   1      -1.898  -2.918   1.937  0.00  0.00     0.395 HD
ENDBRANCH   1   7
TORSDOF 1
ENDMDL
