MODEL 1
REMARK minimizedAffinity 4.54758024
REMARK minimizedRMSD -1
REMARK  1 active torsions:
REMARK  status: ('A' for Active; 'I' for Inactive)
REMARK    1  A    between atoms: N_2  and  C1_3 
ROOT
ATOM      1  C1  UNL d   1      -2.306  -0.635   2.744  0.00  0.00     0.143 A 
ATOM      2  C2  UNL d   1      -1.518   0.458   2.368  0.00  0.00    -0.057 A 
ATOM      3  C3  UNL d   1      -0.636   1.063   3.271  0.00  0.00     0.033 A 
ATOM      4  C4  UNL d   1      -0.548   0.602   4.581  0.00  0.00    -0.042 A 
ATOM      5  C5  UNL d   1      -1.340  -0.466   4.985  0.00  0.00     0.033 A 
ATOM      6  C6  UNL d   1      -2.214  -1.071   4.076  0.00  0.00    -0.057 A 
ENDROOT
BRANCH   1   7
ATOM      7  N   UNL d   1      -3.273  -1.217   1.921  0.00  0.00    -0.732 N 
ATOM      8  C   UNL d   1      -4.278  -0.401   1.274  0.00  0.00     0.284 C 
ATOM      9  H3  UNL d   1      -2.890  -1.951   1.330  0.00  0.00     0.395 HD
ENDBRANCH   1   7
TORSDOF 1
ENDMDL
