MODEL 1
REMARK minimizedAffinity 3.40553069
REMARK minimizedRMSD -1
REMARK  1 active torsions:
REMARK  status: ('A' for Active; 'I' for Inactive)
REMARK    1  A    between atoms: N_2  and  C1_3 
ROOT
ATOM      1  C1  UNL d   1      -1.322  -3.737  -0.438  0.00  0.00     0.143 A 
ATOM      2  C2  UNL d   1      -1.602  -2.768   0.531  0.00  0.00    -0.057 A 
ATOM      3  C3  UNL d   1      -1.786  -1.424   0.182  0.00  0.00     0.033 A 
ATOM      4  C4  UNL d   1      -1.663  -1.021  -1.143  0.00  0.00    -0.042 A 
ATOM      5  C5  UNL d   1      -1.360  -1.963  -2.120  0.00  0.00     0.033 A 
ATOM      6  C6  UNL d   1      -1.185  -3.304  -1.766  0.00  0.00    -0.057 A 
ENDROOT
BRANCH   1   7
ATOM      7  N   UNL d   1      -1.032  -5.072  -0.143  0.00  0.00    -0.732 N 
ATOM      8  C   UNL d   1      -0.678  -6.000  -1.195  0.00  0.00     0.284 C 
ATOM      9  H3  UNL d   1      -0.475  -5.170   0.703  0.00  0.00     0.395 HD
ENDBRANCH   1   7
TORSDOF 1
ENDMDL
