MODEL 1
REMARK minimizedAffinity 1.80471551
REMARK minimizedRMSD -1
REMARK  1 active torsions:
REMARK  status: ('A' for Active; 'I' for Inactive)
REMARK    1  A    between atoms: N_2  and  C1_3 
ROOT
ATOM      1  C1  UNL d   1      -2.421  -0.461   2.090  0.00  0.00     0.143 A 
ATOM      2  C2  UNL d   1      -3.694   0.030   1.780  0.00  0.00    -0.057 A 
ATOM      3  C3  UNL d   1      -4.320  -0.288   0.569  0.00  0.00     0.033 A 
ATOM      4  C4  UNL d   1      -3.669  -1.082  -0.370  0.00  0.00    -0.042 A 
ATOM      5  C5  UNL d   1      -2.393  -1.560  -0.094  0.00  0.00     0.033 A 
ATOM      6  C6  UNL d   1      -1.776  -1.245   1.120  0.00  0.00    -0.057 A 
ENDROOT
BRANCH   1   7
ATOM      7  N   UNL d   1      -1.705  -0.101   3.234  0.00  0.00    -0.732 N 
ATOM      8  C   UNL d   1      -1.017   1.170   3.303  0.00  0.00     0.284 C 
ATOM      9  H3  UNL d   1      -2.188  -0.360   4.091  0.00  0.00     0.395 HD
ENDBRANCH   1   7
TORSDOF 1
ENDMDL
