MODEL 1
REMARK minimizedAffinity 2.04378557
REMARK minimizedRMSD -1
REMARK  1 active torsions:
REMARK  status: ('A' for Active; 'I' for Inactive)
REMARK    1  A    between atoms: N_2  and  C1_3 
ROOT
ATOM      1  C1  UNL d   1      -1.251  -5.924   3.394  0.00  0.00     0.143 A 
ATOM      2  C2  UNL d   1      -2.075  -5.972   4.523  0.00  0.00    -0.057 A 
ATOM      3  C3  UNL d   1      -1.536  -5.995   5.815  0.00  0.00     0.033 A 
ATOM      4  C4  UNL d   1      -0.157  -6.000   6.000  0.00  0.00    -0.042 A 
ATOM      5  C5  UNL d   1       0.681  -5.978   4.891  0.00  0.00     0.033 A 
ATOM      6  C6  UNL d   1       0.137  -5.949   3.604  0.00  0.00    -0.057 A 
ENDROOT
BRANCH   1   7
ATOM      7  N   UNL d   1      -1.725  -5.999   2.082  0.00  0.00    -0.732 N 
ATOM      8  C   UNL d   1      -0.816  -5.878   0.962  0.00  0.00     0.284 C 
ATOM      9  H3  UNL d   1      -2.434  -6.719   1.965  0.00  0.00     0.395 HD
ENDBRANCH   1   7
TORSDOF 1
ENDMDL
