MODEL 1
REMARK minimizedAffinity 4.26969719
REMARK minimizedRMSD -1
REMARK  1 active torsions:
REMARK  status: ('A' for Active; 'I' for Inactive)
REMARK    1  A    between atoms: N_2  and  C1_3 
ROOT
ATOM      1  C1  UNL d   1      -0.036  -3.194   5.920  0.00  0.00     0.143 A 
ATOM      2  C2  UNL d   1       0.749  -4.350   5.972  0.00  0.00    -0.057 A 
ATOM      3  C3  UNL d   1       0.167  -5.623   5.997  0.00  0.00     0.033 A 
ATOM      4  C4  UNL d   1      -1.217  -5.761   6.000  0.00  0.00    -0.042 A 
ATOM      5  C5  UNL d   1      -2.018  -4.625   5.974  0.00  0.00     0.033 A 
ATOM      6  C6  UNL d   1      -1.430  -3.357   5.942  0.00  0.00    -0.057 A 
ENDROOT
BRANCH   1   7
ATOM      7  N   UNL d   1       0.481  -1.898   5.992  0.00  0.00    -0.732 N 
ATOM      8  C   UNL d   1       1.211  -1.332   4.878  0.00  0.00     0.284 C 
ATOM      9  H3  UNL d   1      -0.160  -1.248   6.442  0.00  0.00     0.395 HD
ENDBRANCH   1   7
TORSDOF 1
ENDMDL
