MODEL 1
REMARK minimizedAffinity 7.8023119
REMARK minimizedRMSD -1
REMARK  1 active torsions:
REMARK  status: ('A' for Active; 'I' for Inactive)
REMARK    1  A    between atoms: N_2  and  C1_3 
ROOT
ATOM      1  C1  UNL d   1       1.972   0.349  -0.015  0.00  0.00     0.143 A 
ATOM      2  C2  UNL d   1       0.576   0.424  -0.047  0.00  0.00    -0.057 A 
ATOM      3  C3  UNL d   1      -0.205  -0.697  -0.351  0.00  0.00     0.033 A 
ATOM      4  C4  UNL d   1       0.400  -1.912  -0.657  0.00  0.00    -0.042 A 
ATOM      5  C5  UNL d   1       1.787  -2.004  -0.656  0.00  0.00     0.033 A 
ATOM      6  C6  UNL d   1       2.562  -0.882  -0.345  0.00  0.00    -0.057 A 
ENDROOT
BRANCH   1   7
ATOM      7  N   UNL d   1       2.806   1.452   0.184  0.00  0.00    -0.732 N 
ATOM      8  C   UNL d   1       4.122   1.499  -0.418  0.00  0.00     0.284 C 
ATOM      9  H3  UNL d   1       2.300   2.333   0.146  0.00  0.00     0.395 HD
ENDBRANCH   1   7
TORSDOF 1
ENDMDL
