MODEL 1
REMARK minimizedAffinity -0.891653121
REMARK minimizedRMSD -1
REMARK  0 active torsions:
REMARK  status: ('A' for Active; 'I' for Inactive)
ROOT
ATOM      1  C2' OXE d   1       3.011   1.433  -5.616  0.00  0.00     0.078 C 
ATOM      2  C1' OXE d   1       1.460   3.773  -5.593  0.00  0.00     0.078 C 
ATOM      3  C1  OXE d   1       2.953   3.920  -5.754  0.00  0.00    -0.078 A 
ATOM      4  C2  OXE d   1       3.708   2.773  -5.718  0.00  0.00    -0.078 A 
ATOM      5  C3  OXE d   1       5.084   2.847  -5.917  0.00  0.00     0.003 A 
ATOM      6  C4  OXE d   1       5.722   4.090  -6.000  0.00  0.00    -0.002 A 
ATOM      7  C5  OXE d   1       4.975   5.273  -5.999  0.00  0.00    -0.002 A 
ATOM      8  C6  OXE d   1       3.589   5.203  -5.920  0.00  0.00     0.003 A 
ENDROOT
TORSDOF 0
ENDMDL
