MODEL 1
REMARK minimizedAffinity -2.75793147
REMARK minimizedRMSD -1
REMARK  0 active torsions:
REMARK  status: ('A' for Active; 'I' for Inactive)
ROOT
ATOM      1  C2' OXE d   1       1.877   3.599  -4.893  0.00  0.00     0.078 C 
ATOM      2  C1' OXE d   1       3.713   1.476  -4.880  0.00  0.00     0.078 C 
ATOM      3  C1  OXE d   1       4.222   2.843  -5.262  0.00  0.00    -0.078 A 
ATOM      4  C2  OXE d   1       3.307   3.867  -5.311  0.00  0.00    -0.078 A 
ATOM      5  C3  OXE d   1       3.733   5.160  -5.605  0.00  0.00     0.003 A 
ATOM      6  C4  OXE d   1       5.055   5.397  -6.000  0.00  0.00    -0.002 A 
ATOM      7  C5  OXE d   1       5.995   4.360  -5.995  0.00  0.00    -0.002 A 
ATOM      8  C6  OXE d   1       5.605   3.089  -5.589  0.00  0.00     0.003 A 
ENDROOT
TORSDOF 0
ENDMDL
