MODEL 1
REMARK minimizedAffinity 1.63898957
REMARK minimizedRMSD -1
REMARK  0 active torsions:
REMARK  status: ('A' for Active; 'I' for Inactive)
ROOT
ATOM      1  C2' OXE d   1       2.741   2.744   0.157  0.00  0.00     0.078 C 
ATOM      2  C1' OXE d   1       2.430  -0.039   0.347  0.00  0.00     0.078 C 
ATOM      3  C1  OXE d   1       3.688   0.569   0.915  0.00  0.00    -0.078 A 
ATOM      4  C2  OXE d   1       3.853   1.926   0.776  0.00  0.00    -0.078 A 
ATOM      5  C3  OXE d   1       4.970   2.545   1.331  0.00  0.00     0.003 A 
ATOM      6  C4  OXE d   1       5.999   1.779   1.893  0.00  0.00    -0.002 A 
ATOM      7  C5  OXE d   1       5.869   0.391   2.008  0.00  0.00    -0.002 A 
ATOM      8  C6  OXE d   1       4.703  -0.224   1.564  0.00  0.00     0.003 A 
ENDROOT
TORSDOF 0
ENDMDL
