MODEL 1
REMARK minimizedAffinity 0.305830568
REMARK minimizedRMSD -1
REMARK  0 active torsions:
REMARK  status: ('A' for Active; 'I' for Inactive)
ROOT
ATOM      1  C2' OXE d   1       1.757   3.956  -5.282  0.00  0.00     0.078 C 
ATOM      2  C1' OXE d   1       3.374   1.687  -5.627  0.00  0.00     0.078 C 
ATOM      3  C1  OXE d   1       4.038   3.040  -5.688  0.00  0.00    -0.078 A 
ATOM      4  C2  OXE d   1       3.232   4.146  -5.565  0.00  0.00    -0.078 A 
ATOM      5  C3  OXE d   1       3.801   5.416  -5.559  0.00  0.00     0.003 A 
ATOM      6  C4  OXE d   1       5.164   5.584  -5.831  0.00  0.00    -0.002 A 
ATOM      7  C5  OXE d   1       5.996   4.472  -6.000  0.00  0.00    -0.002 A 
ATOM      8  C6  OXE d   1       5.457   3.195  -5.889  0.00  0.00     0.003 A 
ENDROOT
TORSDOF 0
ENDMDL
