MODEL 1
REMARK minimizedAffinity -2.36085129
REMARK minimizedRMSD -1
REMARK  0 active torsions:
REMARK  status: ('A' for Active; 'I' for Inactive)
ROOT
ATOM      1  C2' OXE d   1       3.375   1.514  -5.242  0.00  0.00     0.078 C 
ATOM      2  C1' OXE d   1       1.738   3.773  -5.559  0.00  0.00     0.078 C 
ATOM      3  C1  OXE d   1       3.230   3.963  -5.677  0.00  0.00    -0.078 A 
ATOM      4  C2  OXE d   1       4.026   2.861  -5.474  0.00  0.00    -0.078 A 
ATOM      5  C3  OXE d   1       5.405   2.969  -5.626  0.00  0.00     0.003 A 
ATOM      6  C4  OXE d   1       6.000   4.220  -5.830  0.00  0.00    -0.002 A 
ATOM      7  C5  OXE d   1       5.210   5.362  -6.000  0.00  0.00    -0.002 A 
ATOM      8  C6  OXE d   1       3.825   5.244  -5.968  0.00  0.00     0.003 A 
ENDROOT
TORSDOF 0
ENDMDL
