MODEL 1
REMARK minimizedAffinity -1.60535645
REMARK minimizedRMSD -1
REMARK  0 active torsions:
REMARK  status: ('A' for Active; 'I' for Inactive)
ROOT
ATOM      1  C2' OXE d   1       6.000   2.901  -5.496  0.00  0.00     0.078 C 
ATOM      2  C1' OXE d   1       5.565   5.633  -5.973  0.00  0.00     0.078 C 
ATOM      3  C1  OXE d   1       4.358   4.735  -5.879  0.00  0.00    -0.078 A 
ATOM      4  C2  OXE d   1       4.581   3.392  -5.692  0.00  0.00    -0.078 A 
ATOM      5  C3  OXE d   1       3.501   2.527  -5.545  0.00  0.00     0.003 A 
ATOM      6  C4  OXE d   1       2.193   2.987  -5.737  0.00  0.00    -0.002 A 
ATOM      7  C5  OXE d   1       1.945   4.345  -5.968  0.00  0.00    -0.002 A 
ATOM      8  C6  OXE d   1       3.011   5.237  -6.000  0.00  0.00     0.003 A 
ENDROOT
TORSDOF 0
ENDMDL
