MODEL 1
REMARK minimizedAffinity -4.20663643
REMARK minimizedRMSD -1
REMARK  0 active torsions:
REMARK  status: ('A' for Active; 'I' for Inactive)
ROOT
ATOM      1  C2' OXE d   1       5.210   4.434  -5.773  0.00  0.00     0.078 C 
ATOM      2  C1' OXE d   1       3.856   2.262  -4.622  0.00  0.00     0.078 C 
ATOM      3  C1  OXE d   1       3.040   3.462  -5.032  0.00  0.00    -0.078 A 
ATOM      4  C2  OXE d   1       3.717   4.539  -5.551  0.00  0.00    -0.078 A 
ATOM      5  C3  OXE d   1       3.007   5.651  -5.996  0.00  0.00     0.003 A 
ATOM      6  C4  OXE d   1       1.627   5.744  -5.778  0.00  0.00    -0.002 A 
ATOM      7  C5  OXE d   1       0.923   4.674  -5.214  0.00  0.00    -0.002 A 
ATOM      8  C6  OXE d   1       1.607   3.512  -4.875  0.00  0.00     0.003 A 
ENDROOT
TORSDOF 0
ENDMDL
