MODEL 1
REMARK minimizedAffinity 2.3093555
REMARK minimizedRMSD -1
REMARK  0 active torsions:
REMARK  status: ('A' for Active; 'I' for Inactive)
ROOT
ATOM      1  C2' OXE d   1       4.504   1.496  -4.491  0.00  0.00     0.078 C 
ATOM      2  C1' OXE d   1       5.685   3.547  -5.999  0.00  0.00     0.078 C 
ATOM      3  C1  OXE d   1       4.230   3.694  -5.629  0.00  0.00    -0.078 A 
ATOM      4  C2  OXE d   1       3.648   2.664  -4.931  0.00  0.00    -0.078 A 
ATOM      5  C3  OXE d   1       2.324   2.773  -4.517  0.00  0.00     0.003 A 
ATOM      6  C4  OXE d   1       1.537   3.852  -4.936  0.00  0.00    -0.002 A 
ATOM      7  C5  OXE d   1       2.099   4.894  -5.682  0.00  0.00    -0.002 A 
ATOM      8  C6  OXE d   1       3.452   4.851  -6.000  0.00  0.00     0.003 A 
ENDROOT
TORSDOF 0
ENDMDL
