MODEL 1
REMARK minimizedAffinity -0.720193744
REMARK minimizedRMSD -1
REMARK  0 active torsions:
REMARK  status: ('A' for Active; 'I' for Inactive)
ROOT
ATOM      1  C2' OXE d   1       4.102   1.887  -4.908  0.00  0.00     0.078 C 
ATOM      2  C1' OXE d   1       5.586   4.012  -5.985  0.00  0.00     0.078 C 
ATOM      3  C1  OXE d   1       4.117   4.238  -5.733  0.00  0.00    -0.078 A 
ATOM      4  C2  OXE d   1       3.388   3.178  -5.249  0.00  0.00    -0.078 A 
ATOM      5  C3  OXE d   1       2.040   3.348  -4.947  0.00  0.00     0.003 A 
ATOM      6  C4  OXE d   1       1.386   4.542  -5.275  0.00  0.00    -0.002 A 
ATOM      7  C5  OXE d   1       2.101   5.621  -5.805  0.00  0.00    -0.002 A 
ATOM      8  C6  OXE d   1       3.472   5.500  -6.000  0.00  0.00     0.003 A 
ENDROOT
TORSDOF 0
ENDMDL
