MODEL 1
REMARK minimizedAffinity -2.52467489
REMARK minimizedRMSD -1
REMARK  0 active torsions:
REMARK  status: ('A' for Active; 'I' for Inactive)
ROOT
ATOM      1  C2' OXE d   1       3.689   2.052  -5.556  0.00  0.00     0.078 C 
ATOM      2  C1' OXE d   1       5.350   4.270  -6.000  0.00  0.00     0.078 C 
ATOM      3  C1  OXE d   1       3.865   4.513  -5.901  0.00  0.00    -0.078 A 
ATOM      4  C2  OXE d   1       3.055   3.415  -5.730  0.00  0.00    -0.078 A 
ATOM      5  C3  OXE d   1       1.683   3.589  -5.578  0.00  0.00     0.003 A 
ATOM      6  C4  OXE d   1       1.104   4.852  -5.750  0.00  0.00    -0.002 A 
ATOM      7  C5  OXE d   1       1.907   5.977  -5.965  0.00  0.00    -0.002 A 
ATOM      8  C6  OXE d   1       3.289   5.831  -6.000  0.00  0.00     0.003 A 
ENDROOT
TORSDOF 0
ENDMDL
