MODEL 1
REMARK minimizedAffinity 4.7765646
REMARK minimizedRMSD -1
REMARK  0 active torsions:
REMARK  status: ('A' for Active; 'I' for Inactive)
ROOT
ATOM      1  C2' OXE d   1       2.481   2.397   0.382  0.00  0.00     0.078 C 
ATOM      2  C1' OXE d   1       1.908  -0.012   1.705  0.00  0.00     0.078 C 
ATOM      3  C1  OXE d   1       3.355   0.395   1.581  0.00  0.00    -0.078 A 
ATOM      4  C2  OXE d   1       3.629   1.552   0.892  0.00  0.00    -0.078 A 
ATOM      5  C3  OXE d   1       4.943   2.002   0.795  0.00  0.00     0.003 A 
ATOM      6  C4  OXE d   1       6.000   1.210   1.260  0.00  0.00    -0.002 A 
ATOM      7  C5  OXE d   1       5.745   0.009   1.930  0.00  0.00    -0.002 A 
ATOM      8  C6  OXE d   1       4.429  -0.391   2.136  0.00  0.00     0.003 A 
ENDROOT
TORSDOF 0
ENDMDL
