MODEL 1
REMARK minimizedAffinity -1.1851263
REMARK minimizedRMSD -1
REMARK  0 active torsions:
REMARK  status: ('A' for Active; 'I' for Inactive)
ROOT
ATOM      1  C2' OXE d   1       1.485   3.564  -5.745  0.00  0.00     0.078 C 
ATOM      2  C1' OXE d   1       3.374   1.617  -5.025  0.00  0.00     0.078 C 
ATOM      3  C1  OXE d   1       3.878   3.002  -5.345  0.00  0.00    -0.078 A 
ATOM      4  C2  OXE d   1       2.952   3.936  -5.741  0.00  0.00    -0.078 A 
ATOM      5  C3  OXE d   1       3.357   5.243  -5.995  0.00  0.00     0.003 A 
ATOM      6  C4  OXE d   1       4.717   5.576  -6.000  0.00  0.00    -0.002 A 
ATOM      7  C5  OXE d   1       5.680   4.629  -5.638  0.00  0.00    -0.002 A 
ATOM      8  C6  OXE d   1       5.275   3.352  -5.267  0.00  0.00     0.003 A 
ENDROOT
TORSDOF 0
ENDMDL
