MODEL 1
REMARK minimizedAffinity -1.24146891
REMARK minimizedRMSD -1
REMARK  0 active torsions:
REMARK  status: ('A' for Active; 'I' for Inactive)
ROOT
ATOM      1  C2' OXE d   1       1.710   3.938  -5.692  0.00  0.00     0.078 C 
ATOM      2  C1' OXE d   1       3.372   1.677  -5.619  0.00  0.00     0.078 C 
ATOM      3  C1  OXE d   1       4.029   3.030  -5.736  0.00  0.00    -0.078 A 
ATOM      4  C2  OXE d   1       3.206   4.127  -5.818  0.00  0.00    -0.078 A 
ATOM      5  C3  OXE d   1       3.761   5.402  -5.873  0.00  0.00     0.003 A 
ATOM      6  C4  OXE d   1       5.146   5.568  -5.999  0.00  0.00    -0.002 A 
ATOM      7  C5  OXE d   1       6.000   4.461  -5.957  0.00  0.00    -0.002 A 
ATOM      8  C6  OXE d   1       5.461   3.191  -5.784  0.00  0.00     0.003 A 
ENDROOT
TORSDOF 0
ENDMDL
