MODEL 1
REMARK minimizedAffinity -2.1407876
REMARK minimizedRMSD -1
REMARK  0 active torsions:
REMARK  status: ('A' for Active; 'I' for Inactive)
ROOT
ATOM      1  C2' OXE d   1       4.188   1.336  -5.246  0.00  0.00     0.078 C 
ATOM      2  C1' OXE d   1       6.000   3.364  -5.945  0.00  0.00     0.078 C 
ATOM      3  C1  OXE d   1       4.544   3.737  -5.809  0.00  0.00    -0.078 A 
ATOM      4  C2  OXE d   1       3.659   2.729  -5.513  0.00  0.00    -0.078 A 
ATOM      5  C3  OXE d   1       2.313   3.028  -5.322  0.00  0.00     0.003 A 
ATOM      6  C4  OXE d   1       1.829   4.316  -5.581  0.00  0.00    -0.002 A 
ATOM      7  C5  OXE d   1       2.709   5.349  -5.923  0.00  0.00    -0.002 A 
ATOM      8  C6  OXE d   1       4.072   5.086  -6.000  0.00  0.00     0.003 A 
ENDROOT
TORSDOF 0
ENDMDL
