MODEL 1
REMARK minimizedAffinity 1.9243021
REMARK minimizedRMSD -1
REMARK  0 active torsions:
REMARK  status: ('A' for Active; 'I' for Inactive)
ROOT
ATOM      1  C2' OXE d   1       2.200   5.868  -3.779  0.00  0.00     0.078 C 
ATOM      2  C1' OXE d   1       0.740   4.890  -5.968  0.00  0.00     0.078 C 
ATOM      3  C1  OXE d   1       1.867   4.040  -5.439  0.00  0.00    -0.078 A 
ATOM      4  C2  OXE d   1       2.607   4.547  -4.398  0.00  0.00    -0.078 A 
ATOM      5  C3  OXE d   1       3.623   3.780  -3.836  0.00  0.00     0.003 A 
ATOM      6  C4  OXE d   1       3.999   2.564  -4.420  0.00  0.00    -0.002 A 
ATOM      7  C5  OXE d   1       3.285   2.048  -5.506  0.00  0.00    -0.002 A 
ATOM      8  C6  OXE d   1       2.192   2.751  -6.000  0.00  0.00     0.003 A 
ENDROOT
TORSDOF 0
ENDMDL
