MODEL 1
REMARK minimizedAffinity -0.115416192
REMARK minimizedRMSD -1
REMARK  0 active torsions:
REMARK  status: ('A' for Active; 'I' for Inactive)
ROOT
ATOM      1  C2' OXE d   1       1.058   3.891  -5.743  0.00  0.00     0.078 C 
ATOM      2  C1' OXE d   1       3.017   1.880  -5.754  0.00  0.00     0.078 C 
ATOM      3  C1  OXE d   1       3.480   3.314  -5.825  0.00  0.00    -0.078 A 
ATOM      4  C2  OXE d   1       2.513   4.289  -5.866  0.00  0.00    -0.078 A 
ATOM      5  C3  OXE d   1       2.886   5.630  -5.876  0.00  0.00     0.003 A 
ATOM      6  C4  OXE d   1       4.233   5.990  -6.000  0.00  0.00    -0.002 A 
ATOM      7  C5  OXE d   1       5.233   5.011  -6.000  0.00  0.00    -0.002 A 
ATOM      8  C6  OXE d   1       4.876   3.673  -5.870  0.00  0.00     0.003 A 
ENDROOT
TORSDOF 0
ENDMDL
