MODEL 1
REMARK minimizedAffinity -3.28941822
REMARK minimizedRMSD -1
REMARK  0 active torsions:
REMARK  status: ('A' for Active; 'I' for Inactive)
ROOT
ATOM      1  C2' OXE d   1       5.668   3.922  -6.000  0.00  0.00     0.078 C 
ATOM      2  C1' OXE d   1       3.786   1.856  -5.742  0.00  0.00     0.078 C 
ATOM      3  C1  OXE d   1       3.271   3.272  -5.803  0.00  0.00    -0.078 A 
ATOM      4  C2  OXE d   1       4.202   4.280  -5.882  0.00  0.00    -0.078 A 
ATOM      5  C3  OXE d   1       3.780   5.602  -5.997  0.00  0.00     0.003 A 
ATOM      6  C4  OXE d   1       2.423   5.925  -5.878  0.00  0.00    -0.002 A 
ATOM      7  C5  OXE d   1       1.461   4.916  -5.756  0.00  0.00    -0.002 A 
ATOM      8  C6  OXE d   1       1.864   3.585  -5.761  0.00  0.00     0.003 A 
ENDROOT
TORSDOF 0
ENDMDL
