MODEL 1
REMARK minimizedAffinity -1.42930651
REMARK minimizedRMSD -1
REMARK  0 active torsions:
REMARK  status: ('A' for Active; 'I' for Inactive)
ROOT
ATOM      1  C2' OXE d   1       3.749   1.874  -4.888  0.00  0.00     0.078 C 
ATOM      2  C1' OXE d   1       1.748   3.810  -5.247  0.00  0.00     0.078 C 
ATOM      3  C1  OXE d   1       3.180   4.229  -5.468  0.00  0.00    -0.078 A 
ATOM      4  C2  OXE d   1       4.156   3.288  -5.245  0.00  0.00    -0.078 A 
ATOM      5  C3  OXE d   1       5.489   3.606  -5.487  0.00  0.00     0.003 A 
ATOM      6  C4  OXE d   1       5.858   4.918  -5.807  0.00  0.00    -0.002 A 
ATOM      7  C5  OXE d   1       4.883   5.903  -6.000  0.00  0.00    -0.002 A 
ATOM      8  C6  OXE d   1       3.540   5.565  -5.876  0.00  0.00     0.003 A 
ENDROOT
TORSDOF 0
ENDMDL
