MODEL 1
REMARK minimizedAffinity 11.082427
REMARK minimizedRMSD -1
REMARK  1 active torsions:
REMARK  status: ('A' for Active; 'I' for Inactive)
REMARK    1  A    between atoms: C1_2  and  C2_3 
ROOT
ATOM      1  C2  UNL d   1      -0.588   4.437  -3.902  0.00  0.00    -0.081 A 
ATOM      2  C3  UNL d   1      -0.002   5.136  -2.840  0.00  0.00     0.006 A 
ATOM      3  C4  UNL d   1       1.249   4.757  -2.348  0.00  0.00     0.002 A 
ATOM      4  C5  UNL d   1       1.938   3.679  -2.913  0.00  0.00    -0.080 A 
ATOM      5  C6  UNL d   1       3.295   3.280  -2.414  0.00  0.00     0.076 C 
ATOM      6  C7  UNL d   1       1.344   2.969  -3.963  0.00  0.00     0.002 A 
ATOM      7  C8  UNL d   1       0.093   3.347  -4.455  0.00  0.00     0.006 A 
ENDROOT
BRANCH   1   8
ATOM      8  C1  UNL d   1      -1.908   4.884  -4.477  0.00  0.00     0.054 C 
ATOM      9  C   UNL d   1      -1.870   4.902  -5.999  0.00  0.00     0.018 C 
ENDBRANCH   1   8
TORSDOF 1
ENDMDL
