MODEL 1
REMARK minimizedAffinity 13.1429443
REMARK minimizedRMSD -1
REMARK  1 active torsions:
REMARK  status: ('A' for Active; 'I' for Inactive)
REMARK    1  A    between atoms: C1_2  and  C2_3 
ROOT
ATOM      1  C2  UNL d   1       2.879   3.375  -3.558  0.00  0.00    -0.081 A 
ATOM      2  C3  UNL d   1       1.507   3.171  -3.754  0.00  0.00     0.006 A 
ATOM      3  C4  UNL d   1       0.572   4.008  -3.139  0.00  0.00     0.002 A 
ATOM      4  C5  UNL d   1       0.993   5.065  -2.326  0.00  0.00    -0.080 A 
ATOM      5  C6  UNL d   1       0.000   5.989  -1.684  0.00  0.00     0.076 C 
ATOM      6  C7  UNL d   1       2.363   5.258  -2.116  0.00  0.00     0.002 A 
ATOM      7  C8  UNL d   1       3.298   4.422  -2.730  0.00  0.00     0.006 A 
ENDROOT
BRANCH   1   8
ATOM      8  C1  UNL d   1       3.891   2.515  -4.272  0.00  0.00     0.054 C 
ATOM      9  C   UNL d   1       4.186   3.049  -5.666  0.00  0.00     0.018 C 
ENDBRANCH   1   8
TORSDOF 1
ENDMDL
