MODEL 1
REMARK minimizedAffinity 13.5760918
REMARK minimizedRMSD -1
REMARK  1 active torsions:
REMARK  status: ('A' for Active; 'I' for Inactive)
REMARK    1  A    between atoms: C1_2  and  C2_3 
ROOT
ATOM      1  C2  UNL d   1       1.794  -3.236   1.399  0.00  0.00    -0.081 A 
ATOM      2  C3  UNL d   1       0.445  -3.439   1.084  0.00  0.00     0.006 A 
ATOM      3  C4  UNL d   1      -0.526  -2.530   1.510  0.00  0.00     0.002 A 
ATOM      4  C5  UNL d   1      -0.164  -1.400   2.252  0.00  0.00    -0.080 A 
ATOM      5  C6  UNL d   1      -1.193  -0.401   2.690  0.00  0.00     0.076 C 
ATOM      6  C7  UNL d   1       1.182  -1.206   2.581  0.00  0.00     0.002 A 
ATOM      7  C8  UNL d   1       2.153  -2.115   2.156  0.00  0.00     0.006 A 
ENDROOT
BRANCH   1   8
ATOM      8  C1  UNL d   1       2.852  -4.179   0.885  0.00  0.00     0.054 C 
ATOM      9  C   UNL d   1       3.381  -3.732  -0.470  0.00  0.00     0.018 C 
ENDBRANCH   1   8
TORSDOF 1
ENDMDL
