MODEL 1
REMARK minimizedAffinity 14.764986
REMARK minimizedRMSD -1
REMARK  1 active torsions:
REMARK  status: ('A' for Active; 'I' for Inactive)
REMARK    1  A    between atoms: C1_2  and  C2_3 
ROOT
ATOM      1  C2  UNL d   1      -2.862  -0.989   1.838  0.00  0.00    -0.081 A 
ATOM      2  C3  UNL d   1      -2.256  -0.064   2.696  0.00  0.00     0.006 A 
ATOM      3  C4  UNL d   1      -0.874  -0.087   2.899  0.00  0.00     0.002 A 
ATOM      4  C5  UNL d   1      -0.075  -1.029   2.242  0.00  0.00    -0.080 A 
ATOM      5  C6  UNL d   1       1.413  -1.044   2.428  0.00  0.00     0.076 C 
ATOM      6  C7  UNL d   1      -0.683  -1.964   1.398  0.00  0.00     0.002 A 
ATOM      7  C8  UNL d   1      -2.065  -1.943   1.196  0.00  0.00     0.006 A 
ENDROOT
BRANCH   1   8
ATOM      8  C1  UNL d   1      -4.344  -0.926   1.567  0.00  0.00     0.054 C 
ATOM      9  C   UNL d   1      -4.663   0.076   0.467  0.00  0.00     0.018 C 
ENDBRANCH   1   8
TORSDOF 1
ENDMDL
