MODEL 1
REMARK minimizedAffinity 17.457407
REMARK minimizedRMSD -1
REMARK  1 active torsions:
REMARK  status: ('A' for Active; 'I' for Inactive)
REMARK    1  A    between atoms: C1_2  and  C2_3 
ROOT
ATOM      1  C2  UNL d   1       5.361   3.365   1.411  0.00  0.00    -0.081 A 
ATOM      2  C3  UNL d   1       6.000   2.794   0.304  0.00  0.00     0.006 A 
ATOM      3  C4  UNL d   1       5.379   1.777  -0.425  0.00  0.00     0.002 A 
ATOM      4  C5  UNL d   1       4.107   1.320  -0.064  0.00  0.00    -0.080 A 
ATOM      5  C6  UNL d   1       3.417   0.250  -0.856  0.00  0.00     0.076 C 
ATOM      6  C7  UNL d   1       3.476   1.878   1.053  0.00  0.00     0.002 A 
ATOM      7  C8  UNL d   1       4.097   2.895   1.782  0.00  0.00     0.006 A 
ENDROOT
BRANCH   1   8
ATOM      8  C1  UNL d   1       6.000   4.507   2.160  0.00  0.00     0.054 C 
ATOM      9  C   UNL d   1       5.252   5.811   1.924  0.00  0.00     0.018 C 
ENDBRANCH   1   8
TORSDOF 1
ENDMDL
