MODEL 1
REMARK minimizedAffinity 13.1450663
REMARK minimizedRMSD -1
REMARK  1 active torsions:
REMARK  status: ('A' for Active; 'I' for Inactive)
REMARK    1  A    between atoms: C1_2  and  C2_3 
ROOT
ATOM      1  C2  UNL d   1      -1.220  -0.079   3.378  0.00  0.00    -0.081 A 
ATOM      2  C3  UNL d   1      -2.140   0.972   3.472  0.00  0.00     0.006 A 
ATOM      3  C4  UNL d   1      -3.207   1.062   2.574  0.00  0.00     0.002 A 
ATOM      4  C5  UNL d   1      -3.375   0.098   1.574  0.00  0.00    -0.080 A 
ATOM      5  C6  UNL d   1      -4.533   0.166   0.623  0.00  0.00     0.076 C 
ATOM      6  C7  UNL d   1      -2.446  -0.942   1.469  0.00  0.00     0.002 A 
ATOM      7  C8  UNL d   1      -1.379  -1.031   2.366  0.00  0.00     0.006 A 
ENDROOT
BRANCH   1   8
ATOM      8  C1  UNL d   1      -0.106  -0.214   4.385  0.00  0.00     0.054 C 
ATOM      9  C   UNL d   1      -0.621  -0.042   5.806  0.00  0.00     0.018 C 
ENDBRANCH   1   8
TORSDOF 1
ENDMDL
