MODEL 1
REMARK minimizedAffinity 12.8820305
REMARK minimizedRMSD -1
REMARK  1 active torsions:
REMARK  status: ('A' for Active; 'I' for Inactive)
REMARK    1  A    between atoms: C1_2  and  C2_3 
ROOT
ATOM      1  C2  UNL d   1      -2.074  -0.108   2.174  0.00  0.00    -0.081 A 
ATOM      2  C3  UNL d   1      -1.591   0.324   3.415  0.00  0.00     0.006 A 
ATOM      3  C4  UNL d   1      -0.522  -0.335   4.027  0.00  0.00     0.002 A 
ATOM      4  C5  UNL d   1       0.085  -1.432   3.406  0.00  0.00    -0.080 A 
ATOM      5  C6  UNL d   1       1.252  -2.130   4.039  0.00  0.00     0.076 C 
ATOM      6  C7  UNL d   1      -0.409  -1.875   2.175  0.00  0.00     0.002 A 
ATOM      7  C8  UNL d   1      -1.478  -1.217   1.562  0.00  0.00     0.006 A 
ENDROOT
BRANCH   1   8
ATOM      8  C1  UNL d   1      -3.184   0.640   1.480  0.00  0.00     0.054 C 
ATOM      9  C   UNL d   1      -4.123  -0.311   0.754  0.00  0.00     0.018 C 
ENDBRANCH   1   8
TORSDOF 1
ENDMDL
