MODEL 1
REMARK minimizedAffinity 12.8476
REMARK minimizedRMSD -1
REMARK  1 active torsions:
REMARK  status: ('A' for Active; 'I' for Inactive)
REMARK    1  A    between atoms: C1_2  and  C2_3 
ROOT
ATOM      1  C2  UNL d   1      -0.240  -0.713   2.972  0.00  0.00    -0.081 A 
ATOM      2  C3  UNL d   1      -1.020   0.417   3.246  0.00  0.00     0.006 A 
ATOM      3  C4  UNL d   1      -2.214   0.637   2.556  0.00  0.00     0.002 A 
ATOM      4  C5  UNL d   1      -2.652  -0.272   1.587  0.00  0.00    -0.080 A 
ATOM      5  C6  UNL d   1      -3.947  -0.064   0.860  0.00  0.00     0.076 C 
ATOM      6  C7  UNL d   1      -1.864  -1.392   1.301  0.00  0.00     0.002 A 
ATOM      7  C8  UNL d   1      -0.669  -1.612   1.990  0.00  0.00     0.006 A 
ENDROOT
BRANCH   1   8
ATOM      8  C1  UNL d   1       1.016  -0.987   3.761  0.00  0.00     0.054 C 
ATOM      9  C   UNL d   1       2.206  -1.222   2.841  0.00  0.00     0.018 C 
ENDBRANCH   1   8
TORSDOF 1
ENDMDL
