MODEL 1
REMARK minimizedAffinity 12.1145573
REMARK minimizedRMSD -1
REMARK  1 active torsions:
REMARK  status: ('A' for Active; 'I' for Inactive)
REMARK    1  A    between atoms: C1_2  and  C2_3 
ROOT
ATOM      1  C2  UNL d   1      -0.306  -0.963   2.445  0.00  0.00    -0.081 A 
ATOM      2  C3  UNL d   1      -1.024   0.119   2.969  0.00  0.00     0.006 A 
ATOM      3  C4  UNL d   1      -2.331   0.373   2.545  0.00  0.00     0.002 A 
ATOM      4  C5  UNL d   1      -2.943  -0.454   1.598  0.00  0.00    -0.080 A 
ATOM      5  C6  UNL d   1      -4.356  -0.210   1.157  0.00  0.00     0.076 C 
ATOM      6  C7  UNL d   1      -2.220  -1.525   1.062  0.00  0.00     0.002 A 
ATOM      7  C8  UNL d   1      -0.913  -1.779   1.484  0.00  0.00     0.006 A 
ENDROOT
BRANCH   1   8
ATOM      8  C1  UNL d   1       1.080  -1.278   2.947  0.00  0.00     0.054 C 
ATOM      9  C   UNL d   1       2.142  -0.553   2.132  0.00  0.00     0.018 C 
ENDBRANCH   1   8
TORSDOF 1
ENDMDL
