MODEL 1
REMARK minimizedAffinity 14.0132637
REMARK minimizedRMSD -1
REMARK  1 active torsions:
REMARK  status: ('A' for Active; 'I' for Inactive)
REMARK    1  A    between atoms: C1_2  and  C2_3 
ROOT
ATOM      1  C2  UNL d   1       4.200   4.401  -2.425  0.00  0.00    -0.081 A 
ATOM      2  C3  UNL d   1       3.196   3.476  -2.737  0.00  0.00     0.006 A 
ATOM      3  C4  UNL d   1       1.850   3.812  -2.580  0.00  0.00     0.002 A 
ATOM      4  C5  UNL d   1       1.485   5.081  -2.116  0.00  0.00    -0.080 A 
ATOM      5  C6  UNL d   1       0.042   5.465  -1.971  0.00  0.00     0.076 C 
ATOM      6  C7  UNL d   1       2.488   5.999  -1.787  0.00  0.00     0.002 A 
ATOM      7  C8  UNL d   1       3.834   5.663  -1.944  0.00  0.00     0.006 A 
ENDROOT
BRANCH   1   8
ATOM      8  C1  UNL d   1       5.651   4.064  -2.655  0.00  0.00     0.054 C 
ATOM      9  C   UNL d   1       5.984   4.035  -4.140  0.00  0.00     0.018 C 
ENDBRANCH   1   8
TORSDOF 1
ENDMDL
