MODEL 1
REMARK minimizedAffinity 15.9557295
REMARK minimizedRMSD -1
REMARK  1 active torsions:
REMARK  status: ('A' for Active; 'I' for Inactive)
REMARK    1  A    between atoms: C1_2  and  C2_3 
ROOT
ATOM      1  C2  UNL d   1       5.184   4.958  -2.611  0.00  0.00    -0.081 A 
ATOM      2  C3  UNL d   1       5.936   4.857  -3.788  0.00  0.00     0.006 A 
ATOM      3  C4  UNL d   1       5.446   4.140  -4.882  0.00  0.00     0.002 A 
ATOM      4  C5  UNL d   1       4.193   3.519  -4.820  0.00  0.00    -0.080 A 
ATOM      5  C6  UNL d   1       3.642   2.772  -5.998  0.00  0.00     0.076 C 
ATOM      6  C7  UNL d   1       3.450   3.606  -3.638  0.00  0.00     0.002 A 
ATOM      7  C8  UNL d   1       3.940   4.322  -2.544  0.00  0.00     0.006 A 
ENDROOT
BRANCH   1   8
ATOM      8  C1  UNL d   1       5.682   5.785  -1.453  0.00  0.00     0.054 C 
ATOM      9  C   UNL d   1       5.999   4.913  -0.246  0.00  0.00     0.018 C 
ENDBRANCH   1   8
TORSDOF 1
ENDMDL
