MODEL 1
REMARK minimizedAffinity -4.27153492
REMARK minimizedRMSD -1
REMARK  1 active torsions:
REMARK  status: ('A' for Active; 'I' for Inactive)
REMARK    1  A    between atoms: C1_2  and  C2_3 
ROOT
ATOM      1  C2  UNL d   1      -0.222   2.044   0.900  0.00  0.00    -0.073 A 
ATOM      2  C3  UNL d   1      -0.718   1.481   2.081  0.00  0.00    -0.002 A 
ATOM      3  C4  UNL d   1      -0.643   0.103   2.292  0.00  0.00     0.004 A 
ATOM      4  C5  UNL d   1      -0.065  -0.723   1.328  0.00  0.00    -0.004 A 
ATOM      5  C6  UNL d   1       0.447  -0.178   0.147  0.00  0.00    -0.075 A 
ATOM      6  C7  UNL d   1       1.069  -1.054  -0.901  0.00  0.00     0.076 C 
ATOM      7  C8  UNL d   1       0.365   1.205  -0.059  0.00  0.00     0.001 A 
ENDROOT
BRANCH   1   8
ATOM      8  C1  UNL d   1      -0.296   3.531   0.671  0.00  0.00     0.053 C 
ATOM      9  C   UNL d   1       0.489   3.958  -0.559  0.00  0.00     0.018 C 
ENDBRANCH   1   8
TORSDOF 1
ENDMDL
