MODEL 1
REMARK minimizedAffinity -4.94979763
REMARK minimizedRMSD -1
REMARK  1 active torsions:
REMARK  status: ('A' for Active; 'I' for Inactive)
REMARK    1  A    between atoms: C1_2  and  C2_3 
ROOT
ATOM      1  C2  UNL d   1      -0.290   2.315   1.536  0.00  0.00    -0.073 A 
ATOM      2  C3  UNL d   1      -1.010   1.743   2.592  0.00  0.00    -0.002 A 
ATOM      3  C4  UNL d   1      -1.190   0.361   2.655  0.00  0.00     0.004 A 
ATOM      4  C5  UNL d   1      -0.648  -0.464   1.669  0.00  0.00    -0.004 A 
ATOM      5  C6  UNL d   1       0.085   0.088   0.613  0.00  0.00    -0.075 A 
ATOM      6  C7  UNL d   1       0.673  -0.785  -0.456  0.00  0.00     0.076 C 
ATOM      7  C8  UNL d   1       0.260   1.477   0.555  0.00  0.00     0.001 A 
ENDROOT
BRANCH   1   8
ATOM      8  C1  UNL d   1      -0.087   3.806   1.467  0.00  0.00     0.053 C 
ATOM      9  C   UNL d   1       0.939   4.289   2.481  0.00  0.00     0.018 C 
ENDBRANCH   1   8
TORSDOF 1
ENDMDL
