MODEL 1
REMARK minimizedAffinity 4.48195601
REMARK minimizedRMSD -1
REMARK  1 active torsions:
REMARK  status: ('A' for Active; 'I' for Inactive)
REMARK    1  A    between atoms: C1_2  and  C2_3 
ROOT
ATOM      1  C2  UNL d   1      -0.127  -0.253   0.622  0.00  0.00    -0.073 A 
ATOM      2  C3  UNL d   1      -1.147   0.568   1.117  0.00  0.00    -0.002 A 
ATOM      3  C4  UNL d   1      -1.322   0.721   2.493  0.00  0.00     0.004 A 
ATOM      4  C5  UNL d   1      -0.477   0.063   3.386  0.00  0.00    -0.004 A 
ATOM      5  C6  UNL d   1       0.555  -0.753   2.910  0.00  0.00    -0.075 A 
ATOM      6  C7  UNL d   1       1.471  -1.470   3.858  0.00  0.00     0.076 C 
ATOM      7  C8  UNL d   1       0.723  -0.904   1.527  0.00  0.00     0.001 A 
ENDROOT
BRANCH   1   8
ATOM      8  C1  UNL d   1       0.070  -0.416  -0.863  0.00  0.00     0.053 C 
ATOM      9  C   UNL d   1       0.126   0.923  -1.582  0.00  0.00     0.018 C 
ENDBRANCH   1   8
TORSDOF 1
ENDMDL
