MODEL 1
REMARK minimizedAffinity -4.20072508
REMARK minimizedRMSD -1
REMARK  1 active torsions:
REMARK  status: ('A' for Active; 'I' for Inactive)
REMARK    1  A    between atoms: C1_2  and  C2_3 
ROOT
ATOM      1  C2  UNL d   1      -0.375  -1.118  -0.521  0.00  0.00    -0.073 A 
ATOM      2  C3  UNL d   1       0.408  -1.779   0.432  0.00  0.00    -0.002 A 
ATOM      3  C4  UNL d   1       0.604  -1.219   1.695  0.00  0.00     0.004 A 
ATOM      4  C5  UNL d   1       0.015   0.003   2.020  0.00  0.00    -0.004 A 
ATOM      5  C6  UNL d   1      -0.781   0.673   1.086  0.00  0.00    -0.075 A 
ATOM      6  C7  UNL d   1      -1.420   1.989   1.420  0.00  0.00     0.076 C 
ATOM      7  C8  UNL d   1      -0.971   0.105  -0.181  0.00  0.00     0.001 A 
ENDROOT
BRANCH   1   8
ATOM      8  C1  UNL d   1      -0.595  -1.722  -1.883  0.00  0.00     0.053 C 
ATOM      9  C   UNL d   1      -0.576  -3.242  -1.843  0.00  0.00     0.018 C 
ENDBRANCH   1   8
TORSDOF 1
ENDMDL
