MODEL 1
REMARK minimizedAffinity -1.392869
REMARK minimizedRMSD -1
REMARK  1 active torsions:
REMARK  status: ('A' for Active; 'I' for Inactive)
REMARK    1  A    between atoms: C1_2  and  C2_3 
ROOT
ATOM      1  C2  UNL d   1       0.709  -1.005  -0.566  0.00  0.00    -0.073 A 
ATOM      2  C3  UNL d   1       0.622   0.109  -1.409  0.00  0.00    -0.002 A 
ATOM      3  C4  UNL d   1       0.375  -0.057  -2.772  0.00  0.00     0.004 A 
ATOM      4  C5  UNL d   1       0.206  -1.334  -3.305  0.00  0.00    -0.004 A 
ATOM      5  C6  UNL d   1       0.278  -2.459  -2.477  0.00  0.00    -0.075 A 
ATOM      6  C7  UNL d   1       0.101  -3.841  -3.036  0.00  0.00     0.076 C 
ATOM      7  C8  UNL d   1       0.529  -2.285  -1.110  0.00  0.00     0.001 A 
ENDROOT
BRANCH   1   8
ATOM      8  C1  UNL d   1       0.969  -0.832   0.908  0.00  0.00     0.053 C 
ATOM      9  C   UNL d   1      -0.314  -0.875   1.722  0.00  0.00     0.018 C 
ENDBRANCH   1   8
TORSDOF 1
ENDMDL
