MODEL 1
REMARK minimizedAffinity -2.75747728
REMARK minimizedRMSD -1
REMARK  1 active torsions:
REMARK  status: ('A' for Active; 'I' for Inactive)
REMARK    1  A    between atoms: C1_2  and  C2_3 
ROOT
ATOM      1  C2  UNL d   1       0.472   0.012  -0.091  0.00  0.00    -0.073 A 
ATOM      2  C3  UNL d   1       0.568  -0.823   1.028  0.00  0.00    -0.002 A 
ATOM      3  C4  UNL d   1      -0.076  -0.481   2.219  0.00  0.00     0.004 A 
ATOM      4  C5  UNL d   1      -0.825   0.692   2.300  0.00  0.00    -0.004 A 
ATOM      5  C6  UNL d   1      -0.942   1.533   1.189  0.00  0.00    -0.075 A 
ATOM      6  C7  UNL d   1      -1.742   2.800   1.261  0.00  0.00     0.076 C 
ATOM      7  C8  UNL d   1      -0.291   1.185  -0.002  0.00  0.00     0.001 A 
ENDROOT
BRANCH   1   8
ATOM      8  C1  UNL d   1       1.160  -0.355  -1.381  0.00  0.00     0.053 C 
ATOM      9  C   UNL d   1       1.426  -1.849  -1.479  0.00  0.00     0.018 C 
ENDBRANCH   1   8
TORSDOF 1
ENDMDL
