MODEL 1
REMARK minimizedAffinity -0.40682745
REMARK minimizedRMSD -1
REMARK  1 active torsions:
REMARK  status: ('A' for Active; 'I' for Inactive)
REMARK    1  A    between atoms: C1_2  and  C2_3 
ROOT
ATOM      1  C2  UNL d   1      -0.584  -0.503   0.976  0.00  0.00    -0.073 A 
ATOM      2  C3  UNL d   1      -0.199  -0.929   2.253  0.00  0.00    -0.002 A 
ATOM      3  C4  UNL d   1      -0.384  -0.097   3.358  0.00  0.00     0.004 A 
ATOM      4  C5  UNL d   1      -0.961   1.163   3.201  0.00  0.00    -0.004 A 
ATOM      5  C6  UNL d   1      -1.364   1.601   1.935  0.00  0.00    -0.075 A 
ATOM      6  C7  UNL d   1      -1.984   2.954   1.748  0.00  0.00     0.076 C 
ATOM      7  C8  UNL d   1      -1.172   0.761   0.829  0.00  0.00     0.001 A 
ENDROOT
BRANCH   1   8
ATOM      8  C1  UNL d   1      -0.393  -1.400  -0.219  0.00  0.00     0.053 C 
ATOM      9  C   UNL d   1      -0.433  -0.624  -1.526  0.00  0.00     0.018 C 
ENDBRANCH   1   8
TORSDOF 1
ENDMDL
