MODEL 1
REMARK minimizedAffinity -3.70017219
REMARK minimizedRMSD -1
REMARK  1 active torsions:
REMARK  status: ('A' for Active; 'I' for Inactive)
REMARK    1  A    between atoms: C1_2  and  C2_3 
ROOT
ATOM      1  C2  UNL d   1       0.506  -0.213  -1.564  0.00  0.00    -0.073 A 
ATOM      2  C3  UNL d   1      -0.110  -0.263  -2.820  0.00  0.00    -0.002 A 
ATOM      3  C4  UNL d   1      -0.306  -1.487  -3.460  0.00  0.00     0.004 A 
ATOM      4  C5  UNL d   1       0.104  -2.672  -2.849  0.00  0.00    -0.004 A 
ATOM      5  C6  UNL d   1       0.711  -2.644  -1.589  0.00  0.00    -0.075 A 
ATOM      6  C7  UNL d   1       1.160  -3.909  -0.920  0.00  0.00     0.076 C 
ATOM      7  C8  UNL d   1       0.907  -1.410  -0.954  0.00  0.00     0.001 A 
ENDROOT
BRANCH   1   8
ATOM      8  C1  UNL d   1       0.715   1.107  -0.866  0.00  0.00     0.053 C 
ATOM      9  C   UNL d   1       0.781   2.266  -1.847  0.00  0.00     0.018 C 
ENDBRANCH   1   8
TORSDOF 1
ENDMDL
