MODEL 1
REMARK minimizedAffinity 2.29455185
REMARK minimizedRMSD -1
REMARK  1 active torsions:
REMARK  status: ('A' for Active; 'I' for Inactive)
REMARK    1  A    between atoms: C1_2  and  C2_3 
ROOT
ATOM      1  C2  UNL d   1       0.196   0.298   1.324  0.00  0.00    -0.073 A 
ATOM      2  C3  UNL d   1      -0.050  -0.971   0.788  0.00  0.00    -0.002 A 
ATOM      3  C4  UNL d   1       0.101  -1.200  -0.580  0.00  0.00     0.004 A 
ATOM      4  C5  UNL d   1       0.507  -0.166  -1.424  0.00  0.00    -0.004 A 
ATOM      5  C6  UNL d   1       0.769   1.106  -0.906  0.00  0.00    -0.075 A 
ATOM      6  C7  UNL d   1       1.204   2.229  -1.801  0.00  0.00     0.076 C 
ATOM      7  C8  UNL d   1       0.612   1.329   0.469  0.00  0.00     0.001 A 
ENDROOT
BRANCH   1   8
ATOM      8  C1  UNL d   1       0.040   0.548   2.802  0.00  0.00     0.053 C 
ATOM      9  C   UNL d   1      -0.625   1.886   3.086  0.00  0.00     0.018 C 
ENDBRANCH   1   8
TORSDOF 1
ENDMDL
