MODEL 1
REMARK minimizedAffinity -3.55758119
REMARK minimizedRMSD -1
REMARK  0 active torsions:
REMARK  status: ('A' for Active; 'I' for Inactive)
ROOT
ATOM      1  N1  IND d   1       3.531   1.983  -0.069  0.00  0.00    -0.196 N 
ATOM      2  C2  IND d   1       4.369   2.719  -0.859  0.00  0.00     0.054 A 
ATOM      3  C3  IND d   1       4.614   2.068  -2.019  0.00  0.00    -0.031 A 
ATOM      4  C4  IND d   1       3.665  -0.167  -2.872  0.00  0.00     0.051 A 
ATOM      5  C5  IND d   1       2.888  -1.224  -2.489  0.00  0.00    -0.031 A 
ATOM      6  C6  IND d   1       2.271  -1.266  -1.255  0.00  0.00     0.015 A 
ATOM      7  C7  IND d   1       2.399  -0.242  -0.360  0.00  0.00    -0.016 A 
ATOM      8  C8  IND d   1       3.193   0.830  -0.743  0.00  0.00    -0.047 A 
ATOM      9  C9  IND d   1       3.857   0.858  -1.976  0.00  0.00    -0.096 A 
ATOM     10  HN1 IND d   1       3.260   2.203   0.717  0.00  0.00     0.298 HD
ENDROOT
TORSDOF 0
ENDMDL
