MODEL 1
REMARK minimizedAffinity 1.341506
REMARK minimizedRMSD -1
REMARK  0 active torsions:
REMARK  status: ('A' for Active; 'I' for Inactive)
ROOT
ATOM      1  N1  IND d   1       2.914   1.503   0.493  0.00  0.00    -0.196 N 
ATOM      2  C2  IND d   1       3.436   0.614  -0.405  0.00  0.00     0.054 A 
ATOM      3  C3  IND d   1       3.016  -0.640  -0.125  0.00  0.00    -0.031 A 
ATOM      4  C4  IND d   1       1.389  -1.451   1.698  0.00  0.00     0.051 A 
ATOM      5  C5  IND d   1       0.681  -1.013   2.782  0.00  0.00    -0.031 A 
ATOM      6  C6  IND d   1       0.679   0.313   3.165  0.00  0.00     0.015 A 
ATOM      7  C7  IND d   1       1.379   1.257   2.467  0.00  0.00    -0.016 A 
ATOM      8  C8  IND d   1       2.105   0.815   1.371  0.00  0.00    -0.047 A 
ATOM      9  C9  IND d   1       2.145  -0.537   1.003  0.00  0.00    -0.096 A 
ATOM     10  HN1 IND d   1       3.066   2.349   0.508  0.00  0.00     0.298 HD
ENDROOT
TORSDOF 0
ENDMDL
