MODEL 1
REMARK minimizedAffinity 3.31593633
REMARK minimizedRMSD -1
REMARK  0 active torsions:
REMARK  status: ('A' for Active; 'I' for Inactive)
ROOT
ATOM      1  N1  IND d   1       4.844   3.028  -0.230  0.00  0.00    -0.196 N 
ATOM      2  C2  IND d   1       5.970   2.613  -0.885  0.00  0.00     0.054 A 
ATOM      3  C3  IND d   1       5.883   1.297  -1.181  0.00  0.00    -0.031 A 
ATOM      4  C4  IND d   1       3.944  -0.347  -0.775  0.00  0.00     0.051 A 
ATOM      5  C5  IND d   1       2.718  -0.440  -0.177  0.00  0.00    -0.031 A 
ATOM      6  C6  IND d   1       2.126   0.640   0.444  0.00  0.00     0.015 A 
ATOM      7  C7  IND d   1       2.735   1.863   0.480  0.00  0.00    -0.016 A 
ATOM      8  C8  IND d   1       3.982   1.960  -0.120  0.00  0.00    -0.047 A 
ATOM      9  C9  IND d   1       4.607   0.856  -0.714  0.00  0.00    -0.096 A 
ATOM     10  HN1 IND d   1       4.699   3.823   0.063  0.00  0.00     0.298 HD
ENDROOT
TORSDOF 0
ENDMDL
