MODEL 1
REMARK minimizedAffinity -0.442519754
REMARK minimizedRMSD -1
REMARK  0 active torsions:
REMARK  status: ('A' for Active; 'I' for Inactive)
ROOT
ATOM      1  N1  IND d   1      -3.371   1.129  -5.157  0.00  0.00    -0.196 N 
ATOM      2  C2  IND d   1      -4.369   0.294  -5.578  0.00  0.00     0.054 A 
ATOM      3  C3  IND d   1      -5.508   0.539  -4.893  0.00  0.00    -0.031 A 
ATOM      4  C4  IND d   1      -5.990   2.331  -3.109  0.00  0.00     0.051 A 
ATOM      5  C5  IND d   1      -5.381   3.305  -2.369  0.00  0.00    -0.031 A 
ATOM      6  C6  IND d   1      -4.045   3.611  -2.525  0.00  0.00     0.015 A 
ATOM      7  C7  IND d   1      -3.267   2.960  -3.439  0.00  0.00    -0.016 A 
ATOM      8  C8  IND d   1      -3.880   1.965  -4.188  0.00  0.00    -0.047 A 
ATOM      9  C9  IND d   1      -5.226   1.621  -4.004  0.00  0.00    -0.096 A 
ATOM     10  HN1 IND d   1      -2.562   1.131  -5.448  0.00  0.00     0.298 HD
ENDROOT
TORSDOF 0
ENDMDL
