MODEL 1
REMARK minimizedAffinity 0.317739844
REMARK minimizedRMSD -1
REMARK  0 active torsions:
REMARK  status: ('A' for Active; 'I' for Inactive)
ROOT
ATOM      1  N1  IND d   1       3.956   0.539  -2.081  0.00  0.00    -0.196 N 
ATOM      2  C2  IND d   1       4.535   1.432  -1.223  0.00  0.00     0.054 A 
ATOM      3  C3  IND d   1       4.242   1.112   0.057  0.00  0.00    -0.031 A 
ATOM      4  C4  IND d   1       2.915  -0.891   0.980  0.00  0.00     0.051 A 
ATOM      5  C5  IND d   1       2.162  -1.960   0.581  0.00  0.00    -0.031 A 
ATOM      6  C6  IND d   1       1.967  -2.258  -0.752  0.00  0.00     0.015 A 
ATOM      7  C7  IND d   1       2.529  -1.501  -1.741  0.00  0.00    -0.016 A 
ATOM      8  C8  IND d   1       3.289  -0.411  -1.340  0.00  0.00    -0.047 A 
ATOM      9  C9  IND d   1       3.455  -0.079   0.011  0.00  0.00    -0.096 A 
ATOM     10  HN1 IND d   1       4.002   0.566  -2.939  0.00  0.00     0.298 HD
ENDROOT
TORSDOF 0
ENDMDL
