MODEL 1
REMARK minimizedAffinity 3.56317401
REMARK minimizedRMSD -1
REMARK  0 active torsions:
REMARK  status: ('A' for Active; 'I' for Inactive)
ROOT
ATOM      1  N1  IND d   1      -4.887  -0.761  -0.934  0.00  0.00    -0.196 N 
ATOM      2  C2  IND d   1      -5.505   0.004   0.016  0.00  0.00     0.054 A 
ATOM      3  C3  IND d   1      -6.000   1.133  -0.539  0.00  0.00    -0.031 A 
ATOM      4  C4  IND d   1      -5.999   1.882  -3.002  0.00  0.00     0.051 A 
ATOM      5  C5  IND d   1      -5.520   1.533  -4.234  0.00  0.00    -0.031 A 
ATOM      6  C6  IND d   1      -4.794   0.377  -4.433  0.00  0.00     0.015 A 
ATOM      7  C7  IND d   1      -4.528  -0.483  -3.405  0.00  0.00    -0.016 A 
ATOM      8  C8  IND d   1      -5.006  -0.129  -2.152  0.00  0.00    -0.047 A 
ATOM      9  C9  IND d   1      -5.707   1.065  -1.935  0.00  0.00    -0.096 A 
ATOM     10  HN1 IND d   1      -4.490  -1.511  -0.794  0.00  0.00     0.298 HD
ENDROOT
TORSDOF 0
ENDMDL
