MODEL 1
REMARK minimizedAffinity 10.2703199
REMARK minimizedRMSD -1
REMARK  0 active torsions:
REMARK  status: ('A' for Active; 'I' for Inactive)
ROOT
ATOM      1  N1  IND d   1      -5.999   3.744   5.173  0.00  0.00    -0.196 N 
ATOM      2  C2  IND d   1      -5.990   4.918   5.872  0.00  0.00     0.054 A 
ATOM      3  C3  IND d   1      -5.871   5.967   5.028  0.00  0.00    -0.031 A 
ATOM      4  C4  IND d   1      -5.778   5.994   2.456  0.00  0.00     0.051 A 
ATOM      5  C5  IND d   1      -5.717   5.164   1.371  0.00  0.00    -0.031 A 
ATOM      6  C6  IND d   1      -5.751   3.791   1.501  0.00  0.00     0.015 A 
ATOM      7  C7  IND d   1      -5.858   3.194   2.725  0.00  0.00    -0.016 A 
ATOM      8  C8  IND d   1      -5.913   4.033   3.829  0.00  0.00    -0.047 A 
ATOM      9  C9  IND d   1      -5.836   5.426   3.706  0.00  0.00    -0.096 A 
ATOM     10  HN1 IND d   1      -6.049   2.957   5.515  0.00  0.00     0.298 HD
ENDROOT
TORSDOF 0
ENDMDL
