MODEL 1
REMARK minimizedAffinity 3.90734529
REMARK minimizedRMSD -1
REMARK  0 active torsions:
REMARK  status: ('A' for Active; 'I' for Inactive)
ROOT
ATOM      1  N1  IND d   1      -0.540   0.562  -1.134  0.00  0.00    -0.196 N 
ATOM      2  C2  IND d   1       0.510   1.301  -0.666  0.00  0.00     0.054 A 
ATOM      3  C3  IND d   1       1.535   0.492  -0.315  0.00  0.00    -0.031 A 
ATOM      4  C4  IND d   1       1.744  -2.066  -0.520  0.00  0.00     0.051 A 
ATOM      5  C5  IND d   1       1.030  -3.181  -0.856  0.00  0.00    -0.031 A 
ATOM      6  C6  IND d   1      -0.269  -3.105  -1.314  0.00  0.00     0.015 A 
ATOM      7  C7  IND d   1      -0.902  -1.903  -1.464  0.00  0.00    -0.016 A 
ATOM      8  C8  IND d   1      -0.182  -0.769  -1.117  0.00  0.00    -0.047 A 
ATOM      9  C9  IND d   1       1.122  -0.843  -0.611  0.00  0.00    -0.096 A 
ATOM     10  HN1 IND d   1      -1.297   0.875  -1.395  0.00  0.00     0.298 HD
ENDROOT
TORSDOF 0
ENDMDL
