MODEL 1
REMARK minimizedAffinity -1.40567327
REMARK minimizedRMSD -1
REMARK  1 active torsions:
REMARK  status: ('A' for Active; 'I' for Inactive)
REMARK    1  A    between atoms: C1_2  and  C2_3 
ROOT
ATOM      1  C2  UNL d   1      -0.738   5.793  -4.686  0.00  0.00    -0.073 A 
ATOM      2  C3  UNL d   1      -0.272   5.830  -3.367  0.00  0.00    -0.002 A 
ATOM      3  C4  UNL d   1      -1.170   5.928  -2.304  0.00  0.00     0.004 A 
ATOM      4  C5  UNL d   1      -2.543   5.984  -2.547  0.00  0.00    -0.004 A 
ATOM      5  C6  UNL d   1      -3.029   5.937  -3.858  0.00  0.00    -0.075 A 
ATOM      6  C7  UNL d   1      -4.502   5.998  -4.137  0.00  0.00     0.076 C 
ATOM      7  C8  UNL d   1      -2.120   5.840  -4.920  0.00  0.00     0.001 A 
ENDROOT
BRANCH   1   8
ATOM      8  C1  UNL d   1       0.228   5.680  -5.837  0.00  0.00     0.053 C 
ATOM      9  C   UNL d   1       1.655   5.992  -5.416  0.00  0.00     0.018 C 
ENDBRANCH   1   8
TORSDOF 1
ENDMDL
