MODEL 1
REMARK minimizedAffinity -2.53296518
REMARK minimizedRMSD -1
REMARK  1 active torsions:
REMARK  status: ('A' for Active; 'I' for Inactive)
REMARK    1  A    between atoms: C1_2  and  C2_3 
ROOT
ATOM      1  C2  UNL d   1       0.952   5.956  -3.609  0.00  0.00    -0.073 A 
ATOM      2  C3  UNL d   1       0.477   5.959  -4.926  0.00  0.00    -0.002 A 
ATOM      3  C4  UNL d   1       1.371   5.983  -5.997  0.00  0.00     0.004 A 
ATOM      4  C5  UNL d   1       2.746   5.997  -5.764  0.00  0.00    -0.004 A 
ATOM      5  C6  UNL d   1       3.240   5.982  -4.456  0.00  0.00    -0.075 A 
ATOM      6  C7  UNL d   1       4.716   5.999  -4.188  0.00  0.00     0.076 C 
ATOM      7  C8  UNL d   1       2.336   5.961  -3.385  0.00  0.00     0.001 A 
ENDROOT
BRANCH   1   8
ATOM      8  C1  UNL d   1      -0.009   5.924  -2.449  0.00  0.00     0.053 C 
ATOM      9  C   UNL d   1      -1.458   5.996  -2.907  0.00  0.00     0.018 C 
ENDBRANCH   1   8
TORSDOF 1
ENDMDL
