MODEL 1
REMARK minimizedAffinity 6.42459202
REMARK minimizedRMSD -1
REMARK  1 active torsions:
REMARK  status: ('A' for Active; 'I' for Inactive)
REMARK    1  A    between atoms: C1_2  and  C2_3 
ROOT
ATOM      1  C2  UNL d   1       0.315   0.977   1.236  0.00  0.00    -0.073 A 
ATOM      2  C3  UNL d   1       0.726   2.311   1.136  0.00  0.00    -0.002 A 
ATOM      3  C4  UNL d   1       0.853   2.917  -0.115  0.00  0.00     0.004 A 
ATOM      4  C5  UNL d   1       0.564   2.200  -1.275  0.00  0.00    -0.004 A 
ATOM      5  C6  UNL d   1       0.141   0.869  -1.195  0.00  0.00    -0.075 A 
ATOM      6  C7  UNL d   1      -0.172   0.083  -2.434  0.00  0.00     0.076 C 
ATOM      7  C8  UNL d   1       0.018   0.267   0.065  0.00  0.00     0.001 A 
ENDROOT
BRANCH   1   8
ATOM      8  C1  UNL d   1       0.171   0.320   2.585  0.00  0.00     0.053 C 
ATOM      9  C   UNL d   1      -1.281   0.021   2.920  0.00  0.00     0.018 C 
ENDBRANCH   1   8
TORSDOF 1
ENDMDL
