MODEL 1
REMARK minimizedAffinity 1.89687204
REMARK minimizedRMSD -1
REMARK  1 active torsions:
REMARK  status: ('A' for Active; 'I' for Inactive)
REMARK    1  A    between atoms: C1_2  and  C2_3 
ROOT
ATOM      1  C2  UNL d   1      -1.156   5.485  -3.753  0.00  0.00    -0.073 A 
ATOM      2  C3  UNL d   1      -0.637   4.625  -2.779  0.00  0.00    -0.002 A 
ATOM      3  C4  UNL d   1       0.688   4.194  -2.853  0.00  0.00     0.004 A 
ATOM      4  C5  UNL d   1       1.509   4.625  -3.895  0.00  0.00    -0.004 A 
ATOM      5  C6  UNL d   1       1.013   5.494  -4.871  0.00  0.00    -0.075 A 
ATOM      6  C7  UNL d   1       1.882   5.964  -6.000  0.00  0.00     0.076 C 
ATOM      7  C8  UNL d   1      -0.320   5.920  -4.792  0.00  0.00     0.001 A 
ENDROOT
BRANCH   1   8
ATOM      8  C1  UNL d   1      -2.585   5.958  -3.675  0.00  0.00     0.053 C 
ATOM      9  C   UNL d   1      -3.127   5.900  -2.255  0.00  0.00     0.018 C 
ENDBRANCH   1   8
TORSDOF 1
ENDMDL
