MODEL 1
REMARK minimizedAffinity 0.0632343516
REMARK minimizedRMSD -1
REMARK  1 active torsions:
REMARK  status: ('A' for Active; 'I' for Inactive)
REMARK    1  A    between atoms: C1_2  and  C2_3 
ROOT
ATOM      1  C2  UNL d   1      -0.497   5.615  -4.569  0.00  0.00    -0.073 A 
ATOM      2  C3  UNL d   1      -0.004   4.888  -3.478  0.00  0.00    -0.002 A 
ATOM      3  C4  UNL d   1      -0.851   4.530  -2.429  0.00  0.00     0.004 A 
ATOM      4  C5  UNL d   1      -2.199   4.888  -2.462  0.00  0.00    -0.004 A 
ATOM      5  C6  UNL d   1      -2.713   5.604  -3.548  0.00  0.00    -0.075 A 
ATOM      6  C7  UNL d   1      -4.160   5.998  -3.597  0.00  0.00     0.076 C 
ATOM      7  C8  UNL d   1      -1.855   5.962  -4.597  0.00  0.00     0.001 A 
ENDROOT
BRANCH   1   8
ATOM      8  C1  UNL d   1       0.413   5.998  -5.707  0.00  0.00     0.053 C 
ATOM      9  C   UNL d   1       1.878   5.978  -5.298  0.00  0.00     0.018 C 
ENDBRANCH   1   8
TORSDOF 1
ENDMDL
