MODEL 1
REMARK minimizedAffinity 13.6323223
REMARK minimizedRMSD -1
REMARK  1 active torsions:
REMARK  status: ('A' for Active; 'I' for Inactive)
REMARK    1  A    between atoms: C1_2  and  C2_3 
ROOT
ATOM      1  C2  UNL d   1      -0.179  -0.093  -2.723  0.00  0.00    -0.073 A 
ATOM      2  C3  UNL d   1       1.145   0.261  -3.009  0.00  0.00    -0.002 A 
ATOM      3  C4  UNL d   1       1.701  -0.038  -4.254  0.00  0.00     0.004 A 
ATOM      4  C5  UNL d   1       0.939  -0.685  -5.226  0.00  0.00    -0.004 A 
ATOM      5  C6  UNL d   1      -0.389  -1.036  -4.964  0.00  0.00    -0.075 A 
ATOM      6  C7  UNL d   1      -1.222  -1.734  -5.998  0.00  0.00     0.076 C 
ATOM      7  C8  UNL d   1      -0.940  -0.735  -3.710  0.00  0.00     0.001 A 
ENDROOT
BRANCH   1   8
ATOM      8  C1  UNL d   1      -0.785   0.233  -1.383  0.00  0.00     0.053 C 
ATOM      9  C   UNL d   1      -2.153  -0.407  -1.205  0.00  0.00     0.018 C 
ENDBRANCH   1   8
TORSDOF 1
ENDMDL
