MODEL 1
REMARK minimizedAffinity -1.70311606
REMARK minimizedRMSD -1
REMARK  1 active torsions:
REMARK  status: ('A' for Active; 'I' for Inactive)
REMARK    1  A    between atoms: C1_2  and  C2_3 
ROOT
ATOM      1  C2  UNL d   1       1.632   5.379  -5.341  0.00  0.00    -0.073 A 
ATOM      2  C3  UNL d   1       2.919   5.849  -5.625  0.00  0.00    -0.002 A 
ATOM      3  C4  UNL d   1       4.033   5.268  -5.017  0.00  0.00     0.004 A 
ATOM      4  C5  UNL d   1       3.872   4.207  -4.125  0.00  0.00    -0.004 A 
ATOM      5  C6  UNL d   1       2.594   3.716  -3.837  0.00  0.00    -0.075 A 
ATOM      6  C7  UNL d   1       2.404   2.577  -2.879  0.00  0.00     0.076 C 
ATOM      7  C8  UNL d   1       1.481   4.307  -4.450  0.00  0.00     0.001 A 
ENDROOT
BRANCH   1   8
ATOM      8  C1  UNL d   1       0.428   6.000  -6.000  0.00  0.00     0.053 C 
ATOM      9  C   UNL d   1      -0.793   5.976  -5.094  0.00  0.00     0.018 C 
ENDBRANCH   1   8
TORSDOF 1
ENDMDL
