MODEL 1
REMARK minimizedAffinity -1.60342515
REMARK minimizedRMSD -1
REMARK  1 active torsions:
REMARK  status: ('A' for Active; 'I' for Inactive)
REMARK    1  A    between atoms: C1_2  and  C2_3 
ROOT
ATOM      1  C2  UNL d   1      -1.354   5.997  -3.188  0.00  0.00    -0.073 A 
ATOM      2  C3  UNL d   1      -2.280   5.996  -4.237  0.00  0.00    -0.002 A 
ATOM      3  C4  UNL d   1      -1.843   5.999  -5.562  0.00  0.00     0.004 A 
ATOM      4  C5  UNL d   1      -0.479   5.994  -5.852  0.00  0.00    -0.004 A 
ATOM      5  C6  UNL d   1       0.462   5.983  -4.817  0.00  0.00    -0.075 A 
ATOM      6  C7  UNL d   1       1.933   5.980  -5.112  0.00  0.00     0.076 C 
ATOM      7  C8  UNL d   1       0.015   5.983  -3.489  0.00  0.00     0.001 A 
ENDROOT
BRANCH   1   8
ATOM      8  C1  UNL d   1      -1.821   5.988  -1.755  0.00  0.00     0.053 C 
ATOM      9  C   UNL d   1      -3.338   6.000  -1.650  0.00  0.00     0.018 C 
ENDBRANCH   1   8
TORSDOF 1
ENDMDL
