MODEL 1
REMARK minimizedAffinity 15.7703075
REMARK minimizedRMSD -1
REMARK  1 active torsions:
REMARK  status: ('A' for Active; 'I' for Inactive)
REMARK    1  A    between atoms: C1_2  and  C2_3 
ROOT
ATOM      1  C2  UNL d   1      -0.171   5.546  -3.488  0.00  0.00    -0.073 A 
ATOM      2  C3  UNL d   1      -0.934   5.515  -4.661  0.00  0.00    -0.002 A 
ATOM      3  C4  UNL d   1      -0.319   5.645  -5.906  0.00  0.00     0.004 A 
ATOM      4  C5  UNL d   1       1.065   5.800  -5.993  0.00  0.00    -0.004 A 
ATOM      5  C6  UNL d   1       1.846   5.822  -4.833  0.00  0.00    -0.075 A 
ATOM      6  C7  UNL d   1       3.335   5.990  -4.909  0.00  0.00     0.076 C 
ATOM      7  C8  UNL d   1       1.220   5.693  -3.586  0.00  0.00     0.001 A 
ENDROOT
BRANCH   1   8
ATOM      8  C1  UNL d   1      -0.830   5.399  -2.141  0.00  0.00     0.053 C 
ATOM      9  C   UNL d   1      -2.311   5.740  -2.192  0.00  0.00     0.018 C 
ENDBRANCH   1   8
TORSDOF 1
ENDMDL
