MODEL 1
REMARK minimizedAffinity 6.67627478
REMARK minimizedRMSD -1
REMARK  1 active torsions:
REMARK  status: ('A' for Active; 'I' for Inactive)
REMARK    1  A    between atoms: C1_2  and  C2_3 
ROOT
ATOM      1  C2  UNL d   1       3.250   3.613  -4.311  0.00  0.00    -0.073 A 
ATOM      2  C3  UNL d   1       4.002   2.631  -4.966  0.00  0.00    -0.002 A 
ATOM      3  C4  UNL d   1       5.371   2.511  -4.722  0.00  0.00     0.004 A 
ATOM      4  C5  UNL d   1       6.000   3.366  -3.817  0.00  0.00    -0.004 A 
ATOM      5  C6  UNL d   1       5.263   4.346  -3.144  0.00  0.00    -0.075 A 
ATOM      6  C7  UNL d   1       5.925   5.275  -2.169  0.00  0.00     0.076 C 
ATOM      7  C8  UNL d   1       3.889   4.462  -3.396  0.00  0.00     0.001 A 
ENDROOT
BRANCH   1   8
ATOM      8  C1  UNL d   1       1.771   3.741  -4.567  0.00  0.00     0.053 C 
ATOM      9  C   UNL d   1       1.407   3.386  -6.000  0.00  0.00     0.018 C 
ENDBRANCH   1   8
TORSDOF 1
ENDMDL
