MODEL 1
REMARK minimizedAffinity 12.7706137
REMARK minimizedRMSD -1
REMARK  2 active torsions:
REMARK  status: ('A' for Active; 'I' for Inactive)
REMARK    1  A    between atoms: C2'_3  and  C1'_4 
REMARK    2  A    between atoms: C1'_4  and  C1_5 
ROOT
ATOM      1  C1  I4B d   1       5.236  -4.868  -1.233  0.00  0.00    -0.075 A 
ATOM      2  C2  I4B d   1       5.713  -3.710  -0.671  0.00  0.00     0.003 A 
ATOM      3  C3  I4B d   1       5.997  -3.655   0.715  0.00  0.00     0.002 A 
ATOM      4  C4  I4B d   1       5.743  -4.757   1.505  0.00  0.00    -0.004 A 
ATOM      5  C5  I4B d   1       5.282  -5.938   0.930  0.00  0.00     0.002 A 
ATOM      6  C6  I4B d   1       5.038  -5.998  -0.450  0.00  0.00     0.003 A 
ENDROOT
BRANCH   1   7
ATOM      7  C1' I4B d   1       4.916  -4.881  -2.694  0.00  0.00     0.060 C 
BRANCH   7   8
ATOM      8  C2' I4B d   1       3.888  -3.799  -2.956  0.00  0.00    -0.013 C 
ATOM      9  C4' I4B d   1       3.589  -3.676  -4.427  0.00  0.00     0.013 C 
ATOM     10  C3' I4B d   1       2.651  -4.138  -2.179  0.00  0.00     0.013 C 
ENDBRANCH   7   8
ENDBRANCH   1   7
TORSDOF 2
ENDMDL
