MODEL 1
REMARK minimizedAffinity -1.65381551
REMARK minimizedRMSD -1
REMARK  2 active torsions:
REMARK  status: ('A' for Active; 'I' for Inactive)
REMARK    1  A    between atoms: C2'_3  and  C1'_4 
REMARK    2  A    between atoms: C1'_4  and  C1_5 
ROOT
ATOM      1  C1  I4B d   1       0.243   0.066  -0.048  0.00  0.00    -0.075 A 
ATOM      2  C2  I4B d   1      -0.416   1.187  -0.489  0.00  0.00     0.003 A 
ATOM      3  C3  I4B d   1      -1.320   1.864   0.365  0.00  0.00     0.002 A 
ATOM      4  C4  I4B d   1      -1.572   1.360   1.625  0.00  0.00    -0.004 A 
ATOM      5  C5  I4B d   1      -0.887   0.237   2.078  0.00  0.00     0.002 A 
ATOM      6  C6  I4B d   1       0.036  -0.407   1.241  0.00  0.00     0.003 A 
ENDROOT
BRANCH   1   7
ATOM      7  C1' I4B d   1       1.166  -0.643  -0.987  0.00  0.00     0.060 C 
BRANCH   7   8
ATOM      8  C2' I4B d   1       0.671  -2.066  -1.142  0.00  0.00    -0.013 C 
ATOM      9  C4' I4B d   1       0.093  -2.296  -2.514  0.00  0.00     0.013 C 
ATOM     10  C3' I4B d   1       1.824  -2.989  -0.879  0.00  0.00     0.013 C 
ENDBRANCH   7   8
ENDBRANCH   1   7
TORSDOF 2
ENDMDL
