MODEL 1
REMARK minimizedAffinity -2.70684767
REMARK minimizedRMSD -1
REMARK  2 active torsions:
REMARK  status: ('A' for Active; 'I' for Inactive)
REMARK    1  A    between atoms: C2'_3  and  C1'_4 
REMARK    2  A    between atoms: C1'_4  and  C1_5 
ROOT
ATOM      1  C1  I4B d   1      -0.979   0.986   0.038  0.00  0.00    -0.075 A 
ATOM      2  C2  I4B d   1      -0.896   0.102   1.084  0.00  0.00     0.003 A 
ATOM      3  C3  I4B d   1       0.248  -0.719   1.235  0.00  0.00     0.002 A 
ATOM      4  C4  I4B d   1       1.256  -0.660   0.294  0.00  0.00    -0.004 A 
ATOM      5  C5  I4B d   1       1.180   0.253  -0.754  0.00  0.00     0.002 A 
ATOM      6  C6  I4B d   1       0.061   1.090  -0.876  0.00  0.00     0.003 A 
ENDROOT
BRANCH   1   7
ATOM      7  C1' I4B d   1      -2.216   1.814  -0.110  0.00  0.00     0.060 C 
BRANCH   7   8
ATOM      8  C2' I4B d   1      -1.886   3.227   0.327  0.00  0.00    -0.013 C 
ATOM      9  C4' I4B d   1      -1.237   3.241   1.685  0.00  0.00     0.013 C 
ATOM     10  C3' I4B d   1      -0.987   3.833  -0.709  0.00  0.00     0.013 C 
ENDBRANCH   7   8
ENDBRANCH   1   7
TORSDOF 2
ENDMDL
