MODEL 1
REMARK minimizedAffinity -2.95309758
REMARK minimizedRMSD -1
REMARK  2 active torsions:
REMARK  status: ('A' for Active; 'I' for Inactive)
REMARK    1  A    between atoms: C2'_3  and  C1'_4 
REMARK    2  A    between atoms: C1'_4  and  C1_5 
ROOT
ATOM      1  C1  I4B d   1      -0.868   1.316  -0.254  0.00  0.00    -0.075 A 
ATOM      2  C2  I4B d   1       0.102   1.469  -1.213  0.00  0.00     0.003 A 
ATOM      3  C3  I4B d   1       1.213   0.592  -1.250  0.00  0.00     0.002 A 
ATOM      4  C4  I4B d   1       1.340  -0.385  -0.283  0.00  0.00    -0.004 A 
ATOM      5  C5  I4B d   1       0.344  -0.552   0.676  0.00  0.00     0.002 A 
ATOM      6  C6  I4B d   1      -0.773   0.296   0.683  0.00  0.00     0.003 A 
ENDROOT
BRANCH   1   7
ATOM      7  C1' I4B d   1      -2.011   2.281  -0.224  0.00  0.00     0.060 C 
BRANCH   7   8
ATOM      8  C2' I4B d   1      -2.384   2.519   1.225  0.00  0.00    -0.013 C 
ATOM      9  C4' I4B d   1      -1.160   2.590   2.098  0.00  0.00     0.013 C 
ATOM     10  C3' I4B d   1      -3.175   3.791   1.296  0.00  0.00     0.013 C 
ENDBRANCH   7   8
ENDBRANCH   1   7
TORSDOF 2
ENDMDL
