MODEL 1
REMARK minimizedAffinity -5.28366041
REMARK minimizedRMSD -1
REMARK  2 active torsions:
REMARK  status: ('A' for Active; 'I' for Inactive)
REMARK    1  A    between atoms: C2'_3  and  C1'_4 
REMARK    2  A    between atoms: C1'_4  and  C1_5 
ROOT
ATOM      1  C1  I4B d   1      -0.763   1.868  -0.537  0.00  0.00    -0.075 A 
ATOM      2  C2  I4B d   1      -1.917   1.133  -0.644  0.00  0.00     0.003 A 
ATOM      3  C3  I4B d   1      -3.077   1.521   0.070  0.00  0.00     0.002 A 
ATOM      4  C4  I4B d   1      -3.024   2.613   0.912  0.00  0.00    -0.004 A 
ATOM      5  C5  I4B d   1      -1.859   3.370   1.001  0.00  0.00     0.002 A 
ATOM      6  C6  I4B d   1      -0.725   3.002   0.263  0.00  0.00     0.003 A 
ENDROOT
BRANCH   1   7
ATOM      7  C1' I4B d   1       0.453   1.411  -1.279  0.00  0.00     0.060 C 
BRANCH   7   8
ATOM      8  C2' I4B d   1       0.394  -0.100  -1.386  0.00  0.00    -0.013 C 
ATOM      9  C4' I4B d   1       0.697  -0.559  -2.788  0.00  0.00     0.013 C 
ATOM     10  C3' I4B d   1       1.375  -0.671  -0.406  0.00  0.00     0.013 C 
ENDBRANCH   7   8
ENDBRANCH   1   7
TORSDOF 2
ENDMDL
