MODEL 1
REMARK minimizedAffinity -0.955030441
REMARK minimizedRMSD -1
REMARK  2 active torsions:
REMARK  status: ('A' for Active; 'I' for Inactive)
REMARK    1  A    between atoms: C2'_3  and  C1'_4 
REMARK    2  A    between atoms: C1'_4  and  C1_5 
ROOT
ATOM      1  C1  I4B d   1       0.619   0.947   0.148  0.00  0.00    -0.075 A 
ATOM      2  C2  I4B d   1       1.203   0.927  -1.094  0.00  0.00     0.003 A 
ATOM      3  C3  I4B d   1       1.197   2.090  -1.903  0.00  0.00     0.002 A 
ATOM      4  C4  I4B d   1       0.556   3.226  -1.455  0.00  0.00    -0.004 A 
ATOM      5  C5  I4B d   1      -0.016   3.251  -0.186  0.00  0.00     0.002 A 
ATOM      6  C6  I4B d   1       0.027   2.109   0.626  0.00  0.00     0.003 A 
ENDROOT
BRANCH   1   7
ATOM      7  C1' I4B d   1       0.615  -0.308   0.962  0.00  0.00     0.060 C 
BRANCH   7   8
ATOM      8  C2' I4B d   1      -0.803  -0.552   1.436  0.00  0.00    -0.013 C 
ATOM      9  C4' I4B d   1      -1.288   0.575   2.310  0.00  0.00     0.013 C 
ATOM     10  C3' I4B d   1      -1.674  -0.713   0.226  0.00  0.00     0.013 C 
ENDBRANCH   7   8
ENDBRANCH   1   7
TORSDOF 2
ENDMDL
