MODEL 1
REMARK minimizedAffinity -3.50370336
REMARK minimizedRMSD -1
REMARK  2 active torsions:
REMARK  status: ('A' for Active; 'I' for Inactive)
REMARK    1  A    between atoms: C2'_3  and  C1'_4 
REMARK    2  A    between atoms: C1'_4  and  C1_5 
ROOT
ATOM      1  C1  I4B d   1      -1.091   0.798   0.362  0.00  0.00    -0.075 A 
ATOM      2  C2  I4B d   1      -0.580   0.542  -0.886  0.00  0.00     0.003 A 
ATOM      3  C3  I4B d   1       0.464  -0.401  -1.049  0.00  0.00     0.002 A 
ATOM      4  C4  I4B d   1       0.997  -1.023   0.061  0.00  0.00    -0.004 A 
ATOM      5  C5  I4B d   1       0.463  -0.779   1.322  0.00  0.00     0.002 A 
ATOM      6  C6  I4B d   1      -0.596   0.127   1.473  0.00  0.00     0.003 A 
ENDROOT
BRANCH   1   7
ATOM      7  C1' I4B d   1      -2.171   1.824   0.503  0.00  0.00     0.060 C 
BRANCH   7   8
ATOM      8  C2' I4B d   1      -1.603   2.996   1.276  0.00  0.00    -0.013 C 
ATOM      9  C4' I4B d   1      -0.354   3.527   0.623  0.00  0.00     0.013 C 
ATOM     10  C3' I4B d   1      -2.663   4.054   1.359  0.00  0.00     0.013 C 
ENDBRANCH   7   8
ENDBRANCH   1   7
TORSDOF 2
ENDMDL
