MODEL 1
REMARK minimizedAffinity -3.30578232
REMARK minimizedRMSD -1
REMARK  2 active torsions:
REMARK  status: ('A' for Active; 'I' for Inactive)
REMARK    1  A    between atoms: C2'_3  and  C1'_4 
REMARK    2  A    between atoms: C1'_4  and  C1_5 
ROOT
ATOM      1  C1  I4B d   1      -0.311   0.976  -0.478  0.00  0.00    -0.075 A 
ATOM      2  C2  I4B d   1      -0.617   2.302  -0.658  0.00  0.00     0.003 A 
ATOM      3  C3  I4B d   1      -1.583   2.929   0.165  0.00  0.00     0.002 A 
ATOM      4  C4  I4B d   1      -2.252   2.186   1.115  0.00  0.00    -0.004 A 
ATOM      5  C5  I4B d   1      -1.925   0.847   1.312  0.00  0.00     0.002 A 
ATOM      6  C6  I4B d   1      -0.940   0.241   0.519  0.00  0.00     0.003 A 
ENDROOT
BRANCH   1   7
ATOM      7  C1' I4B d   1       0.690   0.336  -1.386  0.00  0.00     0.060 C 
BRANCH   7   8
ATOM      8  C2' I4B d   1       0.782  -1.131  -1.021  0.00  0.00    -0.013 C 
ATOM      9  C4' I4B d   1       0.339  -2.006  -2.165  0.00  0.00     0.013 C 
ATOM     10  C3' I4B d   1       2.200  -1.424  -0.633  0.00  0.00     0.013 C 
ENDBRANCH   7   8
ENDBRANCH   1   7
TORSDOF 2
ENDMDL
