MODEL 1
REMARK minimizedAffinity -2.10372424
REMARK minimizedRMSD -1
REMARK  2 active torsions:
REMARK  status: ('A' for Active; 'I' for Inactive)
REMARK    1  A    between atoms: C2'_3  and  C1'_4 
REMARK    2  A    between atoms: C1'_4  and  C1_5 
ROOT
ATOM      1  C1  I4B d   1      -0.104  -0.045  -0.333  0.00  0.00    -0.075 A 
ATOM      2  C2  I4B d   1       0.226  -0.058   0.999  0.00  0.00     0.003 A 
ATOM      3  C3  I4B d   1      -0.449   0.791   1.909  0.00  0.00     0.002 A 
ATOM      4  C4  I4B d   1      -1.406   1.667   1.439  0.00  0.00    -0.004 A 
ATOM      5  C5  I4B d   1      -1.756   1.662   0.092  0.00  0.00     0.002 A 
ATOM      6  C6  I4B d   1      -1.110   0.792  -0.798  0.00  0.00     0.003 A 
ENDROOT
BRANCH   1   7
ATOM      7  C1' I4B d   1       0.652  -0.931  -1.272  0.00  0.00     0.060 C 
BRANCH   7   8
ATOM      8  C2' I4B d   1      -0.278  -2.040  -1.718  0.00  0.00    -0.013 C 
ATOM      9  C4' I4B d   1      -0.598  -1.926  -3.185  0.00  0.00     0.013 C 
ATOM     10  C3' I4B d   1       0.382  -3.351  -1.408  0.00  0.00     0.013 C 
ENDBRANCH   7   8
ENDBRANCH   1   7
TORSDOF 2
ENDMDL
