MODEL 1
REMARK minimizedAffinity -2.82411599
REMARK minimizedRMSD -1
REMARK  2 active torsions:
REMARK  status: ('A' for Active; 'I' for Inactive)
REMARK    1  A    between atoms: C2'_3  and  C1'_4 
REMARK    2  A    between atoms: C1'_4  and  C1_5 
ROOT
ATOM      1  C1  I4B d   1      -0.848   0.562  -0.088  0.00  0.00    -0.075 A 
ATOM      2  C2  I4B d   1      -1.058   1.759  -0.726  0.00  0.00     0.003 A 
ATOM      3  C3  I4B d   1      -0.026   2.346  -1.498  0.00  0.00     0.002 A 
ATOM      4  C4  I4B d   1       1.207   1.731  -1.563  0.00  0.00    -0.004 A 
ATOM      5  C5  I4B d   1       1.411   0.506  -0.935  0.00  0.00     0.002 A 
ATOM      6  C6  I4B d   1       0.374  -0.088  -0.202  0.00  0.00     0.003 A 
ENDROOT
BRANCH   1   7
ATOM      7  C1' I4B d   1      -1.948  -0.013   0.746  0.00  0.00     0.060 C 
BRANCH   7   8
ATOM      8  C2' I4B d   1      -1.674   0.345   2.193  0.00  0.00    -0.013 C 
ATOM      9  C4' I4B d   1      -0.840  -0.713   2.867  0.00  0.00     0.013 C 
ATOM     10  C3' I4B d   1      -0.983   1.676   2.217  0.00  0.00     0.013 C 
ENDBRANCH   7   8
ENDBRANCH   1   7
TORSDOF 2
ENDMDL
