MODEL 1
REMARK minimizedAffinity -3.91534233
REMARK minimizedRMSD -1
REMARK  2 active torsions:
REMARK  status: ('A' for Active; 'I' for Inactive)
REMARK    1  A    between atoms: C2'_3  and  C1'_4 
REMARK    2  A    between atoms: C1'_4  and  C1_5 
ROOT
ATOM      1  C1  I4B d   1      -0.407   0.409   0.794  0.00  0.00    -0.075 A 
ATOM      2  C2  I4B d   1       0.025   1.007  -0.363  0.00  0.00     0.003 A 
ATOM      3  C3  I4B d   1       1.122   0.468  -1.079  0.00  0.00     0.002 A 
ATOM      4  C4  I4B d   1       1.784  -0.634  -0.577  0.00  0.00    -0.004 A 
ATOM      5  C5  I4B d   1       1.330  -1.253   0.584  0.00  0.00     0.002 A 
ATOM      6  C6  I4B d   1       0.220  -0.736   1.267  0.00  0.00     0.003 A 
ENDROOT
BRANCH   1   7
ATOM      7  C1' I4B d   1      -1.547   1.024   1.541  0.00  0.00     0.060 C 
BRANCH   7   8
ATOM      8  C2' I4B d   1      -1.190   2.468   1.831  0.00  0.00    -0.013 C 
ATOM      9  C4' I4B d   1      -2.410   3.350   1.789  0.00  0.00     0.013 C 
ATOM     10  C3' I4B d   1      -0.530   2.520   3.176  0.00  0.00     0.013 C 
ENDBRANCH   7   8
ENDBRANCH   1   7
TORSDOF 2
ENDMDL
