MODEL 1
REMARK minimizedAffinity -1.07672071
REMARK minimizedRMSD -1
REMARK  2 active torsions:
REMARK  status: ('A' for Active; 'I' for Inactive)
REMARK    1  A    between atoms: C2'_3  and  C1'_4 
REMARK    2  A    between atoms: C1'_4  and  C1_5 
ROOT
ATOM      1  C1  I4B d   1      -1.462   1.112   1.052  0.00  0.00    -0.075 A 
ATOM      2  C2  I4B d   1      -1.066   0.494  -0.108  0.00  0.00     0.003 A 
ATOM      3  C3  I4B d   1      -0.009  -0.448  -0.089  0.00  0.00     0.002 A 
ATOM      4  C4  I4B d   1       0.653  -0.704   1.095  0.00  0.00    -0.004 A 
ATOM      5  C5  I4B d   1       0.234  -0.094   2.274  0.00  0.00     0.002 A 
ATOM      6  C6  I4B d   1      -0.837   0.810   2.255  0.00  0.00     0.003 A 
ENDROOT
BRANCH   1   7
ATOM      7  C1' I4B d   1      -2.559   2.126   0.990  0.00  0.00     0.060 C 
BRANCH   7   8
ATOM      8  C2' I4B d   1      -1.928   3.484   0.759  0.00  0.00    -0.013 C 
ATOM      9  C4' I4B d   1      -1.459   3.632  -0.665  0.00  0.00     0.013 C 
ATOM     10  C3' I4B d   1      -2.942   4.532   1.107  0.00  0.00     0.013 C 
ENDBRANCH   7   8
ENDBRANCH   1   7
TORSDOF 2
ENDMDL
