MODEL 1
REMARK minimizedAffinity 0.609544158
REMARK minimizedRMSD -1
REMARK  1 active torsions:
REMARK  status: ('A' for Active; 'I' for Inactive)
REMARK    1  A    between atoms: N_2  and  C1_3 
ROOT
ATOM      1  C1  UNL d   1      -0.721  -3.794   0.650  0.00  0.00     0.143 A 
ATOM      2  C2  UNL d   1       0.132  -4.221  -0.373  0.00  0.00    -0.057 A 
ATOM      3  C3  UNL d   1      -0.357  -4.509  -1.653  0.00  0.00     0.033 A 
ATOM      4  C4  UNL d   1      -1.717  -4.401  -1.926  0.00  0.00    -0.042 A 
ATOM      5  C5  UNL d   1      -2.587  -4.002  -0.917  0.00  0.00     0.033 A 
ATOM      6  C6  UNL d   1      -2.092  -3.710   0.357  0.00  0.00    -0.057 A 
ENDROOT
BRANCH   1   7
ATOM      7  N   UNL d   1      -0.311  -3.588   1.969  0.00  0.00    -0.732 N 
ATOM      8  C   UNL d   1      -0.020  -4.711   2.835  0.00  0.00     0.284 C 
ATOM      9  H3  UNL d   1       0.345  -2.815   2.056  0.00  0.00     0.395 HD
ENDBRANCH   1   7
TORSDOF 1
ENDMDL
