MODEL 1
REMARK minimizedAffinity 3.90446377
REMARK minimizedRMSD -1
REMARK  1 active torsions:
REMARK  status: ('A' for Active; 'I' for Inactive)
REMARK    1  A    between atoms: N_2  and  C1_3 
ROOT
ATOM      1  C1  UNL d   1       1.637  -2.301   0.312  0.00  0.00     0.143 A 
ATOM      2  C2  UNL d   1       0.923  -2.690   1.451  0.00  0.00    -0.057 A 
ATOM      3  C3  UNL d   1      -0.168  -3.562   1.361  0.00  0.00     0.033 A 
ATOM      4  C4  UNL d   1      -0.584  -4.041   0.123  0.00  0.00    -0.042 A 
ATOM      5  C5  UNL d   1       0.095  -3.648  -1.025  0.00  0.00     0.033 A 
ATOM      6  C6  UNL d   1       1.188  -2.782  -0.928  0.00  0.00    -0.057 A 
ENDROOT
BRANCH   1   7
ATOM      7  N   UNL d   1       2.668  -1.359   0.325  0.00  0.00    -0.732 N 
ATOM      8  C   UNL d   1       2.375   0.053   0.442  0.00  0.00     0.284 C 
ATOM      9  H3  UNL d   1       3.467  -1.665   0.876  0.00  0.00     0.395 HD
ENDBRANCH   1   7
TORSDOF 1
ENDMDL
