MODEL 1
REMARK minimizedAffinity -0.805616796
REMARK minimizedRMSD -1
REMARK  1 active torsions:
REMARK  status: ('A' for Active; 'I' for Inactive)
REMARK    1  A    between atoms: N_2  and  C1_3 
ROOT
ATOM      1  C1  UNL d   1      -1.811   2.651  -3.909  0.00  0.00     0.143 A 
ATOM      2  C2  UNL d   1      -2.212   3.464  -4.975  0.00  0.00    -0.057 A 
ATOM      3  C3  UNL d   1      -1.320   3.815  -5.996  0.00  0.00     0.033 A 
ATOM      4  C4  UNL d   1       0.001   3.383  -5.952  0.00  0.00    -0.042 A 
ATOM      5  C5  UNL d   1       0.428   2.595  -4.889  0.00  0.00     0.033 A 
ATOM      6  C6  UNL d   1      -0.469   2.242  -3.877  0.00  0.00    -0.057 A 
ENDROOT
BRANCH   1   7
ATOM      7  N   UNL d   1      -2.624   2.348  -2.814  0.00  0.00    -0.732 N 
ATOM      8  C   UNL d   1      -4.016   2.002  -3.003  0.00  0.00     0.284 C 
ATOM      9  H3  UNL d   1      -2.144   1.779  -2.120  0.00  0.00     0.395 HD
ENDBRANCH   1   7
TORSDOF 1
ENDMDL
