MODEL 1
REMARK minimizedAffinity 7.55316162
REMARK minimizedRMSD -1
REMARK  1 active torsions:
REMARK  status: ('A' for Active; 'I' for Inactive)
REMARK    1  A    between atoms: N_2  and  C1_3 
ROOT
ATOM      1  C1  UNL d   1       0.115  -3.311  -0.341  0.00  0.00     0.143 A 
ATOM      2  C2  UNL d   1       1.165  -3.632  -1.207  0.00  0.00    -0.057 A 
ATOM      3  C3  UNL d   1       2.410  -2.999  -1.107  0.00  0.00     0.033 A 
ATOM      4  C4  UNL d   1       2.617  -2.008  -0.153  0.00  0.00    -0.042 A 
ATOM      5  C5  UNL d   1       1.580  -1.654   0.703  0.00  0.00     0.033 A 
ATOM      6  C6  UNL d   1       0.342  -2.295   0.602  0.00  0.00    -0.057 A 
ENDROOT
BRANCH   1   7
ATOM      7  N   UNL d   1      -1.175  -3.834  -0.454  0.00  0.00    -0.732 N 
ATOM      8  C   UNL d   1      -1.819  -3.934  -1.746  0.00  0.00     0.284 C 
ATOM      9  H3  UNL d   1      -1.321  -4.642   0.147  0.00  0.00     0.395 HD
ENDBRANCH   1   7
TORSDOF 1
ENDMDL
