MODEL 1
REMARK minimizedAffinity 1.31715989
REMARK minimizedRMSD -1
REMARK  1 active torsions:
REMARK  status: ('A' for Active; 'I' for Inactive)
REMARK    1  A    between atoms: N_2  and  C1_3 
ROOT
ATOM      1  C1  UNL d   1      -0.533   2.624  -4.845  0.00  0.00     0.143 A 
ATOM      2  C2  UNL d   1      -0.825   3.855  -5.442  0.00  0.00    -0.057 A 
ATOM      3  C3  UNL d   1      -2.084   4.111  -6.000  0.00  0.00     0.033 A 
ATOM      4  C4  UNL d   1      -3.066   3.126  -5.996  0.00  0.00    -0.042 A 
ATOM      5  C5  UNL d   1      -2.789   1.886  -5.430  0.00  0.00     0.033 A 
ATOM      6  C6  UNL d   1      -1.533   1.639  -4.869  0.00  0.00    -0.057 A 
ENDROOT
BRANCH   1   7
ATOM      7  N   UNL d   1       0.730   2.275  -4.361  0.00  0.00    -0.732 N 
ATOM      8  C   UNL d   1       1.876   2.245  -5.245  0.00  0.00     0.284 C 
ATOM      9  H3  UNL d   1       0.921   2.679  -3.447  0.00  0.00     0.395 HD
ENDBRANCH   1   7
TORSDOF 1
ENDMDL
