MODEL 1
REMARK minimizedAffinity -1.23026729
REMARK minimizedRMSD -1
REMARK  1 active torsions:
REMARK  status: ('A' for Active; 'I' for Inactive)
REMARK    1  A    between atoms: N_2  and  C1_3 
ROOT
ATOM      1  C1  UNL d   1       0.710   2.427   2.088  0.00  0.00     0.143 A 
ATOM      2  C2  UNL d   1       0.825   3.590   1.319  0.00  0.00    -0.057 A 
ATOM      3  C3  UNL d   1       1.587   3.612   0.145  0.00  0.00     0.033 A 
ATOM      4  C4  UNL d   1       2.272   2.474  -0.269  0.00  0.00    -0.042 A 
ATOM      5  C5  UNL d   1       2.191   1.313   0.492  0.00  0.00     0.033 A 
ATOM      6  C6  UNL d   1       1.424   1.296   1.661  0.00  0.00    -0.057 A 
ENDROOT
BRANCH   1   7
ATOM      7  N   UNL d   1       0.049   2.369   3.317  0.00  0.00    -0.732 N 
ATOM      8  C   UNL d   1      -1.083   3.229   3.586  0.00  0.00     0.284 C 
ATOM      9  H3  UNL d   1      -0.065   1.415   3.652  0.00  0.00     0.395 HD
ENDBRANCH   1   7
TORSDOF 1
ENDMDL
