MODEL 1
REMARK minimizedAffinity 1.85826385
REMARK minimizedRMSD -1
REMARK  1 active torsions:
REMARK  status: ('A' for Active; 'I' for Inactive)
REMARK    1  A    between atoms: N_2  and  C1_3 
ROOT
ATOM      1  C1  UNL d   1      -0.221   1.869  -4.694  0.00  0.00     0.143 A 
ATOM      2  C2  UNL d   1      -1.271   1.225  -5.357  0.00  0.00    -0.057 A 
ATOM      3  C3  UNL d   1      -2.575   1.249  -4.847  0.00  0.00     0.033 A 
ATOM      4  C4  UNL d   1      -2.846   1.896  -3.646  0.00  0.00    -0.042 A 
ATOM      5  C5  UNL d   1      -1.813   2.522  -2.958  0.00  0.00     0.033 A 
ATOM      6  C6  UNL d   1      -0.515   2.500  -3.475  0.00  0.00    -0.057 A 
ENDROOT
BRANCH   1   7
ATOM      7  N   UNL d   1       1.115   1.798  -5.099  0.00  0.00    -0.732 N 
ATOM      8  C   UNL d   1       2.164   1.539  -4.136  0.00  0.00     0.284 C 
ATOM      9  H3  UNL d   1       1.227   1.302  -5.981  0.00  0.00     0.395 HD
ENDBRANCH   1   7
TORSDOF 1
ENDMDL
