MODEL 1
REMARK minimizedAffinity 3.86150241
REMARK minimizedRMSD -1
REMARK  1 active torsions:
REMARK  status: ('A' for Active; 'I' for Inactive)
REMARK    1  A    between atoms: N_2  and  C1_3 
ROOT
ATOM      1  C1  UNL d   1      -0.945   2.806  -5.112  0.00  0.00     0.143 A 
ATOM      2  C2  UNL d   1      -1.662   1.706  -4.631  0.00  0.00    -0.057 A 
ATOM      3  C3  UNL d   1      -3.039   1.584  -4.851  0.00  0.00     0.033 A 
ATOM      4  C4  UNL d   1      -3.731   2.579  -5.534  0.00  0.00    -0.042 A 
ATOM      5  C5  UNL d   1      -3.043   3.694  -5.999  0.00  0.00     0.033 A 
ATOM      6  C6  UNL d   1      -1.667   3.807  -5.782  0.00  0.00    -0.057 A 
ENDROOT
BRANCH   1   7
ATOM      7  N   UNL d   1       0.407   3.033  -4.840  0.00  0.00    -0.732 N 
ATOM      8  C   UNL d   1       1.263   1.950  -4.406  0.00  0.00     0.284 C 
ATOM      9  H3  UNL d   1       0.839   3.660  -5.515  0.00  0.00     0.395 HD
ENDBRANCH   1   7
TORSDOF 1
ENDMDL
