MODEL 1
REMARK minimizedAffinity 6.10066462
REMARK minimizedRMSD -1
REMARK  1 active torsions:
REMARK  status: ('A' for Active; 'I' for Inactive)
REMARK    1  A    between atoms: N_2  and  C1_3 
ROOT
ATOM      1  C1  UNL d   1      -0.095   3.827  -5.243  0.00  0.00     0.143 A 
ATOM      2  C2  UNL d   1       1.009   4.241  -5.996  0.00  0.00    -0.057 A 
ATOM      3  C3  UNL d   1       2.205   3.513  -5.992  0.00  0.00     0.033 A 
ATOM      4  C4  UNL d   1       2.328   2.370  -5.208  0.00  0.00    -0.042 A 
ATOM      5  C5  UNL d   1       1.252   1.954  -4.433  0.00  0.00     0.033 A 
ATOM      6  C6  UNL d   1       0.058   2.681  -4.446  0.00  0.00    -0.057 A 
ENDROOT
BRANCH   1   7
ATOM      7  N   UNL d   1      -1.278   4.561  -5.128  0.00  0.00    -0.732 N 
ATOM      8  C   UNL d   1      -2.402   4.289  -5.998  0.00  0.00     0.284 C 
ATOM      9  H3  UNL d   1      -1.535   4.735  -4.159  0.00  0.00     0.395 HD
ENDBRANCH   1   7
TORSDOF 1
ENDMDL
