MODEL 1
REMARK minimizedAffinity 3.18418384
REMARK minimizedRMSD -1
REMARK  1 active torsions:
REMARK  status: ('A' for Active; 'I' for Inactive)
REMARK    1  A    between atoms: N_2  and  C1_3 
ROOT
ATOM      1  C1  UNL d   1      -2.101   2.118  -4.282  0.00  0.00     0.143 A 
ATOM      2  C2  UNL d   1      -0.874   1.524  -3.971  0.00  0.00    -0.057 A 
ATOM      3  C3  UNL d   1       0.301   1.890  -4.640  0.00  0.00     0.033 A 
ATOM      4  C4  UNL d   1       0.262   2.841  -5.655  0.00  0.00    -0.042 A 
ATOM      5  C5  UNL d   1      -0.951   3.427  -5.998  0.00  0.00     0.033 A 
ATOM      6  C6  UNL d   1      -2.119   3.061  -5.321  0.00  0.00    -0.057 A 
ENDROOT
BRANCH   1   7
ATOM      7  N   UNL d   1      -3.319   1.726  -3.721  0.00  0.00    -0.732 N 
ATOM      8  C   UNL d   1      -3.573   1.907  -2.308  0.00  0.00     0.284 C 
ATOM      9  H3  UNL d   1      -4.112   1.951  -4.318  0.00  0.00     0.395 HD
ENDBRANCH   1   7
TORSDOF 1
ENDMDL
