MODEL 1
REMARK minimizedAffinity -0.292197615
REMARK minimizedRMSD -1
REMARK  1 active torsions:
REMARK  status: ('A' for Active; 'I' for Inactive)
REMARK    1  A    between atoms: C1_2  and  C2_3 
ROOT
ATOM      1  C2  UNL d   1       0.057  -0.002  -1.387  0.00  0.00    -0.081 A 
ATOM      2  C3  UNL d   1       0.813  -0.438  -0.291  0.00  0.00     0.006 A 
ATOM      3  C4  UNL d   1       0.298  -0.351   1.004  0.00  0.00     0.002 A 
ATOM      4  C5  UNL d   1      -0.983   0.166   1.226  0.00  0.00    -0.080 A 
ATOM      5  C6  UNL d   1      -1.560   0.237   2.608  0.00  0.00     0.076 C 
ATOM      6  C7  UNL d   1      -1.732   0.618   0.133  0.00  0.00     0.002 A 
ATOM      7  C8  UNL d   1      -1.217   0.532  -1.162  0.00  0.00     0.006 A 
ENDROOT
BRANCH   1   8
ATOM      8  C1  UNL d   1       0.583  -0.154  -2.791  0.00  0.00     0.054 C 
ATOM      9  C   UNL d   1       1.871   0.633  -2.987  0.00  0.00     0.018 C 
ENDBRANCH   1   8
TORSDOF 1
ENDMDL
