MODEL 1
REMARK minimizedAffinity -1.09313071
REMARK minimizedRMSD -1
REMARK  0 active torsions:
REMARK  status: ('A' for Active; 'I' for Inactive)
ROOT
ATOM      1  N1  IND d   1       1.432  -1.508   0.449  0.00  0.00    -0.196 N 
ATOM      2  C2  IND d   1       1.432  -0.201   0.849  0.00  0.00     0.054 A 
ATOM      3  C3  IND d   1       0.369   0.451   0.326  0.00  0.00    -0.031 A 
ATOM      4  C4  IND d   1      -1.552  -0.454  -1.128  0.00  0.00     0.051 A 
ATOM      5  C5  IND d   1      -1.969  -1.579  -1.783  0.00  0.00    -0.031 A 
ATOM      6  C6  IND d   1      -1.262  -2.762  -1.724  0.00  0.00     0.015 A 
ATOM      7  C7  IND d   1      -0.111  -2.868  -0.995  0.00  0.00    -0.016 A 
ATOM      8  C8  IND d   1       0.320  -1.726  -0.335  0.00  0.00    -0.047 A 
ATOM      9  C9  IND d   1      -0.372  -0.511  -0.425  0.00  0.00    -0.096 A 
ATOM     10  HN1 IND d   1       2.026  -2.095   0.652  0.00  0.00     0.298 HD
ENDROOT
TORSDOF 0
ENDMDL
