MODEL 1
REMARK minimizedAffinity 5.4517622
REMARK minimizedRMSD -1
REMARK  0 active torsions:
REMARK  status: ('A' for Active; 'I' for Inactive)
ROOT
ATOM      1  N1  IND d   1       1.842  -1.541  -4.454  0.00  0.00    -0.196 N 
ATOM      2  C2  IND d   1       2.985  -2.290  -4.460  0.00  0.00     0.054 A 
ATOM      3  C3  IND d   1       4.070  -1.490  -4.566  0.00  0.00    -0.031 A 
ATOM      4  C4  IND d   1       4.207   1.079  -4.640  0.00  0.00     0.051 A 
ATOM      5  C5  IND d   1       3.425   2.199  -4.698  0.00  0.00    -0.031 A 
ATOM      6  C6  IND d   1       2.047   2.127  -4.675  0.00  0.00     0.015 A 
ATOM      7  C7  IND d   1       1.398   0.929  -4.580  0.00  0.00    -0.016 A 
ATOM      8  C8  IND d   1       2.189  -0.210  -4.528  0.00  0.00    -0.047 A 
ATOM      9  C9  IND d   1       3.586  -0.146  -4.595  0.00  0.00    -0.096 A 
ATOM     10  HN1 IND d   1       1.040  -1.850  -4.411  0.00  0.00     0.298 HD
ENDROOT
TORSDOF 0
ENDMDL
