MODEL 1
REMARK minimizedAffinity 0.641869366
REMARK minimizedRMSD -1
REMARK  0 active torsions:
REMARK  status: ('A' for Active; 'I' for Inactive)
ROOT
ATOM      1  N1  IND d   1       1.256   1.173   3.392  0.00  0.00    -0.196 N 
ATOM      2  C2  IND d   1       0.157   0.643   4.008  0.00  0.00     0.054 A 
ATOM      3  C3  IND d   1      -0.443  -0.261   3.202  0.00  0.00    -0.031 A 
ATOM      4  C4  IND d   1       0.265  -1.103   0.875  0.00  0.00     0.051 A 
ATOM      5  C5  IND d   1       1.182  -0.887  -0.115  0.00  0.00    -0.031 A 
ATOM      6  C6  IND d   1       2.193   0.043   0.017  0.00  0.00     0.015 A 
ATOM      7  C7  IND d   1       2.332   0.788   1.154  0.00  0.00    -0.016 A 
ATOM      8  C8  IND d   1       1.398   0.576   2.159  0.00  0.00    -0.047 A 
ATOM      9  C9  IND d   1       0.345  -0.336   2.013  0.00  0.00    -0.096 A 
ATOM     10  HN1 IND d   1       1.772   1.778   3.720  0.00  0.00     0.298 HD
ENDROOT
TORSDOF 0
ENDMDL
