MODEL 1
REMARK minimizedAffinity 6.29473972
REMARK minimizedRMSD -1
REMARK  0 active torsions:
REMARK  status: ('A' for Active; 'I' for Inactive)
ROOT
ATOM      1  N1  IND d   1       0.491  -1.160   0.875  0.00  0.00    -0.196 N 
ATOM      2  C2  IND d   1       0.872  -1.382  -0.419  0.00  0.00     0.054 A 
ATOM      3  C3  IND d   1       1.806  -0.480  -0.795  0.00  0.00    -0.031 A 
ATOM      4  C4  IND d   1       2.929   1.383   0.581  0.00  0.00     0.051 A 
ATOM      5  C5  IND d   1       2.885   1.997   1.801  0.00  0.00    -0.031 A 
ATOM      6  C6  IND d   1       2.024   1.580   2.796  0.00  0.00     0.015 A 
ATOM      7  C7  IND d   1       1.181   0.521   2.611  0.00  0.00    -0.016 A 
ATOM      8  C8  IND d   1       1.219  -0.100   1.371  0.00  0.00    -0.047 A 
ATOM      9  C9  IND d   1       2.059   0.346   0.343  0.00  0.00    -0.096 A 
ATOM     10  HN1 IND d   1      -0.103  -1.607   1.307  0.00  0.00     0.298 HD
ENDROOT
TORSDOF 0
ENDMDL
