MODEL 1
REMARK minimizedAffinity 17.7712975
REMARK minimizedRMSD -1
REMARK  0 active torsions:
REMARK  status: ('A' for Active; 'I' for Inactive)
ROOT
ATOM      1  N1  IND d   1       2.280   1.577  -5.092  0.00  0.00    -0.196 N 
ATOM      2  C2  IND d   1       1.391   0.575  -5.365  0.00  0.00     0.054 A 
ATOM      3  C3  IND d   1       1.465  -0.389  -4.420  0.00  0.00    -0.031 A 
ATOM      4  C4  IND d   1       2.899  -0.479  -2.284  0.00  0.00     0.051 A 
ATOM      5  C5  IND d   1       3.891   0.190  -1.624  0.00  0.00    -0.031 A 
ATOM      6  C6  IND d   1       4.406   1.381  -2.094  0.00  0.00     0.015 A 
ATOM      7  C7  IND d   1       3.937   1.955  -3.241  0.00  0.00    -0.016 A 
ATOM      8  C8  IND d   1       2.934   1.275  -3.918  0.00  0.00    -0.047 A 
ATOM      9  C9  IND d   1       2.438   0.045  -3.468  0.00  0.00    -0.096 A 
ATOM     10  HN1 IND d   1       2.408   2.278  -5.573  0.00  0.00     0.298 HD
ENDROOT
TORSDOF 0
ENDMDL
