MODEL 1
REMARK minimizedAffinity 8.58359814
REMARK minimizedRMSD -1
REMARK  0 active torsions:
REMARK  status: ('A' for Active; 'I' for Inactive)
ROOT
ATOM      1  N1  IND d   1      -1.876  -5.233  -3.014  0.00  0.00    -0.196 N 
ATOM      2  C2  IND d   1      -1.039  -6.000  -2.252  0.00  0.00     0.054 A 
ATOM      3  C3  IND d   1       0.207  -5.999  -2.777  0.00  0.00    -0.031 A 
ATOM      4  C4  IND d   1       1.120  -4.728  -4.821  0.00  0.00     0.051 A 
ATOM      5  C5  IND d   1       0.725  -3.928  -5.856  0.00  0.00    -0.031 A 
ATOM      6  C6  IND d   1      -0.583  -3.512  -5.999  0.00  0.00     0.015 A 
ATOM      7  C7  IND d   1      -1.547  -3.872  -5.100  0.00  0.00    -0.016 A 
ATOM      8  C8  IND d   1      -1.151  -4.690  -4.051  0.00  0.00    -0.047 A 
ATOM      9  C9  IND d   1       0.166  -5.150  -3.925  0.00  0.00    -0.096 A 
ATOM     10  HN1 IND d   1      -2.715  -5.111  -2.869  0.00  0.00     0.298 HD
ENDROOT
TORSDOF 0
ENDMDL
