MODEL 1
REMARK minimizedAffinity 4.28521919
REMARK minimizedRMSD -1
REMARK  0 active torsions:
REMARK  status: ('A' for Active; 'I' for Inactive)
ROOT
ATOM      1  N1  IND d   1      -4.188   1.655   0.024  0.00  0.00    -0.196 N 
ATOM      2  C2  IND d   1      -4.577   1.061  -1.144  0.00  0.00     0.054 A 
ATOM      3  C3  IND d   1      -4.183  -0.232  -1.168  0.00  0.00    -0.031 A 
ATOM      4  C4  IND d   1      -2.980  -1.609   0.645  0.00  0.00     0.051 A 
ATOM      5  C5  IND d   1      -2.388  -1.491   1.871  0.00  0.00    -0.031 A 
ATOM      6  C6  IND d   1      -2.368  -0.296   2.559  0.00  0.00     0.015 A 
ATOM      7  C7  IND d   1      -2.952   0.830   2.050  0.00  0.00    -0.016 A 
ATOM      8  C8  IND d   1      -3.547   0.716   0.802  0.00  0.00    -0.047 A 
ATOM      9  C9  IND d   1      -3.534  -0.484   0.080  0.00  0.00    -0.096 A 
ATOM     10  HN1 IND d   1      -4.322   2.478   0.237  0.00  0.00     0.298 HD
ENDROOT
TORSDOF 0
ENDMDL
