MODEL 1
REMARK minimizedAffinity -0.197554633
REMARK minimizedRMSD -1
REMARK  0 active torsions:
REMARK  status: ('A' for Active; 'I' for Inactive)
ROOT
ATOM      1  C   UNL d   1      -0.951   0.784   2.573  0.00  0.00     0.124 A 
ATOM      2  C1  UNL d   1      -1.889   0.210   1.726  0.00  0.00     0.062 A 
ATOM      3  C2  UNL d   1      -1.552  -0.092   0.410  0.00  0.00     0.162 A 
ATOM      4  C3  UNL d   1      -0.270   0.178  -0.068  0.00  0.00    -0.034 A 
ATOM      5  C4  UNL d   1       0.668   0.756   0.790  0.00  0.00     0.162 A 
ATOM      6  C5  UNL d   1       0.326   1.056   2.105  0.00  0.00     0.062 A 
ATOM      7  F   UNL d   1       1.234   1.610   2.922  0.00  0.00    -0.097 F 
ATOM      8  F1  UNL d   1       1.910   1.029   0.364  0.00  0.00    -0.096 F 
ATOM      9  I   UNL d   1       0.239  -0.272  -2.035  0.00  0.00    -0.060 I 
ATOM     10  F2  UNL d   1      -2.479  -0.645  -0.386  0.00  0.00    -0.096 F 
ATOM     11  F3  UNL d   1      -3.125  -0.053   2.176  0.00  0.00    -0.097 F 
ATOM     12  F4  UNL d   1      -1.279   1.074   3.839  0.00  0.00    -0.092 F 
ENDROOT
TORSDOF 0
ENDMDL
