MODEL 1
REMARK minimizedAffinity -0.173334226
REMARK minimizedRMSD -1
REMARK  0 active torsions:
REMARK  status: ('A' for Active; 'I' for Inactive)
ROOT
ATOM      1  C   UNL d   1       1.499  -0.734   0.973  0.00  0.00     0.124 A 
ATOM      2  C1  UNL d   1       0.300  -0.103   0.672  0.00  0.00     0.062 A 
ATOM      3  C2  UNL d   1      -0.007   0.224  -0.646  0.00  0.00     0.162 A 
ATOM      4  C3  UNL d   1       0.887  -0.080  -1.673  0.00  0.00    -0.034 A 
ATOM      5  C4  UNL d   1       2.091  -0.714  -1.362  0.00  0.00     0.162 A 
ATOM      6  C5  UNL d   1       2.393  -1.039  -0.044  0.00  0.00     0.062 A 
ATOM      7  F   UNL d   1       3.552  -1.648   0.245  0.00  0.00    -0.097 F 
ATOM      8  F1  UNL d   1       2.973  -1.020  -2.325  0.00  0.00    -0.096 F 
ATOM      9  I   UNL d   1       0.431   0.408  -3.644  0.00  0.00    -0.060 I 
ATOM     10  F2  UNL d   1      -1.173   0.833  -0.908  0.00  0.00    -0.096 F 
ATOM     11  F3  UNL d   1      -0.565   0.193   1.653  0.00  0.00    -0.097 F 
ATOM     12  F4  UNL d   1       1.793  -1.047   2.242  0.00  0.00    -0.092 F 
ENDROOT
TORSDOF 0
ENDMDL
