MODEL 1
REMARK minimizedAffinity 2.31506038
REMARK minimizedRMSD -1
REMARK  0 active torsions:
REMARK  status: ('A' for Active; 'I' for Inactive)
ROOT
ATOM      1  C   UNL d   1       0.096   0.641   0.473  0.00  0.00     0.124 A 
ATOM      2  C1  UNL d   1      -0.061   1.067   1.784  0.00  0.00     0.062 A 
ATOM      3  C2  UNL d   1      -1.057   0.516   2.585  0.00  0.00     0.162 A 
ATOM      4  C3  UNL d   1      -1.905  -0.469   2.076  0.00  0.00    -0.034 A 
ATOM      5  C4  UNL d   1      -1.741  -0.891   0.755  0.00  0.00     0.162 A 
ATOM      6  C5  UNL d   1      -0.744  -0.337  -0.041  0.00  0.00     0.062 A 
ATOM      7  F   UNL d   1      -0.593  -0.750  -1.308  0.00  0.00    -0.097 F 
ATOM      8  F1  UNL d   1      -2.538  -1.836   0.234  0.00  0.00    -0.096 F 
ATOM      9  I   UNL d   1      -3.396  -1.295   3.269  0.00  0.00    -0.060 I 
ATOM     10  F2  UNL d   1      -1.186   0.946   3.848  0.00  0.00    -0.096 F 
ATOM     11  F3  UNL d   1       0.749   2.012   2.282  0.00  0.00    -0.097 F 
ATOM     12  F4  UNL d   1       1.056   1.173  -0.296  0.00  0.00    -0.092 F 
ENDROOT
TORSDOF 0
ENDMDL
