MODEL 1
REMARK minimizedAffinity -1.48300898
REMARK minimizedRMSD -1
REMARK  0 active torsions:
REMARK  status: ('A' for Active; 'I' for Inactive)
ROOT
ATOM      1  C   UNL d   1      -1.117   0.964   2.749  0.00  0.00     0.124 A 
ATOM      2  C1  UNL d   1       0.105   1.424   2.279  0.00  0.00     0.062 A 
ATOM      3  C2  UNL d   1       0.562   1.038   1.022  0.00  0.00     0.162 A 
ATOM      4  C3  UNL d   1      -0.205   0.187   0.226  0.00  0.00    -0.034 A 
ATOM      5  C4  UNL d   1      -1.432  -0.273   0.706  0.00  0.00     0.162 A 
ATOM      6  C5  UNL d   1      -1.884   0.116   1.963  0.00  0.00     0.062 A 
ATOM      7  F   UNL d   1      -3.065  -0.330   2.416  0.00  0.00    -0.097 F 
ATOM      8  F1  UNL d   1      -2.194  -1.093  -0.033  0.00  0.00    -0.096 F 
ATOM      9  I   UNL d   1       0.475  -0.393  -1.654  0.00  0.00    -0.060 I 
ATOM     10  F2  UNL d   1       1.746   1.498   0.593  0.00  0.00    -0.096 F 
ATOM     11  F3  UNL d   1       0.849   2.243   3.037  0.00  0.00    -0.097 F 
ATOM     12  F4  UNL d   1      -1.553   1.336   3.959  0.00  0.00    -0.092 F 
ENDROOT
TORSDOF 0
ENDMDL
