MODEL 1
REMARK minimizedAffinity -1.1311183
REMARK minimizedRMSD -1
REMARK  0 active torsions:
REMARK  status: ('A' for Active; 'I' for Inactive)
ROOT
ATOM      1  C   UNL d   1      -0.484   0.813   2.109  0.00  0.00     0.124 A 
ATOM      2  C1  UNL d   1      -1.563   0.446   1.317  0.00  0.00     0.062 A 
ATOM      3  C2  UNL d   1      -1.352  -0.211   0.108  0.00  0.00     0.162 A 
ATOM      4  C3  UNL d   1      -0.056  -0.507  -0.316  0.00  0.00    -0.034 A 
ATOM      5  C4  UNL d   1       1.024  -0.134   0.486  0.00  0.00     0.162 A 
ATOM      6  C5  UNL d   1       0.808   0.522   1.694  0.00  0.00     0.062 A 
ATOM      7  F   UNL d   1       1.852   0.876   2.458  0.00  0.00    -0.097 F 
ATOM      8  F1  UNL d   1       2.283  -0.403   0.109  0.00  0.00    -0.096 F 
ATOM      9  I   UNL d   1       0.263  -1.490  -2.122  0.00  0.00    -0.060 I 
ATOM     10  F2  UNL d   1      -2.413  -0.554  -0.637  0.00  0.00    -0.096 F 
ATOM     11  F3  UNL d   1      -2.812   0.726   1.716  0.00  0.00    -0.097 F 
ATOM     12  F4  UNL d   1      -0.689   1.446   3.271  0.00  0.00    -0.092 F 
ENDROOT
TORSDOF 0
ENDMDL
