MODEL 1
REMARK minimizedAffinity -1.95684421
REMARK minimizedRMSD -1
REMARK  0 active torsions:
REMARK  status: ('A' for Active; 'I' for Inactive)
ROOT
ATOM      1  C   UNL d   1       0.152   0.440   1.627  0.00  0.00     0.124 A 
ATOM      2  C1  UNL d   1       0.322   0.112   0.289  0.00  0.00     0.062 A 
ATOM      3  C2  UNL d   1      -0.761  -0.327  -0.467  0.00  0.00     0.162 A 
ATOM      4  C3  UNL d   1      -2.025  -0.439   0.112  0.00  0.00    -0.034 A 
ATOM      5  C4  UNL d   1      -2.188  -0.108   1.459  0.00  0.00     0.162 A 
ATOM      6  C5  UNL d   1      -1.102   0.330   2.210  0.00  0.00     0.062 A 
ATOM      7  F   UNL d   1      -1.269   0.647   3.502  0.00  0.00    -0.097 F 
ATOM      8  F1  UNL d   1      -3.389  -0.204   2.047  0.00  0.00    -0.096 F 
ATOM      9  I   UNL d   1      -3.647  -1.095  -1.015  0.00  0.00    -0.060 I 
ATOM     10  F2  UNL d   1      -0.567  -0.638  -1.758  0.00  0.00    -0.096 F 
ATOM     11  F3  UNL d   1       1.533   0.216  -0.277  0.00  0.00    -0.097 F 
ATOM     12  F4  UNL d   1       1.196   0.861   2.352  0.00  0.00    -0.092 F 
ENDROOT
TORSDOF 0
ENDMDL
