MODEL 1
REMARK minimizedAffinity -2.63820219
REMARK minimizedRMSD -1
REMARK  0 active torsions:
REMARK  status: ('A' for Active; 'I' for Inactive)
ROOT
ATOM      1  C   UNL d   1       0.212  -0.421  -0.388  0.00  0.00     0.124 A 
ATOM      2  C1  UNL d   1      -0.870  -1.174  -0.824  0.00  0.00     0.062 A 
ATOM      3  C2  UNL d   1      -1.951  -1.402   0.022  0.00  0.00     0.162 A 
ATOM      4  C3  UNL d   1      -1.957  -0.875   1.314  0.00  0.00    -0.034 A 
ATOM      5  C4  UNL d   1      -0.865  -0.120   1.746  0.00  0.00     0.162 A 
ATOM      6  C5  UNL d   1       0.213   0.105   0.896  0.00  0.00     0.062 A 
ATOM      7  F   UNL d   1       1.257   0.833   1.319  0.00  0.00    -0.097 F 
ATOM      8  F1  UNL d   1      -0.838   0.401   2.981  0.00  0.00    -0.096 F 
ATOM      9  I   UNL d   1      -3.572  -1.214   2.582  0.00  0.00    -0.060 I 
ATOM     10  F2  UNL d   1      -2.982  -2.133  -0.426  0.00  0.00    -0.096 F 
ATOM     11  F3  UNL d   1      -0.873  -1.685  -2.064  0.00  0.00    -0.097 F 
ATOM     12  F4  UNL d   1       1.251  -0.204  -1.204  0.00  0.00    -0.092 F 
ENDROOT
TORSDOF 0
ENDMDL
