MODEL 1
REMARK minimizedAffinity 0.911689222
REMARK minimizedRMSD -1
REMARK  0 active torsions:
REMARK  status: ('A' for Active; 'I' for Inactive)
ROOT
ATOM      1  C   UNL d   1      -1.743   0.070   2.304  0.00  0.00     0.124 A 
ATOM      2  C1  UNL d   1      -1.546  -0.842   1.276  0.00  0.00     0.062 A 
ATOM      3  C2  UNL d   1      -0.594  -0.592   0.292  0.00  0.00     0.162 A 
ATOM      4  C3  UNL d   1       0.169   0.575   0.331  0.00  0.00    -0.034 A 
ATOM      5  C4  UNL d   1      -0.035   1.488   1.367  0.00  0.00     0.162 A 
ATOM      6  C5  UNL d   1      -0.988   1.233   2.348  0.00  0.00     0.062 A 
ATOM      7  F   UNL d   1      -1.177   2.115   3.341  0.00  0.00    -0.097 F 
ATOM      8  F1  UNL d   1       0.681   2.620   1.435  0.00  0.00    -0.096 F 
ATOM      9  I   UNL d   1       1.594   0.953  -1.139  0.00  0.00    -0.060 I 
ATOM     10  F2  UNL d   1      -0.424  -1.490  -0.690  0.00  0.00    -0.096 F 
ATOM     11  F3  UNL d   1      -2.274  -1.966   1.230  0.00  0.00    -0.097 F 
ATOM     12  F4  UNL d   1      -2.660  -0.173   3.249  0.00  0.00    -0.092 F 
ENDROOT
TORSDOF 0
ENDMDL
