MODEL 1
REMARK minimizedAffinity 1.81480372
REMARK minimizedRMSD -1
REMARK  0 active torsions:
REMARK  status: ('A' for Active; 'I' for Inactive)
ROOT
ATOM      1  C1  DEN d   1       3.952  -2.357  -3.740  0.00  0.00     0.130 A 
ATOM      2  C2  DEN d   1       4.112  -1.505  -2.565  0.00  0.00    -0.031 A 
ATOM      3  C3  DEN d   1       3.908  -2.341  -1.365  0.00  0.00     0.027 A 
ATOM      4  C4  DEN d   1       3.365  -4.858  -1.213  0.00  0.00     0.027 A 
ATOM      5  C5  DEN d   1       3.122  -6.000  -1.944  0.00  0.00    -0.003 A 
ATOM      6  C6  DEN d   1       3.104  -6.000  -3.314  0.00  0.00     0.001 A 
ATOM      7  C7  DEN d   1       3.379  -4.845  -3.996  0.00  0.00     0.017 A 
ATOM      8  C8  DEN d   1       3.619  -3.688  -3.266  0.00  0.00    -0.094 A 
ATOM      9  C9  DEN d   1       3.644  -3.710  -1.882  0.00  0.00    -0.072 A 
ENDROOT
TORSDOF 0
ENDMDL
