MODEL 1
REMARK minimizedAffinity 11.7600193
REMARK minimizedRMSD -1
REMARK  0 active torsions:
REMARK  status: ('A' for Active; 'I' for Inactive)
ROOT
ATOM      1  C1  DEN d   1      -5.216   4.338   1.841  0.00  0.00     0.130 A 
ATOM      2  C2  DEN d   1      -5.983   3.663   0.798  0.00  0.00    -0.031 A 
ATOM      3  C3  DEN d   1      -5.036   2.912  -0.051  0.00  0.00     0.027 A 
ATOM      4  C4  DEN d   1      -2.471   2.725   0.152  0.00  0.00     0.027 A 
ATOM      5  C5  DEN d   1      -1.370   3.131   0.873  0.00  0.00    -0.003 A 
ATOM      6  C6  DEN d   1      -1.469   3.988   1.938  0.00  0.00     0.001 A 
ATOM      7  C7  DEN d   1      -2.701   4.431   2.340  0.00  0.00     0.017 A 
ATOM      8  C8  DEN d   1      -3.815   4.032   1.614  0.00  0.00    -0.094 A 
ATOM      9  C9  DEN d   1      -3.696   3.156   0.548  0.00  0.00    -0.072 A 
ENDROOT
TORSDOF 0
ENDMDL
