MODEL 1
REMARK minimizedAffinity 4.45358467
REMARK minimizedRMSD -1
REMARK  0 active torsions:
REMARK  status: ('A' for Active; 'I' for Inactive)
ROOT
ATOM      1  C1  DEN d   1       5.002  -5.440  -5.980  0.00  0.00     0.130 A 
ATOM      2  C2  DEN d   1       5.989  -5.461  -4.904  0.00  0.00    -0.031 A 
ATOM      3  C3  DEN d   1       5.270  -5.666  -3.630  0.00  0.00     0.027 A 
ATOM      4  C4  DEN d   1       2.740  -5.956  -3.222  0.00  0.00     0.027 A 
ATOM      5  C5  DEN d   1       1.503  -5.998  -3.827  0.00  0.00    -0.003 A 
ATOM      6  C6  DEN d   1       1.344  -5.825  -5.176  0.00  0.00     0.001 A 
ATOM      7  C7  DEN d   1       2.444  -5.646  -5.972  0.00  0.00     0.017 A 
ATOM      8  C8  DEN d   1       3.694  -5.595  -5.369  0.00  0.00    -0.094 A 
ATOM      9  C9  DEN d   1       3.836  -5.784  -4.005  0.00  0.00    -0.072 A 
ENDROOT
TORSDOF 0
ENDMDL
