MODEL 1
REMARK minimizedAffinity -0.57576251
REMARK minimizedRMSD -1
REMARK  0 active torsions:
REMARK  status: ('A' for Active; 'I' for Inactive)
ROOT
ATOM      1  C1  DEN d   1       3.111  -5.991  -2.302  0.00  0.00     0.130 A 
ATOM      2  C2  DEN d   1       4.141  -5.988  -1.267  0.00  0.00    -0.031 A 
ATOM      3  C3  DEN d   1       5.458  -5.955  -1.934  0.00  0.00     0.027 A 
ATOM      4  C4  DEN d   1       6.000  -5.904  -4.455  0.00  0.00     0.027 A 
ATOM      5  C5  DEN d   1       5.456  -5.906  -5.720  0.00  0.00    -0.003 A 
ATOM      6  C6  DEN d   1       4.104  -5.970  -5.934  0.00  0.00     0.001 A 
ATOM      7  C7  DEN d   1       3.248  -5.990  -4.864  0.00  0.00     0.017 A 
ATOM      8  C8  DEN d   1       3.790  -5.995  -3.586  0.00  0.00    -0.094 A 
ATOM      9  C9  DEN d   1       5.158  -5.918  -3.390  0.00  0.00    -0.072 A 
ENDROOT
TORSDOF 0
ENDMDL
