MODEL 1
REMARK minimizedAffinity -0.112921692
REMARK minimizedRMSD -1
REMARK  0 active torsions:
REMARK  status: ('A' for Active; 'I' for Inactive)
ROOT
ATOM      1  C1  DEN d   1       4.947  -5.998  -2.125  0.00  0.00     0.130 A 
ATOM      2  C2  DEN d   1       3.703  -5.980  -1.361  0.00  0.00    -0.031 A 
ATOM      3  C3  DEN d   1       2.579  -5.967  -2.318  0.00  0.00     0.027 A 
ATOM      4  C4  DEN d   1       2.644  -5.979  -4.897  0.00  0.00     0.027 A 
ATOM      5  C5  DEN d   1       3.470  -5.981  -5.999  0.00  0.00    -0.003 A 
ATOM      6  C6  DEN d   1       4.835  -5.955  -5.888  0.00  0.00     0.001 A 
ATOM      7  C7  DEN d   1       5.416  -5.971  -4.648  0.00  0.00     0.017 A 
ATOM      8  C8  DEN d   1       4.589  -5.961  -3.532  0.00  0.00    -0.094 A 
ATOM      9  C9  DEN d   1       3.212  -6.000  -3.664  0.00  0.00    -0.072 A 
ENDROOT
TORSDOF 0
ENDMDL
