MODEL 1
REMARK minimizedAffinity 9.82562923
REMARK minimizedRMSD -1
REMARK  0 active torsions:
REMARK  status: ('A' for Active; 'I' for Inactive)
ROOT
ATOM      1  C1  DEN d   1      -2.210   2.014   0.066  0.00  0.00     0.130 A 
ATOM      2  C2  DEN d   1      -2.255   1.516  -1.306  0.00  0.00    -0.031 A 
ATOM      3  C3  DEN d   1      -3.582   1.840  -1.865  0.00  0.00     0.027 A 
ATOM      4  C4  DEN d   1      -5.561   3.061  -0.748  0.00  0.00     0.027 A 
ATOM      5  C5  DEN d   1      -5.999   3.660   0.412  0.00  0.00    -0.003 A 
ATOM      6  C6  DEN d   1      -5.224   3.723   1.539  0.00  0.00     0.001 A 
ATOM      7  C7  DEN d   1      -3.951   3.216   1.517  0.00  0.00     0.017 A 
ATOM      8  C8  DEN d   1      -3.505   2.603   0.354  0.00  0.00    -0.094 A 
ATOM      9  C9  DEN d   1      -4.299   2.561  -0.779  0.00  0.00    -0.072 A 
ENDROOT
TORSDOF 0
ENDMDL
