MODEL 1
REMARK minimizedAffinity 4.39935732
REMARK minimizedRMSD -1
REMARK  0 active torsions:
REMARK  status: ('A' for Active; 'I' for Inactive)
ROOT
ATOM      1  C1  DEN d   1      -2.335  -0.847  -2.637  0.00  0.00     0.130 A 
ATOM      2  C2  DEN d   1      -3.410  -1.107  -3.590  0.00  0.00    -0.031 A 
ATOM      3  C3  DEN d   1      -3.909  -2.477  -3.353  0.00  0.00     0.027 A 
ATOM      4  C4  DEN d   1      -3.127  -4.209  -1.610  0.00  0.00     0.027 A 
ATOM      5  C5  DEN d   1      -2.235  -4.449  -0.588  0.00  0.00    -0.003 A 
ATOM      6  C6  DEN d   1      -1.299  -3.526  -0.204  0.00  0.00     0.001 A 
ATOM      7  C7  DEN d   1      -1.263  -2.301  -0.816  0.00  0.00     0.017 A 
ATOM      8  C8  DEN d   1      -2.154  -2.054  -1.851  0.00  0.00    -0.094 A 
ATOM      9  C9  DEN d   1      -3.101  -2.996  -2.217  0.00  0.00    -0.072 A 
ENDROOT
TORSDOF 0
ENDMDL
