MODEL 1
REMARK minimizedAffinity 2.67578387
REMARK minimizedRMSD -1
REMARK  0 active torsions:
REMARK  status: ('A' for Active; 'I' for Inactive)
ROOT
ATOM      1  N1  IND d   1       5.918   4.090   1.947  0.00  0.00    -0.196 N 
ATOM      2  C2  IND d   1       5.359   5.101   1.216  0.00  0.00     0.054 A 
ATOM      3  C3  IND d   1       4.724   5.974   2.030  0.00  0.00    -0.031 A 
ATOM      4  C4  IND d   1       4.564   5.995   4.599  0.00  0.00     0.051 A 
ATOM      5  C5  IND d   1       4.886   5.259   5.705  0.00  0.00    -0.031 A 
ATOM      6  C6  IND d   1       5.585   4.072   5.612  0.00  0.00     0.015 A 
ATOM      7  C7  IND d   1       6.000   3.582   4.406  0.00  0.00    -0.016 A 
ATOM      8  C8  IND d   1       5.669   4.324   3.281  0.00  0.00    -0.047 A 
ATOM      9  C9  IND d   1       4.923   5.506   3.365  0.00  0.00    -0.096 A 
ATOM     10  HN1 IND d   1       6.353   3.421   1.627  0.00  0.00     0.298 HD
ENDROOT
TORSDOF 0
ENDMDL
