MODEL 1
REMARK minimizedAffinity 6.67801523
REMARK minimizedRMSD -1
REMARK  0 active torsions:
REMARK  status: ('A' for Active; 'I' for Inactive)
ROOT
ATOM      1  N1  IND d   1       5.974   5.950   3.460  0.00  0.00    -0.196 N 
ATOM      2  C2  IND d   1       5.007   5.734   4.401  0.00  0.00     0.054 A 
ATOM      3  C3  IND d   1       3.837   5.406   3.808  0.00  0.00    -0.031 A 
ATOM      4  C4  IND d   1       3.309   5.067   1.311  0.00  0.00     0.051 A 
ATOM      5  C5  IND d   1       3.862   5.187   0.067  0.00  0.00    -0.031 A 
ATOM      6  C6  IND d   1       5.175   5.572  -0.113  0.00  0.00     0.015 A 
ATOM      7  C7  IND d   1       5.990   5.843   0.949  0.00  0.00    -0.016 A 
ATOM      8  C8  IND d   1       5.430   5.729   2.214  0.00  0.00    -0.047 A 
ATOM      9  C9  IND d   1       4.086   5.379   2.401  0.00  0.00    -0.096 A 
ATOM     10  HN1 IND d   1       6.786   6.185   3.619  0.00  0.00     0.298 HD
ENDROOT
TORSDOF 0
ENDMDL
