MODEL 1
REMARK minimizedAffinity 6.20396709
REMARK minimizedRMSD -1
REMARK  0 active torsions:
REMARK  status: ('A' for Active; 'I' for Inactive)
ROOT
ATOM      1  N1  IND d   1       2.318   5.092   1.982  0.00  0.00    -0.196 N 
ATOM      2  C2  IND d   1       1.525   5.539   0.962  0.00  0.00     0.054 A 
ATOM      3  C3  IND d   1       2.285   5.992  -0.060  0.00  0.00    -0.031 A 
ATOM      4  C4  IND d   1       4.846   5.999  -0.316  0.00  0.00     0.051 A 
ATOM      5  C5  IND d   1       5.998   5.725   0.367  0.00  0.00    -0.031 A 
ATOM      6  C6  IND d   1       5.981   5.213   1.648  0.00  0.00     0.015 A 
ATOM      7  C7  IND d   1       4.807   4.944   2.293  0.00  0.00    -0.016 A 
ATOM      8  C8  IND d   1       3.636   5.228   1.605  0.00  0.00    -0.047 A 
ATOM      9  C9  IND d   1       3.646   5.787   0.321  0.00  0.00    -0.096 A 
ATOM     10  HN1 IND d   1       2.040   4.778   2.733  0.00  0.00     0.298 HD
ENDROOT
TORSDOF 0
ENDMDL
