MODEL 1
REMARK minimizedAffinity -3.2590332
REMARK minimizedRMSD -1
REMARK  0 active torsions:
REMARK  status: ('A' for Active; 'I' for Inactive)
ROOT
ATOM      1  N1  IND d   1       0.259   1.225  -3.950  0.00  0.00    -0.196 N 
ATOM      2  C2  IND d   1       0.436   0.852  -2.647  0.00  0.00     0.054 A 
ATOM      3  C3  IND d   1       1.748   0.891  -2.321  0.00  0.00    -0.031 A 
ATOM      4  C4  IND d   1       3.764   1.636  -3.739  0.00  0.00     0.051 A 
ATOM      5  C5  IND d   1       4.106   2.028  -5.002  0.00  0.00    -0.031 A 
ATOM      6  C6  IND d   1       3.164   2.178  -5.999  0.00  0.00     0.015 A 
ATOM      7  C7  IND d   1       1.837   1.952  -5.765  0.00  0.00    -0.016 A 
ATOM      8  C8  IND d   1       1.487   1.547  -4.485  0.00  0.00    -0.047 A 
ATOM      9  C9  IND d   1       2.443   1.351  -3.481  0.00  0.00    -0.096 A 
ATOM     10  HN1 IND d   1      -0.494   1.254  -4.365  0.00  0.00     0.298 HD
ENDROOT
TORSDOF 0
ENDMDL
