MODEL 1
REMARK minimizedAffinity -1.15328288
REMARK minimizedRMSD -1
REMARK  0 active torsions:
REMARK  status: ('A' for Active; 'I' for Inactive)
ROOT
ATOM      1  N1  IND d   1       0.256   0.466  -2.955  0.00  0.00    -0.196 N 
ATOM      2  C2  IND d   1       0.994   0.361  -1.810  0.00  0.00     0.054 A 
ATOM      3  C3  IND d   1       2.252   0.812  -2.018  0.00  0.00    -0.031 A 
ATOM      4  C4  IND d   1       3.284   1.862  -4.129  0.00  0.00     0.051 A 
ATOM      5  C5  IND d   1       3.011   2.136  -5.440  0.00  0.00    -0.031 A 
ATOM      6  C6  IND d   1       1.779   1.865  -6.000  0.00  0.00     0.015 A 
ATOM      7  C7  IND d   1       0.767   1.317  -5.264  0.00  0.00    -0.016 A 
ATOM      8  C8  IND d   1       1.043   1.030  -3.934  0.00  0.00    -0.047 A 
ATOM      9  C9  IND d   1       2.305   1.265  -3.372  0.00  0.00    -0.096 A 
ATOM     10  HN1 IND d   1      -0.563   0.220  -3.049  0.00  0.00     0.298 HD
ENDROOT
TORSDOF 0
ENDMDL
