MODEL 1
REMARK minimizedAffinity 4.99315166
REMARK minimizedRMSD -1
REMARK  0 active torsions:
REMARK  status: ('A' for Active; 'I' for Inactive)
ROOT
ATOM      1  N1  IND d   1      -4.298   1.654   2.782  0.00  0.00    -0.196 N 
ATOM      2  C2  IND d   1      -2.962   1.692   3.072  0.00  0.00     0.054 A 
ATOM      3  C3  IND d   1      -2.467   0.438   3.174  0.00  0.00    -0.031 A 
ATOM      4  C4  IND d   1      -3.646  -1.821   2.804  0.00  0.00     0.051 A 
ATOM      5  C5  IND d   1      -4.874  -2.367   2.558  0.00  0.00    -0.031 A 
ATOM      6  C6  IND d   1      -5.995  -1.585   2.368  0.00  0.00     0.015 A 
ATOM      7  C7  IND d   1      -5.927  -0.221   2.405  0.00  0.00    -0.016 A 
ATOM      8  C8  IND d   1      -4.683   0.337   2.662  0.00  0.00    -0.047 A 
ATOM      9  C9  IND d   1      -3.550  -0.452   2.898  0.00  0.00    -0.096 A 
ATOM     10  HN1 IND d   1      -4.811   2.338   2.690  0.00  0.00     0.298 HD
ENDROOT
TORSDOF 0
ENDMDL
