MODEL 1
REMARK minimizedAffinity 7.32834864
REMARK minimizedRMSD -1
REMARK  0 active torsions:
REMARK  status: ('A' for Active; 'I' for Inactive)
ROOT
ATOM      1  N1  IND d   1       0.136   1.510  -4.084  0.00  0.00    -0.196 N 
ATOM      2  C2  IND d   1      -0.016   1.707  -5.429  0.00  0.00     0.054 A 
ATOM      3  C3  IND d   1       1.169   2.030  -5.993  0.00  0.00    -0.031 A 
ATOM      4  C4  IND d   1       3.503   2.192  -4.918  0.00  0.00     0.051 A 
ATOM      5  C5  IND d   1       4.139   2.133  -3.710  0.00  0.00    -0.031 A 
ATOM      6  C6  IND d   1       3.459   1.856  -2.541  0.00  0.00     0.015 A 
ATOM      7  C7  IND d   1       2.115   1.614  -2.539  0.00  0.00    -0.016 A 
ATOM      8  C8  IND d   1       1.465   1.680  -3.764  0.00  0.00    -0.047 A 
ATOM      9  C9  IND d   1       2.142   2.003  -4.947  0.00  0.00    -0.096 A 
ATOM     10  HN1 IND d   1      -0.493   1.313  -3.532  0.00  0.00     0.298 HD
ENDROOT
TORSDOF 0
ENDMDL
