MODEL 1
REMARK minimizedAffinity -0.555705965
REMARK minimizedRMSD -1
REMARK  0 active torsions:
REMARK  status: ('A' for Active; 'I' for Inactive)
ROOT
ATOM      1  N1  IND d   1      -0.012   1.915  -2.526  0.00  0.00    -0.196 N 
ATOM      2  C2  IND d   1       0.191   2.997  -3.336  0.00  0.00     0.054 A 
ATOM      3  C3  IND d   1       1.457   3.000  -3.809  0.00  0.00    -0.031 A 
ATOM      4  C4  IND d   1       3.336   1.273  -3.465  0.00  0.00     0.051 A 
ATOM      5  C5  IND d   1       3.637   0.133  -2.775  0.00  0.00    -0.031 A 
ATOM      6  C6  IND d   1       2.719  -0.486  -1.952  0.00  0.00     0.015 A 
ATOM      7  C7  IND d   1       1.455   0.009  -1.796  0.00  0.00    -0.016 A 
ATOM      8  C8  IND d   1       1.147   1.170  -2.490  0.00  0.00    -0.047 A 
ATOM      9  C9  IND d   1       2.089   1.826  -3.294  0.00  0.00    -0.096 A 
ATOM     10  HN1 IND d   1      -0.740   1.730  -2.108  0.00  0.00     0.298 HD
ENDROOT
TORSDOF 0
ENDMDL
