MODEL 1
REMARK minimizedAffinity -3.30230951
REMARK minimizedRMSD -1
REMARK  0 active torsions:
REMARK  status: ('A' for Active; 'I' for Inactive)
ROOT
ATOM      1  N1  IND d   1      -0.802   1.853  -2.285  0.00  0.00    -0.196 N 
ATOM      2  C2  IND d   1      -0.405   3.013  -2.891  0.00  0.00     0.054 A 
ATOM      3  C3  IND d   1       0.936   3.018  -3.062  0.00  0.00    -0.031 A 
ATOM      4  C4  IND d   1       2.662   1.188  -2.514  0.00  0.00     0.051 A 
ATOM      5  C5  IND d   1       2.782  -0.035  -1.917  0.00  0.00    -0.031 A 
ATOM      6  C6  IND d   1       1.691  -0.707  -1.405  0.00  0.00     0.015 A 
ATOM      7  C7  IND d   1       0.432  -0.182  -1.480  0.00  0.00    -0.016 A 
ATOM      8  C8  IND d   1       0.307   1.063  -2.079  0.00  0.00    -0.047 A 
ATOM      9  C9  IND d   1       1.417   1.768  -2.563  0.00  0.00    -0.096 A 
ATOM     10  HN1 IND d   1      -1.610   1.652  -2.068  0.00  0.00     0.298 HD
ENDROOT
TORSDOF 0
ENDMDL
