MODEL 1
REMARK minimizedAffinity -5.32680082
REMARK minimizedRMSD -1
REMARK  0 active torsions:
REMARK  status: ('A' for Active; 'I' for Inactive)
ROOT
ATOM      1  N1  IND d   1       0.451   0.671  -2.721  0.00  0.00    -0.196 N 
ATOM      2  C2  IND d   1       1.308   0.355  -1.704  0.00  0.00     0.054 A 
ATOM      3  C3  IND d   1       2.572   0.712  -2.027  0.00  0.00    -0.031 A 
ATOM      4  C4  IND d   1       3.445   1.920  -4.126  0.00  0.00     0.051 A 
ATOM      5  C5  IND d   1       3.045   2.380  -5.349  0.00  0.00    -0.031 A 
ATOM      6  C6  IND d   1       1.732   2.296  -5.765  0.00  0.00     0.015 A 
ATOM      7  C7  IND d   1       0.765   1.755  -4.967  0.00  0.00    -0.016 A 
ATOM      8  C8  IND d   1       1.169   1.280  -3.727  0.00  0.00    -0.047 A 
ATOM      9  C9  IND d   1       2.507   1.324  -3.316  0.00  0.00    -0.096 A 
ATOM     10  HN1 IND d   1      -0.395   0.516  -2.731  0.00  0.00     0.298 HD
ENDROOT
TORSDOF 0
ENDMDL
