MODEL 1
REMARK minimizedAffinity 2.73021483
REMARK minimizedRMSD -1
REMARK  0 active torsions:
REMARK  status: ('A' for Active; 'I' for Inactive)
ROOT
ATOM      1  N1  IND d   1       4.095   5.987   4.168  0.00  0.00    -0.196 N 
ATOM      2  C2  IND d   1       5.134   5.465   4.887  0.00  0.00     0.054 A 
ATOM      3  C3  IND d   1       5.998   4.824   4.067  0.00  0.00    -0.031 A 
ATOM      4  C4  IND d   1       5.955   4.594   1.504  0.00  0.00     0.051 A 
ATOM      5  C5  IND d   1       5.185   4.873   0.410  0.00  0.00    -0.031 A 
ATOM      6  C6  IND d   1       3.989   5.554   0.515  0.00  0.00     0.015 A 
ATOM      7  C7  IND d   1       3.522   5.993   1.722  0.00  0.00    -0.016 A 
ATOM      8  C8  IND d   1       4.299   5.705   2.835  0.00  0.00    -0.047 A 
ATOM      9  C9  IND d   1       5.492   4.978   2.740  0.00  0.00    -0.096 A 
ATOM     10  HN1 IND d   1       3.427   6.419   4.494  0.00  0.00     0.298 HD
ENDROOT
TORSDOF 0
ENDMDL
