MODEL 1
REMARK minimizedAffinity -1.42676854
REMARK minimizedRMSD -1
REMARK  0 active torsions:
REMARK  status: ('A' for Active; 'I' for Inactive)
ROOT
ATOM      1  N1  IND d   1       4.137   5.817   4.712  0.00  0.00    -0.196 N 
ATOM      2  C2  IND d   1       5.144   5.214   5.412  0.00  0.00     0.054 A 
ATOM      3  C3  IND d   1       6.000   4.596   4.568  0.00  0.00    -0.031 A 
ATOM      4  C4  IND d   1       5.999   4.533   1.994  0.00  0.00     0.051 A 
ATOM      5  C5  IND d   1       5.259   4.908   0.908  0.00  0.00    -0.031 A 
ATOM      6  C6  IND d   1       4.086   5.622   1.036  0.00  0.00     0.015 A 
ATOM      7  C7  IND d   1       3.612   5.999   2.261  0.00  0.00    -0.016 A 
ATOM      8  C8  IND d   1       4.356   5.614   3.367  0.00  0.00    -0.047 A 
ATOM      9  C9  IND d   1       5.525   4.852   3.245  0.00  0.00    -0.096 A 
ATOM     10  HN1 IND d   1       3.478   6.251   5.053  0.00  0.00     0.298 HD
ENDROOT
TORSDOF 0
ENDMDL
