MODEL 1
REMARK minimizedAffinity 1.70862448
REMARK minimizedRMSD -1
REMARK  0 active torsions:
REMARK  status: ('A' for Active; 'I' for Inactive)
ROOT
ATOM      1  N1  IND d   1       1.087   0.456  -2.472  0.00  0.00    -0.196 N 
ATOM      2  C2  IND d   1       2.178   0.751  -1.703  0.00  0.00     0.054 A 
ATOM      3  C3  IND d   1       3.103   1.414  -2.434  0.00  0.00    -0.031 A 
ATOM      4  C4  IND d   1       2.992   2.209  -4.879  0.00  0.00     0.051 A 
ATOM      5  C5  IND d   1       2.211   2.143  -5.999  0.00  0.00    -0.031 A 
ATOM      6  C6  IND d   1       0.990   1.501  -6.000  0.00  0.00     0.015 A 
ATOM      7  C7  IND d   1       0.496   0.908  -4.872  0.00  0.00    -0.016 A 
ATOM      8  C8  IND d   1       1.290   0.967  -3.735  0.00  0.00    -0.047 A 
ATOM      9  C9  IND d   1       2.549   1.580  -3.740  0.00  0.00    -0.096 A 
ATOM     10  HN1 IND d   1       0.391   0.025  -2.210  0.00  0.00     0.298 HD
ENDROOT
TORSDOF 0
ENDMDL
