MODEL 1
REMARK minimizedAffinity -5.30493069
REMARK minimizedRMSD -1
REMARK  0 active torsions:
REMARK  status: ('A' for Active; 'I' for Inactive)
ROOT
ATOM      1  N1  IND d   1      -0.862   1.870  -0.139  0.00  0.00    -0.196 N 
ATOM      2  C2  IND d   1      -0.027   2.778  -0.728  0.00  0.00     0.054 A 
ATOM      3  C3  IND d   1       1.116   2.176  -1.126  0.00  0.00    -0.031 A 
ATOM      4  C4  IND d   1       1.786  -0.306  -1.003  0.00  0.00     0.051 A 
ATOM      5  C5  IND d   1       1.367  -1.512  -0.516  0.00  0.00    -0.031 A 
ATOM      6  C6  IND d   1       0.157  -1.656   0.132  0.00  0.00     0.015 A 
ATOM      7  C7  IND d   1      -0.687  -0.596   0.308  0.00  0.00    -0.016 A 
ATOM      8  C8  IND d   1      -0.261   0.632  -0.179  0.00  0.00    -0.047 A 
ATOM      9  C9  IND d   1       0.984   0.792  -0.800  0.00  0.00    -0.096 A 
ATOM     10  HN1 IND d   1      -1.633   2.044   0.199  0.00  0.00     0.298 HD
ENDROOT
TORSDOF 0
ENDMDL
