MODEL 1
REMARK minimizedAffinity -3.12495923
REMARK minimizedRMSD -1
REMARK  0 active torsions:
REMARK  status: ('A' for Active; 'I' for Inactive)
ROOT
ATOM      1  C   UNL d   1      -0.668  -0.398   2.579  0.00  0.00     0.172 C 
ATOM      2  N   UNL d   1      -1.986  -0.099   2.071  0.00  0.00    -0.070 N 
ATOM      3  C1  UNL d   1      -2.773   0.952   2.460  0.00  0.00    -0.004 A 
ATOM      4  C2  UNL d   1      -3.948   0.887   1.744  0.00  0.00    -0.047 A 
ATOM      5  C3  UNL d   1      -3.866  -0.242   0.895  0.00  0.00    -0.047 A 
ATOM      6  C4  UNL d   1      -2.641  -0.835   1.118  0.00  0.00    -0.004 A 
ENDROOT
TORSDOF 0
ENDMDL
