MODEL 1
REMARK minimizedAffinity -3.41703105
REMARK minimizedRMSD -1
REMARK  0 active torsions:
REMARK  status: ('A' for Active; 'I' for Inactive)
ROOT
ATOM      1  C   UNL d   1      -1.420  -0.651   0.787  0.00  0.00     0.172 C 
ATOM      2  N   UNL d   1      -0.272  -1.232   0.131  0.00  0.00    -0.070 N 
ATOM      3  C1  UNL d   1      -0.303  -1.989  -1.010  0.00  0.00    -0.004 A 
ATOM      4  C2  UNL d   1       0.992  -2.351  -1.311  0.00  0.00    -0.047 A 
ATOM      5  C3  UNL d   1       1.830  -1.793  -0.317  0.00  0.00    -0.047 A 
ATOM      6  C4  UNL d   1       1.022  -1.105   0.563  0.00  0.00    -0.004 A 
ENDROOT
TORSDOF 0
ENDMDL
