MODEL 1
REMARK minimizedAffinity -3.4377079
REMARK minimizedRMSD -1
REMARK  0 active torsions:
REMARK  status: ('A' for Active; 'I' for Inactive)
ROOT
ATOM      1  C   UNL d   1      -0.673  -2.302  -1.832  0.00  0.00     0.172 C 
ATOM      2  N   UNL d   1       0.641  -1.836  -1.456  0.00  0.00    -0.070 N 
ATOM      3  C1  UNL d   1       1.827  -2.305  -1.954  0.00  0.00    -0.004 A 
ATOM      4  C2  UNL d   1       2.846  -1.605  -1.345  0.00  0.00    -0.047 A 
ATOM      5  C3  UNL d   1       2.252  -0.684  -0.450  0.00  0.00    -0.047 A 
ATOM      6  C4  UNL d   1       0.886  -0.848  -0.539  0.00  0.00    -0.004 A 
ENDROOT
TORSDOF 0
ENDMDL
