MODEL 1
REMARK minimizedAffinity -0.783209264
REMARK minimizedRMSD -1
REMARK  0 active torsions:
REMARK  status: ('A' for Active; 'I' for Inactive)
ROOT
ATOM      1  C   UNL d   1       2.231   0.587  -5.015  0.00  0.00     0.172 C 
ATOM      2  N   UNL d   1       1.057  -0.117  -4.554  0.00  0.00    -0.070 N 
ATOM      3  C1  UNL d   1      -0.164  -0.124  -5.174  0.00  0.00    -0.004 A 
ATOM      4  C2  UNL d   1      -1.014  -0.908  -4.424  0.00  0.00    -0.047 A 
ATOM      5  C3  UNL d   1      -0.278  -1.388  -3.314  0.00  0.00    -0.047 A 
ATOM      6  C4  UNL d   1       1.001  -0.883  -3.419  0.00  0.00    -0.004 A 
ENDROOT
TORSDOF 0
ENDMDL
