MODEL 1
REMARK minimizedAffinity -3.35390496
REMARK minimizedRMSD -1
REMARK  0 active torsions:
REMARK  status: ('A' for Active; 'I' for Inactive)
ROOT
ATOM      1  C   UNL d   1       1.258  -1.179   1.512  0.00  0.00     0.172 C 
ATOM      2  N   UNL d   1      -0.130  -0.786   1.441  0.00  0.00    -0.070 N 
ATOM      3  C1  UNL d   1      -0.938  -0.517   2.513  0.00  0.00    -0.004 A 
ATOM      4  C2  UNL d   1      -2.183  -0.179   2.028  0.00  0.00    -0.047 A 
ATOM      5  C3  UNL d   1      -2.121  -0.249   0.616  0.00  0.00    -0.047 A 
ATOM      6  C4  UNL d   1      -0.838  -0.627   0.280  0.00  0.00    -0.004 A 
ENDROOT
TORSDOF 0
ENDMDL
