MODEL 1
REMARK minimizedAffinity -1.57619154
REMARK minimizedRMSD -1
REMARK  0 active torsions:
REMARK  status: ('A' for Active; 'I' for Inactive)
ROOT
ATOM      1  C   UNL d   1      -0.141  -1.958   0.347  0.00  0.00     0.172 C 
ATOM      2  N   UNL d   1      -1.221  -1.045   0.640  0.00  0.00    -0.070 N 
ATOM      3  C1  UNL d   1      -1.558  -0.581   1.884  0.00  0.00    -0.004 A 
ATOM      4  C2  UNL d   1      -2.638   0.263   1.740  0.00  0.00    -0.047 A 
ATOM      5  C3  UNL d   1      -2.961   0.308   0.363  0.00  0.00    -0.047 A 
ATOM      6  C4  UNL d   1      -2.068  -0.512  -0.295  0.00  0.00    -0.004 A 
ENDROOT
TORSDOF 0
ENDMDL
