MODEL 1
REMARK minimizedAffinity -2.28372598
REMARK minimizedRMSD -1
REMARK  0 active torsions:
REMARK  status: ('A' for Active; 'I' for Inactive)
ROOT
ATOM      1  C   UNL d   1       1.186  -0.898   1.976  0.00  0.00     0.172 C 
ATOM      2  N   UNL d   1      -0.210  -0.761   1.633  0.00  0.00    -0.070 N 
ATOM      3  C1  UNL d   1      -0.804  -1.238   0.494  0.00  0.00    -0.004 A 
ATOM      4  C2  UNL d   1      -2.140  -0.904   0.543  0.00  0.00    -0.047 A 
ATOM      5  C3  UNL d   1      -2.357  -0.201   1.752  0.00  0.00    -0.047 A 
ATOM      6  C4  UNL d   1      -1.146  -0.127   2.407  0.00  0.00    -0.004 A 
ENDROOT
TORSDOF 0
ENDMDL
