MODEL 1
REMARK minimizedAffinity -3.31268144
REMARK minimizedRMSD -1
REMARK  0 active torsions:
REMARK  status: ('A' for Active; 'I' for Inactive)
ROOT
ATOM      1  C4' PXY d   1       5.971   5.990  -5.911  0.00  0.00     0.077 C 
ATOM      2  C1' PXY d   1       1.869   1.918  -6.000  0.00  0.00     0.077 C 
ATOM      3  C1  PXY d   1       2.953   2.977  -5.971  0.00  0.00    -0.082 A 
ATOM      4  C2  PXY d   1       2.617   4.256  -5.933  0.00  0.00     0.003 A 
ATOM      5  C3  PXY d   1       3.584   5.228  -5.939  0.00  0.00     0.003 A 
ATOM      6  C4  PXY d   1       4.910   4.886  -5.931  0.00  0.00    -0.082 A 
ATOM      7  C5  PXY d   1       5.261   3.583  -5.960  0.00  0.00     0.003 A 
ATOM      8  C6  PXY d   1       4.264   2.613  -5.995  0.00  0.00     0.003 A 
ENDROOT
TORSDOF 0
ENDMDL
