MODEL 1
REMARK minimizedAffinity -0.766697109
REMARK minimizedRMSD -1
REMARK  0 active torsions:
REMARK  status: ('A' for Active; 'I' for Inactive)
ROOT
ATOM      1  C4' PXY d   1       2.635   6.000   5.975  0.00  0.00     0.077 C 
ATOM      2  C1' PXY d   1       3.620   2.978   1.147  0.00  0.00     0.077 C 
ATOM      3  C1  PXY d   1       3.354   3.778   2.406  0.00  0.00    -0.082 A 
ATOM      4  C2  PXY d   1       4.236   3.760   3.392  0.00  0.00     0.003 A 
ATOM      5  C3  PXY d   1       3.997   4.452   4.551  0.00  0.00     0.003 A 
ATOM      6  C4  PXY d   1       2.867   5.214   4.681  0.00  0.00    -0.082 A 
ATOM      7  C5  PXY d   1       1.967   5.247   3.676  0.00  0.00     0.003 A 
ATOM      8  C6  PXY d   1       2.209   4.504   2.524  0.00  0.00     0.003 A 
ENDROOT
TORSDOF 0
ENDMDL
