MODEL 1
REMARK minimizedAffinity 7.77998352
REMARK minimizedRMSD -1
REMARK  0 active torsions:
REMARK  status: ('A' for Active; 'I' for Inactive)
ROOT
ATOM      1  C4' PXY d   1       4.138   1.497   0.150  0.00  0.00     0.077 C 
ATOM      2  C1' PXY d   1       5.366  -4.130  -0.344  0.00  0.00     0.077 C 
ATOM      3  C1  PXY d   1       5.033  -2.656  -0.222  0.00  0.00    -0.082 A 
ATOM      4  C2  PXY d   1       6.000  -1.785   0.018  0.00  0.00     0.003 A 
ATOM      5  C3  PXY d   1       5.712  -0.452   0.164  0.00  0.00     0.003 A 
ATOM      6  C4  PXY d   1       4.429   0.001   0.009  0.00  0.00    -0.082 A 
ATOM      7  C5  PXY d   1       3.439  -0.881  -0.246  0.00  0.00     0.003 A 
ATOM      8  C6  PXY d   1       3.746  -2.234  -0.350  0.00  0.00     0.003 A 
ENDROOT
TORSDOF 0
ENDMDL
