MODEL 1
REMARK minimizedAffinity 5.3677783
REMARK minimizedRMSD -1
REMARK  0 active torsions:
REMARK  status: ('A' for Active; 'I' for Inactive)
ROOT
ATOM      1  C4' PXY d   1       4.156   3.841   1.514  0.00  0.00     0.077 C 
ATOM      2  C1' PXY d   1       1.217   6.000   5.999  0.00  0.00     0.077 C 
ATOM      3  C1  PXY d   1       1.995   5.445   4.822  0.00  0.00    -0.082 A 
ATOM      4  C2  PXY d   1       1.457   4.498   4.071  0.00  0.00     0.003 A 
ATOM      5  C3  PXY d   1       2.159   3.962   3.022  0.00  0.00     0.003 A 
ATOM      6  C4  PXY d   1       3.404   4.438   2.707  0.00  0.00    -0.082 A 
ATOM      7  C5  PXY d   1       3.955   5.412   3.462  0.00  0.00     0.003 A 
ATOM      8  C6  PXY d   1       3.242   5.913   4.547  0.00  0.00     0.003 A 
ENDROOT
TORSDOF 0
ENDMDL
