MODEL 1
REMARK minimizedAffinity 1.2511934
REMARK minimizedRMSD -1
REMARK  0 active torsions:
REMARK  status: ('A' for Active; 'I' for Inactive)
ROOT
ATOM      1  C4' PXY d   1       4.754   5.684   5.935  0.00  0.00     0.077 C 
ATOM      2  C1' PXY d   1      -0.197   4.125   3.389  0.00  0.00     0.077 C 
ATOM      3  C1  PXY d   1       1.106   4.522   4.056  0.00  0.00    -0.082 A 
ATOM      4  C2  PXY d   1       1.151   5.609   4.808  0.00  0.00     0.003 A 
ATOM      5  C3  PXY d   1       2.328   6.000   5.393  0.00  0.00     0.003 A 
ATOM      6  C4  PXY d   1       3.458   5.240   5.250  0.00  0.00    -0.082 A 
ATOM      7  C5  PXY d   1       3.417   4.123   4.493  0.00  0.00     0.003 A 
ATOM      8  C6  PXY d   1       2.223   3.766   3.874  0.00  0.00     0.003 A 
ENDROOT
TORSDOF 0
ENDMDL
