MODEL 1
REMARK minimizedAffinity -0.29299736
REMARK minimizedRMSD -1
REMARK  0 active torsions:
REMARK  status: ('A' for Active; 'I' for Inactive)
ROOT
ATOM      1  C4' PXY d   1       1.141   6.000   6.000  0.00  0.00     0.077 C 
ATOM      2  C1' PXY d   1       3.316   2.491   1.953  0.00  0.00     0.077 C 
ATOM      3  C1  PXY d   1       2.738   3.417   3.005  0.00  0.00    -0.082 A 
ATOM      4  C2  PXY d   1       3.408   3.633   4.126  0.00  0.00     0.003 A 
ATOM      5  C3  PXY d   1       2.886   4.442   5.102  0.00  0.00     0.003 A 
ATOM      6  C4  PXY d   1       1.690   5.080   4.906  0.00  0.00    -0.082 A 
ATOM      7  C5  PXY d   1       1.006   4.874   3.761  0.00  0.00     0.003 A 
ATOM      8  C6  PXY d   1       1.534   4.016   2.800  0.00  0.00     0.003 A 
ENDROOT
TORSDOF 0
ENDMDL
