MODEL 1
REMARK minimizedAffinity 12.1099262
REMARK minimizedRMSD -1
REMARK  0 active torsions:
REMARK  status: ('A' for Active; 'I' for Inactive)
ROOT
ATOM      1  C4' PXY d   1      -3.932   1.341   4.011  0.00  0.00     0.077 C 
ATOM      2  C1' PXY d   1      -2.503  -0.180  -1.380  0.00  0.00     0.077 C 
ATOM      3  C1  PXY d   1      -2.880   0.231   0.030  0.00  0.00    -0.082 A 
ATOM      4  C2  PXY d   1      -2.426  -0.467   1.058  0.00  0.00     0.003 A 
ATOM      5  C3  PXY d   1      -2.782  -0.128   2.338  0.00  0.00     0.003 A 
ATOM      6  C4  PXY d   1      -3.570   0.968   2.570  0.00  0.00    -0.082 A 
ATOM      7  C5  PXY d   1      -4.029   1.691   1.527  0.00  0.00     0.003 A 
ATOM      8  C6  PXY d   1      -3.689   1.306   0.233  0.00  0.00     0.003 A 
ENDROOT
TORSDOF 0
ENDMDL
