MODEL 1
REMARK minimizedAffinity -1.3439101
REMARK minimizedRMSD -1
REMARK  0 active torsions:
REMARK  status: ('A' for Active; 'I' for Inactive)
ROOT
ATOM      1  C4' PXY d   1      -0.075   6.000   4.901  0.00  0.00     0.077 C 
ATOM      2  C1' PXY d   1       3.727   2.602   2.177  0.00  0.00     0.077 C 
ATOM      3  C1  PXY d   1       2.732   3.487   2.902  0.00  0.00    -0.082 A 
ATOM      4  C2  PXY d   1       1.791   4.114   2.215  0.00  0.00     0.003 A 
ATOM      5  C3  PXY d   1       0.903   4.942   2.851  0.00  0.00     0.003 A 
ATOM      6  C4  PXY d   1       0.945   5.090   4.211  0.00  0.00    -0.082 A 
ATOM      7  C5  PXY d   1       1.895   4.445   4.921  0.00  0.00     0.003 A 
ATOM      8  C6  PXY d   1       2.813   3.640   4.252  0.00  0.00     0.003 A 
ENDROOT
TORSDOF 0
ENDMDL
