MODEL 1
REMARK minimizedAffinity 13.569706
REMARK minimizedRMSD -1
REMARK  0 active torsions:
REMARK  status: ('A' for Active; 'I' for Inactive)
ROOT
ATOM      1  C4' PXY d   1       2.677   3.910   4.420  0.00  0.00     0.077 C 
ATOM      2  C1' PXY d   1       4.759   1.689  -0.493  0.00  0.00     0.077 C 
ATOM      3  C1  PXY d   1       4.202   2.274   0.789  0.00  0.00    -0.082 A 
ATOM      4  C2  PXY d   1       5.031   2.713   1.722  0.00  0.00     0.003 A 
ATOM      5  C3  PXY d   1       4.544   3.216   2.902  0.00  0.00     0.003 A 
ATOM      6  C4  PXY d   1       3.194   3.320   3.106  0.00  0.00    -0.082 A 
ATOM      7  C5  PXY d   1       2.342   2.884   2.154  0.00  0.00     0.003 A 
ATOM      8  C6  PXY d   1       2.856   2.339   0.981  0.00  0.00     0.003 A 
ENDROOT
TORSDOF 0
ENDMDL
