MODEL 1
REMARK minimizedAffinity 5.34151888
REMARK minimizedRMSD -1
REMARK  0 active torsions:
REMARK  status: ('A' for Active; 'I' for Inactive)
ROOT
ATOM      1  C4' PXY d   1       3.111   2.499   1.691  0.00  0.00     0.077 C 
ATOM      2  C1' PXY d   1       1.499   6.000   6.000  0.00  0.00     0.077 C 
ATOM      3  C1  PXY d   1       1.934   5.084   4.873  0.00  0.00    -0.082 A 
ATOM      4  C2  PXY d   1       1.108   4.846   3.867  0.00  0.00     0.003 A 
ATOM      5  C3  PXY d   1       1.473   3.995   2.856  0.00  0.00     0.003 A 
ATOM      6  C4  PXY d   1       2.717   3.425   2.846  0.00  0.00    -0.082 A 
ATOM      7  C5  PXY d   1       3.570   3.671   3.863  0.00  0.00     0.003 A 
ATOM      8  C6  PXY d   1       3.165   4.505   4.901  0.00  0.00     0.003 A 
ENDROOT
TORSDOF 0
ENDMDL
