MODEL 1
REMARK minimizedAffinity 2.43910456
REMARK minimizedRMSD -1
REMARK  0 active torsions:
REMARK  status: ('A' for Active; 'I' for Inactive)
ROOT
ATOM      1  C4' PXY d   1       5.094   5.179   5.999  0.00  0.00     0.077 C 
ATOM      2  C1' PXY d   1      -0.034   4.850   3.351  0.00  0.00     0.077 C 
ATOM      3  C1  PXY d   1       1.309   4.949   4.048  0.00  0.00    -0.082 A 
ATOM      4  C2  PXY d   1       2.273   4.100   3.734  0.00  0.00     0.003 A 
ATOM      5  C3  PXY d   1       3.483   4.155   4.377  0.00  0.00     0.003 A 
ATOM      6  C4  PXY d   1       3.726   5.123   5.314  0.00  0.00    -0.082 A 
ATOM      7  C5  PXY d   1       2.750   6.000   5.633  0.00  0.00     0.003 A 
ATOM      8  C6  PXY d   1       1.516   5.901   4.998  0.00  0.00     0.003 A 
ENDROOT
TORSDOF 0
ENDMDL
