MODEL 1
REMARK minimizedAffinity 5.80702209
REMARK minimizedRMSD -1
REMARK  0 active torsions:
REMARK  status: ('A' for Active; 'I' for Inactive)
ROOT
ATOM      1  C4' PXY d   1       5.246   5.925   6.000  0.00  0.00     0.077 C 
ATOM      2  C1' PXY d   1       0.150   5.001   3.432  0.00  0.00     0.077 C 
ATOM      3  C1  PXY d   1       1.481   5.252   4.113  0.00  0.00    -0.082 A 
ATOM      4  C2  PXY d   1       2.605   4.968   3.477  0.00  0.00     0.003 A 
ATOM      5  C3  PXY d   1       3.816   5.159   4.090  0.00  0.00     0.003 A 
ATOM      6  C4  PXY d   1       3.879   5.697   5.348  0.00  0.00    -0.082 A 
ATOM      7  C5  PXY d   1       2.737   6.000   5.999  0.00  0.00     0.003 A 
ATOM      8  C6  PXY d   1       1.516   5.760   5.375  0.00  0.00     0.003 A 
ENDROOT
TORSDOF 0
ENDMDL
