MODEL 1
REMARK minimizedAffinity -2.32781124
REMARK minimizedRMSD -1
REMARK  1 active torsions:
REMARK  status: ('A' for Active; 'I' for Inactive)
REMARK    1  A    between atoms: C1_2  and  C2_3 
ROOT
ATOM      1  C2  UNL d   1      -2.035   0.483  -0.829  0.00  0.00    -0.077 A 
ATOM      2  C3  UNL d   1      -1.063   1.493  -0.788  0.00  0.00     0.002 A 
ATOM      3  C4  UNL d   1       0.062   1.358   0.029  0.00  0.00     0.002 A 
ATOM      4  C5  UNL d   1       0.227   0.213   0.805  0.00  0.00    -0.004 A 
ATOM      5  C6  UNL d   1      -0.734  -0.796   0.772  0.00  0.00     0.002 A 
ATOM      6  C7  UNL d   1      -1.860  -0.662  -0.042  0.00  0.00     0.002 A 
ENDROOT
BRANCH   1   7
ATOM      7  C1  UNL d   1      -3.224   0.605  -1.746  0.00  0.00     0.055 C 
ATOM      8  C   UNL d   1      -2.858   0.243  -3.178  0.00  0.00     0.019 C 
ENDBRANCH   1   7
TORSDOF 1
ENDMDL
