MODEL 1
REMARK minimizedAffinity -3.15521717
REMARK minimizedRMSD -1
REMARK  1 active torsions:
REMARK  status: ('A' for Active; 'I' for Inactive)
REMARK    1  A    between atoms: C1_2  and  C2_3 
ROOT
ATOM      1  C2  UNL d   1      -1.337   0.102  -0.730  0.00  0.00    -0.077 A 
ATOM      2  C3  UNL d   1      -1.859  -1.025  -0.081  0.00  0.00     0.002 A 
ATOM      3  C4  UNL d   1      -2.658  -1.935  -0.778  0.00  0.00     0.002 A 
ATOM      4  C5  UNL d   1      -2.936  -1.728  -2.127  0.00  0.00    -0.004 A 
ATOM      5  C6  UNL d   1      -2.422  -0.609  -2.781  0.00  0.00     0.002 A 
ATOM      6  C7  UNL d   1      -1.626   0.301  -2.086  0.00  0.00     0.002 A 
ENDROOT
BRANCH   1   7
ATOM      7  C1  UNL d   1      -0.435   1.058   0.007  0.00  0.00     0.055 C 
ATOM      8  C   UNL d   1       0.938   0.449   0.249  0.00  0.00     0.019 C 
ENDBRANCH   1   7
TORSDOF 1
ENDMDL
