MODEL 1
REMARK minimizedAffinity -2.4196229
REMARK minimizedRMSD -1
REMARK  1 active torsions:
REMARK  status: ('A' for Active; 'I' for Inactive)
REMARK    1  A    between atoms: C1_2  and  C2_3 
ROOT
ATOM      1  C2  UNL d   1      -2.767   1.656  -1.854  0.00  0.00    -0.077 A 
ATOM      2  C3  UNL d   1      -3.269   2.798  -1.215  0.00  0.00     0.002 A 
ATOM      3  C4  UNL d   1      -3.586   3.940  -1.954  0.00  0.00     0.002 A 
ATOM      4  C5  UNL d   1      -3.410   3.948  -3.336  0.00  0.00    -0.004 A 
ATOM      5  C6  UNL d   1      -2.910   2.817  -3.981  0.00  0.00     0.002 A 
ATOM      6  C7  UNL d   1      -2.591   1.676  -3.244  0.00  0.00     0.002 A 
ENDROOT
BRANCH   1   7
ATOM      7  C1  UNL d   1      -2.470   0.408  -1.065  0.00  0.00     0.055 C 
ATOM      8  C   UNL d   1      -1.275   0.606  -0.144  0.00  0.00     0.019 C 
ENDBRANCH   1   7
TORSDOF 1
ENDMDL
