MODEL 1
REMARK minimizedAffinity 4.77354813
REMARK minimizedRMSD -1
REMARK  1 active torsions:
REMARK  status: ('A' for Active; 'I' for Inactive)
REMARK    1  A    between atoms: C1_2  and  C2_3 
ROOT
ATOM      1  C2  UNL d   1      -3.230   1.974   0.723  0.00  0.00    -0.077 A 
ATOM      2  C3  UNL d   1      -3.622   2.363  -0.565  0.00  0.00     0.002 A 
ATOM      3  C4  UNL d   1      -4.867   2.961  -0.774  0.00  0.00     0.002 A 
ATOM      4  C5  UNL d   1      -5.726   3.178   0.301  0.00  0.00    -0.004 A 
ATOM      5  C6  UNL d   1      -5.346   2.793   1.586  0.00  0.00     0.002 A 
ATOM      6  C7  UNL d   1      -4.103   2.194   1.796  0.00  0.00     0.002 A 
ENDROOT
BRANCH   1   7
ATOM      7  C1  UNL d   1      -1.868   1.374   0.958  0.00  0.00     0.055 C 
ATOM      8  C   UNL d   1      -1.905  -0.143   0.847  0.00  0.00     0.019 C 
ENDBRANCH   1   7
TORSDOF 1
ENDMDL
