MODEL 1
REMARK minimizedAffinity -6.04933167
REMARK minimizedRMSD -1
REMARK  1 active torsions:
REMARK  status: ('A' for Active; 'I' for Inactive)
REMARK    1  A    between atoms: C1_2  and  C2_3 
ROOT
ATOM      1  C2  UNL d   1       0.090  -0.115   0.554  0.00  0.00    -0.077 A 
ATOM      2  C3  UNL d   1       0.169  -1.464   0.927  0.00  0.00     0.002 A 
ATOM      3  C4  UNL d   1       1.383  -2.009   1.349  0.00  0.00     0.002 A 
ATOM      4  C5  UNL d   1       2.525  -1.213   1.406  0.00  0.00    -0.004 A 
ATOM      5  C6  UNL d   1       2.456   0.130   1.035  0.00  0.00     0.002 A 
ATOM      6  C7  UNL d   1       1.244   0.676   0.612  0.00  0.00     0.002 A 
ENDROOT
BRANCH   1   7
ATOM      7  C1  UNL d   1      -1.229   0.488   0.145  0.00  0.00     0.055 C 
ATOM      8  C   UNL d   1      -1.668  -0.016  -1.222  0.00  0.00     0.019 C 
ENDBRANCH   1   7
TORSDOF 1
ENDMDL
