MODEL 1
REMARK minimizedAffinity -1.94483113
REMARK minimizedRMSD -1
REMARK  1 active torsions:
REMARK  status: ('A' for Active; 'I' for Inactive)
REMARK    1  A    between atoms: C1_2  and  C2_3 
ROOT
ATOM      1  C2  UNL d   1      -0.191   0.534  -0.365  0.00  0.00    -0.077 A 
ATOM      2  C3  UNL d   1       0.486  -0.029   0.726  0.00  0.00     0.002 A 
ATOM      3  C4  UNL d   1       1.706   0.501   1.151  0.00  0.00     0.002 A 
ATOM      4  C5  UNL d   1       2.257   1.598   0.493  0.00  0.00    -0.004 A 
ATOM      5  C6  UNL d   1       1.592   2.164  -0.594  0.00  0.00     0.002 A 
ATOM      6  C7  UNL d   1       0.373   1.635  -1.021  0.00  0.00     0.002 A 
ENDROOT
BRANCH   1   7
ATOM      7  C1  UNL d   1      -1.531  -0.006  -0.793  0.00  0.00     0.055 C 
ATOM      8  C   UNL d   1      -1.643  -0.070  -2.309  0.00  0.00     0.019 C 
ENDBRANCH   1   7
TORSDOF 1
ENDMDL
