MODEL 1
REMARK minimizedAffinity -5.40720797
REMARK minimizedRMSD -1
REMARK  1 active torsions:
REMARK  status: ('A' for Active; 'I' for Inactive)
REMARK    1  A    between atoms: C1_2  and  C2_3 
ROOT
ATOM      1  C2  UNL d   1       0.956  -0.552   0.077  0.00  0.00    -0.077 A 
ATOM      2  C3  UNL d   1       1.271  -1.808   0.615  0.00  0.00     0.002 A 
ATOM      3  C4  UNL d   1       2.408  -1.972   1.408  0.00  0.00     0.002 A 
ATOM      4  C5  UNL d   1       3.236  -0.884   1.674  0.00  0.00    -0.004 A 
ATOM      5  C6  UNL d   1       2.933   0.368   1.143  0.00  0.00     0.002 A 
ATOM      6  C7  UNL d   1       1.798   0.534   0.348  0.00  0.00     0.002 A 
ENDROOT
BRANCH   1   7
ATOM      7  C1  UNL d   1      -0.297  -0.363  -0.738  0.00  0.00     0.055 C 
ATOM      8  C   UNL d   1      -1.486  -0.017   0.146  0.00  0.00     0.019 C 
ENDBRANCH   1   7
TORSDOF 1
ENDMDL
