MODEL 1
REMARK minimizedAffinity 10.3391066
REMARK minimizedRMSD -1
REMARK  3 active torsions:
REMARK  status: ('A' for Active; 'I' for Inactive)
REMARK    1  A    between atoms: C3'_2  and  C2'_3 
REMARK    2  A    between atoms: C2'_3  and  C1'_4 
REMARK    3  A    between atoms: C1'_4  and  C1_5 
ROOT
ATOM      1  C1  N4B d   1       0.460  -0.210   1.385  0.00  0.00    -0.075 A 
ATOM      2  C2  N4B d   1       1.864  -0.322   1.481  0.00  0.00     0.002 A 
ATOM      3  C3  N4B d   1       2.626   0.792   1.730  0.00  0.00     0.002 A 
ATOM      4  C4  N4B d   1       2.011   2.027   1.868  0.00  0.00    -0.004 A 
ATOM      5  C5  N4B d   1       0.652   2.123   1.799  0.00  0.00     0.002 A 
ATOM      6  C6  N4B d   1      -0.127   1.010   1.553  0.00  0.00     0.002 A 
ENDROOT
BRANCH   1   7
ATOM      7  C1' N4B d   1      -0.408  -1.386   1.028  0.00  0.00     0.057 C 
BRANCH   7   8
ATOM      8  C2' N4B d   1       0.354  -2.299   0.072  0.00  0.00     0.009 C 
BRANCH   8   9
ATOM      9  C3' N4B d   1      -0.302  -2.362  -1.297  0.00  0.00     0.004 C 
ATOM     10  C4' N4B d   1       0.651  -2.775  -2.379  0.00  0.00     0.003 C 
ENDBRANCH   8   9
ENDBRANCH   7   8
ENDBRANCH   1   7
TORSDOF 3
ENDMDL
