MODEL 1
REMARK minimizedAffinity 1.35619247
REMARK minimizedRMSD -1
REMARK  3 active torsions:
REMARK  status: ('A' for Active; 'I' for Inactive)
REMARK    1  A    between atoms: C3'_2  and  C2'_3 
REMARK    2  A    between atoms: C2'_3  and  C1'_4 
REMARK    3  A    between atoms: C1'_4  and  C1_5 
ROOT
ATOM      1  C1  N4B d   1       0.121  -0.854   1.224  0.00  0.00    -0.075 A 
ATOM      2  C2  N4B d   1       0.706  -2.058   0.772  0.00  0.00     0.002 A 
ATOM      3  C3  N4B d   1       2.072  -2.185   0.734  0.00  0.00     0.002 A 
ATOM      4  C4  N4B d   1       2.872  -1.120   1.121  0.00  0.00    -0.004 A 
ATOM      5  C5  N4B d   1       2.300   0.030   1.580  0.00  0.00     0.002 A 
ATOM      6  C6  N4B d   1       0.927   0.171   1.628  0.00  0.00     0.002 A 
ENDROOT
BRANCH   1   7
ATOM      7  C1' N4B d   1      -1.367  -0.637   1.203  0.00  0.00     0.057 C 
BRANCH   7   8
ATOM      8  C2' N4B d   1      -1.657   0.857   1.313  0.00  0.00     0.009 C 
BRANCH   8   9
ATOM      9  C3' N4B d   1      -3.092   1.187   0.939  0.00  0.00     0.004 C 
ATOM     10  C4' N4B d   1      -3.863   1.792   2.073  0.00  0.00     0.003 C 
ENDBRANCH   8   9
ENDBRANCH   7   8
ENDBRANCH   1   7
TORSDOF 3
ENDMDL
