MODEL 1
REMARK minimizedAffinity 10.0318699
REMARK minimizedRMSD -1
REMARK  3 active torsions:
REMARK  status: ('A' for Active; 'I' for Inactive)
REMARK    1  A    between atoms: C3'_2  and  C2'_3 
REMARK    2  A    between atoms: C2'_3  and  C1'_4 
REMARK    3  A    between atoms: C1'_4  and  C1_5 
ROOT
ATOM      1  C1  N4B d   1       0.473  -0.914   0.968  0.00  0.00    -0.075 A 
ATOM      2  C2  N4B d   1       1.131  -0.137   1.947  0.00  0.00     0.002 A 
ATOM      3  C3  N4B d   1       2.503  -0.137   2.015  0.00  0.00     0.002 A 
ATOM      4  C4  N4B d   1       3.234  -0.917   1.132  0.00  0.00    -0.004 A 
ATOM      5  C5  N4B d   1       2.592  -1.645   0.174  0.00  0.00     0.002 A 
ATOM      6  C6  N4B d   1       1.214  -1.652   0.090  0.00  0.00     0.002 A 
ENDROOT
BRANCH   1   7
ATOM      7  C1' N4B d   1      -1.026  -1.014   0.909  0.00  0.00     0.057 C 
BRANCH   7   8
ATOM      8  C2' N4B d   1      -1.566   0.086  -0.001  0.00  0.00     0.009 C 
BRANCH   8   9
ATOM      9  C3' N4B d   1      -2.384   1.109   0.768  0.00  0.00     0.004 C 
ATOM     10  C4' N4B d   1      -3.329   1.875  -0.109  0.00  0.00     0.003 C 
ENDBRANCH   8   9
ENDBRANCH   7   8
ENDBRANCH   1   7
TORSDOF 3
ENDMDL
