MODEL 1
REMARK minimizedAffinity 12.1911955
REMARK minimizedRMSD -1
REMARK  1 active torsions:
REMARK  status: ('A' for Active; 'I' for Inactive)
REMARK    1  A    between atoms: N_2  and  C1_3 
ROOT
ATOM      1  C1  UNL d   1       3.339   0.785  -0.590  0.00  0.00     0.143 A 
ATOM      2  C2  UNL d   1       3.962   0.594   0.649  0.00  0.00    -0.057 A 
ATOM      3  C3  UNL d   1       3.757  -0.575   1.392  0.00  0.00     0.033 A 
ATOM      4  C4  UNL d   1       2.901  -1.565   0.921  0.00  0.00    -0.042 A 
ATOM      5  C5  UNL d   1       2.251  -1.385  -0.296  0.00  0.00     0.033 A 
ATOM      6  C6  UNL d   1       2.465  -0.219  -1.036  0.00  0.00    -0.057 A 
ENDROOT
BRANCH   1   7
ATOM      7  N   UNL d   1       3.425   1.967  -1.329  0.00  0.00    -0.732 N 
ATOM      8  C   UNL d   1       4.429   2.120  -2.360  0.00  0.00     0.284 C 
ATOM      9  H3  UNL d   1       2.510   2.334  -1.582  0.00  0.00     0.395 HD
ENDBRANCH   1   7
TORSDOF 1
ENDMDL
