MODEL 1
REMARK minimizedAffinity 10.1677818
REMARK minimizedRMSD -1
REMARK  1 active torsions:
REMARK  status: ('A' for Active; 'I' for Inactive)
REMARK    1  A    between atoms: N_2  and  C1_3 
ROOT
ATOM      1  C1  UNL d   1      -5.534   5.418   2.064  0.00  0.00     0.143 A 
ATOM      2  C2  UNL d   1      -5.999   5.998   3.249  0.00  0.00    -0.057 A 
ATOM      3  C3  UNL d   1      -5.909   5.324   4.472  0.00  0.00     0.033 A 
ATOM      4  C4  UNL d   1      -5.377   4.040   4.528  0.00  0.00    -0.042 A 
ATOM      5  C5  UNL d   1      -4.931   3.433   3.359  0.00  0.00     0.033 A 
ATOM      6  C6  UNL d   1      -5.017   4.114   2.141  0.00  0.00    -0.057 A 
ENDROOT
BRANCH   1   7
ATOM      7  N   UNL d   1      -5.685   5.997   0.802  0.00  0.00    -0.732 N 
ATOM      8  C   UNL d   1      -4.766   5.679  -0.270  0.00  0.00     0.284 C 
ATOM      9  H3  UNL d   1      -6.659   6.050   0.513  0.00  0.00     0.395 HD
ENDBRANCH   1   7
TORSDOF 1
ENDMDL
