MODEL 1
REMARK minimizedAffinity 5.95676756
REMARK minimizedRMSD -1
REMARK  1 active torsions:
REMARK  status: ('A' for Active; 'I' for Inactive)
REMARK    1  A    between atoms: N_2  and  C1_3 
ROOT
ATOM      1  C1  UNL d   1       2.231  -0.743  -0.540  0.00  0.00     0.143 A 
ATOM      2  C2  UNL d   1       1.977   0.476  -1.178  0.00  0.00    -0.057 A 
ATOM      3  C3  UNL d   1       2.142   1.695  -0.508  0.00  0.00     0.033 A 
ATOM      4  C4  UNL d   1       2.536   1.714   0.825  0.00  0.00    -0.042 A 
ATOM      5  C5  UNL d   1       2.770   0.514   1.487  0.00  0.00     0.033 A 
ATOM      6  C6  UNL d   1       2.610  -0.699   0.811  0.00  0.00    -0.057 A 
ENDROOT
BRANCH   1   7
ATOM      7  N   UNL d   1       1.991  -1.990  -1.122  0.00  0.00    -0.732 N 
ATOM      8  C   UNL d   1       1.821  -2.115  -2.554  0.00  0.00     0.284 C 
ATOM      9  H3  UNL d   1       2.552  -2.728  -0.704  0.00  0.00     0.395 HD
ENDBRANCH   1   7
TORSDOF 1
ENDMDL
