MODEL 1
REMARK minimizedAffinity 13.2290363
REMARK minimizedRMSD -1
REMARK  1 active torsions:
REMARK  status: ('A' for Active; 'I' for Inactive)
REMARK    1  A    between atoms: N_2  and  C1_3 
ROOT
ATOM      1  C1  UNL d   1       3.941   1.005   0.619  0.00  0.00     0.143 A 
ATOM      2  C2  UNL d   1       3.456  -0.135   1.268  0.00  0.00    -0.057 A 
ATOM      3  C3  UNL d   1       2.427  -0.905   0.712  0.00  0.00     0.033 A 
ATOM      4  C4  UNL d   1       1.844  -0.530  -0.494  0.00  0.00    -0.042 A 
ATOM      5  C5  UNL d   1       2.293   0.614  -1.145  0.00  0.00     0.033 A 
ATOM      6  C6  UNL d   1       3.326   1.374  -0.587  0.00  0.00    -0.057 A 
ENDROOT
BRANCH   1   7
ATOM      7  N   UNL d   1       4.894   1.866   1.168  0.00  0.00    -0.732 N 
ATOM      8  C   UNL d   1       4.486   3.033   1.921  0.00  0.00     0.284 C 
ATOM      9  H3  UNL d   1       5.684   1.366   1.571  0.00  0.00     0.395 HD
ENDBRANCH   1   7
TORSDOF 1
ENDMDL
