MODEL 1
REMARK minimizedAffinity 2.35585833
REMARK minimizedRMSD -1
REMARK  1 active torsions:
REMARK  status: ('A' for Active; 'I' for Inactive)
REMARK    1  A    between atoms: N_2  and  C1_3 
ROOT
ATOM      1  C1  UNL d   1      -3.575   1.130   0.190  0.00  0.00     0.143 A 
ATOM      2  C2  UNL d   1      -2.214   1.374  -0.027  0.00  0.00    -0.057 A 
ATOM      3  C3  UNL d   1      -1.565   0.899  -1.173  0.00  0.00     0.033 A 
ATOM      4  C4  UNL d   1      -2.261   0.145  -2.111  0.00  0.00    -0.042 A 
ATOM      5  C5  UNL d   1      -3.608  -0.131  -1.904  0.00  0.00     0.033 A 
ATOM      6  C6  UNL d   1      -4.252   0.351  -0.761  0.00  0.00    -0.057 A 
ENDROOT
BRANCH   1   7
ATOM      7  N   UNL d   1      -4.253   1.491   1.357  0.00  0.00    -0.732 N 
ATOM      8  C   UNL d   1      -4.555   2.878   1.635  0.00  0.00     0.284 C 
ATOM      9  H3  UNL d   1      -5.009   0.848   1.581  0.00  0.00     0.395 HD
ENDBRANCH   1   7
TORSDOF 1
ENDMDL
