MODEL 1
REMARK minimizedAffinity -1.91569722
REMARK minimizedRMSD -1
REMARK  1 active torsions:
REMARK  status: ('A' for Active; 'I' for Inactive)
REMARK    1  A    between atoms: C1_2  and  C2_3 
ROOT
ATOM      1  C2  UNL d   1       1.158  -1.261  -0.235  0.00  0.00    -0.077 A 
ATOM      2  C3  UNL d   1      -0.123  -1.772  -0.487  0.00  0.00     0.002 A 
ATOM      3  C4  UNL d   1      -1.231  -0.922  -0.506  0.00  0.00     0.002 A 
ATOM      4  C5  UNL d   1      -1.068   0.443  -0.278  0.00  0.00    -0.004 A 
ATOM      5  C6  UNL d   1       0.202   0.960  -0.024  0.00  0.00     0.002 A 
ATOM      6  C7  UNL d   1       1.310   0.112  -0.004  0.00  0.00     0.002 A 
ENDROOT
BRANCH   1   7
ATOM      7  C1  UNL d   1       2.360  -2.168  -0.263  0.00  0.00     0.055 C 
ATOM      8  C   UNL d   1       3.639  -1.403   0.045  0.00  0.00     0.019 C 
ENDBRANCH   1   7
TORSDOF 1
ENDMDL
