MODEL 1
REMARK minimizedAffinity -4.37388611
REMARK minimizedRMSD -1
REMARK  1 active torsions:
REMARK  status: ('A' for Active; 'I' for Inactive)
REMARK    1  A    between atoms: C1_2  and  C2_3 
ROOT
ATOM      1  C2  UNL d   1       0.149   0.128   0.071  0.00  0.00    -0.077 A 
ATOM      2  C3  UNL d   1       1.282   0.322   0.873  0.00  0.00     0.002 A 
ATOM      3  C4  UNL d   1       2.221  -0.700   1.026  0.00  0.00     0.002 A 
ATOM      4  C5  UNL d   1       2.039  -1.920   0.378  0.00  0.00    -0.004 A 
ATOM      5  C6  UNL d   1       0.914  -2.123  -0.420  0.00  0.00     0.002 A 
ATOM      6  C7  UNL d   1      -0.027  -1.103  -0.574  0.00  0.00     0.002 A 
ENDROOT
BRANCH   1   7
ATOM      7  C1  UNL d   1      -0.840   1.246  -0.136  0.00  0.00     0.055 C 
ATOM      8  C   UNL d   1      -2.239   0.835   0.302  0.00  0.00     0.019 C 
ENDBRANCH   1   7
TORSDOF 1
ENDMDL
