MODEL 1
REMARK minimizedAffinity -5.90433025
REMARK minimizedRMSD -1
REMARK  1 active torsions:
REMARK  status: ('A' for Active; 'I' for Inactive)
REMARK    1  A    between atoms: C1_2  and  C2_3 
ROOT
ATOM      1  C2  UNL d   1       1.005  -0.986   0.035  0.00  0.00    -0.077 A 
ATOM      2  C3  UNL d   1       1.306   0.380   0.119  0.00  0.00     0.002 A 
ATOM      3  C4  UNL d   1       2.628   0.804   0.275  0.00  0.00     0.002 A 
ATOM      4  C5  UNL d   1       3.658  -0.132   0.344  0.00  0.00    -0.004 A 
ATOM      5  C6  UNL d   1       3.368  -1.493   0.263  0.00  0.00     0.002 A 
ATOM      6  C7  UNL d   1       2.048  -1.918   0.109  0.00  0.00     0.002 A 
ENDROOT
BRANCH   1   7
ATOM      7  C1  UNL d   1      -0.414  -1.443  -0.182  0.00  0.00     0.055 C 
ATOM      8  C   UNL d   1      -1.008  -0.826  -1.439  0.00  0.00     0.019 C 
ENDBRANCH   1   7
TORSDOF 1
ENDMDL
