MODEL 1
REMARK minimizedAffinity -5.16128445
REMARK minimizedRMSD -1
REMARK  1 active torsions:
REMARK  status: ('A' for Active; 'I' for Inactive)
REMARK    1  A    between atoms: C1_2  and  C2_3 
ROOT
ATOM      1  C2  UNL d   1       0.249   0.116  -0.094  0.00  0.00    -0.077 A 
ATOM      2  C3  UNL d   1       0.511  -1.261  -0.067  0.00  0.00     0.002 A 
ATOM      3  C4  UNL d   1       1.697  -1.743   0.490  0.00  0.00     0.002 A 
ATOM      4  C5  UNL d   1       2.627  -0.855   1.029  0.00  0.00    -0.004 A 
ATOM      5  C6  UNL d   1       2.376   0.516   1.005  0.00  0.00     0.002 A 
ATOM      6  C7  UNL d   1       1.191   0.999   0.447  0.00  0.00     0.002 A 
ENDROOT
BRANCH   1   7
ATOM      7  C1  UNL d   1      -1.052   0.634  -0.651  0.00  0.00     0.055 C 
ATOM      8  C   UNL d   1      -2.066   0.886   0.455  0.00  0.00     0.019 C 
ENDBRANCH   1   7
TORSDOF 1
ENDMDL
