MODEL 1
REMARK minimizedAffinity -5.43478727
REMARK minimizedRMSD -1
REMARK  1 active torsions:
REMARK  status: ('A' for Active; 'I' for Inactive)
REMARK    1  A    between atoms: C1_2  and  C2_3 
ROOT
ATOM      1  C2  UNL d   1       0.102   0.027   0.092  0.00  0.00    -0.077 A 
ATOM      2  C3  UNL d   1       1.161   0.671   0.747  0.00  0.00     0.002 A 
ATOM      3  C4  UNL d   1       2.320  -0.033   1.077  0.00  0.00     0.002 A 
ATOM      4  C5  UNL d   1       2.433  -1.383   0.752  0.00  0.00    -0.004 A 
ATOM      5  C6  UNL d   1       1.385  -2.033   0.102  0.00  0.00     0.002 A 
ATOM      6  C7  UNL d   1       0.225  -1.331  -0.227  0.00  0.00     0.002 A 
ENDROOT
BRANCH   1   7
ATOM      7  C1  UNL d   1      -1.129   0.798  -0.309  0.00  0.00     0.055 C 
ATOM      8  C   UNL d   1      -2.118   0.898   0.843  0.00  0.00     0.019 C 
ENDBRANCH   1   7
TORSDOF 1
ENDMDL
