MODEL 1
REMARK minimizedAffinity -4.13589478
REMARK minimizedRMSD -1
REMARK  1 active torsions:
REMARK  status: ('A' for Active; 'I' for Inactive)
REMARK    1  A    between atoms: C1_2  and  C2_3 
ROOT
ATOM      1  C2  UNL d   1       2.574   0.036  -0.138  0.00  0.00    -0.077 A 
ATOM      2  C3  UNL d   1       1.268   0.548  -0.126  0.00  0.00     0.002 A 
ATOM      3  C4  UNL d   1       0.172  -0.315  -0.066  0.00  0.00     0.002 A 
ATOM      4  C5  UNL d   1       0.371  -1.693  -0.014  0.00  0.00    -0.004 A 
ATOM      5  C6  UNL d   1       1.665  -2.212  -0.027  0.00  0.00     0.002 A 
ATOM      6  C7  UNL d   1       2.761  -1.351  -0.088  0.00  0.00     0.002 A 
ENDROOT
BRANCH   1   7
ATOM      7  C1  UNL d   1       3.758   0.967  -0.152  0.00  0.00     0.055 C 
ATOM      8  C   UNL d   1       3.436   2.283   0.540  0.00  0.00     0.019 C 
ENDBRANCH   1   7
TORSDOF 1
ENDMDL
