MODEL 1
REMARK minimizedAffinity -4.63428926
REMARK minimizedRMSD -1
REMARK  1 active torsions:
REMARK  status: ('A' for Active; 'I' for Inactive)
REMARK    1  A    between atoms: C1_2  and  C2_3 
ROOT
ATOM      1  C2  UNL d   1       0.107  -0.019   0.004  0.00  0.00    -0.073 A 
ATOM      2  C3  UNL d   1       1.106   0.190   0.962  0.00  0.00    -0.002 A 
ATOM      3  C4  UNL d   1       2.393  -0.307   0.758  0.00  0.00     0.004 A 
ATOM      4  C5  UNL d   1       2.698  -1.011  -0.407  0.00  0.00    -0.004 A 
ATOM      5  C6  UNL d   1       1.717  -1.220  -1.381  0.00  0.00    -0.075 A 
ATOM      6  C7  UNL d   1       2.028  -1.977  -2.639  0.00  0.00     0.076 C 
ATOM      7  C8  UNL d   1       0.425  -0.720  -1.168  0.00  0.00     0.001 A 
ENDROOT
BRANCH   1   8
ATOM      8  C1  UNL d   1      -1.283   0.522   0.217  0.00  0.00     0.053 C 
ATOM      9  C   UNL d   1      -1.513   0.953   1.656  0.00  0.00     0.018 C 
ENDBRANCH   1   8
TORSDOF 1
ENDMDL
