MODEL 1
REMARK minimizedAffinity -3.57894421
REMARK minimizedRMSD -1
REMARK  1 active torsions:
REMARK  status: ('A' for Active; 'I' for Inactive)
REMARK    1  A    between atoms: C1_2  and  C2_3 
ROOT
ATOM      1  C2  UNL d   1       0.709  -0.266  -0.300  0.00  0.00    -0.073 A 
ATOM      2  C3  UNL d   1       1.747  -1.091  -0.747  0.00  0.00    -0.002 A 
ATOM      3  C4  UNL d   1       2.624  -0.646  -1.737  0.00  0.00     0.004 A 
ATOM      4  C5  UNL d   1       2.476   0.628  -2.285  0.00  0.00    -0.004 A 
ATOM      5  C6  UNL d   1       1.452   1.472  -1.843  0.00  0.00    -0.075 A 
ATOM      6  C7  UNL d   1       1.279   2.844  -2.424  0.00  0.00     0.076 C 
ATOM      7  C8  UNL d   1       0.574   1.017  -0.850  0.00  0.00     0.001 A 
ENDROOT
BRANCH   1   8
ATOM      8  C1  UNL d   1      -0.237  -0.739   0.774  0.00  0.00     0.053 C 
ATOM      9  C   UNL d   1      -1.258   0.325   1.143  0.00  0.00     0.018 C 
ENDBRANCH   1   8
TORSDOF 1
ENDMDL
