MODEL 1
REMARK minimizedAffinity -2.06348228
REMARK minimizedRMSD -1
REMARK  1 active torsions:
REMARK  status: ('A' for Active; 'I' for Inactive)
REMARK    1  A    between atoms: C1_2  and  C2_3 
ROOT
ATOM      1  C2  UNL d   1       0.370   0.352  -0.281  0.00  0.00    -0.073 A 
ATOM      2  C3  UNL d   1       0.142   1.574  -0.924  0.00  0.00    -0.002 A 
ATOM      3  C4  UNL d   1       0.863   1.914  -2.069  0.00  0.00     0.004 A 
ATOM      4  C5  UNL d   1       1.814   1.034  -2.586  0.00  0.00    -0.004 A 
ATOM      5  C6  UNL d   1       2.048  -0.197  -1.965  0.00  0.00    -0.075 A 
ATOM      6  C7  UNL d   1       3.069  -1.153  -2.507  0.00  0.00     0.076 C 
ATOM      7  C8  UNL d   1       1.321  -0.530  -0.814  0.00  0.00     0.001 A 
ENDROOT
BRANCH   1   8
ATOM      8  C1  UNL d   1      -0.412  -0.022   0.951  0.00  0.00     0.053 C 
ATOM      9  C   UNL d   1      -1.740   0.714   1.030  0.00  0.00     0.018 C 
ENDBRANCH   1   8
TORSDOF 1
ENDMDL
