MODEL 1
REMARK minimizedAffinity -4.11927605
REMARK minimizedRMSD -1
REMARK  1 active torsions:
REMARK  status: ('A' for Active; 'I' for Inactive)
REMARK    1  A    between atoms: C1_2  and  C2_3 
ROOT
ATOM      1  C2  UNL d   1      -0.077  -0.067   0.104  0.00  0.00    -0.073 A 
ATOM      2  C3  UNL d   1      -0.237  -1.445   0.292  0.00  0.00    -0.002 A 
ATOM      3  C4  UNL d   1       0.699  -2.340  -0.228  0.00  0.00     0.004 A 
ATOM      4  C5  UNL d   1       1.806  -1.867  -0.934  0.00  0.00    -0.004 A 
ATOM      5  C6  UNL d   1       1.989  -0.493  -1.121  0.00  0.00    -0.075 A 
ATOM      6  C7  UNL d   1       3.173   0.031  -1.879  0.00  0.00     0.076 C 
ATOM      7  C8  UNL d   1       1.043   0.399  -0.598  0.00  0.00     0.001 A 
ENDROOT
BRANCH   1   8
ATOM      8  C1  UNL d   1      -1.082   0.904   0.669  0.00  0.00     0.053 C 
ATOM      9  C   UNL d   1      -1.426   0.590   2.117  0.00  0.00     0.018 C 
ENDBRANCH   1   8
TORSDOF 1
ENDMDL
