MODEL 1
REMARK minimizedAffinity -5.77048874
REMARK minimizedRMSD -1
REMARK  1 active torsions:
REMARK  status: ('A' for Active; 'I' for Inactive)
REMARK    1  A    between atoms: C1_2  and  C2_3 
ROOT
ATOM      1  C2  UNL d   1      -0.229   0.133   1.084  0.00  0.00    -0.073 A 
ATOM      2  C3  UNL d   1       0.844   0.009   1.974  0.00  0.00    -0.002 A 
ATOM      3  C4  UNL d   1       0.715   0.431   3.298  0.00  0.00     0.004 A 
ATOM      4  C5  UNL d   1      -0.489   0.974   3.747  0.00  0.00    -0.004 A 
ATOM      5  C6  UNL d   1      -1.577   1.095   2.876  0.00  0.00    -0.075 A 
ATOM      6  C7  UNL d   1      -2.878   1.679   3.343  0.00  0.00     0.076 C 
ATOM      7  C8  UNL d   1      -1.438   0.671   1.548  0.00  0.00     0.001 A 
ENDROOT
BRANCH   1   8
ATOM      8  C1  UNL d   1      -0.096  -0.327  -0.344  0.00  0.00     0.053 C 
ATOM      9  C   UNL d   1       1.357  -0.404  -0.786  0.00  0.00     0.018 C 
ENDBRANCH   1   8
TORSDOF 1
ENDMDL
