MODEL 1
REMARK minimizedAffinity -3.92705727
REMARK minimizedRMSD -1
REMARK  1 active torsions:
REMARK  status: ('A' for Active; 'I' for Inactive)
REMARK    1  A    between atoms: C1_2  and  C2_3 
ROOT
ATOM      1  C2  UNL d   1       1.710  -1.106  -1.924  0.00  0.00    -0.073 A 
ATOM      2  C3  UNL d   1       2.558   0.007  -1.898  0.00  0.00    -0.002 A 
ATOM      3  C4  UNL d   1       2.375   1.010  -0.945  0.00  0.00     0.004 A 
ATOM      4  C5  UNL d   1       1.350   0.907  -0.005  0.00  0.00    -0.004 A 
ATOM      5  C6  UNL d   1       0.500  -0.204  -0.007  0.00  0.00    -0.075 A 
ATOM      6  C7  UNL d   1      -0.610  -0.328   0.995  0.00  0.00     0.076 C 
ATOM      7  C8  UNL d   1       0.687  -1.205  -0.969  0.00  0.00     0.001 A 
ENDROOT
BRANCH   1   8
ATOM      8  C1  UNL d   1       1.907  -2.195  -2.947  0.00  0.00     0.053 C 
ATOM      9  C   UNL d   1       1.328  -1.815  -4.301  0.00  0.00     0.018 C 
ENDBRANCH   1   8
TORSDOF 1
ENDMDL
