MODEL 1
REMARK minimizedAffinity -2.89183211
REMARK minimizedRMSD -1
REMARK  1 active torsions:
REMARK  status: ('A' for Active; 'I' for Inactive)
REMARK    1  A    between atoms: C1_2  and  C2_3 
ROOT
ATOM      1  C2  UNL d   1       0.298  -0.375   0.484  0.00  0.00    -0.073 A 
ATOM      2  C3  UNL d   1      -0.429   0.283  -0.515  0.00  0.00    -0.002 A 
ATOM      3  C4  UNL d   1      -1.660   0.870  -0.220  0.00  0.00     0.004 A 
ATOM      4  C5  UNL d   1      -2.173   0.813   1.076  0.00  0.00    -0.004 A 
ATOM      5  C6  UNL d   1      -1.456   0.171   2.091  0.00  0.00    -0.075 A 
ATOM      6  C7  UNL d   1      -1.994   0.098   3.489  0.00  0.00     0.076 C 
ATOM      7  C8  UNL d   1      -0.222  -0.419   1.786  0.00  0.00     0.001 A 
ENDROOT
BRANCH   1   8
ATOM      8  C1  UNL d   1       1.630  -1.006   0.172  0.00  0.00     0.053 C 
ATOM      9  C   UNL d   1       1.557  -1.923  -1.038  0.00  0.00     0.018 C 
ENDBRANCH   1   8
TORSDOF 1
ENDMDL
