MODEL 1
REMARK minimizedAffinity -4.00042105
REMARK minimizedRMSD -1
REMARK  1 active torsions:
REMARK  status: ('A' for Active; 'I' for Inactive)
REMARK    1  A    between atoms: C1_2  and  C2_3 
ROOT
ATOM      1  C2  UNL d   1       0.407  -0.150   0.620  0.00  0.00    -0.073 A 
ATOM      2  C3  UNL d   1      -0.546   0.026  -0.389  0.00  0.00    -0.002 A 
ATOM      3  C4  UNL d   1      -1.776   0.620  -0.101  0.00  0.00     0.004 A 
ATOM      4  C5  UNL d   1      -2.061   1.051   1.194  0.00  0.00    -0.004 A 
ATOM      5  C6  UNL d   1      -1.116   0.895   2.214  0.00  0.00    -0.075 A 
ATOM      6  C7  UNL d   1      -1.408   1.351   3.613  0.00  0.00     0.076 C 
ATOM      7  C8  UNL d   1       0.115   0.294   1.917  0.00  0.00     0.001 A 
ENDROOT
BRANCH   1   8
ATOM      8  C1  UNL d   1       1.739  -0.786   0.313  0.00  0.00     0.053 C 
ATOM      9  C   UNL d   1       1.735  -1.495  -1.032  0.00  0.00     0.018 C 
ENDBRANCH   1   8
TORSDOF 1
ENDMDL
