MODEL 1
REMARK minimizedAffinity 0.150991738
REMARK minimizedRMSD -1
REMARK  1 active torsions:
REMARK  status: ('A' for Active; 'I' for Inactive)
REMARK    1  A    between atoms: C1_2  and  C2_3 
ROOT
ATOM      1  C2  UNL d   1      -0.575   0.693   2.117  0.00  0.00    -0.073 A 
ATOM      2  C3  UNL d   1      -1.029  -0.556   1.677  0.00  0.00    -0.002 A 
ATOM      3  C4  UNL d   1      -0.797  -0.968   0.364  0.00  0.00     0.004 A 
ATOM      4  C5  UNL d   1      -0.104  -0.140  -0.519  0.00  0.00    -0.004 A 
ATOM      5  C6  UNL d   1       0.367   1.107  -0.095  0.00  0.00    -0.075 A 
ATOM      6  C7  UNL d   1       1.112   2.011  -1.033  0.00  0.00     0.076 C 
ATOM      7  C8  UNL d   1       0.128   1.514   1.224  0.00  0.00     0.001 A 
ENDROOT
BRANCH   1   8
ATOM      8  C1  UNL d   1      -0.818   1.138   3.536  0.00  0.00     0.053 C 
ATOM      9  C   UNL d   1      -2.040   0.468   4.143  0.00  0.00     0.018 C 
ENDBRANCH   1   8
TORSDOF 1
ENDMDL
