MODEL 1
REMARK minimizedAffinity -4.70732927
REMARK minimizedRMSD -1
REMARK  1 active torsions:
REMARK  status: ('A' for Active; 'I' for Inactive)
REMARK    1  A    between atoms: C1_2  and  C2_3 
ROOT
ATOM      1  C2  UNL d   1      -0.447  -0.071   0.250  0.00  0.00    -0.073 A 
ATOM      2  C3  UNL d   1      -0.798  -1.425   0.276  0.00  0.00    -0.002 A 
ATOM      3  C4  UNL d   1       0.130  -2.402  -0.088  0.00  0.00     0.004 A 
ATOM      4  C5  UNL d   1       1.420  -2.035  -0.473  0.00  0.00    -0.004 A 
ATOM      5  C6  UNL d   1       1.793  -0.688  -0.494  0.00  0.00    -0.075 A 
ATOM      6  C7  UNL d   1       3.176  -0.277  -0.908  0.00  0.00     0.076 C 
ATOM      7  C8  UNL d   1       0.855   0.287  -0.131  0.00  0.00     0.001 A 
ENDROOT
BRANCH   1   8
ATOM      8  C1  UNL d   1      -1.444   0.987   0.647  0.00  0.00     0.053 C 
ATOM      9  C   UNL d   1      -1.964   0.777   2.060  0.00  0.00     0.018 C 
ENDBRANCH   1   8
TORSDOF 1
ENDMDL
