MODEL 1
REMARK minimizedAffinity -3.45331335
REMARK minimizedRMSD -1
REMARK  2 active torsions:
REMARK  status: ('A' for Active; 'I' for Inactive)
REMARK    1  A    between atoms: C2'_3  and  C1'_4 
REMARK    2  A    between atoms: C1'_4  and  C1_5 
ROOT
ATOM      1  C1  I4B d   1       0.297  -0.469   0.227  0.00  0.00    -0.075 A 
ATOM      2  C2  I4B d   1      -0.733  -1.279   0.635  0.00  0.00     0.003 A 
ATOM      3  C3  I4B d   1      -1.755  -0.766   1.471  0.00  0.00     0.002 A 
ATOM      4  C4  I4B d   1      -1.681   0.539   1.912  0.00  0.00    -0.004 A 
ATOM      5  C5  I4B d   1      -0.649   1.366   1.478  0.00  0.00     0.002 A 
ATOM      6  C6  I4B d   1       0.340   0.863   0.620  0.00  0.00     0.003 A 
ENDROOT
BRANCH   1   7
ATOM      7  C1' I4B d   1       1.377  -1.052  -0.628  0.00  0.00     0.060 C 
BRANCH   7   8
ATOM      8  C2' I4B d   1       0.890  -2.389  -1.148  0.00  0.00    -0.013 C 
ATOM      9  C4' I4B d   1       0.550  -2.314  -2.613  0.00  0.00     0.013 C 
ATOM     10  C3' I4B d   1       1.965  -3.404  -0.893  0.00  0.00     0.013 C 
ENDBRANCH   7   8
ENDBRANCH   1   7
TORSDOF 2
ENDMDL
