MODEL 1
REMARK minimizedAffinity -5.39304876
REMARK minimizedRMSD -1
REMARK  2 active torsions:
REMARK  status: ('A' for Active; 'I' for Inactive)
REMARK    1  A    between atoms: C2'_3  and  C1'_4 
REMARK    2  A    between atoms: C1'_4  and  C1_5 
ROOT
ATOM      1  C1  I4B d   1      -0.731  -1.789  -0.524  0.00  0.00    -0.075 A 
ATOM      2  C2  I4B d   1      -0.015  -1.043  -1.427  0.00  0.00     0.003 A 
ATOM      3  C3  I4B d   1       0.744  -1.683  -2.437  0.00  0.00     0.002 A 
ATOM      4  C4  I4B d   1       0.799  -3.062  -2.475  0.00  0.00    -0.004 A 
ATOM      5  C5  I4B d   1       0.054  -3.816  -1.573  0.00  0.00     0.002 A 
ATOM      6  C6  I4B d   1      -0.726  -3.175  -0.599  0.00  0.00     0.003 A 
ENDROOT
BRANCH   1   7
ATOM      7  C1' I4B d   1      -1.495  -1.081   0.549  0.00  0.00     0.060 C 
BRANCH   7   8
ATOM      8  C2' I4B d   1      -0.650   0.079   1.037  0.00  0.00    -0.013 C 
ATOM      9  C4' I4B d   1      -1.433   0.972   1.963  0.00  0.00     0.013 C 
ATOM     10  C3' I4B d   1       0.559  -0.486   1.722  0.00  0.00     0.013 C 
ENDBRANCH   7   8
ENDBRANCH   1   7
TORSDOF 2
ENDMDL
