MODEL 1
REMARK minimizedAffinity -3.24569225
REMARK minimizedRMSD -1
REMARK  2 active torsions:
REMARK  status: ('A' for Active; 'I' for Inactive)
REMARK    1  A    between atoms: C2'_3  and  C1'_4 
REMARK    2  A    between atoms: C1'_4  and  C1_5 
ROOT
ATOM      1  C1  I4B d   1       0.152  -0.829   0.248  0.00  0.00    -0.075 A 
ATOM      2  C2  I4B d   1       0.557   0.224   1.030  0.00  0.00     0.003 A 
ATOM      3  C3  I4B d   1      -0.273   0.695   2.076  0.00  0.00     0.002 A 
ATOM      4  C4  I4B d   1      -1.512   0.121   2.272  0.00  0.00    -0.004 A 
ATOM      5  C5  I4B d   1      -1.911  -0.962   1.494  0.00  0.00     0.002 A 
ATOM      6  C6  I4B d   1      -1.069  -1.448   0.483  0.00  0.00     0.003 A 
ENDROOT
BRANCH   1   7
ATOM      7  C1' I4B d   1       1.038  -1.280  -0.869  0.00  0.00     0.060 C 
BRANCH   7   8
ATOM      8  C2' I4B d   1       0.601  -2.671  -1.280  0.00  0.00    -0.013 C 
ATOM      9  C4' I4B d   1       0.532  -2.801  -2.778  0.00  0.00     0.013 C 
ATOM     10  C3' I4B d   1       1.574  -3.653  -0.696  0.00  0.00     0.013 C 
ENDBRANCH   7   8
ENDBRANCH   1   7
TORSDOF 2
ENDMDL
