MODEL 1
REMARK minimizedAffinity -3.93639064
REMARK minimizedRMSD -1
REMARK  2 active torsions:
REMARK  status: ('A' for Active; 'I' for Inactive)
REMARK    1  A    between atoms: C2'_3  and  C1'_4 
REMARK    2  A    between atoms: C1'_4  and  C1_5 
ROOT
ATOM      1  C1  I4B d   1       0.000  -0.191   0.260  0.00  0.00    -0.075 A 
ATOM      2  C2  I4B d   1      -0.799  -1.133   0.859  0.00  0.00     0.003 A 
ATOM      3  C3  I4B d   1      -1.784  -0.740   1.797  0.00  0.00     0.002 A 
ATOM      4  C4  I4B d   1      -1.901   0.591   2.142  0.00  0.00    -0.004 A 
ATOM      5  C5  I4B d   1      -1.105   1.547   1.517  0.00  0.00     0.002 A 
ATOM      6  C6  I4B d   1      -0.157   1.155   0.561  0.00  0.00     0.003 A 
ENDROOT
BRANCH   1   7
ATOM      7  C1' I4B d   1       1.052  -0.645  -0.701  0.00  0.00     0.060 C 
BRANCH   7   8
ATOM      8  C2' I4B d   1       0.604  -1.964  -1.296  0.00  0.00    -0.013 C 
ATOM      9  C4' I4B d   1       0.246  -1.813  -2.751  0.00  0.00     0.013 C 
ATOM     10  C3' I4B d   1       1.714  -2.956  -1.112  0.00  0.00     0.013 C 
ENDBRANCH   7   8
ENDBRANCH   1   7
TORSDOF 2
ENDMDL
