MODEL 1
REMARK minimizedAffinity -4.41233349
REMARK minimizedRMSD -1
REMARK  2 active torsions:
REMARK  status: ('A' for Active; 'I' for Inactive)
REMARK    1  A    between atoms: C2'_3  and  C1'_4 
REMARK    2  A    between atoms: C1'_4  and  C1_5 
ROOT
ATOM      1  C1  I4B d   1       0.874  -1.466  -0.981  0.00  0.00    -0.075 A 
ATOM      2  C2  I4B d   1       1.114  -2.802  -0.781  0.00  0.00     0.003 A 
ATOM      3  C3  I4B d   1       1.130  -3.695  -1.880  0.00  0.00     0.002 A 
ATOM      4  C4  I4B d   1       0.854  -3.221  -3.146  0.00  0.00    -0.004 A 
ATOM      5  C5  I4B d   1       0.634  -1.862  -3.350  0.00  0.00     0.002 A 
ATOM      6  C6  I4B d   1       0.656  -0.976  -2.262  0.00  0.00     0.003 A 
ENDROOT
BRANCH   1   7
ATOM      7  C1' I4B d   1       0.831  -0.556   0.206  0.00  0.00     0.060 C 
BRANCH   7   8
ATOM      8  C2' I4B d   1      -0.621  -0.357   0.589  0.00  0.00    -0.013 C 
ATOM      9  C4' I4B d   1      -1.276  -1.667   0.941  0.00  0.00     0.013 C 
ATOM     10  C3' I4B d   1      -0.668   0.598   1.744  0.00  0.00     0.013 C 
ENDBRANCH   7   8
ENDBRANCH   1   7
TORSDOF 2
ENDMDL
