MODEL 1
REMARK minimizedAffinity -3.9705503
REMARK minimizedRMSD -1
REMARK  2 active torsions:
REMARK  status: ('A' for Active; 'I' for Inactive)
REMARK    1  A    between atoms: C2'_3  and  C1'_4 
REMARK    2  A    between atoms: C1'_4  and  C1_5 
ROOT
ATOM      1  C1  I4B d   1       0.379  -0.636  -0.099  0.00  0.00    -0.075 A 
ATOM      2  C2  I4B d   1      -0.977  -0.741  -0.286  0.00  0.00     0.003 A 
ATOM      3  C3  I4B d   1      -1.866  -0.493   0.789  0.00  0.00     0.002 A 
ATOM      4  C4  I4B d   1      -1.357  -0.195   2.036  0.00  0.00    -0.004 A 
ATOM      5  C5  I4B d   1       0.017  -0.066   2.218  0.00  0.00     0.002 A 
ATOM      6  C6  I4B d   1       0.890  -0.276   1.141  0.00  0.00     0.003 A 
ENDROOT
BRANCH   1   7
ATOM      7  C1' I4B d   1       1.290  -0.937  -1.247  0.00  0.00     0.060 C 
BRANCH   7   8
ATOM      8  C2' I4B d   1       0.909  -2.295  -1.802  0.00  0.00    -0.013 C 
ATOM      9  C4' I4B d   1       0.779  -2.254  -3.301  0.00  0.00     0.013 C 
ATOM     10  C3' I4B d   1       1.957  -3.280  -1.375  0.00  0.00     0.013 C 
ENDBRANCH   7   8
ENDBRANCH   1   7
TORSDOF 2
ENDMDL
