MODEL 1
REMARK minimizedAffinity -2.02723408
REMARK minimizedRMSD -1
REMARK  2 active torsions:
REMARK  status: ('A' for Active; 'I' for Inactive)
REMARK    1  A    between atoms: C2'_3  and  C1'_4 
REMARK    2  A    between atoms: C1'_4  and  C1_5 
ROOT
ATOM      1  C1  I4B d   1       0.308  -0.116  -0.165  0.00  0.00    -0.075 A 
ATOM      2  C2  I4B d   1      -0.778  -0.913   0.096  0.00  0.00     0.003 A 
ATOM      3  C3  I4B d   1      -1.864  -0.413   0.855  0.00  0.00     0.002 A 
ATOM      4  C4  I4B d   1      -1.800   0.865   1.372  0.00  0.00    -0.004 A 
ATOM      5  C5  I4B d   1      -0.708   1.680   1.087  0.00  0.00     0.002 A 
ATOM      6  C6  I4B d   1       0.347   1.191   0.303  0.00  0.00     0.003 A 
ENDROOT
BRANCH   1   7
ATOM      7  C1' I4B d   1       1.451  -0.687  -0.942  0.00  0.00     0.060 C 
BRANCH   7   8
ATOM      8  C2' I4B d   1       0.978  -1.971  -1.593  0.00  0.00    -0.013 C 
ATOM      9  C4' I4B d   1       0.874  -1.818  -3.088  0.00  0.00     0.013 C 
ATOM     10  C3' I4B d   1       1.943  -3.059  -1.226  0.00  0.00     0.013 C 
ENDBRANCH   7   8
ENDBRANCH   1   7
TORSDOF 2
ENDMDL
