MODEL 1
REMARK minimizedAffinity -3.99120641
REMARK minimizedRMSD -1
REMARK  2 active torsions:
REMARK  status: ('A' for Active; 'I' for Inactive)
REMARK    1  A    between atoms: C2'_3  and  C1'_4 
REMARK    2  A    between atoms: C1'_4  and  C1_5 
ROOT
ATOM      1  C1  I4B d   1       0.218   0.573   0.269  0.00  0.00    -0.075 A 
ATOM      2  C2  I4B d   1       0.428   1.669  -0.529  0.00  0.00     0.003 A 
ATOM      3  C3  I4B d   1      -0.050   2.942  -0.133  0.00  0.00     0.002 A 
ATOM      4  C4  I4B d   1      -0.773   3.062   1.037  0.00  0.00    -0.004 A 
ATOM      5  C5  I4B d   1      -0.965   1.953   1.856  0.00  0.00     0.002 A 
ATOM      6  C6  I4B d   1      -0.456   0.703   1.476  0.00  0.00     0.003 A 
ENDROOT
BRANCH   1   7
ATOM      7  C1' I4B d   1       0.708  -0.762  -0.196  0.00  0.00     0.060 C 
BRANCH   7   8
ATOM      8  C2' I4B d   1      -0.249  -1.267  -1.257  0.00  0.00    -0.013 C 
ATOM      9  C4' I4B d   1       0.267  -2.527  -1.901  0.00  0.00     0.013 C 
ATOM     10  C3' I4B d   1      -1.581  -1.496  -0.607  0.00  0.00     0.013 C 
ENDBRANCH   7   8
ENDBRANCH   1   7
TORSDOF 2
ENDMDL
