MODEL 1
REMARK minimizedAffinity -5.18326616
REMARK minimizedRMSD -1
REMARK  2 active torsions:
REMARK  status: ('A' for Active; 'I' for Inactive)
REMARK    1  A    between atoms: C2'_3  and  C1'_4 
REMARK    2  A    between atoms: C1'_4  and  C1_5 
ROOT
ATOM      1  C1  I4B d   1       0.151   0.786   0.134  0.00  0.00    -0.075 A 
ATOM      2  C2  I4B d   1       0.240   1.897  -0.667  0.00  0.00     0.003 A 
ATOM      3  C3  I4B d   1      -0.451   3.083  -0.320  0.00  0.00     0.002 A 
ATOM      4  C4  I4B d   1      -1.254   3.099   0.802  0.00  0.00    -0.004 A 
ATOM      5  C5  I4B d   1      -1.325   1.979   1.625  0.00  0.00     0.002 A 
ATOM      6  C6  I4B d   1      -0.609   0.819   1.297  0.00  0.00     0.003 A 
ENDROOT
BRANCH   1   7
ATOM      7  C1' I4B d   1       0.867  -0.460  -0.279  0.00  0.00     0.060 C 
BRANCH   7   8
ATOM      8  C2' I4B d   1      -0.079  -1.281  -1.131  0.00  0.00    -0.013 C 
ATOM      9  C4' I4B d   1       0.638  -2.432  -1.788  0.00  0.00     0.013 C 
ATOM     10  C3' I4B d   1      -1.191  -1.768  -0.251  0.00  0.00     0.013 C 
ENDBRANCH   7   8
ENDBRANCH   1   7
TORSDOF 2
ENDMDL
