MODEL 1
REMARK minimizedAffinity 10.781641
REMARK minimizedRMSD -1
REMARK  3 active torsions:
REMARK  status: ('A' for Active; 'I' for Inactive)
REMARK    1  A    between atoms: C3'_2  and  C2'_3 
REMARK    2  A    between atoms: C2'_3  and  C1'_4 
REMARK    3  A    between atoms: C1'_4  and  C1_5 
ROOT
ATOM      1  C1  N4B d   1       1.257  -1.685   1.725  0.00  0.00    -0.075 A 
ATOM      2  C2  N4B d   1       1.203  -0.408   2.325  0.00  0.00     0.002 A 
ATOM      3  C3  N4B d   1       0.014   0.069   2.820  0.00  0.00     0.002 A 
ATOM      4  C4  N4B d   1      -1.133  -0.702   2.710  0.00  0.00    -0.004 A 
ATOM      5  C5  N4B d   1      -1.068  -1.946   2.152  0.00  0.00     0.002 A 
ATOM      6  C6  N4B d   1       0.121  -2.439   1.654  0.00  0.00     0.002 A 
ENDROOT
BRANCH   1   7
ATOM      7  C1' N4B d   1       2.515  -2.213   1.092  0.00  0.00     0.057 C 
BRANCH   7   8
ATOM      8  C2' N4B d   1       2.230  -3.579   0.475  0.00  0.00     0.009 C 
BRANCH   8   9
ATOM      9  C3' N4B d   1       3.311  -4.592   0.813  0.00  0.00     0.004 C 
ATOM     10  C4' N4B d   1       2.795  -6.000   0.856  0.00  0.00     0.003 C 
ENDBRANCH   8   9
ENDBRANCH   7   8
ENDBRANCH   1   7
TORSDOF 3
ENDMDL
