MODEL 1
REMARK minimizedAffinity 8.92833996
REMARK minimizedRMSD -1
REMARK  3 active torsions:
REMARK  status: ('A' for Active; 'I' for Inactive)
REMARK    1  A    between atoms: C3'_2  and  C2'_3 
REMARK    2  A    between atoms: C2'_3  and  C1'_4 
REMARK    3  A    between atoms: C1'_4  and  C1_5 
ROOT
ATOM      1  C1  N4B d   1       4.198  -2.971   4.557  0.00  0.00    -0.075 A 
ATOM      2  C2  N4B d   1       5.301  -2.663   5.384  0.00  0.00     0.002 A 
ATOM      3  C3  N4B d   1       6.000  -3.672   6.000  0.00  0.00     0.002 A 
ATOM      4  C4  N4B d   1       5.605  -4.990   5.820  0.00  0.00    -0.004 A 
ATOM      5  C5  N4B d   1       4.554  -5.280   5.000  0.00  0.00     0.002 A 
ATOM      6  C6  N4B d   1       3.845  -4.276   4.371  0.00  0.00     0.002 A 
ENDROOT
BRANCH   1   7
ATOM      7  C1' N4B d   1       3.351  -1.897   3.931  0.00  0.00     0.057 C 
BRANCH   7   8
ATOM      8  C2' N4B d   1       2.959  -2.327   2.521  0.00  0.00     0.009 C 
BRANCH   8   9
ATOM      9  C3' N4B d   1       1.778  -1.532   1.991  0.00  0.00     0.004 C 
ATOM     10  C4' N4B d   1       1.300  -0.489   2.958  0.00  0.00     0.003 C 
ENDBRANCH   8   9
ENDBRANCH   7   8
ENDBRANCH   1   7
TORSDOF 3
ENDMDL
