MODEL 1
REMARK minimizedAffinity 10.5665989
REMARK minimizedRMSD -1
REMARK  3 active torsions:
REMARK  status: ('A' for Active; 'I' for Inactive)
REMARK    1  A    between atoms: C3'_2  and  C2'_3 
REMARK    2  A    between atoms: C2'_3  and  C1'_4 
REMARK    3  A    between atoms: C1'_4  and  C1_5 
ROOT
ATOM      1  C1  N4B d   1       0.586  -1.800  -1.014  0.00  0.00    -0.075 A 
ATOM      2  C2  N4B d   1       1.034  -3.088  -1.379  0.00  0.00     0.002 A 
ATOM      3  C3  N4B d   1       2.093  -3.660  -0.717  0.00  0.00     0.002 A 
ATOM      4  C4  N4B d   1       2.728  -2.958   0.296  0.00  0.00    -0.004 A 
ATOM      5  C5  N4B d   1       2.274  -1.725   0.660  0.00  0.00     0.002 A 
ATOM      6  C6  N4B d   1       1.208  -1.139   0.006  0.00  0.00     0.002 A 
ENDROOT
BRANCH   1   7
ATOM      7  C1' N4B d   1      -0.512  -1.098  -1.765  0.00  0.00     0.057 C 
BRANCH   7   8
ATOM      8  C2' N4B d   1       0.106  -0.112  -2.751  0.00  0.00     0.009 C 
BRANCH   8   9
ATOM      9  C3' N4B d   1      -0.801   1.079  -3.009  0.00  0.00     0.004 C 
ATOM     10  C4' N4B d   1      -0.050   2.294  -3.465  0.00  0.00     0.003 C 
ENDBRANCH   8   9
ENDBRANCH   7   8
ENDBRANCH   1   7
TORSDOF 3
ENDMDL
