MODEL 1
REMARK minimizedAffinity 11.1817961
REMARK minimizedRMSD -1
REMARK  3 active torsions:
REMARK  status: ('A' for Active; 'I' for Inactive)
REMARK    1  A    between atoms: C3'_2  and  C2'_3 
REMARK    2  A    between atoms: C2'_3  and  C1'_4 
REMARK    3  A    between atoms: C1'_4  and  C1_5 
ROOT
ATOM      1  C1  N4B d   1       1.932  -2.005   1.089  0.00  0.00    -0.075 A 
ATOM      2  C2  N4B d   1       0.575  -2.215   0.759  0.00  0.00     0.002 A 
ATOM      3  C3  N4B d   1      -0.413  -1.624   1.508  0.00  0.00     0.002 A 
ATOM      4  C4  N4B d   1      -0.071  -0.838   2.598  0.00  0.00    -0.004 A 
ATOM      5  C5  N4B d   1       1.243  -0.619   2.894  0.00  0.00     0.002 A 
ATOM      6  C6  N4B d   1       2.246  -1.203   2.148  0.00  0.00     0.002 A 
ENDROOT
BRANCH   1   7
ATOM      7  C1' N4B d   1       3.045  -2.698   0.352  0.00  0.00     0.057 C 
BRANCH   7   8
ATOM      8  C2' N4B d   1       2.448  -3.582  -0.739  0.00  0.00     0.009 C 
BRANCH   8   9
ATOM      9  C3' N4B d   1       2.451  -5.050  -0.346  0.00  0.00     0.004 C 
ATOM     10  C4' N4B d   1       3.412  -5.867  -1.158  0.00  0.00     0.003 C 
ENDBRANCH   8   9
ENDBRANCH   7   8
ENDBRANCH   1   7
TORSDOF 3
ENDMDL
