MODEL 1
REMARK minimizedAffinity -0.840127826
REMARK minimizedRMSD -1
REMARK  1 active torsions:
REMARK  status: ('A' for Active; 'I' for Inactive)
REMARK    1  A    between atoms: C1_2  and  C2_3 
ROOT
ATOM      1  C2  UNL d   1      -5.533  -3.947  -2.522  0.00  0.00    -0.081 A 
ATOM      2  C3  UNL d   1      -4.936  -5.207  -2.393  0.00  0.00     0.006 A 
ATOM      3  C4  UNL d   1      -4.451  -5.880  -3.516  0.00  0.00     0.002 A 
ATOM      4  C5  UNL d   1      -4.547  -5.301  -4.787  0.00  0.00    -0.080 A 
ATOM      5  C6  UNL d   1      -4.002  -5.999  -5.997  0.00  0.00     0.076 C 
ATOM      6  C7  UNL d   1      -5.159  -4.050  -4.919  0.00  0.00     0.002 A 
ATOM      7  C8  UNL d   1      -5.645  -3.377  -3.795  0.00  0.00     0.006 A 
ENDROOT
BRANCH   1   8
ATOM      8  C1  UNL d   1      -6.000  -3.191  -1.305  0.00  0.00     0.054 C 
ATOM      9  C   UNL d   1      -5.980  -1.688  -1.545  0.00  0.00     0.018 C 
ENDBRANCH   1   8
TORSDOF 1
ENDMDL
