MODEL 1
REMARK minimizedAffinity 13.5146093
REMARK minimizedRMSD -1
REMARK  1 active torsions:
REMARK  status: ('A' for Active; 'I' for Inactive)
REMARK    1  A    between atoms: C1_2  and  C2_3 
ROOT
ATOM      1  C2  UNL d   1       2.221  -4.623   3.417  0.00  0.00    -0.081 A 
ATOM      2  C3  UNL d   1       2.442  -5.698   2.547  0.00  0.00     0.006 A 
ATOM      3  C4  UNL d   1       1.929  -5.675   1.248  0.00  0.00     0.002 A 
ATOM      4  C5  UNL d   1       1.195  -4.574   0.794  0.00  0.00    -0.080 A 
ATOM      5  C6  UNL d   1       0.665  -4.524  -0.608  0.00  0.00     0.076 C 
ATOM      6  C7  UNL d   1       0.959  -3.508   1.668  0.00  0.00     0.002 A 
ATOM      7  C8  UNL d   1       1.471  -3.530   2.968  0.00  0.00     0.006 A 
ENDROOT
BRANCH   1   8
ATOM      8  C1  UNL d   1       2.828  -4.616   4.797  0.00  0.00     0.054 C 
ATOM      9  C   UNL d   1       4.171  -3.901   4.807  0.00  0.00     0.018 C 
ENDBRANCH   1   8
TORSDOF 1
ENDMDL
