MODEL 1
REMARK minimizedAffinity 4.15276814
REMARK minimizedRMSD -1
REMARK  1 active torsions:
REMARK  status: ('A' for Active; 'I' for Inactive)
REMARK    1  A    between atoms: C1_2  and  C2_3 
ROOT
ATOM      1  C2  UNL d   1       3.801  -1.123  -3.006  0.00  0.00    -0.081 A 
ATOM      2  C3  UNL d   1       3.253   0.031  -3.580  0.00  0.00     0.006 A 
ATOM      3  C4  UNL d   1       3.967   0.752  -4.540  0.00  0.00     0.002 A 
ATOM      4  C5  UNL d   1       5.236   0.327  -4.948  0.00  0.00    -0.080 A 
ATOM      5  C6  UNL d   1       6.000   1.075  -6.000  0.00  0.00     0.076 C 
ATOM      6  C7  UNL d   1       5.790  -0.815  -4.362  0.00  0.00     0.002 A 
ATOM      7  C8  UNL d   1       5.078  -1.536  -3.401  0.00  0.00     0.006 A 
ENDROOT
BRANCH   1   8
ATOM      8  C1  UNL d   1       3.007  -1.938  -2.018  0.00  0.00     0.054 C 
ATOM      9  C   UNL d   1       2.470  -3.212  -2.656  0.00  0.00     0.018 C 
ENDBRANCH   1   8
TORSDOF 1
ENDMDL
