MODEL 1
REMARK minimizedAffinity 1.81703269
REMARK minimizedRMSD -1
REMARK  1 active torsions:
REMARK  status: ('A' for Active; 'I' for Inactive)
REMARK    1  A    between atoms: C1_2  and  C2_3 
ROOT
ATOM      1  C2  UNL d   1      -0.474   3.010  -0.591  0.00  0.00    -0.081 A 
ATOM      2  C3  UNL d   1       0.593   3.065   0.314  0.00  0.00     0.006 A 
ATOM      3  C4  UNL d   1       1.599   4.023   0.164  0.00  0.00     0.002 A 
ATOM      4  C5  UNL d   1       1.551   4.945  -0.887  0.00  0.00    -0.080 A 
ATOM      5  C6  UNL d   1       2.608   5.998  -1.041  0.00  0.00     0.076 C 
ATOM      6  C7  UNL d   1       0.494   4.879  -1.801  0.00  0.00     0.002 A 
ATOM      7  C8  UNL d   1      -0.512   3.921  -1.652  0.00  0.00     0.006 A 
ENDROOT
BRANCH   1   8
ATOM      8  C1  UNL d   1      -1.594   2.020  -0.395  0.00  0.00     0.054 C 
ATOM      9  C   UNL d   1      -2.756   2.643   0.364  0.00  0.00     0.018 C 
ENDBRANCH   1   8
TORSDOF 1
ENDMDL
