MODEL 1
REMARK minimizedAffinity 5.21337843
REMARK minimizedRMSD -1
REMARK  1 active torsions:
REMARK  status: ('A' for Active; 'I' for Inactive)
REMARK    1  A    between atoms: C1_2  and  C2_3 
ROOT
ATOM      1  C2  UNL d   1       3.729  -1.585  -3.875  0.00  0.00    -0.081 A 
ATOM      2  C3  UNL d   1       3.005  -2.695  -4.328  0.00  0.00     0.006 A 
ATOM      3  C4  UNL d   1       2.391  -3.560  -3.419  0.00  0.00     0.002 A 
ATOM      4  C5  UNL d   1       2.485  -3.326  -2.043  0.00  0.00    -0.080 A 
ATOM      5  C6  UNL d   1       1.805  -4.229  -1.057  0.00  0.00     0.076 C 
ATOM      6  C7  UNL d   1       3.223  -2.227  -1.589  0.00  0.00     0.002 A 
ATOM      7  C8  UNL d   1       3.837  -1.363  -2.497  0.00  0.00     0.006 A 
ENDROOT
BRANCH   1   8
ATOM      8  C1  UNL d   1       4.338  -0.615  -4.854  0.00  0.00     0.054 C 
ATOM      9  C   UNL d   1       5.034  -1.343  -5.995  0.00  0.00     0.018 C 
ENDBRANCH   1   8
TORSDOF 1
ENDMDL
