MODEL 1
REMARK minimizedAffinity 4.70422983
REMARK minimizedRMSD -1
REMARK  1 active torsions:
REMARK  status: ('A' for Active; 'I' for Inactive)
REMARK    1  A    between atoms: C1_2  and  C2_3 
ROOT
ATOM      1  C2  UNL d   1       3.664  -1.533  -3.256  0.00  0.00    -0.081 A 
ATOM      2  C3  UNL d   1       4.992  -1.879  -3.537  0.00  0.00     0.006 A 
ATOM      3  C4  UNL d   1       5.747  -1.119  -4.434  0.00  0.00     0.002 A 
ATOM      4  C5  UNL d   1       5.191   0.003  -5.058  0.00  0.00    -0.080 A 
ATOM      5  C6  UNL d   1       6.000   0.844  -5.999  0.00  0.00     0.076 C 
ATOM      6  C7  UNL d   1       3.859   0.338  -4.791  0.00  0.00     0.002 A 
ATOM      7  C8  UNL d   1       3.103  -0.421  -3.895  0.00  0.00     0.006 A 
ENDROOT
BRANCH   1   8
ATOM      8  C1  UNL d   1       2.868  -2.312  -2.241  0.00  0.00     0.054 C 
ATOM      9  C   UNL d   1       2.623  -3.740  -2.707  0.00  0.00     0.018 C 
ENDBRANCH   1   8
TORSDOF 1
ENDMDL
