MODEL 1
REMARK minimizedAffinity 6.93198109
REMARK minimizedRMSD -1
REMARK  1 active torsions:
REMARK  status: ('A' for Active; 'I' for Inactive)
REMARK    1  A    between atoms: C1_2  and  C2_3 
ROOT
ATOM      1  C2  UNL d   1      -5.282  -4.020  -4.647  0.00  0.00    -0.081 A 
ATOM      2  C3  UNL d   1      -4.954  -5.372  -4.481  0.00  0.00     0.006 A 
ATOM      3  C4  UNL d   1      -5.141  -5.999  -3.247  0.00  0.00     0.002 A 
ATOM      4  C5  UNL d   1      -5.667  -5.289  -2.162  0.00  0.00    -0.080 A 
ATOM      5  C6  UNL d   1      -5.901  -5.959  -0.841  0.00  0.00     0.076 C 
ATOM      6  C7  UNL d   1      -5.978  -3.935  -2.323  0.00  0.00     0.002 A 
ATOM      7  C8  UNL d   1      -5.790  -3.307  -3.556  0.00  0.00     0.006 A 
ENDROOT
BRANCH   1   8
ATOM      8  C1  UNL d   1      -5.142  -3.358  -5.994  0.00  0.00     0.054 C 
ATOM      9  C   UNL d   1      -5.750  -1.963  -5.990  0.00  0.00     0.018 C 
ENDBRANCH   1   8
TORSDOF 1
ENDMDL
