MODEL 1
REMARK minimizedAffinity 5.62297106
REMARK minimizedRMSD -1
REMARK  1 active torsions:
REMARK  status: ('A' for Active; 'I' for Inactive)
REMARK    1  A    between atoms: C1_2  and  C2_3 
ROOT
ATOM      1  C2  UNL d   1      -5.450  -5.219  -4.170  0.00  0.00    -0.081 A 
ATOM      2  C3  UNL d   1      -5.298  -3.828  -4.107  0.00  0.00     0.006 A 
ATOM      3  C4  UNL d   1      -5.480  -3.150  -2.900  0.00  0.00     0.002 A 
ATOM      4  C5  UNL d   1      -5.810  -3.851  -1.735  0.00  0.00    -0.080 A 
ATOM      5  C6  UNL d   1      -5.979  -3.138  -0.426  0.00  0.00     0.076 C 
ATOM      6  C7  UNL d   1      -5.979  -5.238  -1.801  0.00  0.00     0.002 A 
ATOM      7  C8  UNL d   1      -5.798  -5.917  -3.008  0.00  0.00     0.006 A 
ENDROOT
BRANCH   1   8
ATOM      8  C1  UNL d   1      -5.191  -5.961  -5.457  0.00  0.00     0.054 C 
ATOM      9  C   UNL d   1      -3.737  -5.831  -5.887  0.00  0.00     0.018 C 
ENDBRANCH   1   8
TORSDOF 1
ENDMDL
