MODEL 1
REMARK minimizedAffinity 12.0772676
REMARK minimizedRMSD -1
REMARK  1 active torsions:
REMARK  status: ('A' for Active; 'I' for Inactive)
REMARK    1  A    between atoms: C1_2  and  C2_3 
ROOT
ATOM      1  C2  UNL d   1       5.039   0.252  -5.061  0.00  0.00    -0.081 A 
ATOM      2  C3  UNL d   1       5.479  -0.789  -4.234  0.00  0.00     0.006 A 
ATOM      3  C4  UNL d   1       4.578  -1.467  -3.410  0.00  0.00     0.002 A 
ATOM      4  C5  UNL d   1       3.222  -1.122  -3.405  0.00  0.00    -0.080 A 
ATOM      5  C6  UNL d   1       2.239  -1.863  -2.547  0.00  0.00     0.076 C 
ATOM      6  C7  UNL d   1       2.786  -0.071  -4.218  0.00  0.00     0.002 A 
ATOM      7  C8  UNL d   1       3.686   0.608  -5.042  0.00  0.00     0.006 A 
ENDROOT
BRANCH   1   8
ATOM      8  C1  UNL d   1       5.996   0.942  -5.999  0.00  0.00     0.054 C 
ATOM      9  C   UNL d   1       5.780   2.449  -6.000  0.00  0.00     0.018 C 
ENDBRANCH   1   8
TORSDOF 1
ENDMDL
