MODEL 1
REMARK minimizedAffinity 0.407886207
REMARK minimizedRMSD -1
REMARK  1 active torsions:
REMARK  status: ('A' for Active; 'I' for Inactive)
REMARK    1  A    between atoms: C1_2  and  C2_3 
ROOT
ATOM      1  C2  UNL d   1       3.793  -1.094  -3.345  0.00  0.00    -0.081 A 
ATOM      2  C3  UNL d   1       5.177  -1.247  -3.493  0.00  0.00     0.006 A 
ATOM      3  C4  UNL d   1       5.892  -0.418  -4.361  0.00  0.00     0.002 A 
ATOM      4  C5  UNL d   1       5.238   0.582  -5.088  0.00  0.00    -0.080 A 
ATOM      5  C6  UNL d   1       5.998   1.498  -6.000  0.00  0.00     0.076 C 
ATOM      6  C7  UNL d   1       3.853   0.724  -4.953  0.00  0.00     0.002 A 
ATOM      7  C8  UNL d   1       3.137  -0.105  -4.086  0.00  0.00     0.006 A 
ENDROOT
BRANCH   1   8
ATOM      8  C1  UNL d   1       3.029  -1.943  -2.362  0.00  0.00     0.054 C 
ATOM      9  C   UNL d   1       2.671  -3.296  -2.960  0.00  0.00     0.018 C 
ENDBRANCH   1   8
TORSDOF 1
ENDMDL
