MODEL 1
REMARK minimizedAffinity -0.523065507
REMARK minimizedRMSD -1
REMARK  0 active torsions:
REMARK  status: ('A' for Active; 'I' for Inactive)
ROOT
ATOM      1  C   UNL d   1       0.007  -0.480   2.367  0.00  0.00     0.023 A 
ATOM      2  C1  UNL d   1      -1.131  -0.280   1.586  0.00  0.00     0.003 A 
ATOM      3  C2  UNL d   1      -1.047  -0.358   0.194  0.00  0.00     0.048 A 
ATOM      4  C3  UNL d   1       0.179  -0.637  -0.410  0.00  0.00     0.023 A 
ATOM      5  C4  UNL d   1       1.320  -0.838   0.368  0.00  0.00     0.048 A 
ATOM      6  C5  UNL d   1       1.232  -0.758   1.759  0.00  0.00     0.003 A 
ATOM      7  I   UNL d   1       0.306  -0.753  -2.481  0.00  0.00    -0.146 I 
ENDROOT
TORSDOF 0
ENDMDL
