MODEL 1
REMARK minimizedAffinity -4.33678198
REMARK minimizedRMSD -1
REMARK  0 active torsions:
REMARK  status: ('A' for Active; 'I' for Inactive)
ROOT
ATOM      1  C   UNL d   1       0.503   0.195   3.683  0.00  0.00     0.023 A 
ATOM      2  C1  UNL d   1      -0.618   0.647   2.986  0.00  0.00     0.003 A 
ATOM      3  C2  UNL d   1      -0.667   0.539   1.594  0.00  0.00     0.048 A 
ATOM      4  C3  UNL d   1       0.408  -0.023   0.906  0.00  0.00     0.023 A 
ATOM      5  C4  UNL d   1       1.531  -0.477   1.600  0.00  0.00     0.048 A 
ATOM      6  C5  UNL d   1       1.576  -0.367   2.991  0.00  0.00     0.003 A 
ATOM      7  I   UNL d   1       0.338  -0.185  -1.165  0.00  0.00    -0.146 I 
ENDROOT
TORSDOF 0
ENDMDL
