MODEL 1
REMARK minimizedAffinity -4.32529879
REMARK minimizedRMSD -1
REMARK  0 active torsions:
REMARK  status: ('A' for Active; 'I' for Inactive)
ROOT
ATOM      1  C   UNL d   1      -0.012   1.297   3.659  0.00  0.00     0.023 A 
ATOM      2  C1  UNL d   1      -0.996   1.667   2.742  0.00  0.00     0.003 A 
ATOM      3  C2  UNL d   1      -0.910   1.242   1.415  0.00  0.00     0.048 A 
ATOM      4  C3  UNL d   1       0.161   0.446   1.011  0.00  0.00     0.023 A 
ATOM      5  C4  UNL d   1       1.147   0.073   1.925  0.00  0.00     0.048 A 
ATOM      6  C5  UNL d   1       1.058   0.501   3.251  0.00  0.00     0.003 A 
ATOM      7  I   UNL d   1       0.290  -0.187  -0.964  0.00  0.00    -0.146 I 
ENDROOT
TORSDOF 0
ENDMDL
