MODEL 1
REMARK minimizedAffinity -3.93735433
REMARK minimizedRMSD -1
REMARK  0 active torsions:
REMARK  status: ('A' for Active; 'I' for Inactive)
ROOT
ATOM      1  C   UNL d   1      -0.152   0.550   3.332  0.00  0.00     0.023 A 
ATOM      2  C1  UNL d   1       0.961  -0.105   2.806  0.00  0.00     0.003 A 
ATOM      3  C2  UNL d   1       1.046  -0.350   1.434  0.00  0.00     0.048 A 
ATOM      4  C3  UNL d   1       0.014   0.064   0.593  0.00  0.00     0.023 A 
ATOM      5  C4  UNL d   1      -1.102   0.721   1.114  0.00  0.00     0.048 A 
ATOM      6  C5  UNL d   1      -1.183   0.963   2.487  0.00  0.00     0.003 A 
ATOM      7  I   UNL d   1       0.138  -0.299  -1.450  0.00  0.00    -0.146 I 
ENDROOT
TORSDOF 0
ENDMDL
