MODEL 1
REMARK minimizedAffinity 0.106393084
REMARK minimizedRMSD -1
REMARK  0 active torsions:
REMARK  status: ('A' for Active; 'I' for Inactive)
ROOT
ATOM      1  C   UNL d   1      -0.087  -0.093   3.606  0.00  0.00     0.023 A 
ATOM      2  C1  UNL d   1      -1.198   0.180   2.808  0.00  0.00     0.003 A 
ATOM      3  C2  UNL d   1      -1.099   0.091   1.418  0.00  0.00     0.048 A 
ATOM      4  C3  UNL d   1       0.114  -0.272   0.833  0.00  0.00     0.023 A 
ATOM      5  C4  UNL d   1       1.228  -0.546   1.628  0.00  0.00     0.048 A 
ATOM      6  C5  UNL d   1       1.124  -0.455   3.017  0.00  0.00     0.003 A 
ATOM      7  I   UNL d   1       0.264  -0.405  -1.236  0.00  0.00    -0.146 I 
ENDROOT
TORSDOF 0
ENDMDL
