MODEL 1
REMARK minimizedAffinity -2.63079047
REMARK minimizedRMSD -1
REMARK  0 active torsions:
REMARK  status: ('A' for Active; 'I' for Inactive)
ROOT
ATOM      1  C   UNL d   1      -1.769   0.081   0.035  0.00  0.00     0.023 A 
ATOM      2  C1  UNL d   1      -0.563  -0.418  -0.457  0.00  0.00     0.003 A 
ATOM      3  C2  UNL d   1       0.536  -0.555   0.392  0.00  0.00     0.048 A 
ATOM      4  C3  UNL d   1       0.423  -0.191   1.734  0.00  0.00     0.023 A 
ATOM      5  C4  UNL d   1      -0.782   0.308   2.231  0.00  0.00     0.048 A 
ATOM      6  C5  UNL d   1      -1.878   0.444   1.378  0.00  0.00     0.003 A 
ATOM      7  I   UNL d   1       2.058  -0.394   3.000  0.00  0.00    -0.146 I 
ENDROOT
TORSDOF 0
ENDMDL
