MODEL 1
REMARK minimizedAffinity -4.9472785
REMARK minimizedRMSD -1
REMARK  0 active torsions:
REMARK  status: ('A' for Active; 'I' for Inactive)
ROOT
ATOM      1  C   UNL d   1       0.034   0.799   3.557  0.00  0.00     0.023 A 
ATOM      2  C1  UNL d   1      -0.948   1.209   2.656  0.00  0.00     0.003 A 
ATOM      3  C2  UNL d   1      -0.822   0.907   1.298  0.00  0.00     0.048 A 
ATOM      4  C3  UNL d   1       0.289   0.195   0.848  0.00  0.00     0.023 A 
ATOM      5  C4  UNL d   1       1.274  -0.219   1.747  0.00  0.00     0.048 A 
ATOM      6  C5  UNL d   1       1.144   0.086   3.103  0.00  0.00     0.003 A 
ATOM      7  I   UNL d   1       0.479  -0.256  -1.172  0.00  0.00    -0.146 I 
ENDROOT
TORSDOF 0
ENDMDL
