MODEL 1
REMARK minimizedAffinity 18.5243683
REMARK minimizedRMSD -1
REMARK  0 active torsions:
REMARK  status: ('A' for Active; 'I' for Inactive)
ROOT
ATOM      1  C   UNL d   1       2.938  -1.547  -1.277  0.00  0.00     0.124 A 
ATOM      2  C1  UNL d   1       3.720  -1.193  -2.368  0.00  0.00     0.062 A 
ATOM      3  C2  UNL d   1       4.508  -0.047  -2.323  0.00  0.00     0.162 A 
ATOM      4  C3  UNL d   1       4.519   0.755  -1.181  0.00  0.00    -0.034 A 
ATOM      5  C4  UNL d   1       3.729   0.393  -0.088  0.00  0.00     0.162 A 
ATOM      6  C5  UNL d   1       2.944  -0.754  -0.138  0.00  0.00     0.062 A 
ATOM      7  F   UNL d   1       2.189  -1.094   0.917  0.00  0.00    -0.097 F 
ATOM      8  F1  UNL d   1       3.716   1.141   1.025  0.00  0.00    -0.096 F 
ATOM      9  I   UNL d   1       5.695   2.470  -1.109  0.00  0.00    -0.060 I 
ATOM     10  F2  UNL d   1       5.253   0.270  -3.392  0.00  0.00    -0.096 F 
ATOM     11  F3  UNL d   1       3.716  -1.958  -3.470  0.00  0.00    -0.097 F 
ATOM     12  F4  UNL d   1       2.180  -2.650  -1.324  0.00  0.00    -0.092 F 
ENDROOT
TORSDOF 0
ENDMDL
