MODEL 1
REMARK minimizedAffinity 16.5797081
REMARK minimizedRMSD -1
REMARK  0 active torsions:
REMARK  status: ('A' for Active; 'I' for Inactive)
ROOT
ATOM      1  C   UNL d   1       3.942   0.602  -0.898  0.00  0.00     0.124 A 
ATOM      2  C1  UNL d   1       3.058   0.420   0.156  0.00  0.00     0.062 A 
ATOM      3  C2  UNL d   1       2.315  -0.754   0.253  0.00  0.00     0.162 A 
ATOM      4  C3  UNL d   1       2.454  -1.755  -0.708  0.00  0.00    -0.034 A 
ATOM      5  C4  UNL d   1       3.344  -1.565  -1.766  0.00  0.00     0.162 A 
ATOM      6  C5  UNL d   1       4.084  -0.390  -1.858  0.00  0.00     0.062 A 
ATOM      7  F   UNL d   1       4.938  -0.216  -2.878  0.00  0.00    -0.097 F 
ATOM      8  F1  UNL d   1       3.502  -2.507  -2.707  0.00  0.00    -0.096 F 
ATOM      9  I   UNL d   1       1.346  -3.511  -0.567  0.00  0.00    -0.060 I 
ATOM     10  F2  UNL d   1       1.469  -0.903   1.283  0.00  0.00    -0.096 F 
ATOM     11  F3  UNL d   1       2.918   1.377   1.085  0.00  0.00    -0.097 F 
ATOM     12  F4  UNL d   1       4.654   1.732  -0.989  0.00  0.00    -0.092 F 
ENDROOT
TORSDOF 0
ENDMDL
