MODEL 1
REMARK minimizedAffinity 10.0313377
REMARK minimizedRMSD -1
REMARK  0 active torsions:
REMARK  status: ('A' for Active; 'I' for Inactive)
ROOT
ATOM      1  C   UNL d   1       2.353  -2.071  -1.066  0.00  0.00     0.124 A 
ATOM      2  C1  UNL d   1       2.149  -1.220   0.011  0.00  0.00     0.062 A 
ATOM      3  C2  UNL d   1       2.841  -0.015   0.092  0.00  0.00     0.162 A 
ATOM      4  C3  UNL d   1       3.743   0.347  -0.909  0.00  0.00    -0.034 A 
ATOM      5  C4  UNL d   1       3.944  -0.515  -1.989  0.00  0.00     0.162 A 
ATOM      6  C5  UNL d   1       3.249  -1.718  -2.065  0.00  0.00     0.062 A 
ATOM      7  F   UNL d   1       3.448  -2.539  -3.106  0.00  0.00    -0.097 F 
ATOM      8  F1  UNL d   1       4.804  -0.198  -2.968  0.00  0.00    -0.096 F 
ATOM      9  I   UNL d   1       4.780   2.147  -0.792  0.00  0.00    -0.060 I 
ATOM     10  F2  UNL d   1       2.624   0.788   1.144  0.00  0.00    -0.096 F 
ATOM     11  F3  UNL d   1       1.284  -1.559   0.977  0.00  0.00    -0.097 F 
ATOM     12  F4  UNL d   1       1.686  -3.230  -1.141  0.00  0.00    -0.092 F 
ENDROOT
TORSDOF 0
ENDMDL
