MODEL 1
REMARK minimizedAffinity 18.5527592
REMARK minimizedRMSD -1
REMARK  0 active torsions:
REMARK  status: ('A' for Active; 'I' for Inactive)
ROOT
ATOM      1  C   UNL d   1       3.524  -0.370  -1.280  0.00  0.00     0.124 A 
ATOM      2  C1  UNL d   1       3.210   0.002   0.020  0.00  0.00     0.062 A 
ATOM      3  C2  UNL d   1       3.835   1.099   0.605  0.00  0.00     0.162 A 
ATOM      4  C3  UNL d   1       4.780   1.834  -0.110  0.00  0.00    -0.034 A 
ATOM      5  C4  UNL d   1       5.092   1.453  -1.416  0.00  0.00     0.162 A 
ATOM      6  C5  UNL d   1       4.465   0.356  -1.996  0.00  0.00     0.062 A 
ATOM      7  F   UNL d   1       4.770  -0.002  -3.252  0.00  0.00    -0.097 F 
ATOM      8  F1  UNL d   1       5.997   2.138  -2.132  0.00  0.00    -0.096 F 
ATOM      9  I   UNL d   1       5.717   3.476   0.761  0.00  0.00    -0.060 I 
ATOM     10  F2  UNL d   1       3.511   1.436   1.862  0.00  0.00    -0.096 F 
ATOM     11  F3  UNL d   1       2.302  -0.699   0.715  0.00  0.00    -0.097 F 
ATOM     12  F4  UNL d   1       2.922  -1.427  -1.839  0.00  0.00    -0.092 F 
ENDROOT
TORSDOF 0
ENDMDL
