MODEL 1
REMARK minimizedAffinity 22.2607574
REMARK minimizedRMSD -1
REMARK  0 active torsions:
REMARK  status: ('A' for Active; 'I' for Inactive)
ROOT
ATOM      1  C   UNL d   1      -2.664  -0.047  -2.391  0.00  0.00     0.124 A 
ATOM      2  C1  UNL d   1      -2.401   1.042  -3.210  0.00  0.00     0.062 A 
ATOM      3  C2  UNL d   1      -3.352   2.046  -3.367  0.00  0.00     0.162 A 
ATOM      4  C3  UNL d   1      -4.575   1.967  -2.702  0.00  0.00    -0.034 A 
ATOM      5  C4  UNL d   1      -4.834   0.868  -1.881  0.00  0.00     0.162 A 
ATOM      6  C5  UNL d   1      -3.880  -0.133  -1.728  0.00  0.00     0.062 A 
ATOM      7  F   UNL d   1      -4.136  -1.185  -0.936  0.00  0.00    -0.097 F 
ATOM      8  F1  UNL d   1      -6.000   0.760  -1.227  0.00  0.00    -0.096 F 
ATOM      9  I   UNL d   1      -6.000   3.466  -2.934  0.00  0.00    -0.060 I 
ATOM     10  F2  UNL d   1      -3.070   3.087  -4.165  0.00  0.00    -0.096 F 
ATOM     11  F3  UNL d   1      -1.227   1.127  -3.854  0.00  0.00    -0.097 F 
ATOM     12  F4  UNL d   1      -1.748  -1.013  -2.243  0.00  0.00    -0.092 F 
ENDROOT
TORSDOF 0
ENDMDL
