MODEL 1
REMARK minimizedAffinity 17.9174213
REMARK minimizedRMSD -1
REMARK  0 active torsions:
REMARK  status: ('A' for Active; 'I' for Inactive)
ROOT
ATOM      1  C   UNL d   1       2.498  -1.794  -0.150  0.00  0.00     0.124 A 
ATOM      2  C1  UNL d   1       2.261  -0.642  -0.889  0.00  0.00     0.062 A 
ATOM      3  C2  UNL d   1       3.202   0.383  -0.908  0.00  0.00     0.162 A 
ATOM      4  C3  UNL d   1       4.390   0.261  -0.187  0.00  0.00    -0.034 A 
ATOM      5  C4  UNL d   1       4.621  -0.899   0.555  0.00  0.00     0.162 A 
ATOM      6  C5  UNL d   1       3.677  -1.921   0.570  0.00  0.00     0.062 A 
ATOM      7  F   UNL d   1       3.907  -3.032   1.284  0.00  0.00    -0.097 F 
ATOM      8  F1  UNL d   1       5.752  -1.049   1.259  0.00  0.00    -0.096 F 
ATOM      9  I   UNL d   1       5.800   1.792  -0.212  0.00  0.00    -0.060 I 
ATOM     10  F2  UNL d   1       2.947   1.484  -1.630  0.00  0.00    -0.096 F 
ATOM     11  F3  UNL d   1       1.122  -0.517  -1.585  0.00  0.00    -0.097 F 
ATOM     12  F4  UNL d   1       1.590  -2.778  -0.133  0.00  0.00    -0.092 F 
ENDROOT
TORSDOF 0
ENDMDL
