MODEL 1
REMARK minimizedAffinity 11.5225887
REMARK minimizedRMSD -1
REMARK  0 active torsions:
REMARK  status: ('A' for Active; 'I' for Inactive)
ROOT
ATOM      1  C   UNL d   1      -0.942   1.185  -0.322  0.00  0.00     0.124 A 
ATOM      2  C1  UNL d   1      -1.637   0.563  -1.351  0.00  0.00     0.062 A 
ATOM      3  C2  UNL d   1      -3.023   0.456  -1.294  0.00  0.00     0.162 A 
ATOM      4  C3  UNL d   1      -3.726   0.972  -0.205  0.00  0.00    -0.034 A 
ATOM      5  C4  UNL d   1      -3.020   1.594   0.826  0.00  0.00     0.162 A 
ATOM      6  C5  UNL d   1      -1.634   1.699   0.765  0.00  0.00     0.062 A 
ATOM      7  F   UNL d   1      -0.965   2.300   1.760  0.00  0.00    -0.097 F 
ATOM      8  F1  UNL d   1      -3.664   2.102   1.888  0.00  0.00    -0.096 F 
ATOM      9  I   UNL d   1      -5.799   0.813  -0.117  0.00  0.00    -0.060 I 
ATOM     10  F2  UNL d   1      -3.668  -0.150  -2.302  0.00  0.00    -0.096 F 
ATOM     11  F3  UNL d   1      -0.971   0.064  -2.402  0.00  0.00    -0.097 F 
ATOM     12  F4  UNL d   1       0.392   1.286  -0.378  0.00  0.00    -0.092 F 
ENDROOT
TORSDOF 0
ENDMDL
