MODEL 1
REMARK minimizedAffinity 22.4646263
REMARK minimizedRMSD -1
REMARK  0 active torsions:
REMARK  status: ('A' for Active; 'I' for Inactive)
ROOT
ATOM      1  C   UNL d   1       3.613   0.287  -0.227  0.00  0.00     0.124 A 
ATOM      2  C1  UNL d   1       4.092   0.709  -1.460  0.00  0.00     0.062 A 
ATOM      3  C2  UNL d   1       3.980  -0.117  -2.574  0.00  0.00     0.162 A 
ATOM      4  C3  UNL d   1       3.385  -1.373  -2.462  0.00  0.00    -0.034 A 
ATOM      5  C4  UNL d   1       2.906  -1.791  -1.219  0.00  0.00     0.162 A 
ATOM      6  C5  UNL d   1       3.021  -0.962  -0.108  0.00  0.00     0.062 A 
ATOM      7  F   UNL d   1       2.557  -1.371   1.082  0.00  0.00    -0.097 F 
ATOM      8  F1  UNL d   1       2.328  -2.993  -1.076  0.00  0.00    -0.096 F 
ATOM      9  I   UNL d   1       3.215  -2.611  -4.127  0.00  0.00    -0.060 I 
ATOM     10  F2  UNL d   1       4.451   0.317  -3.753  0.00  0.00    -0.096 F 
ATOM     11  F3  UNL d   1       4.665   1.915  -1.577  0.00  0.00    -0.097 F 
ATOM     12  F4  UNL d   1       3.723   1.084   0.844  0.00  0.00    -0.092 F 
ENDROOT
TORSDOF 0
ENDMDL
