MODEL 1
REMARK minimizedAffinity -0.489333153
REMARK minimizedRMSD -1
REMARK  0 active torsions:
REMARK  status: ('A' for Active; 'I' for Inactive)
ROOT
ATOM      1  C   UNL d   1      -5.538  -1.200   5.999  0.00  0.00     0.078 C 
ATOM      2  C1  UNL d   1      -4.595  -0.845   4.889  0.00  0.00    -0.077 A 
ATOM      3  C2  UNL d   1      -4.657  -1.500   3.653  0.00  0.00    -0.001 A 
ATOM      4  C3  UNL d   1      -3.767  -1.166   2.631  0.00  0.00     0.003 A 
ATOM      5  C4  UNL d   1      -2.807  -0.177   2.835  0.00  0.00    -0.005 A 
ATOM      6  C5  UNL d   1      -2.736   0.479   4.062  0.00  0.00     0.003 A 
ATOM      7  C6  UNL d   1      -3.625   0.146   5.085  0.00  0.00    -0.001 A 
ENDROOT
TORSDOF 0
ENDMDL
