MODEL 1
REMARK minimizedAffinity 5.86441469
REMARK minimizedRMSD -1
REMARK  0 active torsions:
REMARK  status: ('A' for Active; 'I' for Inactive)
ROOT
ATOM      1  C   UNL d   1      -4.825   2.464   4.906  0.00  0.00     0.078 C 
ATOM      2  C1  UNL d   1      -3.751   1.737   4.155  0.00  0.00    -0.077 A 
ATOM      3  C2  UNL d   1      -3.640   1.850   2.764  0.00  0.00    -0.001 A 
ATOM      4  C3  UNL d   1      -2.641   1.160   2.076  0.00  0.00     0.003 A 
ATOM      5  C4  UNL d   1      -1.745   0.350   2.771  0.00  0.00    -0.005 A 
ATOM      6  C5  UNL d   1      -1.848   0.229   4.156  0.00  0.00     0.003 A 
ATOM      7  C6  UNL d   1      -2.847   0.919   4.845  0.00  0.00    -0.001 A 
ENDROOT
TORSDOF 0
ENDMDL
