MODEL 1
REMARK minimizedAffinity 4.43465424
REMARK minimizedRMSD -1
REMARK  0 active torsions:
REMARK  status: ('A' for Active; 'I' for Inactive)
ROOT
ATOM      1  C   UNL d   1       4.346   3.363  -4.001  0.00  0.00     0.078 C 
ATOM      2  C1  UNL d   1       3.159   3.317  -3.086  0.00  0.00    -0.077 A 
ATOM      3  C2  UNL d   1       3.000   2.276  -2.163  0.00  0.00    -0.001 A 
ATOM      4  C3  UNL d   1       1.884   2.241  -1.324  0.00  0.00     0.003 A 
ATOM      5  C4  UNL d   1       0.919   3.242  -1.402  0.00  0.00    -0.005 A 
ATOM      6  C5  UNL d   1       1.067   4.280  -2.319  0.00  0.00     0.003 A 
ATOM      7  C6  UNL d   1       2.182   4.318  -3.158  0.00  0.00    -0.001 A 
ENDROOT
TORSDOF 0
ENDMDL
