MODEL 1
REMARK minimizedAffinity -0.830601215
REMARK minimizedRMSD -1
REMARK  0 active torsions:
REMARK  status: ('A' for Active; 'I' for Inactive)
ROOT
ATOM      1  C   UNL d   1      -5.325  -2.331   5.647  0.00  0.00     0.078 C 
ATOM      2  C1  UNL d   1      -4.382  -1.635   4.711  0.00  0.00    -0.077 A 
ATOM      3  C2  UNL d   1      -3.803  -0.407   5.052  0.00  0.00    -0.001 A 
ATOM      4  C3  UNL d   1      -2.935   0.234   4.166  0.00  0.00     0.003 A 
ATOM      5  C4  UNL d   1      -2.640  -0.345   2.934  0.00  0.00    -0.005 A 
ATOM      6  C5  UNL d   1      -3.213  -1.566   2.585  0.00  0.00     0.003 A 
ATOM      7  C6  UNL d   1      -4.081  -2.208   3.469  0.00  0.00    -0.001 A 
ENDROOT
TORSDOF 0
ENDMDL
