MODEL 1
REMARK minimizedAffinity -2.33407784
REMARK minimizedRMSD -1
REMARK  0 active torsions:
REMARK  status: ('A' for Active; 'I' for Inactive)
ROOT
ATOM      1  C   UNL d   1      -4.410   0.553   0.176  0.00  0.00     0.078 C 
ATOM      2  C1  UNL d   1      -3.395   0.341   1.259  0.00  0.00    -0.077 A 
ATOM      3  C2  UNL d   1      -3.475   1.040   2.469  0.00  0.00    -0.001 A 
ATOM      4  C3  UNL d   1      -2.518   0.840   3.465  0.00  0.00     0.003 A 
ATOM      5  C4  UNL d   1      -1.473  -0.059   3.260  0.00  0.00    -0.005 A 
ATOM      6  C5  UNL d   1      -1.383  -0.757   2.058  0.00  0.00     0.003 A 
ATOM      7  C6  UNL d   1      -2.339  -0.558   1.061  0.00  0.00    -0.001 A 
ENDROOT
TORSDOF 0
ENDMDL
