MODEL 1
REMARK minimizedAffinity 5.63989687
REMARK minimizedRMSD -1
REMARK  0 active torsions:
REMARK  status: ('A' for Active; 'I' for Inactive)
ROOT
ATOM      1  C   UNL d   1      -4.260   5.220  -2.531  0.00  0.00     0.078 C 
ATOM      2  C1  UNL d   1      -3.374   5.247  -3.740  0.00  0.00    -0.077 A 
ATOM      3  C2  UNL d   1      -3.727   5.984  -4.877  0.00  0.00    -0.001 A 
ATOM      4  C3  UNL d   1      -2.898   5.992  -6.000  0.00  0.00     0.003 A 
ATOM      5  C4  UNL d   1      -1.710   5.264  -5.997  0.00  0.00    -0.005 A 
ATOM      6  C5  UNL d   1      -1.350   4.526  -4.871  0.00  0.00     0.003 A 
ATOM      7  C6  UNL d   1      -2.179   4.517  -3.748  0.00  0.00    -0.001 A 
ENDROOT
TORSDOF 0
ENDMDL
