MODEL 1
REMARK minimizedAffinity -0.14537172
REMARK minimizedRMSD -1
REMARK  0 active torsions:
REMARK  status: ('A' for Active; 'I' for Inactive)
ROOT
ATOM      1  C   UNL d   1      -5.387  -2.461   1.698  0.00  0.00     0.078 C 
ATOM      2  C1  UNL d   1      -5.608  -3.609   2.637  0.00  0.00    -0.077 A 
ATOM      3  C2  UNL d   1      -5.804  -3.393   4.006  0.00  0.00    -0.001 A 
ATOM      4  C3  UNL d   1      -5.999  -4.472   4.870  0.00  0.00     0.003 A 
ATOM      5  C4  UNL d   1      -6.000  -5.774   4.375  0.00  0.00    -0.005 A 
ATOM      6  C5  UNL d   1      -5.804  -5.999   3.014  0.00  0.00     0.003 A 
ATOM      7  C6  UNL d   1      -5.608  -4.922   2.148  0.00  0.00    -0.001 A 
ENDROOT
TORSDOF 0
ENDMDL
