MODEL 1
REMARK minimizedAffinity -0.0658515915
REMARK minimizedRMSD -1
REMARK  0 active torsions:
REMARK  status: ('A' for Active; 'I' for Inactive)
ROOT
ATOM      1  C   UNL d   1      -5.999  -2.437   5.950  0.00  0.00     0.078 C 
ATOM      2  C1  UNL d   1      -5.972  -3.607   5.012  0.00  0.00    -0.077 A 
ATOM      3  C2  UNL d   1      -5.999  -4.920   5.497  0.00  0.00    -0.001 A 
ATOM      4  C3  UNL d   1      -5.964  -6.000   4.613  0.00  0.00     0.003 A 
ATOM      5  C4  UNL d   1      -5.899  -5.777   3.239  0.00  0.00    -0.005 A 
ATOM      6  C5  UNL d   1      -5.869  -4.474   2.748  0.00  0.00     0.003 A 
ATOM      7  C6  UNL d   1      -5.904  -3.393   3.630  0.00  0.00    -0.001 A 
ENDROOT
TORSDOF 0
ENDMDL
