MODEL 1
REMARK minimizedAffinity 8.46654224
REMARK minimizedRMSD -1
REMARK  0 active torsions:
REMARK  status: ('A' for Active; 'I' for Inactive)
ROOT
ATOM      1  C   UNL d   1       3.141   2.054  -2.717  0.00  0.00     0.078 C 
ATOM      2  C1  UNL d   1       3.767   2.998  -3.699  0.00  0.00    -0.077 A 
ATOM      3  C2  UNL d   1       3.168   4.226  -4.002  0.00  0.00    -0.001 A 
ATOM      4  C3  UNL d   1       3.757   5.091  -4.926  0.00  0.00     0.003 A 
ATOM      5  C4  UNL d   1       4.948   4.735  -5.556  0.00  0.00    -0.005 A 
ATOM      6  C5  UNL d   1       5.551   3.514  -5.263  0.00  0.00     0.003 A 
ATOM      7  C6  UNL d   1       4.963   2.648  -4.339  0.00  0.00    -0.001 A 
ENDROOT
TORSDOF 0
ENDMDL
