MODEL 1
REMARK minimizedAffinity -1.08947253
REMARK minimizedRMSD -1
REMARK  0 active torsions:
REMARK  status: ('A' for Active; 'I' for Inactive)
ROOT
ATOM      1  C   UNL d   1      -2.952   1.141   3.032  0.00  0.00     0.078 C 
ATOM      2  C1  UNL d   1      -2.225  -0.126   2.694  0.00  0.00    -0.077 A 
ATOM      3  C2  UNL d   1      -2.786  -1.070   1.825  0.00  0.00    -0.001 A 
ATOM      4  C3  UNL d   1      -2.102  -2.250   1.527  0.00  0.00     0.003 A 
ATOM      5  C4  UNL d   1      -0.854  -2.497   2.095  0.00  0.00    -0.005 A 
ATOM      6  C5  UNL d   1      -0.289  -1.565   2.963  0.00  0.00     0.003 A 
ATOM      7  C6  UNL d   1      -0.971  -0.385   3.262  0.00  0.00    -0.001 A 
ENDROOT
TORSDOF 0
ENDMDL
