MODEL 1
REMARK minimizedAffinity 7.46898031
REMARK minimizedRMSD -1
REMARK  0 active torsions:
REMARK  status: ('A' for Active; 'I' for Inactive)
ROOT
ATOM      1  C   UNL d   1       2.972   1.143   0.236  0.00  0.00     0.078 C 
ATOM      2  C1  UNL d   1       2.879   1.873  -1.071  0.00  0.00    -0.077 A 
ATOM      3  C2  UNL d   1       3.943   2.652  -1.540  0.00  0.00    -0.001 A 
ATOM      4  C3  UNL d   1       3.838   3.334  -2.753  0.00  0.00     0.003 A 
ATOM      5  C4  UNL d   1       2.670   3.244  -3.507  0.00  0.00    -0.005 A 
ATOM      6  C5  UNL d   1       1.604   2.473  -3.048  0.00  0.00     0.003 A 
ATOM      7  C6  UNL d   1       1.708   1.790  -1.834  0.00  0.00    -0.001 A 
ENDROOT
TORSDOF 0
ENDMDL
