MODEL 1
REMARK minimizedAffinity 9.79436874
REMARK minimizedRMSD -1
REMARK  0 active torsions:
REMARK  status: ('A' for Active; 'I' for Inactive)
ROOT
ATOM      1  C   UNL d   1      -2.068  -3.133   1.460  0.00  0.00     0.078 C 
ATOM      2  C1  UNL d   1      -2.134  -1.719   1.954  0.00  0.00    -0.077 A 
ATOM      3  C2  UNL d   1      -2.186  -1.436   3.325  0.00  0.00    -0.001 A 
ATOM      4  C3  UNL d   1      -2.256  -0.116   3.771  0.00  0.00     0.003 A 
ATOM      5  C4  UNL d   1      -2.278   0.933   2.853  0.00  0.00    -0.005 A 
ATOM      6  C5  UNL d   1      -2.229   0.661   1.487  0.00  0.00     0.003 A 
ATOM      7  C6  UNL d   1      -2.158  -0.659   1.039  0.00  0.00    -0.001 A 
ENDROOT
TORSDOF 0
ENDMDL
