MODEL 1
REMARK minimizedAffinity 9.01811695
REMARK minimizedRMSD -1
REMARK  0 active torsions:
REMARK  status: ('A' for Active; 'I' for Inactive)
ROOT
ATOM      1  C   UNL d   1       2.179   2.633  -2.742  0.00  0.00     0.078 C 
ATOM      2  C1  UNL d   1       3.514   3.250  -3.033  0.00  0.00    -0.077 A 
ATOM      3  C2  UNL d   1       4.193   3.992  -2.059  0.00  0.00    -0.001 A 
ATOM      4  C3  UNL d   1       5.431   4.570  -2.347  0.00  0.00     0.003 A 
ATOM      5  C4  UNL d   1       5.999   4.412  -3.610  0.00  0.00    -0.005 A 
ATOM      6  C5  UNL d   1       5.330   3.677  -4.586  0.00  0.00     0.003 A 
ATOM      7  C6  UNL d   1       4.092   3.099  -4.300  0.00  0.00    -0.001 A 
ENDROOT
TORSDOF 0
ENDMDL
