MODEL 1
REMARK minimizedAffinity 6.97845936
REMARK minimizedRMSD -1
REMARK  0 active torsions:
REMARK  status: ('A' for Active; 'I' for Inactive)
ROOT
ATOM      1  C   UNL d   1      -2.561   0.978   2.979  0.00  0.00     0.078 C 
ATOM      2  C1  UNL d   1      -2.092  -0.351   2.467  0.00  0.00    -0.077 A 
ATOM      3  C2  UNL d   1      -0.738  -0.705   2.517  0.00  0.00    -0.001 A 
ATOM      4  C3  UNL d   1      -0.313  -1.942   2.028  0.00  0.00     0.003 A 
ATOM      5  C4  UNL d   1      -1.236  -2.834   1.485  0.00  0.00    -0.005 A 
ATOM      6  C5  UNL d   1      -2.585  -2.489   1.430  0.00  0.00     0.003 A 
ATOM      7  C6  UNL d   1      -3.011  -1.253   1.918  0.00  0.00    -0.001 A 
ENDROOT
TORSDOF 0
ENDMDL
