MODEL 1
REMARK minimizedAffinity 2.41423583
REMARK minimizedRMSD -1
REMARK  0 active torsions:
REMARK  status: ('A' for Active; 'I' for Inactive)
ROOT
ATOM      1  C   UNL d   1      -3.637  -4.969   2.265  0.00  0.00     0.078 C 
ATOM      2  C1  UNL d   1      -4.383  -4.987   3.566  0.00  0.00    -0.077 A 
ATOM      3  C2  UNL d   1      -5.306  -6.000   3.855  0.00  0.00    -0.001 A 
ATOM      4  C3  UNL d   1      -6.000  -5.999   5.066  0.00  0.00     0.003 A 
ATOM      5  C4  UNL d   1      -5.778  -4.986   5.998  0.00  0.00    -0.005 A 
ATOM      6  C5  UNL d   1      -4.863  -3.973   5.719  0.00  0.00     0.003 A 
ATOM      7  C6  UNL d   1      -4.169  -3.973   4.508  0.00  0.00    -0.001 A 
ENDROOT
TORSDOF 0
ENDMDL
