MODEL 1
REMARK minimizedAffinity 13.1678181
REMARK minimizedRMSD -1
REMARK  0 active torsions:
REMARK  status: ('A' for Active; 'I' for Inactive)
ROOT
ATOM      1  C   UNL d   1       0.076  -2.998   1.450  0.00  0.00     0.078 C 
ATOM      2  C1  UNL d   1      -0.839  -1.839   1.712  0.00  0.00    -0.077 A 
ATOM      3  C2  UNL d   1      -0.711  -0.644   0.994  0.00  0.00    -0.001 A 
ATOM      4  C3  UNL d   1      -1.563   0.431   1.255  0.00  0.00     0.003 A 
ATOM      5  C4  UNL d   1      -2.548   0.321   2.234  0.00  0.00    -0.005 A 
ATOM      6  C5  UNL d   1      -2.681  -0.864   2.955  0.00  0.00     0.003 A 
ATOM      7  C6  UNL d   1      -1.830  -1.939   2.696  0.00  0.00    -0.001 A 
ENDROOT
TORSDOF 0
ENDMDL
