MODEL 1
REMARK minimizedAffinity 6.86404419
REMARK minimizedRMSD -1
REMARK  0 active torsions:
REMARK  status: ('A' for Active; 'I' for Inactive)
ROOT
ATOM      1  C   UNL d   1      -5.998  -6.000   6.000  0.00  0.00     0.078 C 
ATOM      2  C1  UNL d   1      -5.571  -5.410   4.689  0.00  0.00    -0.077 A 
ATOM      3  C2  UNL d   1      -4.756  -4.272   4.642  0.00  0.00    -0.001 A 
ATOM      4  C3  UNL d   1      -4.375  -3.727   3.414  0.00  0.00     0.003 A 
ATOM      5  C4  UNL d   1      -4.804  -4.313   2.225  0.00  0.00    -0.005 A 
ATOM      6  C5  UNL d   1      -5.617  -5.444   2.262  0.00  0.00     0.003 A 
ATOM      7  C6  UNL d   1      -6.000  -5.990   3.489  0.00  0.00    -0.001 A 
ENDROOT
TORSDOF 0
ENDMDL
