MODEL 1
REMARK minimizedAffinity -4.69016409
REMARK minimizedRMSD -1
REMARK  1 active torsions:
REMARK  status: ('A' for Active; 'I' for Inactive)
REMARK    1  A    between atoms: N_2  and  C1_3 
ROOT
ATOM      1  C1  UNL d   1       0.643  -0.673   0.294  0.00  0.00     0.143 A 
ATOM      2  C2  UNL d   1      -0.081  -0.475   1.474  0.00  0.00    -0.057 A 
ATOM      3  C3  UNL d   1       0.399  -0.935   2.707  0.00  0.00     0.033 A 
ATOM      4  C4  UNL d   1       1.602  -1.629   2.776  0.00  0.00    -0.042 A 
ATOM      5  C5  UNL d   1       2.327  -1.860   1.611  0.00  0.00     0.033 A 
ATOM      6  C6  UNL d   1       1.845  -1.392   0.385  0.00  0.00    -0.057 A 
ENDROOT
BRANCH   1   7
ATOM      7  N   UNL d   1       0.172  -0.327  -0.975  0.00  0.00    -0.732 N 
ATOM      8  C   UNL d   1      -1.069   0.403  -1.127  0.00  0.00     0.284 C 
ATOM      9  H3  UNL d   1       0.917  -0.013  -1.594  0.00  0.00     0.395 HD
ENDBRANCH   1   7
TORSDOF 1
ENDMDL
