MODEL 1
REMARK minimizedAffinity -4.71582937
REMARK minimizedRMSD -1
REMARK  1 active torsions:
REMARK  status: ('A' for Active; 'I' for Inactive)
REMARK    1  A    between atoms: N_2  and  C1_3 
ROOT
ATOM      1  C1  UNL d   1       0.101  -0.410  -0.089  0.00  0.00     0.143 A 
ATOM      2  C2  UNL d   1       1.376  -0.704   0.404  0.00  0.00    -0.057 A 
ATOM      3  C3  UNL d   1       1.594  -0.921   1.770  0.00  0.00     0.033 A 
ATOM      4  C4  UNL d   1       0.541  -0.819   2.673  0.00  0.00    -0.042 A 
ATOM      5  C5  UNL d   1      -0.731  -0.503   2.208  0.00  0.00     0.033 A 
ATOM      6  C6  UNL d   1      -0.943  -0.294   0.842  0.00  0.00    -0.057 A 
ENDROOT
BRANCH   1   7
ATOM      7  N   UNL d   1      -0.162  -0.086  -1.423  0.00  0.00    -0.732 N 
ATOM      8  C   UNL d   1      -0.745   1.192  -1.771  0.00  0.00     0.284 C 
ATOM      9  H3  UNL d   1       0.581  -0.388  -2.049  0.00  0.00     0.395 HD
ENDBRANCH   1   7
TORSDOF 1
ENDMDL
