MODEL 1
REMARK minimizedAffinity -3.85043931
REMARK minimizedRMSD -1
REMARK  1 active torsions:
REMARK  status: ('A' for Active; 'I' for Inactive)
REMARK    1  A    between atoms: N_2  and  C1_3 
ROOT
ATOM      1  C1  UNL d   1       0.702  -0.614  -0.084  0.00  0.00     0.143 A 
ATOM      2  C2  UNL d   1      -0.053  -0.305   1.053  0.00  0.00    -0.057 A 
ATOM      3  C3  UNL d   1       0.308  -0.785   2.317  0.00  0.00     0.033 A 
ATOM      4  C4  UNL d   1       1.419  -1.610   2.463  0.00  0.00    -0.042 A 
ATOM      5  C5  UNL d   1       2.170  -1.950   1.344  0.00  0.00     0.033 A 
ATOM      6  C6  UNL d   1       1.808  -1.462   0.085  0.00  0.00    -0.057 A 
ENDROOT
BRANCH   1   7
ATOM      7  N   UNL d   1       0.339  -0.248  -1.382  0.00  0.00    -0.732 N 
ATOM      8  C   UNL d   1      -0.541   0.878  -1.612  0.00  0.00     0.284 C 
ATOM      9  H3  UNL d   1       1.117  -0.308  -2.035  0.00  0.00     0.395 HD
ENDBRANCH   1   7
TORSDOF 1
ENDMDL
