MODEL 1
REMARK minimizedAffinity -4.46849394
REMARK minimizedRMSD -1
REMARK  1 active torsions:
REMARK  status: ('A' for Active; 'I' for Inactive)
REMARK    1  A    between atoms: N_2  and  C1_3 
ROOT
ATOM      1  C1  UNL d   1       0.085  -0.058   0.665  0.00  0.00     0.143 A 
ATOM      2  C2  UNL d   1       0.989  -0.963   0.098  0.00  0.00    -0.057 A 
ATOM      3  C3  UNL d   1       1.946  -1.621   0.880  0.00  0.00     0.033 A 
ATOM      4  C4  UNL d   1       2.035  -1.362   2.244  0.00  0.00    -0.042 A 
ATOM      5  C5  UNL d   1       1.163  -0.447   2.825  0.00  0.00     0.033 A 
ATOM      6  C6  UNL d   1       0.206   0.202   2.039  0.00  0.00    -0.057 A 
ENDROOT
BRANCH   1   7
ATOM      7  N   UNL d   1      -0.824   0.701  -0.076  0.00  0.00    -0.732 N 
ATOM      8  C   UNL d   1      -0.455   1.239  -1.368  0.00  0.00     0.284 C 
ATOM      9  H3  UNL d   1      -1.768   0.324  -0.037  0.00  0.00     0.395 HD
ENDBRANCH   1   7
TORSDOF 1
ENDMDL
