MODEL 1
REMARK minimizedAffinity -5.39060211
REMARK minimizedRMSD -1
REMARK  1 active torsions:
REMARK  status: ('A' for Active; 'I' for Inactive)
REMARK    1  A    between atoms: N_2  and  C1_3 
ROOT
ATOM      1  C1  UNL d   1       0.669  -0.562   0.131  0.00  0.00     0.143 A 
ATOM      2  C2  UNL d   1       0.193  -0.135   1.375  0.00  0.00    -0.057 A 
ATOM      3  C3  UNL d   1       0.794  -0.556   2.567  0.00  0.00     0.033 A 
ATOM      4  C4  UNL d   1       1.869  -1.438   2.536  0.00  0.00    -0.042 A 
ATOM      5  C5  UNL d   1       2.344  -1.896   1.312  0.00  0.00     0.033 A 
ATOM      6  C6  UNL d   1       1.743  -1.467   0.125  0.00  0.00    -0.057 A 
ENDROOT
BRANCH   1   7
ATOM      7  N   UNL d   1       0.052  -0.257  -1.085  0.00  0.00    -0.732 N 
ATOM      8  C   UNL d   1      -0.531   1.048  -1.309  0.00  0.00     0.284 C 
ATOM      9  H3  UNL d   1       0.564  -0.626  -1.883  0.00  0.00     0.395 HD
ENDBRANCH   1   7
TORSDOF 1
ENDMDL
