MODEL 1
REMARK minimizedAffinity -5.16619539
REMARK minimizedRMSD -1
REMARK  1 active torsions:
REMARK  status: ('A' for Active; 'I' for Inactive)
REMARK    1  A    between atoms: N_2  and  C1_3 
ROOT
ATOM      1  C1  UNL d   1       0.842  -0.108   0.530  0.00  0.00     0.143 A 
ATOM      2  C2  UNL d   1       0.776   0.261   1.878  0.00  0.00    -0.057 A 
ATOM      3  C3  UNL d   1       1.490  -0.439   2.858  0.00  0.00     0.033 A 
ATOM      4  C4  UNL d   1       2.262  -1.542   2.510  0.00  0.00    -0.042 A 
ATOM      5  C5  UNL d   1       2.322  -1.942   1.179  0.00  0.00     0.033 A 
ATOM      6  C6  UNL d   1       1.612  -1.235   0.204  0.00  0.00    -0.057 A 
ENDROOT
BRANCH   1   7
ATOM      7  N   UNL d   1       0.078   0.487  -0.477  0.00  0.00    -0.732 N 
ATOM      8  C   UNL d   1      -1.183  -0.094  -0.886  0.00  0.00     0.284 C 
ATOM      9  H3  UNL d   1       0.064   1.502  -0.406  0.00  0.00     0.395 HD
ENDBRANCH   1   7
TORSDOF 1
ENDMDL
