MODEL 1
REMARK minimizedAffinity -1.60598862
REMARK minimizedRMSD -1
REMARK  0 active torsions:
REMARK  status: ('A' for Active; 'I' for Inactive)
ROOT
ATOM      1  C   UNL d   1      -0.428   0.148   1.742  0.00  0.00     0.124 A 
ATOM      2  C1  UNL d   1       0.899   0.552   1.792  0.00  0.00     0.062 A 
ATOM      3  C2  UNL d   1       1.559   0.932   0.627  0.00  0.00     0.162 A 
ATOM      4  C3  UNL d   1       0.892   0.911  -0.598  0.00  0.00    -0.034 A 
ATOM      5  C4  UNL d   1      -0.442   0.503  -0.640  0.00  0.00     0.162 A 
ATOM      6  C5  UNL d   1      -1.097   0.124   0.527  0.00  0.00     0.062 A 
ATOM      7  F   UNL d   1      -2.379  -0.266   0.477  0.00  0.00    -0.097 F 
ATOM      8  F1  UNL d   1      -1.113   0.471  -1.801  0.00  0.00    -0.096 F 
ATOM      9  I   UNL d   1       1.876   1.479  -2.342  0.00  0.00    -0.060 I 
ATOM     10  F2  UNL d   1       2.841   1.317   0.705  0.00  0.00    -0.096 F 
ATOM     11  F3  UNL d   1       1.548   0.575   2.965  0.00  0.00    -0.097 F 
ATOM     12  F4  UNL d   1      -1.061  -0.218   2.865  0.00  0.00    -0.092 F 
ENDROOT
TORSDOF 0
ENDMDL
