MODEL 1
REMARK minimizedAffinity -3.23960638
REMARK minimizedRMSD -1
REMARK  0 active torsions:
REMARK  status: ('A' for Active; 'I' for Inactive)
ROOT
ATOM      1  C   UNL d   1       0.554   0.426   1.255  0.00  0.00     0.124 A 
ATOM      2  C1  UNL d   1       0.238  -0.890   0.950  0.00  0.00     0.062 A 
ATOM      3  C2  UNL d   1       0.248  -1.324  -0.372  0.00  0.00     0.162 A 
ATOM      4  C3  UNL d   1       0.576  -0.441  -1.400  0.00  0.00    -0.034 A 
ATOM      5  C4  UNL d   1       0.891   0.882  -1.086  0.00  0.00     0.162 A 
ATOM      6  C5  UNL d   1       0.881   1.311   0.237  0.00  0.00     0.062 A 
ATOM      7  F   UNL d   1       1.186   2.584   0.530  0.00  0.00    -0.097 F 
ATOM      8  F1  UNL d   1       1.211   1.758  -2.050  0.00  0.00    -0.096 F 
ATOM      9  I   UNL d   1       0.591  -1.086  -3.379  0.00  0.00    -0.060 I 
ATOM     10  F2  UNL d   1      -0.062  -2.602  -0.637  0.00  0.00    -0.096 F 
ATOM     11  F3  UNL d   1      -0.078  -1.747   1.932  0.00  0.00    -0.097 F 
ATOM     12  F4  UNL d   1       0.544   0.841   2.528  0.00  0.00    -0.092 F 
ENDROOT
TORSDOF 0
ENDMDL
