MODEL 1
REMARK minimizedAffinity -3.17025328
REMARK minimizedRMSD -1
REMARK  0 active torsions:
REMARK  status: ('A' for Active; 'I' for Inactive)
ROOT
ATOM      1  C   UNL d   1       0.791  -3.612  -1.938  0.00  0.00     0.124 A 
ATOM      2  C1  UNL d   1       0.762  -3.470  -0.558  0.00  0.00     0.062 A 
ATOM      3  C2  UNL d   1       0.824  -2.204   0.017  0.00  0.00     0.162 A 
ATOM      4  C3  UNL d   1       0.914  -1.069  -0.789  0.00  0.00    -0.034 A 
ATOM      5  C4  UNL d   1       0.943  -1.220  -2.176  0.00  0.00     0.162 A 
ATOM      6  C5  UNL d   1       0.882  -2.487  -2.746  0.00  0.00     0.062 A 
ATOM      7  F   UNL d   1       0.910  -2.623  -4.080  0.00  0.00    -0.097 F 
ATOM      8  F1  UNL d   1       1.029  -0.150  -2.980  0.00  0.00    -0.096 F 
ATOM      9  I   UNL d   1       1.005   0.826   0.067  0.00  0.00    -0.060 I 
ATOM     10  F2  UNL d   1       0.794  -2.096   1.354  0.00  0.00    -0.096 F 
ATOM     11  F3  UNL d   1       0.676  -4.555   0.225  0.00  0.00    -0.097 F 
ATOM     12  F4  UNL d   1       0.733  -4.832  -2.488  0.00  0.00    -0.092 F 
ENDROOT
TORSDOF 0
ENDMDL
