MODEL 1
REMARK minimizedAffinity -2.01656294
REMARK minimizedRMSD -1
REMARK  0 active torsions:
REMARK  status: ('A' for Active; 'I' for Inactive)
ROOT
ATOM      1  C   UNL d   1      -0.128   1.292   0.826  0.00  0.00     0.124 A 
ATOM      2  C1  UNL d   1      -1.377   1.212   0.227  0.00  0.00     0.062 A 
ATOM      3  C2  UNL d   1      -1.484   1.010  -1.146  0.00  0.00     0.162 A 
ATOM      4  C3  UNL d   1      -0.337   0.887  -1.931  0.00  0.00    -0.034 A 
ATOM      5  C4  UNL d   1       0.917   0.970  -1.321  0.00  0.00     0.162 A 
ATOM      6  C5  UNL d   1       1.018   1.172   0.051  0.00  0.00     0.062 A 
ATOM      7  F   UNL d   1       2.226   1.250   0.628  0.00  0.00    -0.097 F 
ATOM      8  F1  UNL d   1       2.040   0.856  -2.046  0.00  0.00    -0.096 F 
ATOM      9  I   UNL d   1      -0.492   0.586  -3.984  0.00  0.00    -0.060 I 
ATOM     10  F2  UNL d   1      -2.704   0.936  -1.698  0.00  0.00    -0.096 F 
ATOM     11  F3  UNL d   1      -2.485   1.329   0.973  0.00  0.00    -0.097 F 
ATOM     12  F4  UNL d   1      -0.028   1.487   2.147  0.00  0.00    -0.092 F 
ENDROOT
TORSDOF 0
ENDMDL
