MODEL 1
REMARK minimizedAffinity -0.778464317
REMARK minimizedRMSD -1
REMARK  0 active torsions:
REMARK  status: ('A' for Active; 'I' for Inactive)
ROOT
ATOM      1  C   UNL d   1       0.742  -2.390  -2.408  0.00  0.00     0.124 A 
ATOM      2  C1  UNL d   1       1.583  -2.591  -3.494  0.00  0.00     0.062 A 
ATOM      3  C2  UNL d   1       2.343  -1.539  -3.996  0.00  0.00     0.162 A 
ATOM      4  C3  UNL d   1       2.266  -0.274  -3.412  0.00  0.00    -0.034 A 
ATOM      5  C4  UNL d   1       1.418  -0.079  -2.320  0.00  0.00     0.162 A 
ATOM      6  C5  UNL d   1       0.660  -1.134  -1.823  0.00  0.00     0.062 A 
ATOM      7  F   UNL d   1      -0.151  -0.938  -0.774  0.00  0.00    -0.097 F 
ATOM      8  F1  UNL d   1       1.320   1.124  -1.735  0.00  0.00    -0.096 F 
ATOM      9  I   UNL d   1       3.401   1.302  -4.159  0.00  0.00    -0.060 I 
ATOM     10  F2  UNL d   1       3.147  -1.762  -5.046  0.00  0.00    -0.096 F 
ATOM     11  F3  UNL d   1       1.664  -3.803  -4.062  0.00  0.00    -0.097 F 
ATOM     12  F4  UNL d   1       0.012  -3.404  -1.928  0.00  0.00    -0.092 F 
ENDROOT
TORSDOF 0
ENDMDL
