MODEL 1
REMARK minimizedAffinity -3.57154608
REMARK minimizedRMSD -1
REMARK  0 active torsions:
REMARK  status: ('A' for Active; 'I' for Inactive)
ROOT
ATOM      1  C   UNL d   1      -1.176   1.062  -0.217  0.00  0.00     0.124 A 
ATOM      2  C1  UNL d   1      -1.407   0.967  -1.582  0.00  0.00     0.062 A 
ATOM      3  C2  UNL d   1      -0.337   0.939  -2.473  0.00  0.00     0.162 A 
ATOM      4  C3  UNL d   1       0.974   1.004  -2.001  0.00  0.00    -0.034 A 
ATOM      5  C4  UNL d   1       1.198   1.100  -0.627  0.00  0.00     0.162 A 
ATOM      6  C5  UNL d   1       0.126   1.128   0.259  0.00  0.00     0.062 A 
ATOM      7  F   UNL d   1       0.351   1.220   1.578  0.00  0.00    -0.097 F 
ATOM      8  F1  UNL d   1       2.446   1.165  -0.139  0.00  0.00    -0.096 F 
ATOM      9  I   UNL d   1       2.575   0.962  -3.330  0.00  0.00    -0.060 I 
ATOM     10  F2  UNL d   1      -0.590   0.847  -3.787  0.00  0.00    -0.096 F 
ATOM     11  F3  UNL d   1      -2.663   0.903  -2.045  0.00  0.00    -0.097 F 
ATOM     12  F4  UNL d   1      -2.206   1.090   0.638  0.00  0.00    -0.092 F 
ENDROOT
TORSDOF 0
ENDMDL
