MODEL 1
REMARK minimizedAffinity 13.2590094
REMARK minimizedRMSD -1
REMARK  0 active torsions:
REMARK  status: ('A' for Active; 'I' for Inactive)
ROOT
ATOM      1  C   UNL d   1       0.947  -0.116   3.120  0.00  0.00     0.124 A 
ATOM      2  C1  UNL d   1       1.052   0.785   2.069  0.00  0.00     0.062 A 
ATOM      3  C2  UNL d   1      -0.014   0.964   1.192  0.00  0.00     0.162 A 
ATOM      4  C3  UNL d   1      -1.195   0.241   1.362  0.00  0.00    -0.034 A 
ATOM      5  C4  UNL d   1      -1.292  -0.664   2.421  0.00  0.00     0.162 A 
ATOM      6  C5  UNL d   1      -0.224  -0.839   3.295  0.00  0.00     0.062 A 
ATOM      7  F   UNL d   1      -0.328  -1.709   4.310  0.00  0.00    -0.097 F 
ATOM      8  F1  UNL d   1      -2.413  -1.375   2.614  0.00  0.00    -0.096 F 
ATOM      9  I   UNL d   1      -2.790   0.505   0.052  0.00  0.00    -0.060 I 
ATOM     10  F2  UNL d   1       0.115   1.840   0.185  0.00  0.00    -0.096 F 
ATOM     11  F3  UNL d   1       2.183   1.484   1.898  0.00  0.00    -0.097 F 
ATOM     12  F4  UNL d   1       1.974  -0.286   3.963  0.00  0.00    -0.092 F 
ENDROOT
TORSDOF 0
ENDMDL
