MODEL 1
REMARK minimizedAffinity 12.720706
REMARK minimizedRMSD -1
REMARK  0 active torsions:
REMARK  status: ('A' for Active; 'I' for Inactive)
ROOT
ATOM      1  C   UNL d   1      -2.907   1.705   1.746  0.00  0.00     0.124 A 
ATOM      2  C1  UNL d   1      -2.776   1.448   0.389  0.00  0.00     0.062 A 
ATOM      3  C2  UNL d   1      -3.444   0.372  -0.188  0.00  0.00     0.162 A 
ATOM      4  C3  UNL d   1      -4.252  -0.455   0.593  0.00  0.00    -0.034 A 
ATOM      5  C4  UNL d   1      -4.378  -0.191   1.958  0.00  0.00     0.162 A 
ATOM      6  C5  UNL d   1      -3.708   0.886   2.529  0.00  0.00     0.062 A 
ATOM      7  F   UNL d   1      -3.836   1.132   3.841  0.00  0.00    -0.097 F 
ATOM      8  F1  UNL d   1      -5.146  -0.966   2.738  0.00  0.00    -0.096 F 
ATOM      9  I   UNL d   1      -5.253  -2.065  -0.265  0.00  0.00    -0.060 I 
ATOM     10  F2  UNL d   1      -3.299   0.148  -1.502  0.00  0.00    -0.096 F 
ATOM     11  F3  UNL d   1      -2.002   2.238  -0.370  0.00  0.00    -0.097 F 
ATOM     12  F4  UNL d   1      -2.262   2.741   2.299  0.00  0.00    -0.092 F 
ENDROOT
TORSDOF 0
ENDMDL
