MODEL 1
REMARK minimizedAffinity 1.34513605
REMARK minimizedRMSD -1
REMARK  0 active torsions:
REMARK  status: ('A' for Active; 'I' for Inactive)
ROOT
ATOM      1  C   UNL d   1      -0.404   0.093  -1.978  0.00  0.00     0.124 A 
ATOM      2  C1  UNL d   1       0.629  -0.558  -1.319  0.00  0.00     0.062 A 
ATOM      3  C2  UNL d   1       0.587  -0.719   0.063  0.00  0.00     0.162 A 
ATOM      4  C3  UNL d   1      -0.495  -0.230   0.795  0.00  0.00    -0.034 A 
ATOM      5  C4  UNL d   1      -1.530   0.424   0.125  0.00  0.00     0.162 A 
ATOM      6  C5  UNL d   1      -1.483   0.583  -1.256  0.00  0.00     0.062 A 
ATOM      7  F   UNL d   1      -2.483   1.212  -1.891  0.00  0.00    -0.097 F 
ATOM      8  F1  UNL d   1      -2.585   0.907   0.799  0.00  0.00    -0.096 F 
ATOM      9  I   UNL d   1      -0.563  -0.470   2.861  0.00  0.00    -0.060 I 
ATOM     10  F2  UNL d   1       1.599  -1.352   0.673  0.00  0.00    -0.096 F 
ATOM     11  F3  UNL d   1       1.673  -1.032  -2.015  0.00  0.00    -0.097 F 
ATOM     12  F4  UNL d   1      -0.360   0.248  -3.308  0.00  0.00    -0.092 F 
ENDROOT
TORSDOF 0
ENDMDL
