MODEL 1
REMARK minimizedAffinity -2.46460485
REMARK minimizedRMSD -1
REMARK  0 active torsions:
REMARK  status: ('A' for Active; 'I' for Inactive)
ROOT
ATOM      1  C   UNL d   1      -0.900   0.380  -2.097  0.00  0.00     0.124 A 
ATOM      2  C1  UNL d   1       0.375   0.362  -1.547  0.00  0.00     0.062 A 
ATOM      3  C2  UNL d   1       0.542   0.333  -0.166  0.00  0.00     0.162 A 
ATOM      4  C3  UNL d   1      -0.570   0.320   0.677  0.00  0.00    -0.034 A 
ATOM      5  C4  UNL d   1      -1.849   0.339   0.117  0.00  0.00     0.162 A 
ATOM      6  C5  UNL d   1      -2.010   0.368  -1.264  0.00  0.00     0.062 A 
ATOM      7  F   UNL d   1      -3.242   0.386  -1.793  0.00  0.00    -0.097 F 
ATOM      8  F1  UNL d   1      -2.939   0.327   0.898  0.00  0.00    -0.096 F 
ATOM      9  I   UNL d   1      -0.325   0.276   2.743  0.00  0.00    -0.060 I 
ATOM     10  F2  UNL d   1       1.785   0.316   0.337  0.00  0.00    -0.096 F 
ATOM     11  F3  UNL d   1       1.449   0.374  -2.350  0.00  0.00    -0.097 F 
ATOM     12  F4  UNL d   1      -1.057   0.409  -3.426  0.00  0.00    -0.092 F 
ENDROOT
TORSDOF 0
ENDMDL
