MODEL 1
REMARK minimizedAffinity -2.08638144
REMARK minimizedRMSD -1
REMARK  0 active torsions:
REMARK  status: ('A' for Active; 'I' for Inactive)
ROOT
ATOM      1  C   UNL d   1      -0.443   0.543   1.915  0.00  0.00     0.124 A 
ATOM      2  C1  UNL d   1      -1.148   0.728   0.734  0.00  0.00     0.062 A 
ATOM      3  C2  UNL d   1      -0.727   0.107  -0.438  0.00  0.00     0.162 A 
ATOM      4  C3  UNL d   1       0.405  -0.708  -0.434  0.00  0.00    -0.034 A 
ATOM      5  C4  UNL d   1       1.109  -0.890   0.757  0.00  0.00     0.162 A 
ATOM      6  C5  UNL d   1       0.684  -0.266   1.926  0.00  0.00     0.062 A 
ATOM      7  F   UNL d   1       1.367  -0.447   3.066  0.00  0.00    -0.097 F 
ATOM      8  F1  UNL d   1       2.202  -1.667   0.796  0.00  0.00    -0.096 F 
ATOM      9  I   UNL d   1       1.038  -1.640  -2.184  0.00  0.00    -0.060 I 
ATOM     10  F2  UNL d   1      -1.428   0.304  -1.565  0.00  0.00    -0.096 F 
ATOM     11  F3  UNL d   1      -2.238   1.510   0.721  0.00  0.00    -0.097 F 
ATOM     12  F4  UNL d   1      -0.850   1.143   3.041  0.00  0.00    -0.092 F 
ENDROOT
TORSDOF 0
ENDMDL
