MODEL 1
REMARK minimizedAffinity -1.57284403
REMARK minimizedRMSD -1
REMARK  0 active torsions:
REMARK  status: ('A' for Active; 'I' for Inactive)
ROOT
ATOM      1  C   UNL d   1       1.138  -0.301   2.095  0.00  0.00     0.124 A 
ATOM      2  C1  UNL d   1       1.763   0.161   0.945  0.00  0.00     0.062 A 
ATOM      3  C2  UNL d   1       1.029   0.354  -0.222  0.00  0.00     0.162 A 
ATOM      4  C3  UNL d   1      -0.340   0.086  -0.244  0.00  0.00    -0.034 A 
ATOM      5  C4  UNL d   1      -0.962  -0.379   0.916  0.00  0.00     0.162 A 
ATOM      6  C5  UNL d   1      -0.224  -0.571   2.079  0.00  0.00     0.062 A 
ATOM      7  F   UNL d   1      -0.830  -1.017   3.189  0.00  0.00    -0.097 F 
ATOM      8  F1  UNL d   1      -2.276  -0.647   0.929  0.00  0.00    -0.096 F 
ATOM      9  I   UNL d   1      -1.441   0.374  -1.987  0.00  0.00    -0.060 I 
ATOM     10  F2  UNL d   1       1.659   0.802  -1.318  0.00  0.00    -0.096 F 
ATOM     11  F3  UNL d   1       3.078   0.421   0.958  0.00  0.00    -0.097 F 
ATOM     12  F4  UNL d   1       1.846  -0.488   3.216  0.00  0.00    -0.092 F 
ENDROOT
TORSDOF 0
ENDMDL
