MODEL 1
REMARK minimizedAffinity -0.629406571
REMARK minimizedRMSD -1
REMARK  0 active torsions:
REMARK  status: ('A' for Active; 'I' for Inactive)
ROOT
ATOM      1  C   UNL d   1      -0.185   0.686   1.842  0.00  0.00     0.124 A 
ATOM      2  C1  UNL d   1      -0.967   0.834   0.705  0.00  0.00     0.062 A 
ATOM      3  C2  UNL d   1      -0.542   0.307  -0.511  0.00  0.00     0.162 A 
ATOM      4  C3  UNL d   1       0.672  -0.375  -0.597  0.00  0.00    -0.034 A 
ATOM      5  C4  UNL d   1       1.454  -0.519   0.550  0.00  0.00     0.162 A 
ATOM      6  C5  UNL d   1       1.025   0.010   1.764  0.00  0.00     0.062 A 
ATOM      7  F   UNL d   1       1.782  -0.134   2.861  0.00  0.00    -0.097 F 
ATOM      8  F1  UNL d   1       2.627  -1.168   0.503  0.00  0.00    -0.096 F 
ATOM      9  I   UNL d   1       1.311  -1.164  -2.413  0.00  0.00    -0.060 I 
ATOM     10  F2  UNL d   1      -1.319   0.465  -1.593  0.00  0.00    -0.096 F 
ATOM     11  F3  UNL d   1      -2.136   1.487   0.778  0.00  0.00    -0.097 F 
ATOM     12  F4  UNL d   1      -0.595   1.195   3.010  0.00  0.00    -0.092 F 
ENDROOT
TORSDOF 0
ENDMDL
