MODEL 1
REMARK minimizedAffinity 1.28288698
REMARK minimizedRMSD -1
REMARK  0 active torsions:
REMARK  status: ('A' for Active; 'I' for Inactive)
ROOT
ATOM      1  C   UNL d   1      -0.526  -0.071  -1.898  0.00  0.00     0.124 A 
ATOM      2  C1  UNL d   1      -1.506   0.546  -1.133  0.00  0.00     0.062 A 
ATOM      3  C2  UNL d   1      -1.335   0.692   0.240  0.00  0.00     0.162 A 
ATOM      4  C3  UNL d   1      -0.177   0.221   0.859  0.00  0.00    -0.034 A 
ATOM      5  C4  UNL d   1       0.804  -0.400   0.084  0.00  0.00     0.162 A 
ATOM      6  C5  UNL d   1       0.628  -0.543  -1.288  0.00  0.00     0.062 A 
ATOM      7  F   UNL d   1       1.577  -1.139  -2.025  0.00  0.00    -0.097 F 
ATOM      8  F1  UNL d   1       1.929  -0.864   0.647  0.00  0.00    -0.096 F 
ATOM      9  I   UNL d   1       0.082   0.437   2.913  0.00  0.00    -0.060 I 
ATOM     10  F2  UNL d   1      -2.299   1.292   0.954  0.00  0.00    -0.096 F 
ATOM     11  F3  UNL d   1      -2.623   1.003  -1.720  0.00  0.00    -0.097 F 
ATOM     12  F4  UNL d   1      -0.693  -0.210  -3.219  0.00  0.00    -0.092 F 
ENDROOT
TORSDOF 0
ENDMDL
