MODEL 1
REMARK minimizedAffinity -1.04707122
REMARK minimizedRMSD -1
REMARK  0 active torsions:
REMARK  status: ('A' for Active; 'I' for Inactive)
ROOT
ATOM      1  C   UNL d   1      -1.261   0.231   0.393  0.00  0.00     0.124 A 
ATOM      2  C1  UNL d   1      -0.297  -0.551   1.014  0.00  0.00     0.062 A 
ATOM      3  C2  UNL d   1       0.740  -1.106   0.270  0.00  0.00     0.162 A 
ATOM      4  C3  UNL d   1       0.820  -0.880  -1.104  0.00  0.00    -0.034 A 
ATOM      5  C4  UNL d   1      -0.154  -0.093  -1.722  0.00  0.00     0.162 A 
ATOM      6  C5  UNL d   1      -1.188   0.460  -0.974  0.00  0.00     0.062 A 
ATOM      7  F   UNL d   1      -2.119   1.215  -1.576  0.00  0.00    -0.097 F 
ATOM      8  F1  UNL d   1      -0.107   0.145  -3.041  0.00  0.00    -0.096 F 
ATOM      9  I   UNL d   1       2.369  -1.708  -2.221  0.00  0.00    -0.060 I 
ATOM     10  F2  UNL d   1       1.657  -1.858   0.896  0.00  0.00    -0.096 F 
ATOM     11  F3  UNL d   1      -0.365  -0.774   2.334  0.00  0.00    -0.097 F 
ATOM     12  F4  UNL d   1      -2.258   0.763   1.111  0.00  0.00    -0.092 F 
ENDROOT
TORSDOF 0
ENDMDL
