MODEL 1
REMARK minimizedAffinity -3.1526351
REMARK minimizedRMSD -1
REMARK  1 active torsions:
REMARK  status: ('A' for Active; 'I' for Inactive)
REMARK    1  A    between atoms: C1_2  and  C2_3 
ROOT
ATOM      1  C2  UNL d   1      -0.531  -1.265  -1.814  0.00  0.00    -0.081 A 
ATOM      2  C3  UNL d   1       0.513  -0.393  -1.481  0.00  0.00     0.006 A 
ATOM      3  C4  UNL d   1       1.294   0.192  -2.480  0.00  0.00     0.002 A 
ATOM      4  C5  UNL d   1       1.040  -0.079  -3.829  0.00  0.00    -0.080 A 
ATOM      5  C6  UNL d   1       1.852   0.566  -4.913  0.00  0.00     0.076 C 
ATOM      6  C7  UNL d   1       0.009  -0.964  -4.162  0.00  0.00     0.002 A 
ATOM      7  C8  UNL d   1      -0.772  -1.549  -3.163  0.00  0.00     0.006 A 
ENDROOT
BRANCH   1   8
ATOM      8  C1  UNL d   1      -1.416  -1.846  -0.742  0.00  0.00     0.054 C 
ATOM      9  C   UNL d   1      -1.847  -3.264  -1.089  0.00  0.00     0.018 C 
ENDBRANCH   1   8
TORSDOF 1
ENDMDL
