MODEL 1
REMARK minimizedAffinity -0.908078134
REMARK minimizedRMSD -1
REMARK  1 active torsions:
REMARK  status: ('A' for Active; 'I' for Inactive)
REMARK    1  A    between atoms: C1_2  and  C2_3 
ROOT
ATOM      1  C2  UNL d   1      -1.131  -1.357  -0.837  0.00  0.00    -0.081 A 
ATOM      2  C3  UNL d   1      -1.249  -2.604  -1.464  0.00  0.00     0.006 A 
ATOM      3  C4  UNL d   1      -2.449  -3.316  -1.404  0.00  0.00     0.002 A 
ATOM      4  C5  UNL d   1      -3.553  -2.791  -0.724  0.00  0.00    -0.080 A 
ATOM      5  C6  UNL d   1      -4.856  -3.532  -0.678  0.00  0.00     0.076 C 
ATOM      6  C7  UNL d   1      -3.430  -1.554  -0.083  0.00  0.00     0.002 A 
ATOM      7  C8  UNL d   1      -2.230  -0.841  -0.142  0.00  0.00     0.006 A 
ENDROOT
BRANCH   1   8
ATOM      8  C1  UNL d   1       0.141  -0.558  -0.955  0.00  0.00     0.054 C 
ATOM      9  C   UNL d   1       0.229   0.505   0.131  0.00  0.00     0.018 C 
ENDBRANCH   1   8
TORSDOF 1
ENDMDL
