MODEL 1
REMARK minimizedAffinity -3.68720007
REMARK minimizedRMSD -1
REMARK  1 active torsions:
REMARK  status: ('A' for Active; 'I' for Inactive)
REMARK    1  A    between atoms: C1_2  and  C2_3 
ROOT
ATOM      1  C2  UNL d   1      -0.639  -1.121  -0.584  0.00  0.00    -0.081 A 
ATOM      2  C3  UNL d   1       0.665  -0.773  -0.209  0.00  0.00     0.006 A 
ATOM      3  C4  UNL d   1       0.886   0.223   0.745  0.00  0.00     0.002 A 
ATOM      4  C5  UNL d   1      -0.192   0.881   1.346  0.00  0.00    -0.080 A 
ATOM      5  C6  UNL d   1       0.030   1.931   2.395  0.00  0.00     0.076 C 
ATOM      6  C7  UNL d   1      -1.494   0.546   0.960  0.00  0.00     0.002 A 
ATOM      7  C8  UNL d   1      -1.716  -0.449   0.005  0.00  0.00     0.006 A 
ENDROOT
BRANCH   1   8
ATOM      8  C1  UNL d   1      -0.882  -2.239  -1.566  0.00  0.00     0.054 C 
ATOM      9  C   UNL d   1      -2.150  -3.007  -1.225  0.00  0.00     0.018 C 
ENDBRANCH   1   8
TORSDOF 1
ENDMDL
