MODEL 1
REMARK minimizedAffinity -2.531322
REMARK minimizedRMSD -1
REMARK  1 active torsions:
REMARK  status: ('A' for Active; 'I' for Inactive)
REMARK    1  A    between atoms: C1_2  and  C2_3 
ROOT
ATOM      1  C2  UNL d   1       0.707  -0.179  -2.065  0.00  0.00    -0.081 A 
ATOM      2  C3  UNL d   1      -0.134   0.783  -1.491  0.00  0.00     0.006 A 
ATOM      3  C4  UNL d   1      -0.262   0.874  -0.103  0.00  0.00     0.002 A 
ATOM      4  C5  UNL d   1       0.453   0.011   0.734  0.00  0.00    -0.080 A 
ATOM      5  C6  UNL d   1       0.348   0.118   2.226  0.00  0.00     0.076 C 
ATOM      6  C7  UNL d   1       1.280  -0.961   0.161  0.00  0.00     0.002 A 
ATOM      7  C8  UNL d   1       1.408  -1.053  -1.227  0.00  0.00     0.006 A 
ENDROOT
BRANCH   1   8
ATOM      8  C1  UNL d   1       0.897  -0.237  -3.559  0.00  0.00     0.054 C 
ATOM      9  C   UNL d   1       1.415   1.087  -4.103  0.00  0.00     0.018 C 
ENDBRANCH   1   8
TORSDOF 1
ENDMDL
