MODEL 1
REMARK minimizedAffinity -0.360886544
REMARK minimizedRMSD -1
REMARK  1 active torsions:
REMARK  status: ('A' for Active; 'I' for Inactive)
REMARK    1  A    between atoms: C1_2  and  C2_3 
ROOT
ATOM      1  C2  UNL d   1       1.184  -0.148  -1.713  0.00  0.00    -0.081 A 
ATOM      2  C3  UNL d   1       0.299   0.905  -1.452  0.00  0.00     0.006 A 
ATOM      3  C4  UNL d   1      -0.161   1.138  -0.154  0.00  0.00     0.002 A 
ATOM      4  C5  UNL d   1       0.262   0.327   0.905  0.00  0.00    -0.080 A 
ATOM      5  C6  UNL d   1      -0.201   0.584   2.308  0.00  0.00     0.076 C 
ATOM      6  C7  UNL d   1       1.131  -0.737   0.641  0.00  0.00     0.002 A 
ATOM      7  C8  UNL d   1       1.591  -0.970  -0.657  0.00  0.00     0.006 A 
ENDROOT
BRANCH   1   8
ATOM      8  C1  UNL d   1       1.732  -0.362  -3.101  0.00  0.00     0.054 C 
ATOM      9  C   UNL d   1       1.972   0.963  -3.811  0.00  0.00     0.018 C 
ENDBRANCH   1   8
TORSDOF 1
ENDMDL
