MODEL 1
REMARK minimizedAffinity -0.924828827
REMARK minimizedRMSD -1
REMARK  1 active torsions:
REMARK  status: ('A' for Active; 'I' for Inactive)
REMARK    1  A    between atoms: C1_2  and  C2_3 
ROOT
ATOM      1  C2  UNL d   1      -0.918  -1.307  -0.695  0.00  0.00    -0.081 A 
ATOM      2  C3  UNL d   1       0.414  -0.955  -0.441  0.00  0.00     0.006 A 
ATOM      3  C4  UNL d   1       0.716   0.083   0.443  0.00  0.00     0.002 A 
ATOM      4  C5  UNL d   1      -0.307   0.781   1.094  0.00  0.00    -0.080 A 
ATOM      5  C6  UNL d   1       0.005   1.877   2.070  0.00  0.00     0.076 C 
ATOM      6  C7  UNL d   1      -1.638   0.441   0.828  0.00  0.00     0.002 A 
ATOM      7  C8  UNL d   1      -1.940  -0.596  -0.057  0.00  0.00     0.006 A 
ENDROOT
BRANCH   1   8
ATOM      8  C1  UNL d   1      -1.245  -2.468  -1.599  0.00  0.00     0.054 C 
ATOM      9  C   UNL d   1      -2.639  -3.011  -1.318  0.00  0.00     0.018 C 
ENDBRANCH   1   8
TORSDOF 1
ENDMDL
