MODEL 1
REMARK minimizedAffinity 6.71222401
REMARK minimizedRMSD -1
REMARK  1 active torsions:
REMARK  status: ('A' for Active; 'I' for Inactive)
REMARK    1  A    between atoms: N_2  and  C1_3 
ROOT
ATOM      1  C1  UNL d   1       2.646  -3.253   4.729  0.00  0.00     0.143 A 
ATOM      2  C2  UNL d   1       3.245  -4.272   3.982  0.00  0.00    -0.057 A 
ATOM      3  C3  UNL d   1       2.944  -5.619   4.218  0.00  0.00     0.033 A 
ATOM      4  C4  UNL d   1       2.055  -5.972   5.228  0.00  0.00    -0.042 A 
ATOM      5  C5  UNL d   1       1.466  -4.977   6.000  0.00  0.00     0.033 A 
ATOM      6  C6  UNL d   1       1.767  -3.633   5.755  0.00  0.00    -0.057 A 
ENDROOT
BRANCH   1   7
ATOM      7  N   UNL d   1       2.978  -1.901   4.608  0.00  0.00    -0.732 N 
ATOM      8  C   UNL d   1       2.411  -1.094   3.549  0.00  0.00     0.284 C 
ATOM      9  H3  UNL d   1       3.026  -1.431   5.509  0.00  0.00     0.395 HD
ENDBRANCH   1   7
TORSDOF 1
ENDMDL
