MODEL 1
REMARK minimizedAffinity -2.08498573
REMARK minimizedRMSD -1
REMARK  1 active torsions:
REMARK  status: ('A' for Active; 'I' for Inactive)
REMARK    1  A    between atoms: N_2  and  C1_3 
ROOT
ATOM      1  C1  UNL d   1       5.306   2.390  -5.151  0.00  0.00     0.143 A 
ATOM      2  C2  UNL d   1       3.934   2.362  -4.876  0.00  0.00    -0.057 A 
ATOM      3  C3  UNL d   1       3.287   1.169  -4.533  0.00  0.00     0.033 A 
ATOM      4  C4  UNL d   1       3.996  -0.027  -4.488  0.00  0.00    -0.042 A 
ATOM      5  C5  UNL d   1       5.355  -0.027  -4.783  0.00  0.00     0.033 A 
ATOM      6  C6  UNL d   1       5.998   1.169  -5.117  0.00  0.00    -0.057 A 
ENDROOT
BRANCH   1   7
ATOM      7  N   UNL d   1       5.987   3.527  -5.593  0.00  0.00    -0.732 N 
ATOM      8  C   UNL d   1       5.987   4.740  -4.803  0.00  0.00     0.284 C 
ATOM      9  H3  UNL d   1       6.888   3.302  -6.009  0.00  0.00     0.395 HD
ENDBRANCH   1   7
TORSDOF 1
ENDMDL
