MODEL 1
REMARK minimizedAffinity 7.16574097
REMARK minimizedRMSD -1
REMARK  1 active torsions:
REMARK  status: ('A' for Active; 'I' for Inactive)
REMARK    1  A    between atoms: N_2  and  C1_3 
ROOT
ATOM      1  C1  UNL d   1       3.577  -1.724   4.004  0.00  0.00     0.143 A 
ATOM      2  C2  UNL d   1       2.372  -2.432   4.067  0.00  0.00    -0.057 A 
ATOM      3  C3  UNL d   1       1.307  -2.130   3.209  0.00  0.00     0.033 A 
ATOM      4  C4  UNL d   1       1.419  -1.092   2.290  0.00  0.00    -0.042 A 
ATOM      5  C5  UNL d   1       2.598  -0.359   2.227  0.00  0.00     0.033 A 
ATOM      6  C6  UNL d   1       3.660  -0.669   3.082  0.00  0.00    -0.057 A 
ENDROOT
BRANCH   1   7
ATOM      7  N   UNL d   1       4.636  -1.910   4.896  0.00  0.00    -0.732 N 
ATOM      8  C   UNL d   1       5.999  -1.982   4.416  0.00  0.00     0.284 C 
ATOM      9  H3  UNL d   1       4.524  -1.370   5.751  0.00  0.00     0.395 HD
ENDBRANCH   1   7
TORSDOF 1
ENDMDL
