MODEL 1
REMARK minimizedAffinity 5.69874954
REMARK minimizedRMSD -1
REMARK  1 active torsions:
REMARK  status: ('A' for Active; 'I' for Inactive)
REMARK    1  A    between atoms: N_2  and  C1_3 
ROOT
ATOM      1  C1  UNL d   1       2.386  -0.994   3.105  0.00  0.00     0.143 A 
ATOM      2  C2  UNL d   1       1.947   0.110   2.366  0.00  0.00    -0.057 A 
ATOM      3  C3  UNL d   1       2.698   0.613   1.297  0.00  0.00     0.033 A 
ATOM      4  C4  UNL d   1       3.920   0.036   0.965  0.00  0.00    -0.042 A 
ATOM      5  C5  UNL d   1       4.387  -1.047   1.701  0.00  0.00     0.033 A 
ATOM      6  C6  UNL d   1       3.629  -1.549   2.764  0.00  0.00    -0.057 A 
ENDROOT
BRANCH   1   7
ATOM      7  N   UNL d   1       1.732  -1.480   4.240  0.00  0.00    -0.732 N 
ATOM      8  C   UNL d   1       2.480  -2.104   5.310  0.00  0.00     0.284 C 
ATOM      9  H3  UNL d   1       0.992  -0.858   4.558  0.00  0.00     0.395 HD
ENDBRANCH   1   7
TORSDOF 1
ENDMDL
