MODEL 1
REMARK minimizedAffinity 1.75326395
REMARK minimizedRMSD -1
REMARK  1 active torsions:
REMARK  status: ('A' for Active; 'I' for Inactive)
REMARK    1  A    between atoms: N_2  and  C1_3 
ROOT
ATOM      1  C1  UNL d   1       2.866  -3.409  -2.633  0.00  0.00     0.143 A 
ATOM      2  C2  UNL d   1       3.822  -4.247  -3.217  0.00  0.00    -0.057 A 
ATOM      3  C3  UNL d   1       4.057  -5.535  -2.721  0.00  0.00     0.033 A 
ATOM      4  C4  UNL d   1       3.358  -5.999  -1.612  0.00  0.00    -0.042 A 
ATOM      5  C5  UNL d   1       2.421  -5.174  -1.000  0.00  0.00     0.033 A 
ATOM      6  C6  UNL d   1       2.186  -3.891  -1.504  0.00  0.00    -0.057 A 
ENDROOT
BRANCH   1   7
ATOM      7  N   UNL d   1       2.656  -2.082  -3.018  0.00  0.00    -0.732 N 
ATOM      8  C   UNL d   1       3.742  -1.127  -2.993  0.00  0.00     0.284 C 
ATOM      9  H3  UNL d   1       2.053  -2.006  -3.834  0.00  0.00     0.395 HD
ENDBRANCH   1   7
TORSDOF 1
ENDMDL
