MODEL 1
REMARK minimizedAffinity -4.65087509
REMARK minimizedRMSD -1
REMARK  1 active torsions:
REMARK  status: ('A' for Active; 'I' for Inactive)
REMARK    1  A    between atoms: C1_2  and  C2_3 
ROOT
ATOM      1  C2  UNL d   1       0.429   1.225   0.398  0.00  0.00    -0.073 A 
ATOM      2  C3  UNL d   1       0.545   1.120  -0.993  0.00  0.00    -0.002 A 
ATOM      3  C4  UNL d   1       0.019   0.014  -1.662  0.00  0.00     0.004 A 
ATOM      4  C5  UNL d   1      -0.632  -0.993  -0.950  0.00  0.00    -0.004 A 
ATOM      5  C6  UNL d   1      -0.768  -0.900   0.439  0.00  0.00    -0.075 A 
ATOM      6  C7  UNL d   1      -1.464  -1.976   1.220  0.00  0.00     0.076 C 
ATOM      7  C8  UNL d   1      -0.235   0.212   1.104  0.00  0.00     0.001 A 
ENDROOT
BRANCH   1   8
ATOM      8  C1  UNL d   1       0.989   2.421   1.124  0.00  0.00     0.053 C 
ATOM      9  C   UNL d   1       0.299   3.712   0.713  0.00  0.00     0.018 C 
ENDBRANCH   1   8
TORSDOF 1
ENDMDL
