MODEL 1
REMARK minimizedAffinity -2.0719409
REMARK minimizedRMSD -1
REMARK  1 active torsions:
REMARK  status: ('A' for Active; 'I' for Inactive)
REMARK    1  A    between atoms: C1_2  and  C2_3 
ROOT
ATOM      1  C2  UNL d   1       0.146   0.884   0.063  0.00  0.00    -0.073 A 
ATOM      2  C3  UNL d   1      -0.767   0.585   1.080  0.00  0.00    -0.002 A 
ATOM      3  C4  UNL d   1      -1.044  -0.742   1.411  0.00  0.00     0.004 A 
ATOM      4  C5  UNL d   1      -0.406  -1.782   0.735  0.00  0.00    -0.004 A 
ATOM      5  C6  UNL d   1       0.519  -1.503  -0.277  0.00  0.00    -0.075 A 
ATOM      6  C7  UNL d   1       1.211  -2.610  -1.016  0.00  0.00     0.076 C 
ATOM      7  C8  UNL d   1       0.789  -0.168  -0.605  0.00  0.00     0.001 A 
ENDROOT
BRANCH   1   8
ATOM      8  C1  UNL d   1       0.453   2.316  -0.294  0.00  0.00     0.053 C 
ATOM      9  C   UNL d   1       1.356   2.978   0.735  0.00  0.00     0.018 C 
ENDBRANCH   1   8
TORSDOF 1
ENDMDL
