MODEL 1
REMARK minimizedAffinity -0.746828258
REMARK minimizedRMSD -1
REMARK  1 active torsions:
REMARK  status: ('A' for Active; 'I' for Inactive)
REMARK    1  A    between atoms: C1_2  and  C2_3 
ROOT
ATOM      1  C2  UNL d   1      -0.260   1.235   0.216  0.00  0.00    -0.073 A 
ATOM      2  C3  UNL d   1       0.314   1.030  -1.044  0.00  0.00    -0.002 A 
ATOM      3  C4  UNL d   1       0.413  -0.258  -1.572  0.00  0.00     0.004 A 
ATOM      4  C5  UNL d   1      -0.067  -1.351  -0.851  0.00  0.00    -0.004 A 
ATOM      5  C6  UNL d   1      -0.654  -1.165   0.404  0.00  0.00    -0.075 A 
ATOM      6  C7  UNL d   1      -1.173  -2.331   1.194  0.00  0.00     0.076 C 
ATOM      7  C8  UNL d   1      -0.747   0.131   0.929  0.00  0.00     0.001 A 
ENDROOT
BRANCH   1   8
ATOM      8  C1  UNL d   1      -0.375   2.624   0.788  0.00  0.00     0.053 C 
ATOM      9  C   UNL d   1       0.965   3.344   0.811  0.00  0.00     0.018 C 
ENDBRANCH   1   8
TORSDOF 1
ENDMDL
