MODEL 1
REMARK minimizedAffinity 0.635545075
REMARK minimizedRMSD -1
REMARK  1 active torsions:
REMARK  status: ('A' for Active; 'I' for Inactive)
REMARK    1  A    between atoms: C1_2  and  C2_3 
ROOT
ATOM      1  C2  UNL d   1       5.813  -3.507   3.201  0.00  0.00    -0.073 A 
ATOM      2  C3  UNL d   1       5.624  -4.666   3.963  0.00  0.00    -0.002 A 
ATOM      3  C4  UNL d   1       5.564  -4.592   5.355  0.00  0.00     0.004 A 
ATOM      4  C5  UNL d   1       5.686  -3.361   5.999  0.00  0.00    -0.004 A 
ATOM      5  C6  UNL d   1       5.863  -2.190   5.255  0.00  0.00    -0.075 A 
ATOM      6  C7  UNL d   1       5.998  -0.858   5.932  0.00  0.00     0.076 C 
ATOM      7  C8  UNL d   1       5.925  -2.273   3.857  0.00  0.00     0.001 A 
ENDROOT
BRANCH   1   8
ATOM      8  C1  UNL d   1       5.871  -3.581   1.697  0.00  0.00     0.053 C 
ATOM      9  C   UNL d   1       5.997  -2.205   1.064  0.00  0.00     0.018 C 
ENDBRANCH   1   8
TORSDOF 1
ENDMDL
