MODEL 1
REMARK minimizedAffinity -2.74964881
REMARK minimizedRMSD -1
REMARK  1 active torsions:
REMARK  status: ('A' for Active; 'I' for Inactive)
REMARK    1  A    between atoms: C1_2  and  C2_3 
ROOT
ATOM      1  C2  UNL d   1       0.548   0.923  -0.204  0.00  0.00    -0.073 A 
ATOM      2  C3  UNL d   1       0.653   0.887  -1.599  0.00  0.00    -0.002 A 
ATOM      3  C4  UNL d   1       0.273  -0.255  -2.305  0.00  0.00     0.004 A 
ATOM      4  C5  UNL d   1      -0.222  -1.368  -1.626  0.00  0.00    -0.004 A 
ATOM      5  C6  UNL d   1      -0.346  -1.347  -0.233  0.00  0.00    -0.075 A 
ATOM      6  C7  UNL d   1      -0.875  -2.536   0.513  0.00  0.00     0.076 C 
ATOM      7  C8  UNL d   1       0.041  -0.197   0.470  0.00  0.00     0.001 A 
ENDROOT
BRANCH   1   8
ATOM      8  C1  UNL d   1       0.952   2.156   0.563  0.00  0.00     0.053 C 
ATOM      9  C   UNL d   1       2.354   2.620   0.200  0.00  0.00     0.018 C 
ENDBRANCH   1   8
TORSDOF 1
ENDMDL
