MODEL 1
REMARK minimizedAffinity -2.51881075
REMARK minimizedRMSD -1
REMARK  1 active torsions:
REMARK  status: ('A' for Active; 'I' for Inactive)
REMARK    1  A    between atoms: C1_2  and  C2_3 
ROOT
ATOM      1  C2  UNL d   1       0.001   0.077  -0.531  0.00  0.00    -0.073 A 
ATOM      2  C3  UNL d   1      -0.474   0.216   0.778  0.00  0.00    -0.002 A 
ATOM      3  C4  UNL d   1      -1.017  -0.879   1.450  0.00  0.00     0.004 A 
ATOM      4  C5  UNL d   1      -1.084  -2.124   0.825  0.00  0.00    -0.004 A 
ATOM      5  C6  UNL d   1      -0.604  -2.286  -0.479  0.00  0.00    -0.075 A 
ATOM      6  C7  UNL d   1      -0.671  -3.618  -1.166  0.00  0.00     0.076 C 
ATOM      7  C8  UNL d   1      -0.062  -1.180  -1.148  0.00  0.00     0.001 A 
ENDROOT
BRANCH   1   8
ATOM      8  C1  UNL d   1       0.594   1.256  -1.259  0.00  0.00     0.053 C 
ATOM      9  C   UNL d   1       0.871   2.423  -0.325  0.00  0.00     0.018 C 
ENDBRANCH   1   8
TORSDOF 1
ENDMDL
