MODEL 1
REMARK minimizedAffinity -3.34967852
REMARK minimizedRMSD -1
REMARK  1 active torsions:
REMARK  status: ('A' for Active; 'I' for Inactive)
REMARK    1  A    between atoms: C1_2  and  C2_3 
ROOT
ATOM      1  C2  UNL d   1       1.075   1.583   0.898  0.00  0.00    -0.073 A 
ATOM      2  C3  UNL d   1       0.770   2.160  -0.340  0.00  0.00    -0.002 A 
ATOM      3  C4  UNL d   1      -0.025   1.475  -1.260  0.00  0.00     0.004 A 
ATOM      4  C5  UNL d   1      -0.528   0.212  -0.950  0.00  0.00    -0.004 A 
ATOM      5  C6  UNL d   1      -0.243  -0.377   0.286  0.00  0.00    -0.075 A 
ATOM      6  C7  UNL d   1      -0.775  -1.736   0.634  0.00  0.00     0.076 C 
ATOM      7  C8  UNL d   1       0.558   0.316   1.204  0.00  0.00     0.001 A 
ENDROOT
BRANCH   1   8
ATOM      8  C1  UNL d   1       1.928   2.321   1.897  0.00  0.00     0.053 C 
ATOM      9  C   UNL d   1       2.795   3.380   1.235  0.00  0.00     0.018 C 
ENDBRANCH   1   8
TORSDOF 1
ENDMDL
