MODEL 1
REMARK minimizedAffinity -4.544034
REMARK minimizedRMSD -1
REMARK  1 active torsions:
REMARK  status: ('A' for Active; 'I' for Inactive)
REMARK    1  A    between atoms: C1_2  and  C2_3 
ROOT
ATOM      1  C2  UNL d   1       0.417   1.191  -0.604  0.00  0.00    -0.073 A 
ATOM      2  C3  UNL d   1       0.511   0.926  -1.975  0.00  0.00    -0.002 A 
ATOM      3  C4  UNL d   1       0.275  -0.361  -2.462  0.00  0.00     0.004 A 
ATOM      4  C5  UNL d   1      -0.065  -1.392  -1.586  0.00  0.00    -0.004 A 
ATOM      5  C6  UNL d   1      -0.176  -1.144  -0.214  0.00  0.00    -0.075 A 
ATOM      6  C7  UNL d   1      -0.538  -2.242   0.742  0.00  0.00     0.076 C 
ATOM      7  C8  UNL d   1       0.066   0.150   0.268  0.00  0.00     0.001 A 
ENDROOT
BRANCH   1   8
ATOM      8  C1  UNL d   1       0.665   2.579  -0.074  0.00  0.00     0.053 C 
ATOM      9  C   UNL d   1       2.146   2.921  -0.041  0.00  0.00     0.018 C 
ENDBRANCH   1   8
TORSDOF 1
ENDMDL
