MODEL 1
REMARK minimizedAffinity -2.71181035
REMARK minimizedRMSD -1
REMARK  0 active torsions:
REMARK  status: ('A' for Active; 'I' for Inactive)
ROOT
ATOM      1  O1  BZF d   1       0.338   1.626  -0.628  0.00  0.00    -0.204 OA
ATOM      2  C2  BZF d   1      -1.036   1.514  -0.716  0.00  0.00     0.174 A 
ATOM      3  C3  BZF d   1      -1.416   0.221  -0.654  0.00  0.00    -0.012 A 
ATOM      4  C3A BZF d   1      -0.210  -0.514  -0.427  0.00  0.00    -0.107 A 
ATOM      5  C4  BZF d   1       0.062  -1.842  -0.259  0.00  0.00     0.055 A 
ATOM      6  C5  BZF d   1       1.355  -2.240  -0.130  0.00  0.00    -0.016 A 
ATOM      7  C6  BZF d   1       2.400  -1.339  -0.169  0.00  0.00     0.022 A 
ATOM      8  C7  BZF d   1       2.179  -0.012  -0.329  0.00  0.00     0.029 A 
ATOM      9  C7A BZF d   1       0.871   0.397  -0.426  0.00  0.00     0.058 A 
ENDROOT
TORSDOF 0
ENDMDL
