MODEL 1
REMARK minimizedAffinity -5.01469612
REMARK minimizedRMSD -1
REMARK  0 active torsions:
REMARK  status: ('A' for Active; 'I' for Inactive)
ROOT
ATOM      1  O1  BZF d   1       0.751   1.928  -0.100  0.00  0.00    -0.204 OA
ATOM      2  C2  BZF d   1      -0.511   1.370  -0.173  0.00  0.00     0.174 A 
ATOM      3  C3  BZF d   1      -0.435   0.026  -0.253  0.00  0.00    -0.012 A 
ATOM      4  C3A BZF d   1       0.957  -0.281  -0.136  0.00  0.00    -0.107 A 
ATOM      5  C4  BZF d   1       1.664  -1.449  -0.127  0.00  0.00     0.055 A 
ATOM      6  C5  BZF d   1       3.021  -1.400  -0.070  0.00  0.00    -0.016 A 
ATOM      7  C6  BZF d   1       3.703  -0.201  -0.026  0.00  0.00     0.022 A 
ATOM      8  C7  BZF d   1       3.045   0.983  -0.027  0.00  0.00     0.029 A 
ATOM      9  C7A BZF d   1       1.673   0.936  -0.051  0.00  0.00     0.058 A 
ENDROOT
TORSDOF 0
ENDMDL
