MODEL 1
REMARK minimizedAffinity -2.70610905
REMARK minimizedRMSD -1
REMARK  0 active torsions:
REMARK  status: ('A' for Active; 'I' for Inactive)
ROOT
ATOM      1  O1  BZF d   1       3.299   0.434  -0.129  0.00  0.00    -0.204 OA
ATOM      2  C2  BZF d   1       3.675  -0.895  -0.157  0.00  0.00     0.174 A 
ATOM      3  C3  BZF d   1       2.594  -1.700  -0.106  0.00  0.00    -0.012 A 
ATOM      4  C3A BZF d   1       1.467  -0.818  -0.135  0.00  0.00    -0.107 A 
ATOM      5  C4  BZF d   1       0.117  -1.020  -0.125  0.00  0.00     0.055 A 
ATOM      6  C5  BZF d   1      -0.712   0.056  -0.088  0.00  0.00    -0.016 A 
ATOM      7  C6  BZF d   1      -0.225   1.347  -0.055  0.00  0.00     0.022 A 
ATOM      8  C7  BZF d   1       1.107   1.597  -0.069  0.00  0.00     0.029 A 
ATOM      9  C7A BZF d   1       1.946   0.512  -0.140  0.00  0.00     0.058 A 
ENDROOT
TORSDOF 0
ENDMDL
