MODEL 1
REMARK minimizedAffinity -5.28859758
REMARK minimizedRMSD -1
REMARK  0 active torsions:
REMARK  status: ('A' for Active; 'I' for Inactive)
ROOT
ATOM      1  O1  BZF d   1       1.740  -2.767  -0.451  0.00  0.00    -0.204 OA
ATOM      2  C2  BZF d   1       0.410  -3.067  -0.677  0.00  0.00     0.174 A 
ATOM      3  C3  BZF d   1      -0.345  -1.950  -0.644  0.00  0.00    -0.012 A 
ATOM      4  C3A BZF d   1       0.582  -0.874  -0.473  0.00  0.00    -0.107 A 
ATOM      5  C4  BZF d   1       0.441   0.481  -0.382  0.00  0.00     0.055 A 
ATOM      6  C5  BZF d   1       1.540   1.245  -0.144  0.00  0.00    -0.016 A 
ATOM      7  C6  BZF d   1       2.792   0.688   0.014  0.00  0.00     0.022 A 
ATOM      8  C7  BZF d   1       2.982  -0.652  -0.072  0.00  0.00     0.029 A 
ATOM      9  C7A BZF d   1       1.879  -1.423  -0.346  0.00  0.00     0.058 A 
ENDROOT
TORSDOF 0
ENDMDL
