MODEL 1
REMARK minimizedAffinity -1.62697601
REMARK minimizedRMSD -1
REMARK  0 active torsions:
REMARK  status: ('A' for Active; 'I' for Inactive)
ROOT
ATOM      1  O1  BZF d   1      -1.261   0.611   1.394  0.00  0.00    -0.204 OA
ATOM      2  C2  BZF d   1      -1.766   1.042   0.182  0.00  0.00     0.174 A 
ATOM      3  C3  BZF d   1      -1.037   0.552  -0.841  0.00  0.00    -0.012 A 
ATOM      4  C3A BZF d   1      -0.068  -0.309  -0.234  0.00  0.00    -0.107 A 
ATOM      5  C4  BZF d   1       0.931  -1.097  -0.732  0.00  0.00     0.055 A 
ATOM      6  C5  BZF d   1       1.745  -1.756   0.133  0.00  0.00    -0.016 A 
ATOM      7  C6  BZF d   1       1.594  -1.646   1.500  0.00  0.00     0.022 A 
ATOM      8  C7  BZF d   1       0.614  -0.881   2.041  0.00  0.00     0.029 A 
ATOM      9  C7A BZF d   1      -0.232  -0.240   1.168  0.00  0.00     0.058 A 
ENDROOT
TORSDOF 0
ENDMDL
