MODEL 1
REMARK minimizedAffinity -2.45103192
REMARK minimizedRMSD -1
REMARK  0 active torsions:
REMARK  status: ('A' for Active; 'I' for Inactive)
ROOT
ATOM      1  O1  BZF d   1       0.321  -1.764   0.025  0.00  0.00    -0.204 OA
ATOM      2  C2  BZF d   1       1.603  -2.105   0.413  0.00  0.00     0.174 A 
ATOM      3  C3  BZF d   1       2.399  -1.016   0.442  0.00  0.00    -0.012 A 
ATOM      4  C3A BZF d   1       1.540   0.087   0.137  0.00  0.00    -0.107 A 
ATOM      5  C4  BZF d   1       1.743   1.433   0.031  0.00  0.00     0.055 A 
ATOM      6  C5  BZF d   1       0.710   2.228  -0.354  0.00  0.00    -0.016 A 
ATOM      7  C6  BZF d   1      -0.535   1.711  -0.645  0.00  0.00     0.022 A 
ATOM      8  C7  BZF d   1      -0.786   0.382  -0.550  0.00  0.00     0.029 A 
ATOM      9  C7A BZF d   1       0.247  -0.420  -0.129  0.00  0.00     0.058 A 
ENDROOT
TORSDOF 0
ENDMDL
