MODEL 1
REMARK minimizedAffinity 1.08201253
REMARK minimizedRMSD -1
REMARK  0 active torsions:
REMARK  status: ('A' for Active; 'I' for Inactive)
ROOT
ATOM      1  O1  BZF d   1      -0.218  -0.748  -1.822  0.00  0.00    -0.204 OA
ATOM      2  C2  BZF d   1      -0.118  -1.857  -1.004  0.00  0.00     0.174 A 
ATOM      3  C3  BZF d   1       0.328  -1.510   0.220  0.00  0.00    -0.012 A 
ATOM      4  C3A BZF d   1       0.431  -0.083   0.193  0.00  0.00    -0.107 A 
ATOM      5  C4  BZF d   1       0.805   0.849   1.119  0.00  0.00     0.055 A 
ATOM      6  C5  BZF d   1       0.866   2.156   0.752  0.00  0.00    -0.016 A 
ATOM      7  C6  BZF d   1       0.565   2.565  -0.531  0.00  0.00     0.022 A 
ATOM      8  C7  BZF d   1       0.185   1.677  -1.482  0.00  0.00     0.029 A 
ATOM      9  C7A BZF d   1       0.090   0.360  -1.106  0.00  0.00     0.058 A 
ENDROOT
TORSDOF 0
ENDMDL
