MODEL 1
REMARK minimizedAffinity 7.14580536
REMARK minimizedRMSD -1
REMARK  0 active torsions:
REMARK  status: ('A' for Active; 'I' for Inactive)
ROOT
ATOM      1  C   UNL d   1      -0.447   4.123  -1.159  0.00  0.00     0.020 A 
ATOM      2  C1  UNL d   1       0.056   2.850  -0.892  0.00  0.00     0.020 A 
ATOM      3  C2  UNL d   1      -0.239   2.222   0.319  0.00  0.00     0.034 A 
ATOM      4  C3  UNL d   1      -1.040   2.866   1.269  0.00  0.00     0.017 A 
ATOM      5  C4  UNL d   1      -1.545   4.144   1.001  0.00  0.00     0.017 A 
ATOM      6  C5  UNL d   1      -1.246   4.768  -0.214  0.00  0.00     0.034 A 
ATOM      7 Cl   UNL d   1      -2.540   5.002   2.124  0.00  0.00    -0.070 Cl
ATOM      8 Cl1  UNL d   1      -1.365   2.030   2.746  0.00  0.00    -0.070 Cl
ENDROOT
TORSDOF 0
ENDMDL
