MODEL 1
REMARK minimizedAffinity 14.2664022
REMARK minimizedRMSD -1
REMARK  0 active torsions:
REMARK  status: ('A' for Active; 'I' for Inactive)
ROOT
ATOM      1  C   UNL d   1      -6.000   2.320  -2.998  0.00  0.00     0.020 A 
ATOM      2  C1  UNL d   1      -5.175   3.375  -3.387  0.00  0.00     0.020 A 
ATOM      3  C2  UNL d   1      -3.909   3.519  -2.816  0.00  0.00     0.034 A 
ATOM      4  C3  UNL d   1      -3.464   2.607  -1.852  0.00  0.00     0.017 A 
ATOM      5  C4  UNL d   1      -4.293   1.548  -1.462  0.00  0.00     0.017 A 
ATOM      6  C5  UNL d   1      -5.560   1.409  -2.037  0.00  0.00     0.034 A 
ATOM      7 Cl   UNL d   1      -3.813   0.383  -0.278  0.00  0.00    -0.070 Cl
ATOM      8 Cl1  UNL d   1      -1.887   2.845  -1.188  0.00  0.00    -0.070 Cl
ENDROOT
TORSDOF 0
ENDMDL
