MODEL 1
REMARK minimizedAffinity 8.29769135
REMARK minimizedRMSD -1
REMARK  0 active torsions:
REMARK  status: ('A' for Active; 'I' for Inactive)
ROOT
ATOM      1  C   UNL d   1       4.769  -5.997  -0.910  0.00  0.00     0.020 A 
ATOM      2  C1  UNL d   1       5.648  -4.915  -0.883  0.00  0.00     0.020 A 
ATOM      3  C2  UNL d   1       5.148  -3.611  -0.865  0.00  0.00     0.034 A 
ATOM      4  C3  UNL d   1       3.767  -3.385  -0.874  0.00  0.00     0.017 A 
ATOM      5  C4  UNL d   1       2.886  -4.472  -0.902  0.00  0.00     0.017 A 
ATOM      6  C5  UNL d   1       3.391  -5.776  -0.920  0.00  0.00     0.034 A 
ATOM      7 Cl   UNL d   1       1.169  -4.274  -0.915  0.00  0.00    -0.070 Cl
ATOM      8 Cl1  UNL d   1       3.220  -1.747  -0.850  0.00  0.00    -0.070 Cl
ENDROOT
TORSDOF 0
ENDMDL
