MODEL 1
REMARK minimizedAffinity 18.3495102
REMARK minimizedRMSD -1
REMARK  0 active torsions:
REMARK  status: ('A' for Active; 'I' for Inactive)
ROOT
ATOM      1  C   UNL d   1       5.497  -5.993  -1.391  0.00  0.00     0.020 A 
ATOM      2  C1  UNL d   1       6.000  -5.967  -2.691  0.00  0.00     0.020 A 
ATOM      3  C2  UNL d   1       5.177  -5.579  -3.751  0.00  0.00     0.034 A 
ATOM      4  C3  UNL d   1       3.847  -5.215  -3.511  0.00  0.00     0.017 A 
ATOM      5  C4  UNL d   1       3.343  -5.241  -2.206  0.00  0.00     0.017 A 
ATOM      6  C5  UNL d   1       4.172  -5.631  -1.149  0.00  0.00     0.034 A 
ATOM      7 Cl   UNL d   1       1.713  -4.806  -1.833  0.00  0.00    -0.070 Cl
ATOM      8 Cl1  UNL d   1       2.886  -4.744  -4.868  0.00  0.00    -0.070 Cl
ENDROOT
TORSDOF 0
ENDMDL
