MODEL 1
REMARK minimizedAffinity 2.51609278
REMARK minimizedRMSD -1
REMARK  2 active torsions:
REMARK  status: ('A' for Active; 'I' for Inactive)
REMARK    1  A    between atoms: C1_2  and  C2_3 
REMARK    2  A    between atoms: C2_3  and  C3_4 
ROOT
ATOM      1  C3  UNL d   1       3.823  -5.937  -3.545  0.00  0.00    -0.075 A 
ATOM      2  C4  UNL d   1       5.224  -5.940  -3.587  0.00  0.00     0.002 A 
ATOM      3  C5  UNL d   1       5.897  -5.870  -4.808  0.00  0.00     0.002 A 
ATOM      4  C6  UNL d   1       5.178  -5.807  -5.999  0.00  0.00    -0.004 A 
ATOM      5  C7  UNL d   1       3.785  -5.820  -5.970  0.00  0.00     0.002 A 
ATOM      6  C8  UNL d   1       3.110  -5.885  -4.750  0.00  0.00     0.002 A 
ENDROOT
BRANCH   1   7
ATOM      7  C2  UNL d   1       3.089  -5.982  -2.226  0.00  0.00     0.056 C 
BRANCH   7   8
ATOM      8  C1  UNL d   1       3.727  -5.125  -1.128  0.00  0.00     0.007 C 
ATOM      9  C   UNL d   1       4.299  -5.947   0.019  0.00  0.00     0.009 C 
ENDBRANCH   7   8
ENDBRANCH   1   7
TORSDOF 2
ENDMDL
