MODEL 1
REMARK minimizedAffinity 5.88766336
REMARK minimizedRMSD -1
REMARK  2 active torsions:
REMARK  status: ('A' for Active; 'I' for Inactive)
REMARK    1  A    between atoms: C1_2  and  C2_3 
REMARK    2  A    between atoms: C2_3  and  C3_4 
ROOT
ATOM      1  C3  UNL d   1      -3.019  -1.671  -3.387  0.00  0.00    -0.075 A 
ATOM      2  C4  UNL d   1      -3.725  -1.876  -2.192  0.00  0.00     0.002 A 
ATOM      3  C5  UNL d   1      -3.776  -0.877  -1.219  0.00  0.00     0.002 A 
ATOM      4  C6  UNL d   1      -3.115   0.332  -1.422  0.00  0.00    -0.004 A 
ATOM      5  C7  UNL d   1      -2.397   0.540  -2.598  0.00  0.00     0.002 A 
ATOM      6  C8  UNL d   1      -2.348  -0.455  -3.575  0.00  0.00     0.002 A 
ENDROOT
BRANCH   1   7
ATOM      7  C2  UNL d   1      -2.985  -2.736  -4.457  0.00  0.00     0.056 C 
BRANCH   7   8
ATOM      8  C1  UNL d   1      -3.818  -3.979  -4.126  0.00  0.00     0.007 C 
ATOM      9  C   UNL d   1      -5.101  -4.077  -4.940  0.00  0.00     0.009 C 
ENDBRANCH   7   8
ENDBRANCH   1   7
TORSDOF 2
ENDMDL
