MODEL 1
REMARK minimizedAffinity 5.59525776
REMARK minimizedRMSD -1
REMARK  2 active torsions:
REMARK  status: ('A' for Active; 'I' for Inactive)
REMARK    1  A    between atoms: C1_2  and  C2_3 
REMARK    2  A    between atoms: C2_3  and  C3_4 
ROOT
ATOM      1  C3  UNL d   1       3.225   0.329   2.279  0.00  0.00    -0.075 A 
ATOM      2  C4  UNL d   1       3.038   1.692   2.007  0.00  0.00     0.002 A 
ATOM      3  C5  UNL d   1       2.428   2.525   2.945  0.00  0.00     0.002 A 
ATOM      4  C6  UNL d   1       1.988   2.005   4.161  0.00  0.00    -0.004 A 
ATOM      5  C7  UNL d   1       2.154   0.649   4.435  0.00  0.00     0.002 A 
ATOM      6  C8  UNL d   1       2.768  -0.185   3.500  0.00  0.00     0.002 A 
ENDROOT
BRANCH   1   7
ATOM      7  C2  UNL d   1       3.911  -0.572   1.280  0.00  0.00     0.056 C 
BRANCH   7   8
ATOM      8  C1  UNL d   1       4.334  -1.929   1.852  0.00  0.00     0.007 C 
ATOM      9  C   UNL d   1       5.795  -1.972   2.281  0.00  0.00     0.009 C 
ENDBRANCH   7   8
ENDBRANCH   1   7
TORSDOF 2
ENDMDL
