MODEL 1
REMARK minimizedAffinity 8.70534801
REMARK minimizedRMSD -1
REMARK  2 active torsions:
REMARK  status: ('A' for Active; 'I' for Inactive)
REMARK    1  A    between atoms: C1_2  and  C2_3 
REMARK    2  A    between atoms: C2_3  and  C3_4 
ROOT
ATOM      1  C3  UNL d   1       2.525  -5.908   0.717  0.00  0.00    -0.075 A 
ATOM      2  C4  UNL d   1       1.345  -5.920  -0.042  0.00  0.00     0.002 A 
ATOM      3  C5  UNL d   1       1.400  -5.968  -1.436  0.00  0.00     0.002 A 
ATOM      4  C6  UNL d   1       2.632  -5.994  -2.087  0.00  0.00    -0.004 A 
ATOM      5  C7  UNL d   1       3.810  -5.965  -1.343  0.00  0.00     0.002 A 
ATOM      6  C8  UNL d   1       3.758  -5.922   0.051  0.00  0.00     0.002 A 
ENDROOT
BRANCH   1   7
ATOM      7  C2  UNL d   1       2.472  -5.886   2.226  0.00  0.00     0.056 C 
BRANCH   7   8
ATOM      8  C1  UNL d   1       3.194  -4.692   2.858  0.00  0.00     0.007 C 
ATOM      9  C   UNL d   1       2.537  -3.356   2.540  0.00  0.00     0.009 C 
ENDBRANCH   7   8
ENDBRANCH   1   7
TORSDOF 2
ENDMDL
