MODEL 1
REMARK minimizedAffinity -0.785351038
REMARK minimizedRMSD -1
REMARK  2 active torsions:
REMARK  status: ('A' for Active; 'I' for Inactive)
REMARK    1  A    between atoms: C1_2  and  C2_3 
REMARK    2  A    between atoms: C2_3  and  C3_4 
ROOT
ATOM      1  C3  UNL d   1       4.011  -5.983  -1.157  0.00  0.00    -0.075 A 
ATOM      2  C4  UNL d   1       2.963  -6.000  -2.088  0.00  0.00     0.002 A 
ATOM      3  C5  UNL d   1       1.635  -5.969  -1.661  0.00  0.00     0.002 A 
ATOM      4  C6  UNL d   1       1.339  -5.932  -0.300  0.00  0.00    -0.004 A 
ATOM      5  C7  UNL d   1       2.372  -5.932   0.634  0.00  0.00     0.002 A 
ATOM      6  C8  UNL d   1       3.702  -5.958   0.210  0.00  0.00     0.002 A 
ENDROOT
BRANCH   1   7
ATOM      7  C2  UNL d   1       5.451  -5.987  -1.613  0.00  0.00     0.056 C 
BRANCH   7   8
ATOM      8  C1  UNL d   1       5.684  -5.266  -2.946  0.00  0.00     0.007 C 
ATOM      9  C   UNL d   1       5.122  -3.851  -2.969  0.00  0.00     0.009 C 
ENDBRANCH   7   8
ENDBRANCH   1   7
TORSDOF 2
ENDMDL
