MODEL 1
REMARK minimizedAffinity 4.94484901
REMARK minimizedRMSD -1
REMARK  2 active torsions:
REMARK  status: ('A' for Active; 'I' for Inactive)
REMARK    1  A    between atoms: C1_2  and  C2_3 
REMARK    2  A    between atoms: C2_3  and  C3_4 
ROOT
ATOM      1  C3  UNL d   1       1.889  -0.502   2.907  0.00  0.00    -0.075 A 
ATOM      2  C4  UNL d   1       1.579   0.865   2.953  0.00  0.00     0.002 A 
ATOM      3  C5  UNL d   1       2.261   1.774   2.144  0.00  0.00     0.002 A 
ATOM      4  C6  UNL d   1       3.267   1.331   1.287  0.00  0.00    -0.004 A 
ATOM      5  C7  UNL d   1       3.594  -0.023   1.246  0.00  0.00     0.002 A 
ATOM      6  C8  UNL d   1       2.910  -0.935   2.051  0.00  0.00     0.002 A 
ENDROOT
BRANCH   1   7
ATOM      7  C2  UNL d   1       1.134  -1.494   3.759  0.00  0.00     0.056 C 
BRANCH   7   8
ATOM      8  C1  UNL d   1       1.497  -1.442   5.246  0.00  0.00     0.007 C 
ATOM      9  C   UNL d   1       1.125  -2.713   6.000  0.00  0.00     0.009 C 
ENDBRANCH   7   8
ENDBRANCH   1   7
TORSDOF 2
ENDMDL
