MODEL 1
REMARK minimizedAffinity 7.65005732
REMARK minimizedRMSD -1
REMARK  2 active torsions:
REMARK  status: ('A' for Active; 'I' for Inactive)
REMARK    1  A    between atoms: C1_2  and  C2_3 
REMARK    2  A    between atoms: C2_3  and  C3_4 
ROOT
ATOM      1  C3  UNL d   1       2.770  -5.900  -0.525  0.00  0.00    -0.075 A 
ATOM      2  C4  UNL d   1       4.172  -5.856  -0.501  0.00  0.00     0.002 A 
ATOM      3  C5  UNL d   1       4.901  -5.868  -1.691  0.00  0.00     0.002 A 
ATOM      4  C6  UNL d   1       4.240  -5.935  -2.916  0.00  0.00    -0.004 A 
ATOM      5  C7  UNL d   1       2.849  -5.996  -2.950  0.00  0.00     0.002 A 
ATOM      6  C8  UNL d   1       2.116  -5.980  -1.762  0.00  0.00     0.002 A 
ENDROOT
BRANCH   1   7
ATOM      7  C2  UNL d   1       1.974  -5.858   0.758  0.00  0.00     0.056 C 
BRANCH   7   8
ATOM      8  C1  UNL d   1       2.817  -5.572   2.005  0.00  0.00     0.007 C 
ATOM      9  C   UNL d   1       2.089  -5.884   3.306  0.00  0.00     0.009 C 
ENDBRANCH   7   8
ENDBRANCH   1   7
TORSDOF 2
ENDMDL
