MODEL 1
REMARK minimizedAffinity 5.96629953
REMARK minimizedRMSD -1
REMARK  2 active torsions:
REMARK  status: ('A' for Active; 'I' for Inactive)
REMARK    1  A    between atoms: C1_2  and  C2_3 
REMARK    2  A    between atoms: C2_3  and  C3_4 
ROOT
ATOM      1  C3  UNL d   1       0.245   1.041   0.031  0.00  0.00    -0.075 A 
ATOM      2  C4  UNL d   1       0.658   0.033   0.914  0.00  0.00     0.002 A 
ATOM      3  C5  UNL d   1       1.163  -1.173   0.427  0.00  0.00     0.002 A 
ATOM      4  C6  UNL d   1       1.251  -1.390  -0.946  0.00  0.00    -0.004 A 
ATOM      5  C7  UNL d   1       0.828  -0.403  -1.833  0.00  0.00     0.002 A 
ATOM      6  C8  UNL d   1       0.327   0.807  -1.348  0.00  0.00     0.002 A 
ENDROOT
BRANCH   1   7
ATOM      7  C2  UNL d   1      -0.274   2.360   0.552  0.00  0.00     0.056 C 
BRANCH   7   8
ATOM      8  C1  UNL d   1       0.514   3.579   0.060  0.00  0.00     0.007 C 
ATOM      9  C   UNL d   1      -0.302   4.865   0.071  0.00  0.00     0.009 C 
ENDBRANCH   7   8
ENDBRANCH   1   7
TORSDOF 2
ENDMDL
