MODEL 1
REMARK minimizedAffinity -3.3228724
REMARK minimizedRMSD -1
REMARK  2 active torsions:
REMARK  status: ('A' for Active; 'I' for Inactive)
REMARK    1  A    between atoms: C1_2  and  C2_3 
REMARK    2  A    between atoms: C2_3  and  C3_4 
ROOT
ATOM      1  C3  UNL d   1       5.752  -1.772  -5.247  0.00  0.00    -0.075 A 
ATOM      2  C4  UNL d   1       5.344  -1.663  -3.909  0.00  0.00     0.002 A 
ATOM      3  C5  UNL d   1       5.089  -0.412  -3.346  0.00  0.00     0.002 A 
ATOM      4  C6  UNL d   1       5.249   0.744  -4.108  0.00  0.00    -0.004 A 
ATOM      5  C7  UNL d   1       5.670   0.648  -5.433  0.00  0.00     0.002 A 
ATOM      6  C8  UNL d   1       5.921  -0.602  -6.000  0.00  0.00     0.002 A 
ENDROOT
BRANCH   1   7
ATOM      7  C2  UNL d   1       6.000  -3.124  -5.871  0.00  0.00     0.056 C 
BRANCH   7   8
ATOM      8  C1  UNL d   1       4.839  -4.111  -5.705  0.00  0.00     0.007 C 
ATOM      9  C   UNL d   1       5.291  -5.563  -5.626  0.00  0.00     0.009 C 
ENDBRANCH   7   8
ENDBRANCH   1   7
TORSDOF 2
ENDMDL
