MODEL 1
REMARK minimizedAffinity -2.83455181
REMARK minimizedRMSD -1
REMARK  2 active torsions:
REMARK  status: ('A' for Active; 'I' for Inactive)
REMARK    1  A    between atoms: C1_2  and  C2_3 
REMARK    2  A    between atoms: C2_3  and  C3_4 
ROOT
ATOM      1  C3  UNL d   1       5.569  -2.180  -5.194  0.00  0.00    -0.075 A 
ATOM      2  C4  UNL d   1       5.194  -2.056  -3.848  0.00  0.00     0.002 A 
ATOM      3  C5  UNL d   1       4.823  -0.817  -3.327  0.00  0.00     0.002 A 
ATOM      4  C6  UNL d   1       4.831   0.315  -4.140  0.00  0.00    -0.004 A 
ATOM      5  C7  UNL d   1       5.217   0.207  -5.475  0.00  0.00     0.002 A 
ATOM      6  C8  UNL d   1       5.585  -1.033  -6.000  0.00  0.00     0.002 A 
ENDROOT
BRANCH   1   7
ATOM      7  C2  UNL d   1       5.944  -3.524  -5.772  0.00  0.00     0.056 C 
BRANCH   7   8
ATOM      8  C1  UNL d   1       4.751  -4.459  -5.999  0.00  0.00     0.007 C 
ATOM      9  C   UNL d   1       5.060  -5.915  -5.676  0.00  0.00     0.009 C 
ENDBRANCH   7   8
ENDBRANCH   1   7
TORSDOF 2
ENDMDL
