MODEL 1
REMARK minimizedAffinity -2.52042747
REMARK minimizedRMSD -1
REMARK  0 active torsions:
REMARK  status: ('A' for Active; 'I' for Inactive)
ROOT
ATOM      1  C   UNL d   1      -1.739   2.075   1.703  0.00  0.00     0.078 C 
ATOM      2  C1  UNL d   1      -0.912   1.359   0.677  0.00  0.00    -0.077 A 
ATOM      3  C2  UNL d   1      -0.626  -0.005   0.806  0.00  0.00    -0.001 A 
ATOM      4  C3  UNL d   1       0.154  -0.656  -0.152  0.00  0.00     0.003 A 
ATOM      5  C4  UNL d   1       0.656   0.050  -1.243  0.00  0.00    -0.005 A 
ATOM      6  C5  UNL d   1       0.378   1.408  -1.378  0.00  0.00     0.003 A 
ATOM      7  C6  UNL d   1      -0.401   2.061  -0.422  0.00  0.00    -0.001 A 
ENDROOT
TORSDOF 0
ENDMDL
