MODEL 1
REMARK minimizedAffinity 3.78136539
REMARK minimizedRMSD -1
REMARK  0 active torsions:
REMARK  status: ('A' for Active; 'I' for Inactive)
ROOT
ATOM      1  C   UNL d   1       0.890  -1.017   1.825  0.00  0.00     0.078 C 
ATOM      2  C1  UNL d   1       0.234  -0.340   0.659  0.00  0.00    -0.077 A 
ATOM      3  C2  UNL d   1       0.404   1.031   0.433  0.00  0.00    -0.001 A 
ATOM      4  C3  UNL d   1      -0.220   1.651  -0.652  0.00  0.00     0.003 A 
ATOM      5  C4  UNL d   1      -1.019   0.907  -1.517  0.00  0.00    -0.005 A 
ATOM      6  C5  UNL d   1      -1.196  -0.458  -1.299  0.00  0.00     0.003 A 
ATOM      7  C6  UNL d   1      -0.573  -1.079  -0.215  0.00  0.00    -0.001 A 
ENDROOT
TORSDOF 0
ENDMDL
