MODEL 1
REMARK minimizedAffinity -5.62179518
REMARK minimizedRMSD -1
REMARK  0 active torsions:
REMARK  status: ('A' for Active; 'I' for Inactive)
ROOT
ATOM      1  C   UNL d   1       0.368  -0.626  -0.752  0.00  0.00     0.078 C 
ATOM      2  C1  UNL d   1      -0.407   0.395   0.027  0.00  0.00    -0.077 A 
ATOM      3  C2  UNL d   1      -0.871   0.117   1.319  0.00  0.00    -0.001 A 
ATOM      4  C3  UNL d   1      -1.599   1.073   2.028  0.00  0.00     0.003 A 
ATOM      5  C4  UNL d   1      -1.871   2.313   1.454  0.00  0.00    -0.005 A 
ATOM      6  C5  UNL d   1      -1.416   2.598   0.169  0.00  0.00     0.003 A 
ATOM      7  C6  UNL d   1      -0.687   1.644  -0.542  0.00  0.00    -0.001 A 
ENDROOT
TORSDOF 0
ENDMDL
