MODEL 1
REMARK minimizedAffinity -2.27037454
REMARK minimizedRMSD -1
REMARK  0 active torsions:
REMARK  status: ('A' for Active; 'I' for Inactive)
ROOT
ATOM      1  C   UNL d   1       1.416  -4.806  -0.215  0.00  0.00     0.078 C 
ATOM      2  C1  UNL d   1       1.182  -3.515  -0.942  0.00  0.00    -0.077 A 
ATOM      3  C2  UNL d   1       0.689  -3.503  -2.252  0.00  0.00    -0.001 A 
ATOM      4  C3  UNL d   1       0.486  -2.294  -2.919  0.00  0.00     0.003 A 
ATOM      5  C4  UNL d   1       0.774  -1.088  -2.285  0.00  0.00    -0.005 A 
ATOM      6  C5  UNL d   1       1.268  -1.089  -0.982  0.00  0.00     0.003 A 
ATOM      7  C6  UNL d   1       1.472  -2.297  -0.313  0.00  0.00    -0.001 A 
ENDROOT
TORSDOF 0
ENDMDL
