MODEL 1
REMARK minimizedAffinity -1.43341231
REMARK minimizedRMSD -1
REMARK  0 active torsions:
REMARK  status: ('A' for Active; 'I' for Inactive)
ROOT
ATOM      1  C   UNL d   1       1.181  -0.540  -0.425  0.00  0.00     0.078 C 
ATOM      2  C1  UNL d   1       0.833  -1.782  -1.191  0.00  0.00    -0.077 A 
ATOM      3  C2  UNL d   1      -0.259  -1.807  -2.067  0.00  0.00    -0.001 A 
ATOM      4  C3  UNL d   1      -0.576  -2.972  -2.766  0.00  0.00     0.003 A 
ATOM      5  C4  UNL d   1       0.192  -4.122  -2.596  0.00  0.00    -0.005 A 
ATOM      6  C5  UNL d   1       1.279  -4.108  -1.724  0.00  0.00     0.003 A 
ATOM      7  C6  UNL d   1       1.598  -2.943  -1.024  0.00  0.00    -0.001 A 
ENDROOT
TORSDOF 0
ENDMDL
