MODEL 1
REMARK minimizedAffinity -5.58916044
REMARK minimizedRMSD -1
REMARK  0 active torsions:
REMARK  status: ('A' for Active; 'I' for Inactive)
ROOT
ATOM      1  C   UNL d   1      -0.250  -0.576   0.028  0.00  0.00     0.078 C 
ATOM      2  C1  UNL d   1      -0.370   0.909   0.201  0.00  0.00    -0.077 A 
ATOM      3  C2  UNL d   1      -1.079   1.454   1.278  0.00  0.00    -0.001 A 
ATOM      4  C3  UNL d   1      -1.191   2.838   1.421  0.00  0.00     0.003 A 
ATOM      5  C4  UNL d   1      -0.597   3.688   0.490  0.00  0.00    -0.005 A 
ATOM      6  C5  UNL d   1       0.109   3.154  -0.586  0.00  0.00     0.003 A 
ATOM      7  C6  UNL d   1       0.222   1.771  -0.731  0.00  0.00    -0.001 A 
ENDROOT
TORSDOF 0
ENDMDL
