MODEL 1
REMARK minimizedAffinity -5.99910927
REMARK minimizedRMSD -1
REMARK  0 active torsions:
REMARK  status: ('A' for Active; 'I' for Inactive)
ROOT
ATOM      1  C   UNL d   1      -0.319   3.136  -0.786  0.00  0.00     0.078 C 
ATOM      2  C1  UNL d   1      -0.638   2.010   0.151  0.00  0.00    -0.077 A 
ATOM      3  C2  UNL d   1      -1.580   2.167   1.174  0.00  0.00    -0.001 A 
ATOM      4  C3  UNL d   1      -1.860   1.112   2.045  0.00  0.00     0.003 A 
ATOM      5  C4  UNL d   1      -1.199  -0.107   1.902  0.00  0.00    -0.005 A 
ATOM      6  C5  UNL d   1      -0.258  -0.272   0.888  0.00  0.00     0.003 A 
ATOM      7  C6  UNL d   1       0.023   0.782   0.017  0.00  0.00    -0.001 A 
ENDROOT
TORSDOF 0
ENDMDL
