MODEL 1
REMARK minimizedAffinity -3.82862854
REMARK minimizedRMSD -1
REMARK  0 active torsions:
REMARK  status: ('A' for Active; 'I' for Inactive)
ROOT
ATOM      1  C   UNL d   1       0.880  -1.128  -0.423  0.00  0.00     0.078 C 
ATOM      2  C1  UNL d   1       0.071  -0.191   0.424  0.00  0.00    -0.077 A 
ATOM      3  C2  UNL d   1      -0.327  -0.549   1.718  0.00  0.00    -0.001 A 
ATOM      4  C3  UNL d   1      -1.088   0.330   2.491  0.00  0.00     0.003 A 
ATOM      5  C4  UNL d   1      -1.459   1.571   1.978  0.00  0.00    -0.005 A 
ATOM      6  C5  UNL d   1      -1.070   1.935   0.690  0.00  0.00     0.003 A 
ATOM      7  C6  UNL d   1      -0.309   1.058  -0.084  0.00  0.00    -0.001 A 
ENDROOT
TORSDOF 0
ENDMDL
