MODEL 1
REMARK minimizedAffinity -4.49415255
REMARK minimizedRMSD -1
REMARK  0 active torsions:
REMARK  status: ('A' for Active; 'I' for Inactive)
ROOT
ATOM      1  C   UNL d   1      -2.125   2.180   1.401  0.00  0.00     0.078 C 
ATOM      2  C1  UNL d   1      -1.123   1.124   1.038  0.00  0.00    -0.077 A 
ATOM      3  C2  UNL d   1      -0.700   0.956  -0.286  0.00  0.00    -0.001 A 
ATOM      4  C3  UNL d   1       0.226  -0.037  -0.611  0.00  0.00     0.003 A 
ATOM      5  C4  UNL d   1       0.735  -0.870   0.382  0.00  0.00    -0.005 A 
ATOM      6  C5  UNL d   1       0.318  -0.712   1.702  0.00  0.00     0.003 A 
ATOM      7  C6  UNL d   1      -0.607   0.280   2.029  0.00  0.00    -0.001 A 
ENDROOT
TORSDOF 0
ENDMDL
