MODEL 1
REMARK minimizedAffinity -3.79836345
REMARK minimizedRMSD -1
REMARK  0 active torsions:
REMARK  status: ('A' for Active; 'I' for Inactive)
ROOT
ATOM      1  C   UNL d   1      -0.294   2.185   3.939  0.00  0.00     0.078 C 
ATOM      2  C1  UNL d   1      -0.807   1.671   2.626  0.00  0.00    -0.077 A 
ATOM      3  C2  UNL d   1      -0.464   0.393   2.169  0.00  0.00    -0.001 A 
ATOM      4  C3  UNL d   1      -0.940  -0.069   0.941  0.00  0.00     0.003 A 
ATOM      5  C4  UNL d   1      -1.761   0.742   0.160  0.00  0.00    -0.005 A 
ATOM      6  C5  UNL d   1      -2.106   2.016   0.605  0.00  0.00     0.003 A 
ATOM      7  C6  UNL d   1      -1.630   2.480   1.833  0.00  0.00    -0.001 A 
ENDROOT
TORSDOF 0
ENDMDL
