MODEL 1
REMARK minimizedAffinity -3.40951562
REMARK minimizedRMSD -1
REMARK  0 active torsions:
REMARK  status: ('A' for Active; 'I' for Inactive)
ROOT
ATOM      1  C   UNL d   1       0.891  -0.236  -1.067  0.00  0.00     0.078 C 
ATOM      2  C1  UNL d   1       0.105   0.149   0.151  0.00  0.00    -0.077 A 
ATOM      3  C2  UNL d   1       0.150  -0.630   1.314  0.00  0.00    -0.001 A 
ATOM      4  C3  UNL d   1      -0.595  -0.265   2.436  0.00  0.00     0.003 A 
ATOM      5  C4  UNL d   1      -1.391   0.878   2.407  0.00  0.00    -0.005 A 
ATOM      6  C5  UNL d   1      -1.444   1.658   1.253  0.00  0.00     0.003 A 
ATOM      7  C6  UNL d   1      -0.700   1.295   0.129  0.00  0.00    -0.001 A 
ENDROOT
TORSDOF 0
ENDMDL
