MODEL 1
REMARK minimizedAffinity -2.82746267
REMARK minimizedRMSD -1
REMARK  0 active torsions:
REMARK  status: ('A' for Active; 'I' for Inactive)
ROOT
ATOM      1  C   UNL d   1      -1.605   2.085   0.799  0.00  0.00     0.078 C 
ATOM      2  C1  UNL d   1      -0.801   0.928   0.285  0.00  0.00    -0.077 A 
ATOM      3  C2  UNL d   1      -0.598  -0.214   1.068  0.00  0.00    -0.001 A 
ATOM      4  C3  UNL d   1       0.161  -1.279   0.580  0.00  0.00     0.003 A 
ATOM      5  C4  UNL d   1       0.725  -1.211  -0.692  0.00  0.00    -0.005 A 
ATOM      6  C5  UNL d   1       0.531  -0.077  -1.478  0.00  0.00     0.003 A 
ATOM      7  C6  UNL d   1      -0.228   0.989  -0.992  0.00  0.00    -0.001 A 
ENDROOT
TORSDOF 0
ENDMDL
