MODEL 1
REMARK minimizedAffinity -5.52911377
REMARK minimizedRMSD -1
REMARK  0 active torsions:
REMARK  status: ('A' for Active; 'I' for Inactive)
ROOT
ATOM      1  C   UNL d   1       0.185  -0.594  -0.665  0.00  0.00     0.078 C 
ATOM      2  C1  UNL d   1      -0.329   0.670  -0.042  0.00  0.00    -0.077 A 
ATOM      3  C2  UNL d   1      -0.018   1.921  -0.588  0.00  0.00    -0.001 A 
ATOM      4  C3  UNL d   1      -0.496   3.089   0.008  0.00  0.00     0.003 A 
ATOM      5  C4  UNL d   1      -1.287   3.018   1.153  0.00  0.00    -0.005 A 
ATOM      6  C5  UNL d   1      -1.600   1.777   1.704  0.00  0.00     0.003 A 
ATOM      7  C6  UNL d   1      -1.123   0.608   1.110  0.00  0.00    -0.001 A 
ENDROOT
TORSDOF 0
ENDMDL
