MODEL 1
REMARK minimizedAffinity -3.61872292
REMARK minimizedRMSD -1
REMARK  0 active torsions:
REMARK  status: ('A' for Active; 'I' for Inactive)
ROOT
ATOM      1  C   UNL d   1      -1.466  -0.807   2.549  0.00  0.00     0.077 C 
ATOM      2  C1  UNL d   1      -0.497  -0.425   1.469  0.00  0.00    -0.074 A 
ATOM      3  C2  UNL d   1       0.560   0.453   1.730  0.00  0.00    -0.005 A 
ATOM      4  C3  UNL d   1       1.459   0.792   0.718  0.00  0.00     0.006 A 
ATOM      5  C4  UNL d   1       1.309   0.256  -0.562  0.00  0.00    -0.005 A 
ATOM      6  C5  UNL d   1       0.259  -0.624  -0.841  0.00  0.00    -0.074 A 
ATOM      7  C6  UNL d   1       0.090  -1.216  -2.209  0.00  0.00     0.077 C 
ATOM      8  C7  UNL d   1      -0.636  -0.964   0.183  0.00  0.00    -0.001 A 
ENDROOT
TORSDOF 0
ENDMDL
