MODEL 1
REMARK minimizedAffinity -2.31582737
REMARK minimizedRMSD -1
REMARK  0 active torsions:
REMARK  status: ('A' for Active; 'I' for Inactive)
ROOT
ATOM      1  C   UNL d   1       0.451  -0.508   2.224  0.00  0.00     0.077 C 
ATOM      2  C1  UNL d   1      -0.090  -0.357   0.833  0.00  0.00    -0.074 A 
ATOM      3  C2  UNL d   1      -1.453  -0.139   0.611  0.00  0.00    -0.005 A 
ATOM      4  C3  UNL d   1      -1.940   0.009  -0.688  0.00  0.00     0.006 A 
ATOM      5  C4  UNL d   1      -1.069  -0.060  -1.776  0.00  0.00    -0.005 A 
ATOM      6  C5  UNL d   1       0.298  -0.276  -1.574  0.00  0.00    -0.074 A 
ATOM      7  C6  UNL d   1       1.248  -0.342  -2.732  0.00  0.00     0.077 C 
ATOM      8  C7  UNL d   1       0.780  -0.417  -0.265  0.00  0.00    -0.001 A 
ENDROOT
TORSDOF 0
ENDMDL
