MODEL 1
REMARK minimizedAffinity -4.00306702
REMARK minimizedRMSD -1
REMARK  0 active torsions:
REMARK  status: ('A' for Active; 'I' for Inactive)
ROOT
ATOM      1  C   UNL d   1      -0.227  -0.712  -1.587  0.00  0.00     0.077 C 
ATOM      2  C1  UNL d   1       0.132  -0.410  -0.162  0.00  0.00    -0.074 A 
ATOM      3  C2  UNL d   1       1.296   0.299   0.152  0.00  0.00    -0.005 A 
ATOM      4  C3  UNL d   1       1.611   0.580   1.481  0.00  0.00     0.006 A 
ATOM      5  C4  UNL d   1       0.768   0.156   2.508  0.00  0.00    -0.005 A 
ATOM      6  C5  UNL d   1      -0.401  -0.554   2.214  0.00  0.00    -0.074 A 
ATOM      7  C6  UNL d   1      -1.324  -1.008   3.305  0.00  0.00     0.077 C 
ATOM      8  C7  UNL d   1      -0.715  -0.826   0.875  0.00  0.00    -0.001 A 
ENDROOT
TORSDOF 0
ENDMDL
