MODEL 1
REMARK minimizedAffinity -4.09932566
REMARK minimizedRMSD -1
REMARK  0 active torsions:
REMARK  status: ('A' for Active; 'I' for Inactive)
ROOT
ATOM      1  C   UNL d   1      -0.968  -0.408   1.142  0.00  0.00     0.077 C 
ATOM      2  C1  UNL d   1      -0.364  -0.349  -0.229  0.00  0.00    -0.074 A 
ATOM      3  C2  UNL d   1      -0.413   0.826  -0.987  0.00  0.00    -0.005 A 
ATOM      4  C3  UNL d   1       0.162   0.868  -2.257  0.00  0.00     0.006 A 
ATOM      5  C4  UNL d   1       0.790  -0.262  -2.782  0.00  0.00    -0.005 A 
ATOM      6  C5  UNL d   1       0.850  -1.445  -2.039  0.00  0.00    -0.074 A 
ATOM      7  C6  UNL d   1       1.530  -2.666  -2.584  0.00  0.00     0.077 C 
ATOM      8  C7  UNL d   1       0.276  -1.478  -0.760  0.00  0.00    -0.001 A 
ENDROOT
TORSDOF 0
ENDMDL
