MODEL 1
REMARK minimizedAffinity -2.32206082
REMARK minimizedRMSD -1
REMARK  0 active torsions:
REMARK  status: ('A' for Active; 'I' for Inactive)
ROOT
ATOM      1  C   UNL d   1       0.304  -0.510   2.045  0.00  0.00     0.077 C 
ATOM      2  C1  UNL d   1       0.351  -0.406   0.549  0.00  0.00    -0.074 A 
ATOM      3  C2  UNL d   1      -0.028   0.773  -0.102  0.00  0.00    -0.005 A 
ATOM      4  C3  UNL d   1       0.030   0.858  -1.493  0.00  0.00     0.006 A 
ATOM      5  C4  UNL d   1       0.466  -0.233  -2.246  0.00  0.00    -0.005 A 
ATOM      6  C5  UNL d   1       0.849  -1.420  -1.612  0.00  0.00    -0.074 A 
ATOM      7  C6  UNL d   1       1.330  -2.598  -2.406  0.00  0.00     0.077 C 
ATOM      8  C7  UNL d   1       0.795  -1.495  -0.214  0.00  0.00    -0.001 A 
ENDROOT
TORSDOF 0
ENDMDL
