MODEL 1
REMARK minimizedAffinity -2.44882345
REMARK minimizedRMSD -1
REMARK  0 active torsions:
REMARK  status: ('A' for Active; 'I' for Inactive)
ROOT
ATOM      1  C   UNL d   1      -0.133   0.229   3.172  0.00  0.00     0.077 C 
ATOM      2  C1  UNL d   1       0.073  -0.015   1.707  0.00  0.00    -0.074 A 
ATOM      3  C2  UNL d   1       1.141  -0.795   1.251  0.00  0.00    -0.005 A 
ATOM      4  C3  UNL d   1       1.314  -1.021  -0.115  0.00  0.00     0.006 A 
ATOM      5  C4  UNL d   1       0.423  -0.469  -1.037  0.00  0.00    -0.005 A 
ATOM      6  C5  UNL d   1      -0.650   0.313  -0.599  0.00  0.00    -0.074 A 
ATOM      7  C6  UNL d   1      -1.623   0.904  -1.576  0.00  0.00     0.077 C 
ATOM      8  C7  UNL d   1      -0.822   0.529   0.775  0.00  0.00    -0.001 A 
ENDROOT
TORSDOF 0
ENDMDL
