MODEL 1
REMARK minimizedAffinity -4.0367012
REMARK minimizedRMSD -1
REMARK  0 active torsions:
REMARK  status: ('A' for Active; 'I' for Inactive)
ROOT
ATOM      1  C   UNL d   1       0.404  -0.368  -1.222  0.00  0.00     0.077 C 
ATOM      2  C1  UNL d   1       0.192  -0.239   0.257  0.00  0.00    -0.074 A 
ATOM      3  C2  UNL d   1       1.266  -0.329   1.148  0.00  0.00    -0.005 A 
ATOM      4  C3  UNL d   1       1.054  -0.197   2.521  0.00  0.00     0.006 A 
ATOM      5  C4  UNL d   1      -0.231   0.025   3.015  0.00  0.00    -0.005 A 
ATOM      6  C5  UNL d   1      -1.318   0.119   2.139  0.00  0.00    -0.074 A 
ATOM      7  C6  UNL d   1      -2.705   0.367   2.653  0.00  0.00     0.077 C 
ATOM      8  C7  UNL d   1      -1.096  -0.008   0.761  0.00  0.00    -0.001 A 
ENDROOT
TORSDOF 0
ENDMDL
