MODEL 1
REMARK minimizedAffinity -3.49062347
REMARK minimizedRMSD -1
REMARK  0 active torsions:
REMARK  status: ('A' for Active; 'I' for Inactive)
ROOT
ATOM      1  C   UNL d   1       0.579  -0.303  -1.834  0.00  0.00     0.077 C 
ATOM      2  C1  UNL d   1       0.496  -0.051  -0.358  0.00  0.00    -0.074 A 
ATOM      3  C2  UNL d   1       1.612   0.387   0.361  0.00  0.00    -0.005 A 
ATOM      4  C3  UNL d   1       1.517   0.626   1.732  0.00  0.00     0.006 A 
ATOM      5  C4  UNL d   1       0.306   0.429   2.397  0.00  0.00    -0.005 A 
ATOM      6  C5  UNL d   1      -0.822  -0.008   1.694  0.00  0.00    -0.074 A 
ATOM      7  C6  UNL d   1      -2.134  -0.215   2.391  0.00  0.00     0.077 C 
ATOM      8  C7  UNL d   1      -0.720  -0.239   0.315  0.00  0.00    -0.001 A 
ENDROOT
TORSDOF 0
ENDMDL
