MODEL 1
REMARK minimizedAffinity -4.18149996
REMARK minimizedRMSD -1
REMARK  0 active torsions:
REMARK  status: ('A' for Active; 'I' for Inactive)
ROOT
ATOM      1  C   UNL d   1      -1.748   0.766  -1.408  0.00  0.00     0.077 C 
ATOM      2  C1  UNL d   1      -0.687   0.434  -0.400  0.00  0.00    -0.074 A 
ATOM      3  C2  UNL d   1       0.651   0.770  -0.627  0.00  0.00    -0.005 A 
ATOM      4  C3  UNL d   1       1.624   0.463   0.323  0.00  0.00     0.006 A 
ATOM      5  C4  UNL d   1       1.270  -0.182   1.509  0.00  0.00    -0.005 A 
ATOM      6  C5  UNL d   1      -0.063  -0.526   1.754  0.00  0.00    -0.074 A 
ATOM      7  C6  UNL d   1      -0.463  -1.210   3.027  0.00  0.00     0.077 C 
ATOM      8  C7  UNL d   1      -1.037  -0.207   0.797  0.00  0.00    -0.001 A 
ENDROOT
TORSDOF 0
ENDMDL
