MODEL 1
REMARK minimizedAffinity -3.19968319
REMARK minimizedRMSD -1
REMARK  0 active torsions:
REMARK  status: ('A' for Active; 'I' for Inactive)
ROOT
ATOM      1  C   UNL d   1       0.777  -0.642  -2.058  0.00  0.00     0.077 C 
ATOM      2  C1  UNL d   1       0.320  -0.378  -0.654  0.00  0.00    -0.074 A 
ATOM      3  C2  UNL d   1       1.231  -0.368   0.408  0.00  0.00    -0.005 A 
ATOM      4  C3  UNL d   1       0.793  -0.111   1.707  0.00  0.00     0.006 A 
ATOM      5  C4  UNL d   1      -0.557   0.138   1.958  0.00  0.00    -0.005 A 
ATOM      6  C5  UNL d   1      -1.482   0.133   0.909  0.00  0.00    -0.074 A 
ATOM      7  C6  UNL d   1      -2.935   0.408   1.159  0.00  0.00     0.077 C 
ATOM      8  C7  UNL d   1      -1.033  -0.119  -0.395  0.00  0.00    -0.001 A 
ENDROOT
TORSDOF 0
ENDMDL
