MODEL 1
REMARK minimizedAffinity -3.29496264
REMARK minimizedRMSD -1
REMARK  0 active torsions:
REMARK  status: ('A' for Active; 'I' for Inactive)
ROOT
ATOM      1  C   UNL d   1       0.742   0.122  -2.080  0.00  0.00     0.077 C 
ATOM      2  C1  UNL d   1       0.183  -0.245  -0.737  0.00  0.00    -0.074 A 
ATOM      3  C2  UNL d   1      -0.823  -1.210  -0.617  0.00  0.00    -0.005 A 
ATOM      4  C3  UNL d   1      -1.326  -1.548   0.639  0.00  0.00     0.006 A 
ATOM      5  C4  UNL d   1      -0.830  -0.926   1.785  0.00  0.00    -0.005 A 
ATOM      6  C5  UNL d   1       0.176   0.040   1.685  0.00  0.00    -0.074 A 
ATOM      7  C6  UNL d   1       0.727   0.711   2.908  0.00  0.00     0.077 C 
ATOM      8  C7  UNL d   1       0.681   0.369   0.420  0.00  0.00    -0.001 A 
ENDROOT
TORSDOF 0
ENDMDL
