MODEL 1
REMARK minimizedAffinity -4.74503517
REMARK minimizedRMSD -1
REMARK  0 active torsions:
REMARK  status: ('A' for Active; 'I' for Inactive)
ROOT
ATOM      1  C   UNL d   1      -1.423  -1.033   3.302  0.00  0.00     0.077 C 
ATOM      2  C1  UNL d   1      -0.564  -0.401   2.248  0.00  0.00    -0.074 A 
ATOM      3  C2  UNL d   1       0.495   0.445   2.595  0.00  0.00    -0.005 A 
ATOM      4  C3  UNL d   1       1.292   1.018   1.604  0.00  0.00     0.006 A 
ATOM      5  C4  UNL d   1       1.039   0.752   0.258  0.00  0.00    -0.005 A 
ATOM      6  C5  UNL d   1      -0.015  -0.092  -0.109  0.00  0.00    -0.074 A 
ATOM      7  C6  UNL d   1      -0.294  -0.397  -1.550  0.00  0.00     0.077 C 
ATOM      8  C7  UNL d   1      -0.806  -0.670   0.893  0.00  0.00    -0.001 A 
ENDROOT
TORSDOF 0
ENDMDL
