MODEL 1
REMARK minimizedAffinity -5.12004852
REMARK minimizedRMSD -1
REMARK  0 active torsions:
REMARK  status: ('A' for Active; 'I' for Inactive)
ROOT
ATOM      1  C   UNL d   1       1.161  -2.301  -3.055  0.00  0.00     0.077 C 
ATOM      2  C1  UNL d   1       0.882  -1.194  -2.082  0.00  0.00    -0.074 A 
ATOM      3  C2  UNL d   1       0.863   0.141  -2.499  0.00  0.00    -0.005 A 
ATOM      4  C3  UNL d   1       0.593   1.159  -1.584  0.00  0.00     0.006 A 
ATOM      5  C4  UNL d   1       0.340   0.853  -0.246  0.00  0.00    -0.005 A 
ATOM      6  C5  UNL d   1       0.355  -0.476   0.188  0.00  0.00    -0.074 A 
ATOM      7  C6  UNL d   1       0.076  -0.823   1.621  0.00  0.00     0.077 C 
ATOM      8  C7  UNL d   1       0.620  -1.494  -0.738  0.00  0.00    -0.001 A 
ENDROOT
TORSDOF 0
ENDMDL
