MODEL 1
REMARK minimizedAffinity -3.96565866
REMARK minimizedRMSD -1
REMARK  0 active torsions:
REMARK  status: ('A' for Active; 'I' for Inactive)
ROOT
ATOM      1  C   UNL d   1       1.122   0.154  -2.909  0.00  0.00     0.077 C 
ATOM      2  C1  UNL d   1       0.218   0.054  -1.717  0.00  0.00    -0.074 A 
ATOM      3  C2  UNL d   1      -1.017   0.709  -1.694  0.00  0.00    -0.005 A 
ATOM      4  C3  UNL d   1      -1.851   0.599  -0.582  0.00  0.00     0.006 A 
ATOM      5  C4  UNL d   1      -1.459  -0.166   0.517  0.00  0.00    -0.005 A 
ATOM      6  C5  UNL d   1      -0.228  -0.829   0.512  0.00  0.00    -0.074 A 
ATOM      7  C6  UNL d   1       0.204  -1.663   1.681  0.00  0.00     0.077 C 
ATOM      8  C7  UNL d   1       0.601  -0.719  -0.612  0.00  0.00    -0.001 A 
ENDROOT
TORSDOF 0
ENDMDL
