MODEL 1
REMARK minimizedAffinity -2.63006258
REMARK minimizedRMSD -1
REMARK  0 active torsions:
REMARK  status: ('A' for Active; 'I' for Inactive)
ROOT
ATOM      1  C   UNL d   1       1.077   0.608   1.869  0.00  0.00     0.077 C 
ATOM      2  C1  UNL d   1       0.653  -0.048   0.589  0.00  0.00    -0.074 A 
ATOM      3  C2  UNL d   1      -0.520  -0.806   0.523  0.00  0.00    -0.005 A 
ATOM      4  C3  UNL d   1      -0.906  -1.403  -0.677  0.00  0.00     0.006 A 
ATOM      5  C4  UNL d   1      -0.124  -1.247  -1.822  0.00  0.00    -0.005 A 
ATOM      6  C5  UNL d   1       1.052  -0.492  -1.776  0.00  0.00    -0.074 A 
ATOM      7  C6  UNL d   1       1.899  -0.307  -3.000  0.00  0.00     0.077 C 
ATOM      8  C7  UNL d   1       1.430   0.110  -0.568  0.00  0.00    -0.001 A 
ENDROOT
TORSDOF 0
ENDMDL
