MODEL 1
REMARK minimizedAffinity -3.62679148
REMARK minimizedRMSD -1
REMARK  0 active torsions:
REMARK  status: ('A' for Active; 'I' for Inactive)
ROOT
ATOM      1  C   UNL d   1       1.020  -2.476  -3.003  0.00  0.00     0.077 C 
ATOM      2  C1  UNL d   1       0.632  -1.357  -2.083  0.00  0.00    -0.074 A 
ATOM      3  C2  UNL d   1       0.413  -0.065  -2.574  0.00  0.00    -0.005 A 
ATOM      4  C3  UNL d   1       0.043   0.963  -1.708  0.00  0.00     0.006 A 
ATOM      5  C4  UNL d   1      -0.111   0.712  -0.344  0.00  0.00    -0.005 A 
ATOM      6  C5  UNL d   1       0.102  -0.573   0.165  0.00  0.00    -0.074 A 
ATOM      7  C6  UNL d   1      -0.069  -0.863   1.627  0.00  0.00     0.077 C 
ATOM      8  C7  UNL d   1       0.467  -1.603  -0.713  0.00  0.00    -0.001 A 
ENDROOT
TORSDOF 0
ENDMDL
