MODEL 1
REMARK minimizedAffinity -5.59661818
REMARK minimizedRMSD -1
REMARK  0 active torsions:
REMARK  status: ('A' for Active; 'I' for Inactive)
ROOT
ATOM      1  C   UNL d   1      -2.894   0.758   2.217  0.00  0.00     0.077 C 
ATOM      2  C1  UNL d   1      -1.491   0.399   1.827  0.00  0.00    -0.074 A 
ATOM      3  C2  UNL d   1      -0.540   0.060   2.796  0.00  0.00    -0.005 A 
ATOM      4  C3  UNL d   1       0.758  -0.280   2.418  0.00  0.00     0.006 A 
ATOM      5  C4  UNL d   1       1.119  -0.286   1.070  0.00  0.00    -0.005 A 
ATOM      6  C5  UNL d   1       0.182   0.049   0.087  0.00  0.00    -0.074 A 
ATOM      7  C6  UNL d   1       0.550   0.039  -1.367  0.00  0.00     0.077 C 
ATOM      8  C7  UNL d   1      -1.123   0.384   0.475  0.00  0.00    -0.001 A 
ENDROOT
TORSDOF 0
ENDMDL
