MODEL 1
REMARK minimizedAffinity -1.65045464
REMARK minimizedRMSD -1
REMARK  0 active torsions:
REMARK  status: ('A' for Active; 'I' for Inactive)
ROOT
ATOM      1  C   UNL d   1       0.450  -0.080   2.474  0.00  0.00     0.077 C 
ATOM      2  C1  UNL d   1      -0.069   0.107   1.080  0.00  0.00    -0.074 A 
ATOM      3  C2  UNL d   1      -1.398   0.478   0.851  0.00  0.00    -0.005 A 
ATOM      4  C3  UNL d   1      -1.865   0.657  -0.451  0.00  0.00     0.006 A 
ATOM      5  C4  UNL d   1      -1.008   0.468  -1.536  0.00  0.00    -0.005 A 
ATOM      6  C5  UNL d   1       0.324   0.098  -1.327  0.00  0.00    -0.074 A 
ATOM      7  C6  UNL d   1       1.260  -0.100  -2.482  0.00  0.00     0.077 C 
ATOM      8  C7  UNL d   1       0.787  -0.074  -0.016  0.00  0.00    -0.001 A 
ENDROOT
TORSDOF 0
ENDMDL
