MODEL 1
REMARK minimizedAffinity -2.15572119
REMARK minimizedRMSD -1
REMARK  0 active torsions:
REMARK  status: ('A' for Active; 'I' for Inactive)
ROOT
ATOM      1  C   UNL d   1       0.207  -0.188  -0.167  0.00  0.00     0.077 C 
ATOM      2  C1  UNL d   1       0.724  -0.257  -1.573  0.00  0.00    -0.074 A 
ATOM      3  C2  UNL d   1       1.468   0.795  -2.118  0.00  0.00    -0.005 A 
ATOM      4  C3  UNL d   1       1.951   0.712  -3.424  0.00  0.00     0.006 A 
ATOM      5  C4  UNL d   1       1.695  -0.421  -4.197  0.00  0.00    -0.005 A 
ATOM      6  C5  UNL d   1       0.954  -1.483  -3.668  0.00  0.00    -0.074 A 
ATOM      7  C6  UNL d   1       0.679  -2.713  -4.482  0.00  0.00     0.077 C 
ATOM      8  C7  UNL d   1       0.479  -1.396  -2.353  0.00  0.00    -0.001 A 
ENDROOT
TORSDOF 0
ENDMDL
