MODEL 1
REMARK minimizedAffinity -2.8547864
REMARK minimizedRMSD -1
REMARK  0 active torsions:
REMARK  status: ('A' for Active; 'I' for Inactive)
ROOT
ATOM      1  C   UNL d   1       0.767   0.041  -2.044  0.00  0.00     0.077 C 
ATOM      2  C1  UNL d   1      -0.188   0.092  -0.889  0.00  0.00    -0.074 A 
ATOM      3  C2  UNL d   1      -1.557   0.292  -1.096  0.00  0.00    -0.005 A 
ATOM      4  C3  UNL d   1      -2.434   0.327  -0.012  0.00  0.00     0.006 A 
ATOM      5  C4  UNL d   1      -1.953   0.163   1.288  0.00  0.00    -0.005 A 
ATOM      6  C5  UNL d   1      -0.587  -0.039   1.514  0.00  0.00    -0.074 A 
ATOM      7  C6  UNL d   1      -0.055  -0.227   2.903  0.00  0.00     0.077 C 
ATOM      8  C7  UNL d   1       0.287  -0.080   0.419  0.00  0.00    -0.001 A 
ENDROOT
TORSDOF 0
ENDMDL
