MODEL 1
REMARK minimizedAffinity 19.0210762
REMARK minimizedRMSD -1
REMARK  0 active torsions:
REMARK  status: ('A' for Active; 'I' for Inactive)
ROOT
ATOM      1  O1  BZF d   1       1.635   3.007  -1.767  0.00  0.00    -0.204 OA
ATOM      2  C2  BZF d   1       2.138   1.751  -1.491  0.00  0.00     0.174 A 
ATOM      3  C3  BZF d   1       3.255   1.514  -2.209  0.00  0.00    -0.012 A 
ATOM      4  C3A BZF d   1       3.514   2.732  -2.913  0.00  0.00    -0.107 A 
ATOM      5  C4  BZF d   1       4.495   3.126  -3.778  0.00  0.00     0.055 A 
ATOM      6  C5  BZF d   1       4.419   4.358  -4.346  0.00  0.00    -0.016 A 
ATOM      7  C6  BZF d   1       3.375   5.219  -4.077  0.00  0.00     0.022 A 
ATOM      8  C7  BZF d   1       2.381   4.875  -3.222  0.00  0.00     0.029 A 
ATOM      9  C7A BZF d   1       2.473   3.643  -2.620  0.00  0.00     0.058 A 
ENDROOT
TORSDOF 0
ENDMDL
