MODEL 1
REMARK minimizedAffinity 10.8774633
REMARK minimizedRMSD -1
REMARK  0 active torsions:
REMARK  status: ('A' for Active; 'I' for Inactive)
ROOT
ATOM      1  O1  BZF d   1      -1.915  -1.228  -5.955  0.00  0.00    -0.204 OA
ATOM      2  C2  BZF d   1      -1.066  -2.317  -6.000  0.00  0.00     0.174 A 
ATOM      3  C3  BZF d   1      -1.765  -3.470  -5.970  0.00  0.00    -0.012 A 
ATOM      4  C3A BZF d   1      -3.141  -3.077  -5.996  0.00  0.00    -0.107 A 
ATOM      5  C4  BZF d   1      -4.316  -3.772  -6.000  0.00  0.00     0.055 A 
ATOM      6  C5  BZF d   1      -5.489  -3.087  -5.953  0.00  0.00    -0.016 A 
ATOM      7  C6  BZF d   1      -5.523  -1.709  -5.895  0.00  0.00     0.022 A 
ATOM      8  C7  BZF d   1      -4.383  -0.976  -5.894  0.00  0.00     0.029 A 
ATOM      9  C7A BZF d   1      -3.197  -1.664  -5.975  0.00  0.00     0.058 A 
ENDROOT
TORSDOF 0
ENDMDL
