MODEL 1
REMARK minimizedAffinity 12.6120634
REMARK minimizedRMSD -1
REMARK  0 active torsions:
REMARK  status: ('A' for Active; 'I' for Inactive)
ROOT
ATOM      1  O1  BZF d   1      -1.830   0.370   0.509  0.00  0.00    -0.204 OA
ATOM      2  C2  BZF d   1      -0.964   0.366   1.585  0.00  0.00     0.174 A 
ATOM      3  C3  BZF d   1      -1.617   0.662   2.727  0.00  0.00    -0.012 A 
ATOM      4  C3A BZF d   1      -2.994   0.772   2.355  0.00  0.00    -0.107 A 
ATOM      5  C4  BZF d   1      -4.138   1.035   3.053  0.00  0.00     0.055 A 
ATOM      6  C5  BZF d   1      -5.313   1.145   2.380  0.00  0.00    -0.016 A 
ATOM      7  C6  BZF d   1      -5.380   1.004   1.009  0.00  0.00     0.022 A 
ATOM      8  C7  BZF d   1      -4.273   0.738   0.274  0.00  0.00     0.029 A 
ATOM      9  C7A BZF d   1      -3.090   0.593   0.955  0.00  0.00     0.058 A 
ENDROOT
TORSDOF 0
ENDMDL
