MODEL 1
REMARK minimizedAffinity 15.7809219
REMARK minimizedRMSD -1
REMARK  0 active torsions:
REMARK  status: ('A' for Active; 'I' for Inactive)
ROOT
ATOM      1  O1  BZF d   1       5.334  -1.627   1.811  0.00  0.00    -0.204 OA
ATOM      2  C2  BZF d   1       5.165  -0.267   1.984  0.00  0.00     0.174 A 
ATOM      3  C3  BZF d   1       5.238   0.062   3.290  0.00  0.00    -0.012 A 
ATOM      4  C3A BZF d   1       5.560  -1.157   3.967  0.00  0.00    -0.107 A 
ATOM      5  C4  BZF d   1       5.780  -1.474   5.277  0.00  0.00     0.055 A 
ATOM      6  C5  BZF d   1       5.999  -2.772   5.615  0.00  0.00    -0.016 A 
ATOM      7  C6  BZF d   1       6.000  -3.778   4.672  0.00  0.00     0.022 A 
ATOM      8  C7  BZF d   1       5.791  -3.512   3.359  0.00  0.00     0.029 A 
ATOM      9  C7A BZF d   1       5.602  -2.197   3.010  0.00  0.00     0.058 A 
ENDROOT
TORSDOF 0
ENDMDL
