MODEL 1
REMARK minimizedAffinity 0.491892368
REMARK minimizedRMSD -1
REMARK  0 active torsions:
REMARK  status: ('A' for Active; 'I' for Inactive)
ROOT
ATOM      1  O1  BZF d   1      -2.433   0.486   0.617  0.00  0.00    -0.204 OA
ATOM      2  C2  BZF d   1      -3.375   1.041   1.462  0.00  0.00     0.174 A 
ATOM      3  C3  BZF d   1      -2.832   1.326   2.663  0.00  0.00    -0.012 A 
ATOM      4  C3A BZF d   1      -1.443   1.009   2.533  0.00  0.00    -0.107 A 
ATOM      5  C4  BZF d   1      -0.377   1.092   3.382  0.00  0.00     0.055 A 
ATOM      6  C5  BZF d   1       0.834   0.634   2.970  0.00  0.00    -0.016 A 
ATOM      7  C6  BZF d   1       1.014   0.082   1.719  0.00  0.00     0.022 A 
ATOM      8  C7  BZF d   1      -0.013  -0.017   0.839  0.00  0.00     0.029 A 
ATOM      9  C7A BZF d   1      -1.230   0.476   1.240  0.00  0.00     0.058 A 
ENDROOT
TORSDOF 0
ENDMDL
