MODEL 1
REMARK minimizedAffinity 7.62507296
REMARK minimizedRMSD -1
REMARK  0 active torsions:
REMARK  status: ('A' for Active; 'I' for Inactive)
ROOT
ATOM      1  O1  BZF d   1      -2.496   0.136   3.751  0.00  0.00    -0.204 OA
ATOM      2  C2  BZF d   1      -1.485   1.000   3.379  0.00  0.00     0.174 A 
ATOM      3  C3  BZF d   1      -1.868   1.766   2.337  0.00  0.00    -0.012 A 
ATOM      4  C3A BZF d   1      -3.236   1.419   2.099  0.00  0.00    -0.107 A 
ATOM      5  C4  BZF d   1      -4.171   1.851   1.203  0.00  0.00     0.055 A 
ATOM      6  C5  BZF d   1      -5.393   1.257   1.185  0.00  0.00    -0.016 A 
ATOM      7  C6  BZF d   1      -5.711   0.225   2.044  0.00  0.00     0.022 A 
ATOM      8  C7  BZF d   1      -4.818  -0.234   2.954  0.00  0.00     0.029 A 
ATOM      9  C7A BZF d   1      -3.593   0.387   2.996  0.00  0.00     0.058 A 
ENDROOT
TORSDOF 0
ENDMDL
