MODEL 1
REMARK minimizedAffinity 0.469139636
REMARK minimizedRMSD -1
REMARK  0 active torsions:
REMARK  status: ('A' for Active; 'I' for Inactive)
ROOT
ATOM      1  O1  BZF d   1      -3.371  -3.402   0.372  0.00  0.00    -0.204 OA
ATOM      2  C2  BZF d   1      -2.186  -4.109   0.445  0.00  0.00     0.174 A 
ATOM      3  C3  BZF d   1      -1.158  -3.290   0.746  0.00  0.00    -0.012 A 
ATOM      4  C3A BZF d   1      -1.750  -2.005   0.960  0.00  0.00    -0.107 A 
ATOM      5  C4  BZF d   1      -1.245  -0.784   1.303  0.00  0.00     0.055 A 
ATOM      6  C5  BZF d   1      -2.082   0.285   1.359  0.00  0.00    -0.016 A 
ATOM      7  C6  BZF d   1      -3.426   0.170   1.073  0.00  0.00     0.022 A 
ATOM      8  C7  BZF d   1      -3.975  -1.022   0.732  0.00  0.00     0.029 A 
ATOM      9  C7A BZF d   1      -3.137  -2.110   0.707  0.00  0.00     0.058 A 
ENDROOT
TORSDOF 0
ENDMDL
