MODEL 1
REMARK minimizedAffinity 11.0790186
REMARK minimizedRMSD -1
REMARK  0 active torsions:
REMARK  status: ('A' for Active; 'I' for Inactive)
ROOT
ATOM      1  O1  BZF d   1      -1.154  -2.566  -5.992  0.00  0.00    -0.204 OA
ATOM      2  C2  BZF d   1      -0.951  -1.200  -5.937  0.00  0.00     0.174 A 
ATOM      3  C3  BZF d   1      -2.128  -0.542  -5.917  0.00  0.00    -0.012 A 
ATOM      4  C3A BZF d   1      -3.129  -1.563  -5.869  0.00  0.00    -0.107 A 
ATOM      5  C4  BZF d   1      -4.494  -1.539  -5.817  0.00  0.00     0.055 A 
ATOM      6  C5  BZF d   1      -5.177  -2.712  -5.855  0.00  0.00    -0.016 A 
ATOM      7  C6  BZF d   1      -4.530  -3.927  -5.950  0.00  0.00     0.022 A 
ATOM      8  C7  BZF d   1      -3.178  -4.002  -5.999  0.00  0.00     0.029 A 
ATOM      9  C7A BZF d   1      -2.483  -2.820  -5.928  0.00  0.00     0.058 A 
ENDROOT
TORSDOF 0
ENDMDL
