MODEL 1
REMARK minimizedAffinity 0.456729591
REMARK minimizedRMSD -1
REMARK  0 active torsions:
REMARK  status: ('A' for Active; 'I' for Inactive)
ROOT
ATOM      1  O1  BZF d   1      -0.966   0.564   1.320  0.00  0.00    -0.204 OA
ATOM      2  C2  BZF d   1      -0.247   1.038   2.401  0.00  0.00     0.174 A 
ATOM      3  C3  BZF d   1      -1.062   1.647   3.287  0.00  0.00    -0.012 A 
ATOM      4  C3A BZF d   1      -2.383   1.467   2.769  0.00  0.00    -0.107 A 
ATOM      5  C4  BZF d   1      -3.622   1.834   3.209  0.00  0.00     0.055 A 
ATOM      6  C5  BZF d   1      -4.705   1.569   2.432  0.00  0.00    -0.016 A 
ATOM      7  C6  BZF d   1      -4.585   0.943   1.208  0.00  0.00     0.022 A 
ATOM      8  C7  BZF d   1      -3.377   0.555   0.732  0.00  0.00     0.029 A 
ATOM      9  C7A BZF d   1      -2.284   0.793   1.530  0.00  0.00     0.058 A 
ENDROOT
TORSDOF 0
ENDMDL
