MODEL 1
REMARK minimizedAffinity 4.0738616
REMARK minimizedRMSD -1
REMARK  0 active torsions:
REMARK  status: ('A' for Active; 'I' for Inactive)
ROOT
ATOM      1  O1  BZF d   1      -1.835   0.142   1.782  0.00  0.00    -0.204 OA
ATOM      2  C2  BZF d   1      -2.837   1.081   1.936  0.00  0.00     0.174 A 
ATOM      3  C3  BZF d   1      -3.999   0.631   1.420  0.00  0.00    -0.012 A 
ATOM      4  C3A BZF d   1      -3.727  -0.708   0.993  0.00  0.00    -0.107 A 
ATOM      5  C4  BZF d   1      -4.489  -1.681   0.413  0.00  0.00     0.055 A 
ATOM      6  C5  BZF d   1      -3.902  -2.853   0.055  0.00  0.00    -0.016 A 
ATOM      7  C6  BZF d   1      -2.557  -3.084   0.257  0.00  0.00     0.022 A 
ATOM      8  C7  BZF d   1      -1.762  -2.150   0.833  0.00  0.00     0.029 A 
ATOM      9  C7A BZF d   1      -2.358  -0.977   1.226  0.00  0.00     0.058 A 
ENDROOT
TORSDOF 0
ENDMDL
