MODEL 1
REMARK minimizedAffinity 15.6585312
REMARK minimizedRMSD -1
REMARK  0 active torsions:
REMARK  status: ('A' for Active; 'I' for Inactive)
ROOT
ATOM      1  O1  BZF d   1       2.270  -0.055   3.810  0.00  0.00    -0.204 OA
ATOM      2  C2  BZF d   1       1.344   0.774   3.207  0.00  0.00     0.174 A 
ATOM      3  C3  BZF d   1       1.870   1.363   2.113  0.00  0.00    -0.012 A 
ATOM      4  C3A BZF d   1       3.178   0.799   1.975  0.00  0.00    -0.107 A 
ATOM      5  C4  BZF d   1       4.185   0.974   1.069  0.00  0.00     0.055 A 
ATOM      6  C5  BZF d   1       5.365   0.327   1.259  0.00  0.00    -0.016 A 
ATOM      7  C6  BZF d   1       5.574  -0.496   2.346  0.00  0.00     0.022 A 
ATOM      8  C7  BZF d   1       4.603  -0.704   3.269  0.00  0.00     0.029 A 
ATOM      9  C7A BZF d   1       3.399  -0.078   3.062  0.00  0.00     0.058 A 
ENDROOT
TORSDOF 0
ENDMDL
