MODEL 1
REMARK minimizedAffinity 12.1500921
REMARK minimizedRMSD -1
REMARK  0 active torsions:
REMARK  status: ('A' for Active; 'I' for Inactive)
ROOT
ATOM      1  O1  BZF d   1      -1.641  -0.124   2.972  0.00  0.00    -0.204 OA
ATOM      2  C2  BZF d   1      -1.037  -0.042   1.733  0.00  0.00     0.174 A 
ATOM      3  C3  BZF d   1      -1.937   0.281   0.782  0.00  0.00    -0.012 A 
ATOM      4  C3A BZF d   1      -3.164   0.499   1.485  0.00  0.00    -0.107 A 
ATOM      5  C4  BZF d   1      -4.421   0.861   1.091  0.00  0.00     0.055 A 
ATOM      6  C5  BZF d   1      -5.414   0.916   2.017  0.00  0.00    -0.016 A 
ATOM      7  C6  BZF d   1      -5.187   0.610   3.343  0.00  0.00     0.022 A 
ATOM      8  C7  BZF d   1      -3.957   0.250   3.783  0.00  0.00     0.029 A 
ATOM      9  C7A BZF d   1      -2.944   0.226   2.855  0.00  0.00     0.058 A 
ENDROOT
TORSDOF 0
ENDMDL
