MODEL 1
REMARK minimizedAffinity 6.03835869
REMARK minimizedRMSD -1
REMARK  0 active torsions:
REMARK  status: ('A' for Active; 'I' for Inactive)
ROOT
ATOM      1  O1  BZF d   1      -5.819  -3.170   2.798  0.00  0.00    -0.204 OA
ATOM      2  C2  BZF d   1      -5.874  -3.229   4.177  0.00  0.00     0.174 A 
ATOM      3  C3  BZF d   1      -5.468  -2.064   4.722  0.00  0.00    -0.012 A 
ATOM      4  C3A BZF d   1      -5.228  -1.193   3.613  0.00  0.00    -0.107 A 
ATOM      5  C4  BZF d   1      -4.820   0.106   3.511  0.00  0.00     0.055 A 
ATOM      6  C5  BZF d   1      -4.612   0.638   2.278  0.00  0.00    -0.016 A 
ATOM      7  C6  BZF d   1      -4.797  -0.101   1.128  0.00  0.00     0.022 A 
ATOM      8  C7  BZF d   1      -5.205  -1.392   1.178  0.00  0.00     0.029 A 
ATOM      9  C7A BZF d   1      -5.448  -1.923   2.422  0.00  0.00     0.058 A 
ENDROOT
TORSDOF 0
ENDMDL
