MODEL 1
REMARK minimizedAffinity 0.0316732153
REMARK minimizedRMSD -1
REMARK  0 active torsions:
REMARK  status: ('A' for Active; 'I' for Inactive)
ROOT
ATOM      1  O1  BZF d   1      -3.501   1.140   1.054  0.00  0.00    -0.204 OA
ATOM      2  C2  BZF d   1      -2.449   0.376   1.522  0.00  0.00     0.174 A 
ATOM      3  C3  BZF d   1      -2.501   0.262   2.864  0.00  0.00    -0.012 A 
ATOM      4  C3A BZF d   1      -3.709   0.924   3.252  0.00  0.00    -0.107 A 
ATOM      5  C4  BZF d   1      -4.320   1.133   4.455  0.00  0.00     0.055 A 
ATOM      6  C5  BZF d   1      -5.454   1.881   4.499  0.00  0.00    -0.016 A 
ATOM      7  C6  BZF d   1      -6.000   2.439   3.361  0.00  0.00     0.022 A 
ATOM      8  C7  BZF d   1      -5.432   2.254   2.144  0.00  0.00     0.029 A 
ATOM      9  C7A BZF d   1      -4.305   1.471   2.093  0.00  0.00     0.058 A 
ENDROOT
TORSDOF 0
ENDMDL
