MODEL 1
REMARK minimizedAffinity 6.14537191
REMARK minimizedRMSD -1
REMARK  0 active torsions:
REMARK  status: ('A' for Active; 'I' for Inactive)
ROOT
ATOM      1  O1  BZF d   1      -2.946  -0.854   1.482  0.00  0.00    -0.204 OA
ATOM      2  C2  BZF d   1      -4.046  -0.078   1.169  0.00  0.00     0.174 A 
ATOM      3  C3  BZF d   1      -3.816   1.218   1.462  0.00  0.00    -0.012 A 
ATOM      4  C3A BZF d   1      -2.457   1.269   1.905  0.00  0.00    -0.107 A 
ATOM      5  C4  BZF d   1      -1.642   2.283   2.322  0.00  0.00     0.055 A 
ATOM      6  C5  BZF d   1      -0.389   1.987   2.757  0.00  0.00    -0.016 A 
ATOM      7  C6  BZF d   1       0.079   0.690   2.794  0.00  0.00     0.022 A 
ATOM      8  C7  BZF d   1      -0.690  -0.349   2.386  0.00  0.00     0.029 A 
ATOM      9  C7A BZF d   1      -1.945  -0.050   1.915  0.00  0.00     0.058 A 
ENDROOT
TORSDOF 0
ENDMDL
