MODEL 1
REMARK minimizedAffinity 10.63762
REMARK minimizedRMSD -1
REMARK  0 active torsions:
REMARK  status: ('A' for Active; 'I' for Inactive)
ROOT
ATOM      1  O1  BZF d   1      -3.701   0.291   1.255  0.00  0.00    -0.204 OA
ATOM      2  C2  BZF d   1      -2.478   0.634   1.797  0.00  0.00     0.174 A 
ATOM      3  C3  BZF d   1      -1.635  -0.419   1.780  0.00  0.00    -0.012 A 
ATOM      4  C3A BZF d   1      -2.348  -1.461   1.106  0.00  0.00    -0.107 A 
ATOM      5  C4  BZF d   1      -2.033  -2.745   0.765  0.00  0.00     0.055 A 
ATOM      6  C5  BZF d   1      -2.979  -3.523   0.177  0.00  0.00    -0.016 A 
ATOM      7  C6  BZF d   1      -4.250  -3.052  -0.080  0.00  0.00     0.022 A 
ATOM      8  C7  BZF d   1      -4.608  -1.783   0.236  0.00  0.00     0.029 A 
ATOM      9  C7A BZF d   1      -3.643  -0.984   0.800  0.00  0.00     0.058 A 
ENDROOT
TORSDOF 0
ENDMDL
