MODEL 1
REMARK minimizedAffinity 8.92023277
REMARK minimizedRMSD -1
REMARK  0 active torsions:
REMARK  status: ('A' for Active; 'I' for Inactive)
ROOT
ATOM      1  O1  BZF d   1      -3.685  -4.416  -5.956  0.00  0.00    -0.204 OA
ATOM      2  C2  BZF d   1      -5.023  -4.073  -5.920  0.00  0.00     0.174 A 
ATOM      3  C3  BZF d   1      -5.172  -2.734  -5.859  0.00  0.00    -0.012 A 
ATOM      4  C3A BZF d   1      -3.846  -2.203  -5.950  0.00  0.00    -0.107 A 
ATOM      5  C4  BZF d   1      -3.342  -0.935  -5.961  0.00  0.00     0.055 A 
ATOM      6  C5  BZF d   1      -1.994  -0.760  -5.987  0.00  0.00    -0.016 A 
ATOM      7  C6  BZF d   1      -1.123  -1.830  -5.997  0.00  0.00     0.022 A 
ATOM      8  C7  BZF d   1      -1.577  -3.107  -5.992  0.00  0.00     0.029 A 
ATOM      9  C7A BZF d   1      -2.938  -3.287  -6.000  0.00  0.00     0.058 A 
ENDROOT
TORSDOF 0
ENDMDL
