MODEL 1
REMARK minimizedAffinity 6.72849464
REMARK minimizedRMSD -1
REMARK  0 active torsions:
REMARK  status: ('A' for Active; 'I' for Inactive)
ROOT
ATOM      1  O1  BZF d   1      -2.295   1.732   1.537  0.00  0.00    -0.204 OA
ATOM      2  C2  BZF d   1      -2.540   0.409   1.223  0.00  0.00     0.174 A 
ATOM      3  C3  BZF d   1      -1.607  -0.394   1.772  0.00  0.00    -0.012 A 
ATOM      4  C3A BZF d   1      -0.775   0.472   2.550  0.00  0.00    -0.107 A 
ATOM      5  C4  BZF d   1       0.316   0.262   3.344  0.00  0.00     0.055 A 
ATOM      6  C5  BZF d   1       0.940   1.331   3.905  0.00  0.00    -0.016 A 
ATOM      7  C6  BZF d   1       0.503   2.622   3.689  0.00  0.00     0.022 A 
ATOM      8  C7  BZF d   1      -0.577   2.880   2.913  0.00  0.00     0.029 A 
ATOM      9  C7A BZF d   1      -1.230   1.799   2.372  0.00  0.00     0.058 A 
ENDROOT
TORSDOF 0
ENDMDL
