MODEL 1
REMARK minimizedAffinity 4.62766504
REMARK minimizedRMSD -1
REMARK  0 active torsions:
REMARK  status: ('A' for Active; 'I' for Inactive)
ROOT
ATOM      1  O1  BZF d   1      -2.477  -2.155   0.738  0.00  0.00    -0.204 OA
ATOM      2  C2  BZF d   1      -3.651  -2.538   0.118  0.00  0.00     0.174 A 
ATOM      3  C3  BZF d   1      -4.601  -1.592   0.268  0.00  0.00    -0.012 A 
ATOM      4  C3A BZF d   1      -3.955  -0.513   0.950  0.00  0.00    -0.107 A 
ATOM      5  C4  BZF d   1      -4.373   0.717   1.370  0.00  0.00     0.055 A 
ATOM      6  C5  BZF d   1      -3.514   1.502   2.072  0.00  0.00    -0.016 A 
ATOM      7  C6  BZF d   1      -2.234   1.088   2.375  0.00  0.00     0.022 A 
ATOM      8  C7  BZF d   1      -1.773  -0.122   1.976  0.00  0.00     0.029 A 
ATOM      9  C7A BZF d   1      -2.627  -0.905   1.238  0.00  0.00     0.058 A 
ENDROOT
TORSDOF 0
ENDMDL
