MODEL 1
REMARK minimizedAffinity -6.16779566
REMARK minimizedRMSD -1
REMARK  0 active torsions:
REMARK  status: ('A' for Active; 'I' for Inactive)
ROOT
ATOM      1  C1  DEN d   1       0.731  -0.372   1.750  0.00  0.00     0.130 A 
ATOM      2  C2  DEN d   1       0.744  -1.169   0.527  0.00  0.00    -0.031 A 
ATOM      3  C3  DEN d   1       0.014  -0.419  -0.515  0.00  0.00     0.027 A 
ATOM      4  C4  DEN d   1      -1.125   1.890  -0.354  0.00  0.00     0.027 A 
ATOM      5  C5  DEN d   1      -1.410   2.945   0.485  0.00  0.00    -0.003 A 
ATOM      6  C6  DEN d   1      -1.034   2.953   1.802  0.00  0.00     0.001 A 
ATOM      7  C7  DEN d   1      -0.312   1.905   2.308  0.00  0.00     0.017 A 
ATOM      8  C8  DEN d   1      -0.027   0.834   1.471  0.00  0.00    -0.094 A 
ATOM      9  C9  DEN d   1      -0.405   0.850   0.139  0.00  0.00    -0.072 A 
ENDROOT
TORSDOF 0
ENDMDL
