MODEL 1
REMARK minimizedAffinity -5.0682168
REMARK minimizedRMSD -1
REMARK  0 active torsions:
REMARK  status: ('A' for Active; 'I' for Inactive)
ROOT
ATOM      1  C1  DEN d   1      -0.209   0.615   0.428  0.00  0.00     0.130 A 
ATOM      2  C2  DEN d   1       0.077   0.052  -0.889  0.00  0.00    -0.031 A 
ATOM      3  C3  DEN d   1      -0.050   1.134  -1.886  0.00  0.00     0.027 A 
ATOM      4  C4  DEN d   1      -0.654   3.615  -1.520  0.00  0.00     0.027 A 
ATOM      5  C5  DEN d   1      -0.993   4.560  -0.577  0.00  0.00    -0.003 A 
ATOM      6  C6  DEN d   1      -1.127   4.252   0.751  0.00  0.00     0.001 A 
ATOM      7  C7  DEN d   1      -0.876   2.976   1.180  0.00  0.00     0.017 A 
ATOM      8  C8  DEN d   1      -0.540   2.016   0.235  0.00  0.00    -0.094 A 
ATOM      9  C9  DEN d   1      -0.398   2.350  -1.101  0.00  0.00    -0.072 A 
ENDROOT
TORSDOF 0
ENDMDL
