MODEL 1
REMARK minimizedAffinity -2.49277186
REMARK minimizedRMSD -1
REMARK  0 active torsions:
REMARK  status: ('A' for Active; 'I' for Inactive)
ROOT
ATOM      1  C1  DEN d   1       0.593  -1.739  -0.234  0.00  0.00     0.130 A 
ATOM      2  C2  DEN d   1       0.691  -1.405  -1.653  0.00  0.00    -0.031 A 
ATOM      3  C3  DEN d   1       0.422   0.040  -1.800  0.00  0.00     0.027 A 
ATOM      4  C4  DEN d   1      -0.128   1.783   0.019  0.00  0.00     0.027 A 
ATOM      5  C5  DEN d   1      -0.333   1.970   1.369  0.00  0.00    -0.003 A 
ATOM      6  C6  DEN d   1      -0.277   0.937   2.266  0.00  0.00     0.001 A 
ATOM      7  C7  DEN d   1       0.034  -0.324   1.831  0.00  0.00     0.017 A 
ATOM      8  C8  DEN d   1       0.234  -0.522   0.472  0.00  0.00    -0.094 A 
ATOM      9  C9  DEN d   1       0.186   0.537  -0.418  0.00  0.00    -0.072 A 
ENDROOT
TORSDOF 0
ENDMDL
