MODEL 1
REMARK minimizedAffinity -6.64449692
REMARK minimizedRMSD -1
REMARK  0 active torsions:
REMARK  status: ('A' for Active; 'I' for Inactive)
ROOT
ATOM      1  C1  DEN d   1       0.096   0.059  -1.059  0.00  0.00     0.130 A 
ATOM      2  C2  DEN d   1       0.874  -0.788  -0.160  0.00  0.00    -0.031 A 
ATOM      3  C3  DEN d   1       0.960  -0.107   1.148  0.00  0.00     0.027 A 
ATOM      4  C4  DEN d   1      -0.036   2.161   1.865  0.00  0.00     0.027 A 
ATOM      5  C5  DEN d   1      -0.767   3.250   1.443  0.00  0.00    -0.003 A 
ATOM      6  C6  DEN d   1      -1.228   3.366   0.159  0.00  0.00     0.001 A 
ATOM      7  C7  DEN d   1      -1.003   2.355  -0.737  0.00  0.00     0.017 A 
ATOM      8  C8  DEN d   1      -0.260   1.258  -0.322  0.00  0.00    -0.094 A 
ATOM      9  C9  DEN d   1       0.187   1.153   0.984  0.00  0.00    -0.072 A 
ENDROOT
TORSDOF 0
ENDMDL
