MODEL 1
REMARK minimizedAffinity -5.37735748
REMARK minimizedRMSD -1
REMARK  0 active torsions:
REMARK  status: ('A' for Active; 'I' for Inactive)
ROOT
ATOM      1  C1  DEN d   1       0.092   2.864   1.129  0.00  0.00     0.130 A 
ATOM      2  C2  DEN d   1      -0.057   4.004   0.228  0.00  0.00    -0.031 A 
ATOM      3  C3  DEN d   1      -0.115   3.489  -1.155  0.00  0.00     0.027 A 
ATOM      4  C4  DEN d   1       0.005   1.049  -1.984  0.00  0.00     0.027 A 
ATOM      5  C5  DEN d   1       0.142  -0.264  -1.592  0.00  0.00    -0.003 A 
ATOM      6  C6  DEN d   1       0.304  -0.621  -0.280  0.00  0.00     0.001 A 
ATOM      7  C7  DEN d   1       0.289   0.343   0.693  0.00  0.00     0.017 A 
ATOM      8  C8  DEN d   1       0.159   1.670   0.305  0.00  0.00    -0.094 A 
ATOM      9  C9  DEN d   1      -0.017   2.010  -1.026  0.00  0.00    -0.072 A 
ENDROOT
TORSDOF 0
ENDMDL
