MODEL 1
REMARK minimizedAffinity 1.91943681
REMARK minimizedRMSD -1
REMARK  0 active torsions:
REMARK  status: ('A' for Active; 'I' for Inactive)
ROOT
ATOM      1  C1  DEN d   1       1.454  -0.960  -0.602  0.00  0.00     0.130 A 
ATOM      2  C2  DEN d   1       0.719   0.174  -1.156  0.00  0.00    -0.031 A 
ATOM      3  C3  DEN d   1      -0.509  -0.344  -1.792  0.00  0.00     0.027 A 
ATOM      4  C4  DEN d   1      -1.342  -2.779  -1.967  0.00  0.00     0.027 A 
ATOM      5  C5  DEN d   1      -1.052  -4.090  -1.658  0.00  0.00    -0.003 A 
ATOM      6  C6  DEN d   1       0.100  -4.450  -1.010  0.00  0.00     0.001 A 
ATOM      7  C7  DEN d   1       0.984  -3.483  -0.611  0.00  0.00     0.017 A 
ATOM      8  C8  DEN d   1       0.703  -2.160  -0.925  0.00  0.00    -0.094 A 
ATOM      9  C9  DEN d   1      -0.473  -1.815  -1.570  0.00  0.00    -0.072 A 
ENDROOT
TORSDOF 0
ENDMDL
