MODEL 1
REMARK minimizedAffinity -5.52252722
REMARK minimizedRMSD -1
REMARK  0 active torsions:
REMARK  status: ('A' for Active; 'I' for Inactive)
ROOT
ATOM      1  C1  DEN d   1       0.724  -0.288  -0.753  0.00  0.00     0.130 A 
ATOM      2  C2  DEN d   1       1.271  -1.044   0.371  0.00  0.00    -0.031 A 
ATOM      3  C3  DEN d   1       1.000  -0.283   1.607  0.00  0.00     0.027 A 
ATOM      4  C4  DEN d   1      -0.211   1.977   1.890  0.00  0.00     0.027 A 
ATOM      5  C5  DEN d   1      -0.839   3.004   1.222  0.00  0.00    -0.003 A 
ATOM      6  C6  DEN d   1      -0.960   3.023  -0.142  0.00  0.00     0.001 A 
ATOM      7  C7  DEN d   1      -0.484   1.972  -0.880  0.00  0.00     0.017 A 
ATOM      8  C8  DEN d   1       0.158   0.935  -0.215  0.00  0.00    -0.094 A 
ATOM      9  C9  DEN d   1       0.259   0.929   1.166  0.00  0.00    -0.072 A 
ENDROOT
TORSDOF 0
ENDMDL
