MODEL 1
REMARK minimizedAffinity 2.44967699
REMARK minimizedRMSD -1
REMARK  0 active torsions:
REMARK  status: ('A' for Active; 'I' for Inactive)
ROOT
ATOM      1  C1  DEN d   1      -2.386  -2.967  -2.991  0.00  0.00     0.130 A 
ATOM      2  C2  DEN d   1      -2.064  -3.630  -4.252  0.00  0.00    -0.031 A 
ATOM      3  C3  DEN d   1      -0.928  -4.542  -4.011  0.00  0.00     0.027 A 
ATOM      4  C4  DEN d   1       0.353  -4.995  -1.819  0.00  0.00     0.027 A 
ATOM      5  C5  DEN d   1       0.451  -4.660  -0.487  0.00  0.00    -0.003 A 
ATOM      6  C6  DEN d   1      -0.360  -3.720   0.092  0.00  0.00     0.001 A 
ATOM      7  C7  DEN d   1      -1.337  -3.114  -0.655  0.00  0.00     0.017 A 
ATOM      8  C8  DEN d   1      -1.437  -3.442  -2.000  0.00  0.00    -0.094 A 
ATOM      9  C9  DEN d   1      -0.615  -4.403  -2.564  0.00  0.00    -0.072 A 
ENDROOT
TORSDOF 0
ENDMDL
