MODEL 1
REMARK minimizedAffinity -1.81612325
REMARK minimizedRMSD -1
REMARK  0 active torsions:
REMARK  status: ('A' for Active; 'I' for Inactive)
ROOT
ATOM      1  C   UNL d   1      -1.862   0.800   0.022  0.00  0.00     0.077 C 
ATOM      2  C1  UNL d   1      -0.688   0.093  -0.587  0.00  0.00    -0.074 A 
ATOM      3  C2  UNL d   1      -0.003  -0.901   0.118  0.00  0.00    -0.005 A 
ATOM      4  C3  UNL d   1       1.081  -1.556  -0.465  0.00  0.00     0.006 A 
ATOM      5  C4  UNL d   1       1.490  -1.225  -1.758  0.00  0.00    -0.005 A 
ATOM      6  C5  UNL d   1       0.816  -0.234  -2.479  0.00  0.00    -0.074 A 
ATOM      7  C6  UNL d   1       1.237   0.128  -3.872  0.00  0.00     0.077 C 
ATOM      8  C7  UNL d   1      -0.276   0.415  -1.888  0.00  0.00    -0.001 A 
ENDROOT
TORSDOF 0
ENDMDL
