MODEL 1
REMARK minimizedAffinity -3.99027872
REMARK minimizedRMSD -1
REMARK  0 active torsions:
REMARK  status: ('A' for Active; 'I' for Inactive)
ROOT
ATOM      1  C   UNL d   1       1.141   0.031  -1.904  0.00  0.00     0.077 C 
ATOM      2  C1  UNL d   1       0.275   0.420  -0.743  0.00  0.00    -0.074 A 
ATOM      3  C2  UNL d   1       0.839   0.831   0.469  0.00  0.00    -0.005 A 
ATOM      4  C3  UNL d   1       0.020   1.200   1.536  0.00  0.00     0.006 A 
ATOM      5  C4  UNL d   1      -1.368   1.162   1.402  0.00  0.00    -0.005 A 
ATOM      6  C5  UNL d   1      -1.950   0.754   0.198  0.00  0.00    -0.074 A 
ATOM      7  C6  UNL d   1      -3.441   0.717   0.034  0.00  0.00     0.077 C 
ATOM      8  C7  UNL d   1      -1.121   0.392  -0.872  0.00  0.00    -0.001 A 
ENDROOT
TORSDOF 0
ENDMDL
