MODEL 1
REMARK minimizedAffinity -3.38969564
REMARK minimizedRMSD -1
REMARK  0 active torsions:
REMARK  status: ('A' for Active; 'I' for Inactive)
ROOT
ATOM      1  C   UNL d   1      -1.203   1.868   2.966  0.00  0.00     0.077 C 
ATOM      2  C1  UNL d   1      -0.776   0.982   1.834  0.00  0.00    -0.074 A 
ATOM      3  C2  UNL d   1      -1.594   0.802   0.714  0.00  0.00    -0.005 A 
ATOM      4  C3  UNL d   1      -1.180  -0.019  -0.335  0.00  0.00     0.006 A 
ATOM      5  C4  UNL d   1       0.055  -0.666  -0.275  0.00  0.00    -0.005 A 
ATOM      6  C5  UNL d   1       0.887  -0.497   0.836  0.00  0.00    -0.074 A 
ATOM      7  C6  UNL d   1       2.221  -1.178   0.912  0.00  0.00     0.077 C 
ATOM      8  C7  UNL d   1       0.466   0.334   1.883  0.00  0.00    -0.001 A 
ENDROOT
TORSDOF 0
ENDMDL
