MODEL 1
REMARK minimizedAffinity -4.13554335
REMARK minimizedRMSD -1
REMARK  0 active torsions:
REMARK  status: ('A' for Active; 'I' for Inactive)
ROOT
ATOM      1  C   UNL d   1       2.067  -1.660  -0.430  0.00  0.00     0.077 C 
ATOM      2  C1  UNL d   1       0.835  -0.882  -0.077  0.00  0.00    -0.074 A 
ATOM      3  C2  UNL d   1      -0.410  -1.221  -0.617  0.00  0.00    -0.005 A 
ATOM      4  C3  UNL d   1      -1.549  -0.494  -0.272  0.00  0.00     0.006 A 
ATOM      5  C4  UNL d   1      -1.455   0.578   0.616  0.00  0.00    -0.005 A 
ATOM      6  C5  UNL d   1      -0.220   0.932   1.167  0.00  0.00    -0.074 A 
ATOM      7  C6  UNL d   1      -0.104   2.076   2.130  0.00  0.00     0.077 C 
ATOM      8  C7  UNL d   1       0.919   0.192   0.821  0.00  0.00    -0.001 A 
ENDROOT
TORSDOF 0
ENDMDL
