MODEL 1
REMARK minimizedAffinity -3.74199796
REMARK minimizedRMSD -1
REMARK  0 active torsions:
REMARK  status: ('A' for Active; 'I' for Inactive)
ROOT
ATOM      1  C   UNL d   1      -0.394   1.673   2.930  0.00  0.00     0.077 C 
ATOM      2  C1  UNL d   1      -0.713   0.963   1.648  0.00  0.00    -0.074 A 
ATOM      3  C2  UNL d   1      -2.037   0.705   1.279  0.00  0.00    -0.005 A 
ATOM      4  C3  UNL d   1      -2.318   0.053   0.078  0.00  0.00     0.006 A 
ATOM      5  C4  UNL d   1      -1.280  -0.348  -0.764  0.00  0.00    -0.005 A 
ATOM      6  C5  UNL d   1       0.050  -0.097  -0.412  0.00  0.00    -0.074 A 
ATOM      7  C6  UNL d   1       1.178  -0.512  -1.310  0.00  0.00     0.077 C 
ATOM      8  C7  UNL d   1       0.325   0.565   0.793  0.00  0.00    -0.001 A 
ENDROOT
TORSDOF 0
ENDMDL
