MODEL 1
REMARK minimizedAffinity -4.55175495
REMARK minimizedRMSD -1
REMARK  0 active torsions:
REMARK  status: ('A' for Active; 'I' for Inactive)
ROOT
ATOM      1  C   UNL d   1      -3.201   0.689   0.397  0.00  0.00     0.077 C 
ATOM      2  C1  UNL d   1      -1.780   0.716   0.876  0.00  0.00    -0.074 A 
ATOM      3  C2  UNL d   1      -1.373   1.615   1.867  0.00  0.00    -0.005 A 
ATOM      4  C3  UNL d   1      -0.051   1.623   2.310  0.00  0.00     0.006 A 
ATOM      5  C4  UNL d   1       0.877   0.733   1.768  0.00  0.00    -0.005 A 
ATOM      6  C5  UNL d   1       0.488  -0.174   0.777  0.00  0.00    -0.074 A 
ATOM      7  C6  UNL d   1       1.471  -1.144   0.190  0.00  0.00     0.077 C 
ATOM      8  C7  UNL d   1      -0.844  -0.180   0.342  0.00  0.00    -0.001 A 
ENDROOT
TORSDOF 0
ENDMDL
