MODEL 1
REMARK minimizedAffinity -2.04627085
REMARK minimizedRMSD -1
REMARK  0 active torsions:
REMARK  status: ('A' for Active; 'I' for Inactive)
ROOT
ATOM      1  C   UNL d   1       0.479   2.230   2.016  0.00  0.00     0.077 C 
ATOM      2  C1  UNL d   1       0.885   0.975   1.303  0.00  0.00    -0.074 A 
ATOM      3  C2  UNL d   1       2.009   0.248   1.710  0.00  0.00    -0.005 A 
ATOM      4  C3  UNL d   1       2.369  -0.923   1.042  0.00  0.00     0.006 A 
ATOM      5  C4  UNL d   1       1.611  -1.378  -0.037  0.00  0.00    -0.005 A 
ATOM      6  C5  UNL d   1       0.483  -0.665  -0.458  0.00  0.00    -0.074 A 
ATOM      7  C6  UNL d   1      -0.348  -1.145  -1.610  0.00  0.00     0.077 C 
ATOM      8  C7  UNL d   1       0.124   0.507   0.223  0.00  0.00    -0.001 A 
ENDROOT
TORSDOF 0
ENDMDL
