MODEL 1
REMARK minimizedAffinity 0.597736061
REMARK minimizedRMSD -1
REMARK  0 active torsions:
REMARK  status: ('A' for Active; 'I' for Inactive)
ROOT
ATOM      1  C   UNL d   1       0.891  -2.449   3.534  0.00  0.00     0.078 C 
ATOM      2  C1  UNL d   1       1.568  -2.238   2.212  0.00  0.00    -0.077 A 
ATOM      3  C2  UNL d   1       2.778  -1.539   2.125  0.00  0.00    -0.001 A 
ATOM      4  C3  UNL d   1       3.392  -1.342   0.887  0.00  0.00     0.003 A 
ATOM      5  C4  UNL d   1       2.802  -1.839  -0.273  0.00  0.00    -0.005 A 
ATOM      6  C5  UNL d   1       1.597  -2.533  -0.197  0.00  0.00     0.003 A 
ATOM      7  C6  UNL d   1       0.981  -2.732   1.040  0.00  0.00    -0.001 A 
ENDROOT
TORSDOF 0
ENDMDL
