MODEL 1
REMARK minimizedAffinity 6.65891123
REMARK minimizedRMSD -1
REMARK  0 active torsions:
REMARK  status: ('A' for Active; 'I' for Inactive)
ROOT
ATOM      1  C   UNL d   1       2.319  -1.834  -0.614  0.00  0.00     0.078 C 
ATOM      2  C1  UNL d   1       1.122  -2.729  -0.731  0.00  0.00    -0.077 A 
ATOM      3  C2  UNL d   1      -0.059  -2.279  -1.334  0.00  0.00    -0.001 A 
ATOM      4  C3  UNL d   1      -1.169  -3.120  -1.427  0.00  0.00     0.003 A 
ATOM      5  C4  UNL d   1      -1.110  -4.416  -0.918  0.00  0.00    -0.005 A 
ATOM      6  C5  UNL d   1       0.060  -4.872  -0.314  0.00  0.00     0.003 A 
ATOM      7  C6  UNL d   1       1.171  -4.032  -0.220  0.00  0.00    -0.001 A 
ENDROOT
TORSDOF 0
ENDMDL
