MODEL 1
REMARK minimizedAffinity -0.620766938
REMARK minimizedRMSD -1
REMARK  0 active torsions:
REMARK  status: ('A' for Active; 'I' for Inactive)
ROOT
ATOM      1  C   UNL d   1       1.460   2.198   4.051  0.00  0.00     0.078 C 
ATOM      2  C1  UNL d   1       2.789   2.890   3.998  0.00  0.00    -0.077 A 
ATOM      3  C2  UNL d   1       3.833   2.388   3.211  0.00  0.00    -0.001 A 
ATOM      4  C3  UNL d   1       5.068   3.037   3.179  0.00  0.00     0.003 A 
ATOM      5  C4  UNL d   1       5.272   4.191   3.933  0.00  0.00    -0.005 A 
ATOM      6  C5  UNL d   1       4.240   4.697   4.721  0.00  0.00     0.003 A 
ATOM      7  C6  UNL d   1       3.004   4.049   4.755  0.00  0.00    -0.001 A 
ENDROOT
TORSDOF 0
ENDMDL
