MODEL 1
REMARK minimizedAffinity 1.32621336
REMARK minimizedRMSD -1
REMARK  0 active torsions:
REMARK  status: ('A' for Active; 'I' for Inactive)
ROOT
ATOM      1  C   UNL d   1      -1.424   1.092   2.491  0.00  0.00     0.078 C 
ATOM      2  C1  UNL d   1      -0.356   1.650   1.597  0.00  0.00    -0.077 A 
ATOM      3  C2  UNL d   1       0.280   0.845   0.645  0.00  0.00    -0.001 A 
ATOM      4  C3  UNL d   1       1.278   1.375  -0.174  0.00  0.00     0.003 A 
ATOM      5  C4  UNL d   1       1.651   2.711  -0.047  0.00  0.00    -0.005 A 
ATOM      6  C5  UNL d   1       1.025   3.520   0.899  0.00  0.00     0.003 A 
ATOM      7  C6  UNL d   1       0.026   2.992   1.719  0.00  0.00    -0.001 A 
ENDROOT
TORSDOF 0
ENDMDL
