MODEL 1
REMARK minimizedAffinity 2.65865541
REMARK minimizedRMSD -1
REMARK  0 active torsions:
REMARK  status: ('A' for Active; 'I' for Inactive)
ROOT
ATOM      1  C   UNL d   1       1.217   1.605   0.020  0.00  0.00     0.078 C 
ATOM      2  C1  UNL d   1       1.928   0.302   0.231  0.00  0.00    -0.077 A 
ATOM      3  C2  UNL d   1       1.869  -0.715  -0.729  0.00  0.00    -0.001 A 
ATOM      4  C3  UNL d   1       2.528  -1.927  -0.515  0.00  0.00     0.003 A 
ATOM      5  C4  UNL d   1       3.248  -2.134   0.660  0.00  0.00    -0.005 A 
ATOM      6  C5  UNL d   1       3.309  -1.129   1.623  0.00  0.00     0.003 A 
ATOM      7  C6  UNL d   1       2.652   0.084   1.410  0.00  0.00    -0.001 A 
ENDROOT
TORSDOF 0
ENDMDL
