MODEL 1
REMARK minimizedAffinity -0.489084631
REMARK minimizedRMSD -1
REMARK  0 active torsions:
REMARK  status: ('A' for Active; 'I' for Inactive)
ROOT
ATOM      1  C   UNL d   1       5.712   2.023  -1.416  0.00  0.00     0.078 C 
ATOM      2  C1  UNL d   1       5.819   3.399  -0.829  0.00  0.00    -0.077 A 
ATOM      3  C2  UNL d   1       5.865   3.589   0.558  0.00  0.00    -0.001 A 
ATOM      4  C3  UNL d   1       5.955   4.876   1.091  0.00  0.00     0.003 A 
ATOM      5  C4  UNL d   1       5.998   5.983   0.245  0.00  0.00    -0.005 A 
ATOM      6  C5  UNL d   1       5.950   5.803  -1.136  0.00  0.00     0.003 A 
ATOM      7  C6  UNL d   1       5.860   4.517  -1.671  0.00  0.00    -0.001 A 
ENDROOT
TORSDOF 0
ENDMDL
