MODEL 1
REMARK minimizedAffinity 0.766976774
REMARK minimizedRMSD -1
REMARK  0 active torsions:
REMARK  status: ('A' for Active; 'I' for Inactive)
ROOT
ATOM      1  C   UNL d   1       3.406  -3.185  -2.843  0.00  0.00     0.078 C 
ATOM      2  C1  UNL d   1       2.364  -2.480  -2.028  0.00  0.00    -0.077 A 
ATOM      3  C2  UNL d   1       1.000  -2.728  -2.229  0.00  0.00    -0.001 A 
ATOM      4  C3  UNL d   1       0.041  -2.056  -1.470  0.00  0.00     0.003 A 
ATOM      5  C4  UNL d   1       0.435  -1.131  -0.505  0.00  0.00    -0.005 A 
ATOM      6  C5  UNL d   1       1.789  -0.876  -0.299  0.00  0.00     0.003 A 
ATOM      7  C6  UNL d   1       2.750  -1.547  -1.057  0.00  0.00    -0.001 A 
ENDROOT
TORSDOF 0
ENDMDL
