MODEL 1
REMARK minimizedAffinity -1.40691113
REMARK minimizedRMSD -1
REMARK  0 active torsions:
REMARK  status: ('A' for Active; 'I' for Inactive)
ROOT
ATOM      1  C   UNL d   1      -2.415   3.321   2.237  0.00  0.00     0.078 C 
ATOM      2  C1  UNL d   1      -0.924   3.483   2.241  0.00  0.00    -0.077 A 
ATOM      3  C2  UNL d   1      -0.078   2.369   2.314  0.00  0.00    -0.001 A 
ATOM      4  C3  UNL d   1       1.308   2.535   2.327  0.00  0.00     0.003 A 
ATOM      5  C4  UNL d   1       1.860   3.812   2.268  0.00  0.00    -0.005 A 
ATOM      6  C5  UNL d   1       1.027   4.927   2.197  0.00  0.00     0.003 A 
ATOM      7  C6  UNL d   1      -0.360   4.763   2.184  0.00  0.00    -0.001 A 
ENDROOT
TORSDOF 0
ENDMDL
