MODEL 1
REMARK minimizedAffinity -3.94641495
REMARK minimizedRMSD -1
REMARK  0 active torsions:
REMARK  status: ('A' for Active; 'I' for Inactive)
ROOT
ATOM      1  C   UNL d   1       4.219   0.772  -1.019  0.00  0.00     0.078 C 
ATOM      2  C1  UNL d   1       3.440  -0.467  -1.344  0.00  0.00    -0.077 A 
ATOM      3  C2  UNL d   1       3.541  -1.073  -2.602  0.00  0.00    -0.001 A 
ATOM      4  C3  UNL d   1       2.802  -2.221  -2.894  0.00  0.00     0.003 A 
ATOM      5  C4  UNL d   1       1.956  -2.771  -1.934  0.00  0.00    -0.005 A 
ATOM      6  C5  UNL d   1       1.847  -2.174  -0.680  0.00  0.00     0.003 A 
ATOM      7  C6  UNL d   1       2.585  -1.026  -0.386  0.00  0.00    -0.001 A 
ENDROOT
TORSDOF 0
ENDMDL
