MODEL 1
REMARK minimizedAffinity -0.916565239
REMARK minimizedRMSD -1
REMARK  0 active torsions:
REMARK  status: ('A' for Active; 'I' for Inactive)
ROOT
ATOM      1  C   UNL d   1      -1.088  -1.368   0.009  0.00  0.00     0.078 C 
ATOM      2  C1  UNL d   1       0.224  -0.701  -0.279  0.00  0.00    -0.077 A 
ATOM      3  C2  UNL d   1       1.335  -1.444  -0.695  0.00  0.00    -0.001 A 
ATOM      4  C3  UNL d   1       2.552  -0.810  -0.949  0.00  0.00     0.003 A 
ATOM      5  C4  UNL d   1       2.670   0.569  -0.790  0.00  0.00    -0.005 A 
ATOM      6  C5  UNL d   1       1.571   1.316  -0.374  0.00  0.00     0.003 A 
ATOM      7  C6  UNL d   1       0.352   0.685  -0.119  0.00  0.00    -0.001 A 
ENDROOT
TORSDOF 0
ENDMDL
