MODEL 1
REMARK minimizedAffinity -2.22650671
REMARK minimizedRMSD -1
REMARK  0 active torsions:
REMARK  status: ('A' for Active; 'I' for Inactive)
ROOT
ATOM      1  C   UNL d   1       3.960  -0.010  -0.662  0.00  0.00     0.078 C 
ATOM      2  C1  UNL d   1       2.547  -0.511  -0.698  0.00  0.00    -0.077 A 
ATOM      3  C2  UNL d   1       2.269  -1.876  -0.840  0.00  0.00    -0.001 A 
ATOM      4  C3  UNL d   1       0.949  -2.326  -0.882  0.00  0.00     0.003 A 
ATOM      5  C4  UNL d   1      -0.104  -1.419  -0.784  0.00  0.00    -0.005 A 
ATOM      6  C5  UNL d   1       0.163  -0.058  -0.645  0.00  0.00     0.003 A 
ATOM      7  C6  UNL d   1       1.483   0.394  -0.603  0.00  0.00    -0.001 A 
ENDROOT
TORSDOF 0
ENDMDL
