MODEL 1
REMARK minimizedAffinity 8.08783531
REMARK minimizedRMSD -1
REMARK  0 active torsions:
REMARK  status: ('A' for Active; 'I' for Inactive)
ROOT
ATOM      1  C   UNL d   1      -1.002  -2.930  -3.158  0.00  0.00     0.078 C 
ATOM      2  C1  UNL d   1      -0.281  -2.222  -2.049  0.00  0.00    -0.077 A 
ATOM      3  C2  UNL d   1      -0.737  -0.990  -1.564  0.00  0.00    -0.001 A 
ATOM      4  C3  UNL d   1      -0.051  -0.337  -0.539  0.00  0.00     0.003 A 
ATOM      5  C4  UNL d   1       1.095  -0.908   0.010  0.00  0.00    -0.005 A 
ATOM      6  C5  UNL d   1       1.558  -2.133  -0.468  0.00  0.00     0.003 A 
ATOM      7  C6  UNL d   1       0.873  -2.787  -1.493  0.00  0.00    -0.001 A 
ENDROOT
TORSDOF 0
ENDMDL
