MODEL 1
REMARK minimizedAffinity -3.10429597
REMARK minimizedRMSD -1
REMARK  1 active torsions:
REMARK  status: ('A' for Active; 'I' for Inactive)
REMARK    1  A    between atoms: N_2  and  C1_3 
ROOT
ATOM      1  C1  UNL d   1       1.067  -1.407   0.985  0.00  0.00     0.143 A 
ATOM      2  C2  UNL d   1       0.874  -1.985   2.245  0.00  0.00    -0.057 A 
ATOM      3  C3  UNL d   1      -0.277  -1.720   2.996  0.00  0.00     0.033 A 
ATOM      4  C4  UNL d   1      -1.245  -0.846   2.512  0.00  0.00    -0.042 A 
ATOM      5  C5  UNL d   1      -1.062  -0.241   1.274  0.00  0.00     0.033 A 
ATOM      6  C6  UNL d   1       0.086  -0.515   0.525  0.00  0.00    -0.057 A 
ENDROOT
BRANCH   1   7
ATOM      7  N   UNL d   1       2.236  -1.554   0.233  0.00  0.00    -0.732 N 
ATOM      8  C   UNL d   1       2.561  -0.611  -0.815  0.00  0.00     0.284 C 
ATOM      9  H3  UNL d   1       3.031  -1.834   0.802  0.00  0.00     0.395 HD
ENDBRANCH   1   7
TORSDOF 1
ENDMDL
