MODEL 1
REMARK minimizedAffinity -1.50719428
REMARK minimizedRMSD -1
REMARK  1 active torsions:
REMARK  status: ('A' for Active; 'I' for Inactive)
REMARK    1  A    between atoms: N_2  and  C1_3 
ROOT
ATOM      1  C1  UNL d   1       0.176   0.130  -0.073  0.00  0.00     0.143 A 
ATOM      2  C2  UNL d   1       1.458  -0.266  -0.469  0.00  0.00    -0.057 A 
ATOM      3  C3  UNL d   1       2.184  -1.213   0.264  0.00  0.00     0.033 A 
ATOM      4  C4  UNL d   1       1.650  -1.760   1.426  0.00  0.00    -0.042 A 
ATOM      5  C5  UNL d   1       0.387  -1.362   1.852  0.00  0.00     0.033 A 
ATOM      6  C6  UNL d   1      -0.335  -0.421   1.112  0.00  0.00    -0.057 A 
ENDROOT
BRANCH   1   7
ATOM      7  N   UNL d   1      -0.555   1.140  -0.704  0.00  0.00    -0.732 N 
ATOM      8  C   UNL d   1      -1.441   0.829  -1.806  0.00  0.00     0.284 C 
ATOM      9  H3  UNL d   1      -0.934   1.816  -0.045  0.00  0.00     0.395 HD
ENDBRANCH   1   7
TORSDOF 1
ENDMDL
