MODEL 1
REMARK minimizedAffinity -3.34235334
REMARK minimizedRMSD -1
REMARK  1 active torsions:
REMARK  status: ('A' for Active; 'I' for Inactive)
REMARK    1  A    between atoms: N_2  and  C1_3 
ROOT
ATOM      1  C1  UNL d   1      -0.778   0.407   0.225  0.00  0.00     0.143 A 
ATOM      2  C2  UNL d   1      -1.130  -0.802   0.836  0.00  0.00    -0.057 A 
ATOM      3  C3  UNL d   1      -0.216  -1.858   0.936  0.00  0.00     0.033 A 
ATOM      4  C4  UNL d   1       1.061  -1.734   0.399  0.00  0.00    -0.042 A 
ATOM      5  C5  UNL d   1       1.424  -0.551  -0.235  0.00  0.00     0.033 A 
ATOM      6  C6  UNL d   1       0.509   0.503  -0.326  0.00  0.00    -0.057 A 
ENDROOT
BRANCH   1   7
ATOM      7  N   UNL d   1      -1.673   1.457   0.007  0.00  0.00    -0.732 N 
ATOM      8  C   UNL d   1      -1.898   1.969  -1.328  0.00  0.00     0.284 C 
ATOM      9  H3  UNL d   1      -2.518   1.370   0.567  0.00  0.00     0.395 HD
ENDBRANCH   1   7
TORSDOF 1
ENDMDL
