MODEL 1
REMARK minimizedAffinity -2.40152001
REMARK minimizedRMSD -1
REMARK  1 active torsions:
REMARK  status: ('A' for Active; 'I' for Inactive)
REMARK    1  A    between atoms: N_2  and  C1_3 
ROOT
ATOM      1  C1  UNL d   1      -0.224   0.313   0.082  0.00  0.00     0.143 A 
ATOM      2  C2  UNL d   1       0.233   1.485  -0.530  0.00  0.00    -0.057 A 
ATOM      3  C3  UNL d   1       1.568   1.623  -0.929  0.00  0.00     0.033 A 
ATOM      4  C4  UNL d   1       2.479   0.598  -0.696  0.00  0.00    -0.042 A 
ATOM      5  C5  UNL d   1       2.052  -0.566  -0.067  0.00  0.00     0.033 A 
ATOM      6  C6  UNL d   1       0.716  -0.700   0.323  0.00  0.00    -0.057 A 
ENDROOT
BRANCH   1   7
ATOM      7  N   UNL d   1      -1.516   0.154   0.590  0.00  0.00    -0.732 N 
ATOM      8  C   UNL d   1      -1.723  -0.214   1.974  0.00  0.00     0.284 C 
ATOM      9  H3  UNL d   1      -2.158   0.866   0.249  0.00  0.00     0.395 HD
ENDBRANCH   1   7
TORSDOF 1
ENDMDL
