MODEL 1
REMARK minimizedAffinity -4.24249601
REMARK minimizedRMSD -1
REMARK  1 active torsions:
REMARK  status: ('A' for Active; 'I' for Inactive)
REMARK    1  A    between atoms: N_2  and  C1_3 
ROOT
ATOM      1  C1  UNL d   1      -0.950   0.682  -0.989  0.00  0.00     0.143 A 
ATOM      2  C2  UNL d   1       0.328   0.222  -1.321  0.00  0.00    -0.057 A 
ATOM      3  C3  UNL d   1       1.057  -0.593  -0.446  0.00  0.00     0.033 A 
ATOM      4  C4  UNL d   1       0.529  -0.939   0.794  0.00  0.00    -0.042 A 
ATOM      5  C5  UNL d   1      -0.729  -0.472   1.156  0.00  0.00     0.033 A 
ATOM      6  C6  UNL d   1      -1.455   0.336   0.275  0.00  0.00    -0.057 A 
ENDROOT
BRANCH   1   7
ATOM      7  N   UNL d   1      -1.684   1.576  -1.773  0.00  0.00    -0.732 N 
ATOM      8  C   UNL d   1      -3.054   1.284  -2.136  0.00  0.00     0.284 C 
ATOM      9  H3  UNL d   1      -1.520   2.546  -1.514  0.00  0.00     0.395 HD
ENDBRANCH   1   7
TORSDOF 1
ENDMDL
