MODEL 1
REMARK minimizedAffinity -1.61629748
REMARK minimizedRMSD -1
REMARK  1 active torsions:
REMARK  status: ('A' for Active; 'I' for Inactive)
REMARK    1  A    between atoms: N_2  and  C1_3 
ROOT
ATOM      1  C1  UNL d   1      -0.757   0.710  -1.482  0.00  0.00     0.143 A 
ATOM      2  C2  UNL d   1       0.576   0.287  -1.445  0.00  0.00    -0.057 A 
ATOM      3  C3  UNL d   1       1.169  -0.141  -0.251  0.00  0.00     0.033 A 
ATOM      4  C4  UNL d   1       0.446  -0.125   0.936  0.00  0.00    -0.042 A 
ATOM      5  C5  UNL d   1      -0.873   0.315   0.928  0.00  0.00     0.033 A 
ATOM      6  C6  UNL d   1      -1.462   0.734  -0.269  0.00  0.00    -0.057 A 
ENDROOT
BRANCH   1   7
ATOM      7  N   UNL d   1      -1.374   1.240  -2.618  0.00  0.00    -0.732 N 
ATOM      8  C   UNL d   1      -2.694   0.799  -3.013  0.00  0.00     0.284 C 
ATOM      9  H3  UNL d   1      -1.226   2.242  -2.709  0.00  0.00     0.395 HD
ENDBRANCH   1   7
TORSDOF 1
ENDMDL
