MODEL 1
REMARK minimizedAffinity -5.14685535
REMARK minimizedRMSD -1
REMARK  1 active torsions:
REMARK  status: ('A' for Active; 'I' for Inactive)
REMARK    1  A    between atoms: N_2  and  C1_3 
ROOT
ATOM      1  C1  UNL d   1      -1.007  -0.051  -0.498  0.00  0.00     0.143 A 
ATOM      2  C2  UNL d   1      -0.481   1.029  -1.215  0.00  0.00    -0.057 A 
ATOM      3  C3  UNL d   1      -1.317   1.961  -1.842  0.00  0.00     0.033 A 
ATOM      4  C4  UNL d   1      -2.699   1.812  -1.788  0.00  0.00    -0.042 A 
ATOM      5  C5  UNL d   1      -3.244   0.732  -1.102  0.00  0.00     0.033 A 
ATOM      6  C6  UNL d   1      -2.404  -0.191  -0.472  0.00  0.00    -0.057 A 
ENDROOT
BRANCH   1   7
ATOM      7  N   UNL d   1      -0.228  -1.065   0.064  0.00  0.00    -0.732 N 
ATOM      8  C   UNL d   1       1.205  -1.091  -0.138  0.00  0.00     0.284 C 
ATOM      9  H3  UNL d   1      -0.519  -1.299   1.010  0.00  0.00     0.395 HD
ENDBRANCH   1   7
TORSDOF 1
ENDMDL
