MODEL 1
REMARK minimizedAffinity -3.77106166
REMARK minimizedRMSD -1
REMARK  1 active torsions:
REMARK  status: ('A' for Active; 'I' for Inactive)
REMARK    1  A    between atoms: N_2  and  C1_3 
ROOT
ATOM      1  C1  UNL d   1      -0.141  -0.481   1.532  0.00  0.00     0.143 A 
ATOM      2  C2  UNL d   1       0.818  -0.371   0.519  0.00  0.00    -0.057 A 
ATOM      3  C3  UNL d   1       1.963  -1.177   0.513  0.00  0.00     0.033 A 
ATOM      4  C4  UNL d   1       2.185  -2.089   1.540  0.00  0.00    -0.042 A 
ATOM      5  C5  UNL d   1       1.257  -2.197   2.571  0.00  0.00     0.033 A 
ATOM      6  C6  UNL d   1       0.112  -1.395   2.567  0.00  0.00    -0.057 A 
ENDROOT
BRANCH   1   7
ATOM      7  N   UNL d   1      -1.251   0.359   1.646  0.00  0.00    -0.732 N 
ATOM      8  C   UNL d   1      -2.569  -0.104   1.267  0.00  0.00     0.284 C 
ATOM      9  H3  UNL d   1      -1.235   0.911   2.501  0.00  0.00     0.395 HD
ENDBRANCH   1   7
TORSDOF 1
ENDMDL
