MODEL 1
REMARK minimizedAffinity 6.30745745
REMARK minimizedRMSD -1
REMARK  1 active torsions:
REMARK  status: ('A' for Active; 'I' for Inactive)
REMARK    1  A    between atoms: N_2  and  C1_3 
ROOT
ATOM      1  C1  UNL d   1      -4.092  -4.915  -0.197  0.00  0.00     0.143 A 
ATOM      2  C2  UNL d   1      -3.423  -4.945  -1.426  0.00  0.00    -0.057 A 
ATOM      3  C3  UNL d   1      -4.034  -5.465  -2.573  0.00  0.00     0.033 A 
ATOM      4  C4  UNL d   1      -5.319  -5.994  -2.505  0.00  0.00    -0.042 A 
ATOM      5  C5  UNL d   1      -5.993  -5.997  -1.289  0.00  0.00     0.033 A 
ATOM      6  C6  UNL d   1      -5.380  -5.470  -0.149  0.00  0.00    -0.057 A 
ENDROOT
BRANCH   1   7
ATOM      7  N   UNL d   1      -3.502  -4.501   1.000  0.00  0.00    -0.732 N 
ATOM      8  C   UNL d   1      -4.256  -4.510   2.235  0.00  0.00     0.284 C 
ATOM      9  H3  UNL d   1      -2.544  -4.830   1.095  0.00  0.00     0.395 HD
ENDBRANCH   1   7
TORSDOF 1
ENDMDL
