MODEL 1
REMARK minimizedAffinity 2.10878778
REMARK minimizedRMSD -1
REMARK  1 active torsions:
REMARK  status: ('A' for Active; 'I' for Inactive)
REMARK    1  A    between atoms: N_2  and  C1_3 
ROOT
ATOM      1  C1  UNL d   1       2.002  -1.315   2.061  0.00  0.00     0.143 A 
ATOM      2  C2  UNL d   1       3.014  -1.250   1.097  0.00  0.00    -0.057 A 
ATOM      3  C3  UNL d   1       2.834  -0.542  -0.098  0.00  0.00     0.033 A 
ATOM      4  C4  UNL d   1       1.623   0.090  -0.363  0.00  0.00    -0.042 A 
ATOM      5  C5  UNL d   1       0.595   0.017   0.569  0.00  0.00     0.033 A 
ATOM      6  C6  UNL d   1       0.783  -0.685   1.763  0.00  0.00    -0.057 A 
ENDROOT
BRANCH   1   7
ATOM      7  N   UNL d   1       2.084  -2.084   3.224  0.00  0.00    -0.732 N 
ATOM      8  C   UNL d   1       1.325  -1.723   4.402  0.00  0.00     0.284 C 
ATOM      9  H3  UNL d   1       2.099  -3.083   3.029  0.00  0.00     0.395 HD
ENDBRANCH   1   7
TORSDOF 1
ENDMDL
