MODEL 1
REMARK minimizedAffinity 6.10976267
REMARK minimizedRMSD -1
REMARK  1 active torsions:
REMARK  status: ('A' for Active; 'I' for Inactive)
REMARK    1  A    between atoms: N_2  and  C1_3 
ROOT
ATOM      1  C1  UNL d   1       2.908  -1.021   0.836  0.00  0.00     0.143 A 
ATOM      2  C2  UNL d   1       1.740  -1.672   0.426  0.00  0.00    -0.057 A 
ATOM      3  C3  UNL d   1       0.887  -1.103  -0.527  0.00  0.00     0.033 A 
ATOM      4  C4  UNL d   1       1.174   0.146  -1.068  0.00  0.00    -0.042 A 
ATOM      5  C5  UNL d   1       2.317   0.823  -0.657  0.00  0.00     0.033 A 
ATOM      6  C6  UNL d   1       3.168   0.246   0.291  0.00  0.00    -0.057 A 
ENDROOT
BRANCH   1   7
ATOM      7  N   UNL d   1       3.744  -1.490   1.852  0.00  0.00    -0.732 N 
ATOM      8  C   UNL d   1       4.739  -0.623   2.447  0.00  0.00     0.284 C 
ATOM      9  H3  UNL d   1       3.251  -2.078   2.521  0.00  0.00     0.395 HD
ENDBRANCH   1   7
TORSDOF 1
ENDMDL
