MODEL 1
REMARK minimizedAffinity -5.82098866
REMARK minimizedRMSD -1
REMARK  1 active torsions:
REMARK  status: ('A' for Active; 'I' for Inactive)
REMARK    1  A    between atoms: N_2  and  C1_3 
ROOT
ATOM      1  C1  UNL d   1      -0.498  -1.042   1.758  0.00  0.00     0.143 A 
ATOM      2  C2  UNL d   1      -0.071  -1.090   0.427  0.00  0.00    -0.057 A 
ATOM      3  C3  UNL d   1       0.884  -2.023   0.004  0.00  0.00     0.033 A 
ATOM      4  C4  UNL d   1       1.451  -2.908   0.915  0.00  0.00    -0.042 A 
ATOM      5  C5  UNL d   1       1.060  -2.861   2.248  0.00  0.00     0.033 A 
ATOM      6  C6  UNL d   1       0.101  -1.932   2.663  0.00  0.00    -0.057 A 
ENDROOT
BRANCH   1   7
ATOM      7  N   UNL d   1      -1.371  -0.073   2.260  0.00  0.00    -0.732 N 
ATOM      8  C   UNL d   1      -1.712   1.092   1.472  0.00  0.00     0.284 C 
ATOM      9  H3  UNL d   1      -2.157  -0.481   2.761  0.00  0.00     0.395 HD
ENDBRANCH   1   7
TORSDOF 1
ENDMDL
