MODEL 1
REMARK minimizedAffinity 0.191573068
REMARK minimizedRMSD -1
REMARK  1 active torsions:
REMARK  status: ('A' for Active; 'I' for Inactive)
REMARK    1  A    between atoms: N_2  and  C1_3 
ROOT
ATOM      1  C1  UNL d   1      -0.419   0.312   1.239  0.00  0.00     0.143 A 
ATOM      2  C2  UNL d   1      -0.079   1.242   0.250  0.00  0.00    -0.057 A 
ATOM      3  C3  UNL d   1       1.141   1.163  -0.433  0.00  0.00     0.033 A 
ATOM      4  C4  UNL d   1       2.058   0.166  -0.116  0.00  0.00    -0.042 A 
ATOM      5  C5  UNL d   1       1.753  -0.753   0.880  0.00  0.00     0.033 A 
ATOM      6  C6  UNL d   1       0.530  -0.673   1.553  0.00  0.00    -0.057 A 
ENDROOT
BRANCH   1   7
ATOM      7  N   UNL d   1      -1.573   0.396   2.021  0.00  0.00    -0.732 N 
ATOM      8  C   UNL d   1      -1.899  -0.649   2.968  0.00  0.00     0.284 C 
ATOM      9  H3  UNL d   1      -1.741   1.338   2.367  0.00  0.00     0.395 HD
ENDBRANCH   1   7
TORSDOF 1
ENDMDL
