MODEL 1
REMARK minimizedAffinity -1.47932076
REMARK minimizedRMSD -1
REMARK  1 active torsions:
REMARK  status: ('A' for Active; 'I' for Inactive)
REMARK    1  A    between atoms: N_2  and  C1_3 
ROOT
ATOM      1  C1  UNL d   1      -1.091   1.080  -1.025  0.00  0.00     0.143 A 
ATOM      2  C2  UNL d   1      -0.100   1.104  -0.038  0.00  0.00    -0.057 A 
ATOM      3  C3  UNL d   1      -0.225   0.350   1.135  0.00  0.00     0.033 A 
ATOM      4  C4  UNL d   1      -1.362  -0.421   1.355  0.00  0.00    -0.042 A 
ATOM      5  C5  UNL d   1      -2.371  -0.440   0.399  0.00  0.00     0.033 A 
ATOM      6  C6  UNL d   1      -2.237   0.310  -0.774  0.00  0.00    -0.057 A 
ENDROOT
BRANCH   1   7
ATOM      7  N   UNL d   1      -1.070   1.884  -2.168  0.00  0.00    -0.732 N 
ATOM      8  C   UNL d   1      -1.931   1.588  -3.293  0.00  0.00     0.284 C 
ATOM      9  H3  UNL d   1      -1.002   2.874  -1.945  0.00  0.00     0.395 HD
ENDBRANCH   1   7
TORSDOF 1
ENDMDL
