MODEL 1
REMARK minimizedAffinity 18.5407143
REMARK minimizedRMSD -1
REMARK  0 active torsions:
REMARK  status: ('A' for Active; 'I' for Inactive)
ROOT
ATOM      1  C   UNL d   1       2.789  -0.042  -0.800  0.00  0.00     0.124 A 
ATOM      2  C1  UNL d   1       3.490   0.233  -1.966  0.00  0.00     0.062 A 
ATOM      3  C2  UNL d   1       4.173   1.438  -2.104  0.00  0.00     0.162 A 
ATOM      4  C3  UNL d   1       4.159   2.377  -1.073  0.00  0.00    -0.034 A 
ATOM      5  C4  UNL d   1       3.451   2.093   0.097  0.00  0.00     0.162 A 
ATOM      6  C5  UNL d   1       2.770   0.888   0.230  0.00  0.00     0.062 A 
ATOM      7  F   UNL d   1       2.093   0.623   1.357  0.00  0.00    -0.097 F 
ATOM      8  F1  UNL d   1       3.417   2.974   1.108  0.00  0.00    -0.096 F 
ATOM      9  I   UNL d   1       5.179   4.180  -1.275  0.00  0.00    -0.060 I 
ATOM     10  F2  UNL d   1       4.842   1.678  -3.242  0.00  0.00    -0.096 F 
ATOM     11  F3  UNL d   1       3.509  -0.663  -2.963  0.00  0.00    -0.097 F 
ATOM     12  F4  UNL d   1       2.132  -1.202  -0.671  0.00  0.00    -0.092 F 
ENDROOT
TORSDOF 0
ENDMDL
