MODEL 1
REMARK minimizedAffinity 30.1011639
REMARK minimizedRMSD -1
REMARK  0 active torsions:
REMARK  status: ('A' for Active; 'I' for Inactive)
ROOT
ATOM      1  C   UNL d   1      -4.941   2.296   0.217  0.00  0.00     0.124 A 
ATOM      2  C1  UNL d   1      -4.512   0.981   0.106  0.00  0.00     0.062 A 
ATOM      3  C2  UNL d   1      -4.582   0.323  -1.119  0.00  0.00     0.162 A 
ATOM      4  C3  UNL d   1      -5.082   0.981  -2.243  0.00  0.00    -0.034 A 
ATOM      5  C4  UNL d   1      -5.513   2.303  -2.123  0.00  0.00     0.162 A 
ATOM      6  C5  UNL d   1      -5.441   2.956  -0.896  0.00  0.00     0.062 A 
ATOM      7  F   UNL d   1      -5.856   4.227  -0.791  0.00  0.00    -0.097 F 
ATOM      8  F1  UNL d   1      -6.000   2.964  -3.183  0.00  0.00    -0.096 F 
ATOM      9  I   UNL d   1      -5.189   0.001  -4.076  0.00  0.00    -0.060 I 
ATOM     10  F2  UNL d   1      -4.160  -0.947  -1.198  0.00  0.00    -0.096 F 
ATOM     11  F3  UNL d   1      -4.029   0.341   1.181  0.00  0.00    -0.097 F 
ATOM     12  F4  UNL d   1      -4.873   2.926   1.397  0.00  0.00    -0.092 F 
ENDROOT
TORSDOF 0
ENDMDL
