MODEL 1
REMARK minimizedAffinity 26.3059006
REMARK minimizedRMSD -1
REMARK  0 active torsions:
REMARK  status: ('A' for Active; 'I' for Inactive)
ROOT
ATOM      1  C   UNL d   1      -5.052   2.402   0.520  0.00  0.00     0.124 A 
ATOM      2  C1  UNL d   1      -4.918   1.021   0.483  0.00  0.00     0.062 A 
ATOM      3  C2  UNL d   1      -4.910   0.351  -0.738  0.00  0.00     0.162 A 
ATOM      4  C3  UNL d   1      -5.033   1.062  -1.931  0.00  0.00    -0.034 A 
ATOM      5  C4  UNL d   1      -5.168   2.451  -1.886  0.00  0.00     0.162 A 
ATOM      6  C5  UNL d   1      -5.176   3.115  -0.664  0.00  0.00     0.062 A 
ATOM      7  F   UNL d   1      -5.305   4.450  -0.630  0.00  0.00    -0.097 F 
ATOM      8  F1  UNL d   1      -5.289   3.165  -3.015  0.00  0.00    -0.096 F 
ATOM      9  I   UNL d   1      -5.020   0.064  -3.758  0.00  0.00    -0.060 I 
ATOM     10  F2  UNL d   1      -4.779  -0.984  -0.744  0.00  0.00    -0.096 F 
ATOM     11  F3  UNL d   1      -4.799   0.329   1.625  0.00  0.00    -0.097 F 
ATOM     12  F4  UNL d   1      -5.061   3.044   1.695  0.00  0.00    -0.092 F 
ENDROOT
TORSDOF 0
ENDMDL
