MODEL 1
REMARK minimizedAffinity 30.4958229
REMARK minimizedRMSD -1
REMARK  0 active torsions:
REMARK  status: ('A' for Active; 'I' for Inactive)
ROOT
ATOM      1  C   UNL d   1       1.658  -0.269  -1.136  0.00  0.00     0.124 A 
ATOM      2  C1  UNL d   1       1.328   1.078  -1.079  0.00  0.00     0.062 A 
ATOM      3  C2  UNL d   1       2.072   1.948  -0.288  0.00  0.00     0.162 A 
ATOM      4  C3  UNL d   1       3.154   1.474   0.454  0.00  0.00    -0.034 A 
ATOM      5  C4  UNL d   1       3.479   0.117   0.393  0.00  0.00     0.162 A 
ATOM      6  C5  UNL d   1       2.732  -0.748  -0.400  0.00  0.00     0.062 A 
ATOM      7  F   UNL d   1       3.052  -2.049  -0.453  0.00  0.00    -0.097 F 
ATOM      8  F1  UNL d   1       4.513  -0.372   1.093  0.00  0.00    -0.096 F 
ATOM      9  I   UNL d   1       4.270   2.771   1.639  0.00  0.00    -0.060 I 
ATOM     10  F2  UNL d   1       1.731   3.245  -0.252  0.00  0.00    -0.096 F 
ATOM     11  F3  UNL d   1       0.290   1.543  -1.788  0.00  0.00    -0.097 F 
ATOM     12  F4  UNL d   1       0.939  -1.104  -1.897  0.00  0.00    -0.092 F 
ENDROOT
TORSDOF 0
ENDMDL
