MODEL 1
REMARK minimizedAffinity 19.7986622
REMARK minimizedRMSD -1
REMARK  0 active torsions:
REMARK  status: ('A' for Active; 'I' for Inactive)
ROOT
ATOM      1  C   UNL d   1      -4.228   2.617   0.277  0.00  0.00     0.124 A 
ATOM      2  C1  UNL d   1      -4.538   3.958   0.098  0.00  0.00     0.062 A 
ATOM      3  C2  UNL d   1      -5.044   4.706   1.156  0.00  0.00     0.162 A 
ATOM      4  C3  UNL d   1      -5.243   4.116   2.404  0.00  0.00    -0.034 A 
ATOM      5  C4  UNL d   1      -4.929   2.766   2.577  0.00  0.00     0.162 A 
ATOM      6  C5  UNL d   1      -4.423   2.022   1.516  0.00  0.00     0.062 A 
ATOM      7  F   UNL d   1      -4.124   0.727   1.690  0.00  0.00    -0.097 F 
ATOM      8  F1  UNL d   1      -5.107   2.167   3.763  0.00  0.00    -0.096 F 
ATOM      9  I   UNL d   1      -6.000   5.232   3.990  0.00  0.00    -0.060 I 
ATOM     10  F2  UNL d   1      -5.336   6.000   0.955  0.00  0.00    -0.096 F 
ATOM     11  F3  UNL d   1      -4.351   4.534  -1.098  0.00  0.00    -0.097 F 
ATOM     12  F4  UNL d   1      -3.741   1.898  -0.744  0.00  0.00    -0.092 F 
ENDROOT
TORSDOF 0
ENDMDL
