MODEL 1
REMARK minimizedAffinity 26.2198429
REMARK minimizedRMSD -1
REMARK  0 active torsions:
REMARK  status: ('A' for Active; 'I' for Inactive)
ROOT
ATOM      1  C   UNL d   1       1.597   0.132  -0.545  0.00  0.00     0.124 A 
ATOM      2  C1  UNL d   1       1.530   1.482  -0.864  0.00  0.00     0.062 A 
ATOM      3  C2  UNL d   1       2.505   2.360  -0.399  0.00  0.00     0.162 A 
ATOM      4  C3  UNL d   1       3.556   1.891   0.390  0.00  0.00    -0.034 A 
ATOM      5  C4  UNL d   1       3.616   0.533   0.706  0.00  0.00     0.162 A 
ATOM      6  C5  UNL d   1       2.639  -0.341   0.239  0.00  0.00     0.062 A 
ATOM      7  F   UNL d   1       2.705  -1.644   0.548  0.00  0.00    -0.097 F 
ATOM      8  F1  UNL d   1       4.613   0.048   1.462  0.00  0.00    -0.096 F 
ATOM      9  I   UNL d   1       5.016   3.200   1.087  0.00  0.00    -0.060 I 
ATOM     10  F2  UNL d   1       2.416   3.658  -0.722  0.00  0.00    -0.096 F 
ATOM     11  F3  UNL d   1       0.524   1.941  -1.621  0.00  0.00    -0.097 F 
ATOM     12  F4  UNL d   1       0.657  -0.710  -0.994  0.00  0.00    -0.092 F 
ENDROOT
TORSDOF 0
ENDMDL
