MODEL 1
REMARK minimizedAffinity 33.6775284
REMARK minimizedRMSD -1
REMARK  0 active torsions:
REMARK  status: ('A' for Active; 'I' for Inactive)
ROOT
ATOM      1  C   UNL d   1       2.928  -1.571  -0.136  0.00  0.00     0.124 A 
ATOM      2  C1  UNL d   1       2.333  -1.813  -1.367  0.00  0.00     0.062 A 
ATOM      3  C2  UNL d   1       1.379  -2.818  -1.497  0.00  0.00     0.162 A 
ATOM      4  C3  UNL d   1       1.012  -3.588  -0.394  0.00  0.00    -0.034 A 
ATOM      5  C4  UNL d   1       1.616  -3.340   0.840  0.00  0.00     0.162 A 
ATOM      6  C5  UNL d   1       2.569  -2.334   0.966  0.00  0.00     0.062 A 
ATOM      7  F   UNL d   1       3.143  -2.102   2.155  0.00  0.00    -0.097 F 
ATOM      8  F1  UNL d   1       1.287  -4.061   1.922  0.00  0.00    -0.096 F 
ATOM      9  I   UNL d   1      -0.414  -5.092  -0.585  0.00  0.00    -0.060 I 
ATOM     10  F2  UNL d   1       0.820  -3.030  -2.698  0.00  0.00    -0.096 F 
ATOM     11  F3  UNL d   1       2.679  -1.078  -2.433  0.00  0.00    -0.097 F 
ATOM     12  F4  UNL d   1       3.847  -0.604  -0.014  0.00  0.00    -0.092 F 
ENDROOT
TORSDOF 0
ENDMDL
