MODEL 1
REMARK minimizedAffinity -5.12627268
REMARK minimizedRMSD -1
REMARK  0 active torsions:
REMARK  status: ('A' for Active; 'I' for Inactive)
ROOT
ATOM      1  C1  DEN d   1       1.038  -1.196   0.672  0.00  0.00     0.130 A 
ATOM      2  C2  DEN d   1       0.910  -1.383  -0.771  0.00  0.00    -0.031 A 
ATOM      3  C3  DEN d   1       0.066  -0.292  -1.298  0.00  0.00     0.027 A 
ATOM      4  C4  DEN d   1      -1.046   1.658  -0.029  0.00  0.00     0.027 A 
ATOM      5  C5  DEN d   1      -1.233   2.230   1.210  0.00  0.00    -0.003 A 
ATOM      6  C6  DEN d   1      -0.709   1.685   2.352  0.00  0.00     0.001 A 
ATOM      7  C7  DEN d   1       0.067   0.559   2.272  0.00  0.00     0.017 A 
ATOM      8  C8  DEN d   1       0.254  -0.028   1.027  0.00  0.00    -0.094 A 
ATOM      9  C9  DEN d   1      -0.275   0.545  -0.117  0.00  0.00    -0.072 A 
ENDROOT
TORSDOF 0
ENDMDL
