MODEL 1
REMARK minimizedAffinity -3.11705375
REMARK minimizedRMSD -1
REMARK  0 active torsions:
REMARK  status: ('A' for Active; 'I' for Inactive)
ROOT
ATOM      1  C1  DEN d   1      -0.784  -0.541  -0.808  0.00  0.00     0.130 A 
ATOM      2  C2  DEN d   1       0.121  -1.684  -0.888  0.00  0.00    -0.031 A 
ATOM      3  C3  DEN d   1       1.055  -1.608   0.253  0.00  0.00     0.027 A 
ATOM      4  C4  DEN d   1       1.186   0.159   2.128  0.00  0.00     0.027 A 
ATOM      5  C5  DEN d   1       0.634   1.324   2.612  0.00  0.00    -0.003 A 
ATOM      6  C6  DEN d   1      -0.398   1.963   1.977  0.00  0.00     0.001 A 
ATOM      7  C7  DEN d   1      -0.941   1.415   0.845  0.00  0.00     0.017 A 
ATOM      8  C8  DEN d   1      -0.386   0.244   0.346  0.00  0.00    -0.094 A 
ATOM      9  C9  DEN d   1       0.649  -0.393   1.010  0.00  0.00    -0.072 A 
ENDROOT
TORSDOF 0
ENDMDL
