MODEL 1
REMARK minimizedAffinity -3.84737754
REMARK minimizedRMSD -1
REMARK  0 active torsions:
REMARK  status: ('A' for Active; 'I' for Inactive)
ROOT
ATOM      1  C1  DEN d   1      -0.968  -0.544  -1.003  0.00  0.00     0.130 A 
ATOM      2  C2  DEN d   1       0.118  -1.520  -0.997  0.00  0.00    -0.031 A 
ATOM      3  C3  DEN d   1       0.983  -1.235   0.165  0.00  0.00     0.027 A 
ATOM      4  C4  DEN d   1       0.743   0.611   1.951  0.00  0.00     0.027 A 
ATOM      5  C5  DEN d   1      -0.014   1.687   2.359  0.00  0.00    -0.003 A 
ATOM      6  C6  DEN d   1      -1.113   2.112   1.661  0.00  0.00     0.001 A 
ATOM      7  C7  DEN d   1      -1.514   1.430   0.543  0.00  0.00     0.017 A 
ATOM      8  C8  DEN d   1      -0.751   0.349   0.122  0.00  0.00    -0.094 A 
ATOM      9  C9  DEN d   1       0.350  -0.073   0.847  0.00  0.00    -0.072 A 
ENDROOT
TORSDOF 0
ENDMDL
