MODEL 1
REMARK minimizedAffinity -2.32421827
REMARK minimizedRMSD -1
REMARK  0 active torsions:
REMARK  status: ('A' for Active; 'I' for Inactive)
ROOT
ATOM      1  C1  DEN d   1       0.849  -1.575  -0.035  0.00  0.00     0.130 A 
ATOM      2  C2  DEN d   1       0.068  -1.585  -1.269  0.00  0.00    -0.031 A 
ATOM      3  C3  DEN d   1      -0.801  -0.390  -1.268  0.00  0.00     0.027 A 
ATOM      4  C4  DEN d   1      -1.007   1.465   0.513  0.00  0.00     0.027 A 
ATOM      5  C5  DEN d   1      -0.554   1.899   1.739  0.00  0.00    -0.003 A 
ATOM      6  C6  DEN d   1       0.365   1.193   2.470  0.00  0.00     0.001 A 
ATOM      7  C7  DEN d   1       0.895   0.038   1.959  0.00  0.00     0.017 A 
ATOM      8  C8  DEN d   1       0.439  -0.410   0.727  0.00  0.00    -0.094 A 
ATOM      9  C9  DEN d   1      -0.482   0.324  -0.002  0.00  0.00    -0.072 A 
ENDROOT
TORSDOF 0
ENDMDL
