MODEL 1
REMARK minimizedAffinity 7.50736809
REMARK minimizedRMSD -1
REMARK  0 active torsions:
REMARK  status: ('A' for Active; 'I' for Inactive)
ROOT
ATOM      1  C1  DEN d   1      -2.309   3.700  -0.756  0.00  0.00     0.130 A 
ATOM      2  C2  DEN d   1      -3.569   3.114  -1.207  0.00  0.00    -0.031 A 
ATOM      3  C3  DEN d   1      -3.329   1.686  -1.499  0.00  0.00     0.027 A 
ATOM      4  C4  DEN d   1      -1.144   0.332  -1.293  0.00  0.00     0.027 A 
ATOM      5  C5  DEN d   1       0.192   0.400  -0.963  0.00  0.00    -0.003 A 
ATOM      6  C6  DEN d   1       0.790   1.570  -0.576  0.00  0.00     0.001 A 
ATOM      7  C7  DEN d   1       0.041   2.711  -0.466  0.00  0.00     0.017 A 
ATOM      8  C8  DEN d   1      -1.305   2.653  -0.805  0.00  0.00    -0.094 A 
ATOM      9  C9  DEN d   1      -1.894   1.458  -1.182  0.00  0.00    -0.072 A 
ENDROOT
TORSDOF 0
ENDMDL
