MODEL 1
REMARK minimizedAffinity 1.08243454
REMARK minimizedRMSD -1
REMARK  0 active torsions:
REMARK  status: ('A' for Active; 'I' for Inactive)
ROOT
ATOM      1  C2' OXE d   1      -2.490   5.897   3.746  0.00  0.00     0.078 C 
ATOM      2  C1' OXE d   1      -2.439   4.149   5.942  0.00  0.00     0.078 C 
ATOM      3  C1  OXE d   1      -1.119   4.644   5.405  0.00  0.00    -0.078 A 
ATOM      4  C2  OXE d   1      -1.151   5.461   4.301  0.00  0.00    -0.078 A 
ATOM      5  C3  OXE d   1       0.035   5.989   3.799  0.00  0.00     0.003 A 
ATOM      6  C4  OXE d   1       1.269   5.573   4.313  0.00  0.00    -0.002 A 
ATOM      7  C5  OXE d   1       1.326   4.710   5.412  0.00  0.00    -0.002 A 
ATOM      8  C6  OXE d   1       0.143   4.270   5.995  0.00  0.00     0.003 A 
ENDROOT
TORSDOF 0
ENDMDL
