MODEL 1
REMARK minimizedAffinity 2.76747203
REMARK minimizedRMSD -1
REMARK  0 active torsions:
REMARK  status: ('A' for Active; 'I' for Inactive)
ROOT
ATOM      1  C2' OXE d   1      -2.075   3.401   5.975  0.00  0.00     0.078 C 
ATOM      2  C1' OXE d   1      -2.209   3.666   3.184  0.00  0.00     0.078 C 
ATOM      3  C1  OXE d   1      -1.136   4.435   3.912  0.00  0.00    -0.078 A 
ATOM      4  C2  OXE d   1      -1.107   4.336   5.283  0.00  0.00    -0.078 A 
ATOM      5  C3  OXE d   1      -0.103   4.981   5.999  0.00  0.00     0.003 A 
ATOM      6  C4  OXE d   1       0.782   5.852   5.352  0.00  0.00    -0.002 A 
ATOM      7  C5  OXE d   1       0.745   5.998   3.961  0.00  0.00    -0.002 A 
ATOM      8  C6  OXE d   1      -0.179   5.265   3.224  0.00  0.00     0.003 A 
ENDROOT
TORSDOF 0
ENDMDL
