MODEL 1
REMARK minimizedAffinity -2.66693163
REMARK minimizedRMSD -1
REMARK  0 active torsions:
REMARK  status: ('A' for Active; 'I' for Inactive)
ROOT
ATOM      1  C2' OXE d   1       5.256   3.375   4.297  0.00  0.00     0.078 C 
ATOM      2  C1' OXE d   1       5.607   5.626   5.937  0.00  0.00     0.078 C 
ATOM      3  C1  OXE d   1       4.199   5.257   5.541  0.00  0.00    -0.078 A 
ATOM      4  C2  OXE d   1       4.040   4.182   4.701  0.00  0.00    -0.078 A 
ATOM      5  C3  OXE d   1       2.760   3.766   4.348  0.00  0.00     0.003 A 
ATOM      6  C4  OXE d   1       1.641   4.524   4.718  0.00  0.00    -0.002 A 
ATOM      7  C5  OXE d   1       1.785   5.645   5.541  0.00  0.00    -0.002 A 
ATOM      8  C6  OXE d   1       3.050   6.000   5.996  0.00  0.00     0.003 A 
ENDROOT
TORSDOF 0
ENDMDL
