MODEL 1
REMARK minimizedAffinity 9.62829971
REMARK minimizedRMSD -1
REMARK  0 active torsions:
REMARK  status: ('A' for Active; 'I' for Inactive)
ROOT
ATOM      1  C2' OXE d   1      -1.470  -3.831   3.217  0.00  0.00     0.078 C 
ATOM      2  C1' OXE d   1       0.718  -5.501   2.666  0.00  0.00     0.078 C 
ATOM      3  C1  OXE d   1       0.851  -4.036   2.336  0.00  0.00    -0.078 A 
ATOM      4  C2  OXE d   1      -0.241  -3.234   2.566  0.00  0.00    -0.078 A 
ATOM      5  C3  OXE d   1      -0.153  -1.865   2.330  0.00  0.00     0.003 A 
ATOM      6  C4  OXE d   1       0.984  -1.323   1.719  0.00  0.00    -0.002 A 
ATOM      7  C5  OXE d   1       2.093  -2.128   1.441  0.00  0.00    -0.002 A 
ATOM      8  C6  OXE d   1       2.059  -3.476   1.781  0.00  0.00     0.003 A 
ENDROOT
TORSDOF 0
ENDMDL
