MODEL 1
REMARK minimizedAffinity 1.53074253
REMARK minimizedRMSD -1
REMARK  0 active torsions:
REMARK  status: ('A' for Active; 'I' for Inactive)
ROOT
ATOM      1  C2' OXE d   1       1.909  -1.977   0.919  0.00  0.00     0.078 C 
ATOM      2  C1' OXE d   1       4.177  -3.351   1.841  0.00  0.00     0.078 C 
ATOM      3  C1  OXE d   1       2.825  -3.956   2.123  0.00  0.00    -0.078 A 
ATOM      4  C2  OXE d   1       1.719  -3.254   1.709  0.00  0.00    -0.078 A 
ATOM      5  C3  OXE d   1       0.449  -3.794   1.895  0.00  0.00     0.003 A 
ATOM      6  C4  OXE d   1       0.281  -4.970   2.636  0.00  0.00    -0.002 A 
ATOM      7  C5  OXE d   1       1.393  -5.681   3.102  0.00  0.00    -0.002 A 
ATOM      8  C6  OXE d   1       2.670  -5.211   2.817  0.00  0.00     0.003 A 
ENDROOT
TORSDOF 0
ENDMDL
