MODEL 1
REMARK minimizedAffinity 8.42681789
REMARK minimizedRMSD -1
REMARK  0 active torsions:
REMARK  status: ('A' for Active; 'I' for Inactive)
ROOT
ATOM      1  C2' OXE d   1      -4.211   5.519   5.995  0.00  0.00     0.078 C 
ATOM      2  C1' OXE d   1      -3.793   3.563   4.025  0.00  0.00     0.078 C 
ATOM      3  C1  OXE d   1      -2.591   4.320   4.531  0.00  0.00    -0.078 A 
ATOM      4  C2  OXE d   1      -2.811   5.308   5.460  0.00  0.00    -0.078 A 
ATOM      5  C3  OXE d   1      -1.730   6.000   6.000  0.00  0.00     0.003 A 
ATOM      6  C4  OXE d   1      -0.440   5.805   5.493  0.00  0.00    -0.002 A 
ATOM      7  C5  OXE d   1      -0.199   4.832   4.517  0.00  0.00    -0.002 A 
ATOM      8  C6  OXE d   1      -1.255   4.053   4.057  0.00  0.00     0.003 A 
ENDROOT
TORSDOF 0
ENDMDL
