MODEL 1
REMARK minimizedAffinity -0.115436681
REMARK minimizedRMSD -1
REMARK  0 active torsions:
REMARK  status: ('A' for Active; 'I' for Inactive)
ROOT
ATOM      1  C2' OXE d   1      -3.082   2.433   5.988  0.00  0.00     0.078 C 
ATOM      2  C1' OXE d   1      -4.107   5.043   5.859  0.00  0.00     0.078 C 
ATOM      3  C1  OXE d   1      -2.609   4.876   5.890  0.00  0.00    -0.078 A 
ATOM      4  C2  OXE d   1      -2.117   3.598   6.000  0.00  0.00    -0.078 A 
ATOM      5  C3  OXE d   1      -0.741   3.385   5.977  0.00  0.00     0.003 A 
ATOM      6  C4  OXE d   1       0.145   4.468   5.997  0.00  0.00    -0.002 A 
ATOM      7  C5  OXE d   1      -0.336   5.780   5.926  0.00  0.00    -0.002 A 
ATOM      8  C6  OXE d   1      -1.706   5.999   5.829  0.00  0.00     0.003 A 
ENDROOT
TORSDOF 0
ENDMDL
