MODEL 1
REMARK minimizedAffinity -0.610940933
REMARK minimizedRMSD -1
REMARK  0 active torsions:
REMARK  status: ('A' for Active; 'I' for Inactive)
ROOT
ATOM      1  C2' OXE d   1      -0.795   5.134   3.251  0.00  0.00     0.078 C 
ATOM      2  C1' OXE d   1      -0.862   5.998   5.921  0.00  0.00     0.078 C 
ATOM      3  C1  OXE d   1       0.488   5.767   5.290  0.00  0.00    -0.078 A 
ATOM      4  C2  OXE d   1       0.511   5.300   3.998  0.00  0.00    -0.078 A 
ATOM      5  C3  OXE d   1       1.730   5.123   3.350  0.00  0.00     0.003 A 
ATOM      6  C4  OXE d   1       2.933   5.269   4.051  0.00  0.00    -0.002 A 
ATOM      7  C5  OXE d   1       2.932   5.705   5.380  0.00  0.00    -0.002 A 
ATOM      8  C6  OXE d   1       1.722   5.999   6.000  0.00  0.00     0.003 A 
ENDROOT
TORSDOF 0
ENDMDL
