MODEL 1
REMARK minimizedAffinity -1.57379794
REMARK minimizedRMSD -1
REMARK  0 active torsions:
REMARK  status: ('A' for Active; 'I' for Inactive)
ROOT
ATOM      1  C2' OXE d   1      -3.463   5.705   5.995  0.00  0.00     0.078 C 
ATOM      2  C1' OXE d   1      -3.281   4.475   3.479  0.00  0.00     0.078 C 
ATOM      3  C1  OXE d   1      -2.003   4.948   4.124  0.00  0.00    -0.078 A 
ATOM      4  C2  OXE d   1      -2.106   5.590   5.335  0.00  0.00    -0.078 A 
ATOM      5  C3  OXE d   1      -0.953   5.998   5.999  0.00  0.00     0.003 A 
ATOM      6  C4  OXE d   1       0.297   5.897   5.377  0.00  0.00    -0.002 A 
ATOM      7  C5  OXE d   1       0.420   5.281   4.127  0.00  0.00    -0.002 A 
ATOM      8  C6  OXE d   1      -0.712   4.764   3.507  0.00  0.00     0.003 A 
ENDROOT
TORSDOF 0
ENDMDL
