MODEL 1
REMARK minimizedAffinity 0.931014776
REMARK minimizedRMSD -1
REMARK  0 active torsions:
REMARK  status: ('A' for Active; 'I' for Inactive)
ROOT
ATOM      1  C2' OXE d   1      -2.342   3.450   5.950  0.00  0.00     0.078 C 
ATOM      2  C1' OXE d   1      -2.860   5.175   3.798  0.00  0.00     0.078 C 
ATOM      3  C1  OXE d   1      -1.468   5.172   4.377  0.00  0.00    -0.078 A 
ATOM      4  C2  OXE d   1      -1.236   4.359   5.460  0.00  0.00    -0.078 A 
ATOM      5  C3  OXE d   1       0.045   4.277   5.999  0.00  0.00     0.003 A 
ATOM      6  C4  OXE d   1       1.060   5.129   5.547  0.00  0.00    -0.002 A 
ATOM      7  C5  OXE d   1       0.834   5.993   4.470  0.00  0.00    -0.002 A 
ATOM      8  C6  OXE d   1      -0.409   5.997   3.848  0.00  0.00     0.003 A 
ENDROOT
TORSDOF 0
ENDMDL
