MODEL 1
REMARK minimizedAffinity -3.21414328
REMARK minimizedRMSD -1
REMARK  0 active torsions:
REMARK  status: ('A' for Active; 'I' for Inactive)
ROOT
ATOM      1  C2' OXE d   1       3.369  -1.195   1.988  0.00  0.00     0.078 C 
ATOM      2  C1' OXE d   1       1.577  -3.257   1.343  0.00  0.00     0.078 C 
ATOM      3  C1  OXE d   1       3.048  -3.589   1.381  0.00  0.00    -0.078 A 
ATOM      4  C2  OXE d   1       3.921  -2.563   1.652  0.00  0.00    -0.078 A 
ATOM      5  C3  OXE d   1       5.284  -2.827   1.753  0.00  0.00     0.003 A 
ATOM      6  C4  OXE d   1       5.787  -4.093   1.430  0.00  0.00    -0.002 A 
ATOM      7  C5  OXE d   1       4.918  -5.142   1.113  0.00  0.00    -0.002 A 
ATOM      8  C6  OXE d   1       3.546  -4.918   1.126  0.00  0.00     0.003 A 
ENDROOT
TORSDOF 0
ENDMDL
