MODEL 1
REMARK minimizedAffinity 8.98850536
REMARK minimizedRMSD -1
REMARK  1 active torsions:
REMARK  status: ('A' for Active; 'I' for Inactive)
REMARK    1  A    between atoms: C1_2  and  C2_3 
ROOT
ATOM      1  C2  UNL d   1      -0.483  -4.342  -3.515  0.00  0.00    -0.073 A 
ATOM      2  C3  UNL d   1       0.139  -3.525  -4.466  0.00  0.00    -0.002 A 
ATOM      3  C4  UNL d   1       0.426  -2.192  -4.170  0.00  0.00     0.004 A 
ATOM      4  C5  UNL d   1       0.102  -1.665  -2.920  0.00  0.00    -0.004 A 
ATOM      5  C6  UNL d   1      -0.508  -2.468  -1.953  0.00  0.00    -0.075 A 
ATOM      6  C7  UNL d   1      -0.865  -1.916  -0.604  0.00  0.00     0.076 C 
ATOM      7  C8  UNL d   1      -0.796  -3.805  -2.258  0.00  0.00     0.001 A 
ENDROOT
BRANCH   1   8
ATOM      8  C1  UNL d   1      -0.789  -5.784  -3.828  0.00  0.00     0.053 C 
ATOM      9  C   UNL d   1      -1.072  -5.999  -5.306  0.00  0.00     0.018 C 
ENDBRANCH   1   8
TORSDOF 1
ENDMDL
