MODEL 1
REMARK minimizedAffinity 6.92883396
REMARK minimizedRMSD -1
REMARK  1 active torsions:
REMARK  status: ('A' for Active; 'I' for Inactive)
REMARK    1  A    between atoms: C1_2  and  C2_3 
ROOT
ATOM      1  C2  UNL d   1      -0.176  -1.751   4.890  0.00  0.00    -0.073 A 
ATOM      2  C3  UNL d   1       0.535  -1.275   5.998  0.00  0.00    -0.002 A 
ATOM      3  C4  UNL d   1       1.919  -1.113   5.930  0.00  0.00     0.004 A 
ATOM      4  C5  UNL d   1       2.605  -1.416   4.754  0.00  0.00    -0.004 A 
ATOM      5  C6  UNL d   1       1.910  -1.881   3.632  0.00  0.00    -0.075 A 
ATOM      6  C7  UNL d   1       2.634  -2.213   2.360  0.00  0.00     0.076 C 
ATOM      7  C8  UNL d   1       0.521  -2.044   3.709  0.00  0.00     0.001 A 
ENDROOT
BRANCH   1   8
ATOM      8  C1  UNL d   1      -1.672  -1.922   4.956  0.00  0.00     0.053 C 
ATOM      9  C   UNL d   1      -2.381  -0.617   5.284  0.00  0.00     0.018 C 
ENDBRANCH   1   8
TORSDOF 1
ENDMDL
