MODEL 1
REMARK minimizedAffinity 13.5112629
REMARK minimizedRMSD -1
REMARK  1 active torsions:
REMARK  status: ('A' for Active; 'I' for Inactive)
REMARK    1  A    between atoms: C1_2  and  C2_3 
ROOT
ATOM      1  C2  UNL d   1       3.076   5.850  -3.034  0.00  0.00    -0.073 A 
ATOM      2  C3  UNL d   1       3.746   5.648  -4.246  0.00  0.00    -0.002 A 
ATOM      3  C4  UNL d   1       5.139   5.568  -4.276  0.00  0.00     0.004 A 
ATOM      4  C5  UNL d   1       5.875   5.682  -3.097  0.00  0.00    -0.004 A 
ATOM      5  C6  UNL d   1       5.223   5.872  -1.874  0.00  0.00    -0.075 A 
ATOM      6  C7  UNL d   1       6.000   5.999  -0.597  0.00  0.00     0.076 C 
ATOM      7  C8  UNL d   1       3.824   5.954  -1.852  0.00  0.00     0.001 A 
ENDROOT
BRANCH   1   8
ATOM      8  C1  UNL d   1       1.572   5.930  -2.995  0.00  0.00     0.053 C 
ATOM      9  C   UNL d   1       1.011   5.477  -1.657  0.00  0.00     0.018 C 
ENDBRANCH   1   8
TORSDOF 1
ENDMDL
