MODEL 1
REMARK minimizedAffinity 6.83948708
REMARK minimizedRMSD -1
REMARK  1 active torsions:
REMARK  status: ('A' for Active; 'I' for Inactive)
REMARK    1  A    between atoms: C1_2  and  C2_3 
ROOT
ATOM      1  C2  UNL d   1      -1.253  -2.747   0.722  0.00  0.00    -0.073 A 
ATOM      2  C3  UNL d   1      -2.530  -2.996   0.207  0.00  0.00    -0.002 A 
ATOM      3  C4  UNL d   1      -2.771  -2.887  -1.163  0.00  0.00     0.004 A 
ATOM      4  C5  UNL d   1      -1.737  -2.537  -2.032  0.00  0.00    -0.004 A 
ATOM      5  C6  UNL d   1      -0.451  -2.297  -1.538  0.00  0.00    -0.075 A 
ATOM      6  C7  UNL d   1       0.671  -1.917  -2.459  0.00  0.00     0.076 C 
ATOM      7  C8  UNL d   1      -0.218  -2.405  -0.160  0.00  0.00     0.001 A 
ENDROOT
BRANCH   1   8
ATOM      8  C1  UNL d   1      -0.987  -2.869   2.200  0.00  0.00     0.053 C 
ATOM      9  C   UNL d   1       0.258  -3.693   2.489  0.00  0.00     0.018 C 
ENDBRANCH   1   8
TORSDOF 1
ENDMDL
