MODEL 1
REMARK minimizedAffinity 4.25487375
REMARK minimizedRMSD -1
REMARK  1 active torsions:
REMARK  status: ('A' for Active; 'I' for Inactive)
REMARK    1  A    between atoms: C1_2  and  C2_3 
ROOT
ATOM      1  C2  UNL d   1       4.948   5.402  -2.317  0.00  0.00    -0.073 A 
ATOM      2  C3  UNL d   1       5.880   4.390  -2.577  0.00  0.00    -0.002 A 
ATOM      3  C4  UNL d   1       6.000   3.855  -3.860  0.00  0.00     0.004 A 
ATOM      4  C5  UNL d   1       5.196   4.330  -4.897  0.00  0.00    -0.004 A 
ATOM      5  C6  UNL d   1       4.268   5.349  -4.660  0.00  0.00    -0.075 A 
ATOM      6  C7  UNL d   1       3.395   5.869  -5.763  0.00  0.00     0.076 C 
ATOM      7  C8  UNL d   1       4.152   5.879  -3.368  0.00  0.00     0.001 A 
ENDROOT
BRANCH   1   8
ATOM      8  C1  UNL d   1       4.820   5.987  -0.935  0.00  0.00     0.053 C 
ATOM      9  C   UNL d   1       3.452   5.719  -0.327  0.00  0.00     0.018 C 
ENDBRANCH   1   8
TORSDOF 1
ENDMDL
