MODEL 1
REMARK minimizedAffinity 9.78491974
REMARK minimizedRMSD -1
REMARK  1 active torsions:
REMARK  status: ('A' for Active; 'I' for Inactive)
REMARK    1  A    between atoms: C1_2  and  C2_3 
ROOT
ATOM      1  C2  UNL d   1       1.003  -2.178  -3.415  0.00  0.00    -0.073 A 
ATOM      2  C3  UNL d   1      -0.080  -2.385  -4.277  0.00  0.00    -0.002 A 
ATOM      3  C4  UNL d   1      -1.382  -2.420  -3.777  0.00  0.00     0.004 A 
ATOM      4  C5  UNL d   1      -1.616  -2.241  -2.413  0.00  0.00    -0.004 A 
ATOM      5  C6  UNL d   1      -0.548  -2.021  -1.537  0.00  0.00    -0.075 A 
ATOM      6  C7  UNL d   1      -0.782  -1.829  -0.068  0.00  0.00     0.076 C 
ATOM      7  C8  UNL d   1       0.757  -1.990  -2.047  0.00  0.00     0.001 A 
ENDROOT
BRANCH   1   8
ATOM      8  C1  UNL d   1       2.411  -2.133  -3.951  0.00  0.00     0.053 C 
ATOM      9  C   UNL d   1       3.428  -1.842  -2.858  0.00  0.00     0.018 C 
ENDBRANCH   1   8
TORSDOF 1
ENDMDL
