MODEL 1
REMARK minimizedAffinity 9.44307804
REMARK minimizedRMSD -1
REMARK  1 active torsions:
REMARK  status: ('A' for Active; 'I' for Inactive)
REMARK    1  A    between atoms: C1_2  and  C2_3 
ROOT
ATOM      1  C2  UNL d   1      -0.258  -2.663  -1.399  0.00  0.00    -0.073 A 
ATOM      2  C3  UNL d   1      -1.307  -2.842  -2.308  0.00  0.00    -0.002 A 
ATOM      3  C4  UNL d   1      -1.100  -2.640  -3.673  0.00  0.00     0.004 A 
ATOM      4  C5  UNL d   1       0.158  -2.265  -4.144  0.00  0.00    -0.004 A 
ATOM      5  C6  UNL d   1       1.222  -2.093  -3.253  0.00  0.00    -0.075 A 
ATOM      6  C7  UNL d   1       2.581  -1.687  -3.743  0.00  0.00     0.076 C 
ATOM      7  C8  UNL d   1       1.005  -2.295  -1.883  0.00  0.00     0.001 A 
ENDROOT
BRANCH   1   8
ATOM      8  C1  UNL d   1      -0.476  -2.887   0.075  0.00  0.00     0.053 C 
ATOM      9  C   UNL d   1      -1.884  -2.511   0.507  0.00  0.00     0.018 C 
ENDBRANCH   1   8
TORSDOF 1
ENDMDL
