MODEL 1
REMARK minimizedAffinity 7.40877676
REMARK minimizedRMSD -1
REMARK  1 active torsions:
REMARK  status: ('A' for Active; 'I' for Inactive)
REMARK    1  A    between atoms: C1_2  and  C2_3 
ROOT
ATOM      1  C2  UNL d   1       0.550  -2.276  -2.347  0.00  0.00    -0.073 A 
ATOM      2  C3  UNL d   1      -0.416  -2.154  -3.352  0.00  0.00    -0.002 A 
ATOM      3  C4  UNL d   1      -1.767  -2.037  -3.021  0.00  0.00     0.004 A 
ATOM      4  C5  UNL d   1      -2.163  -2.032  -1.683  0.00  0.00    -0.004 A 
ATOM      5  C6  UNL d   1      -1.211  -2.140  -0.665  0.00  0.00    -0.075 A 
ATOM      6  C7  UNL d   1      -1.622  -2.139   0.779  0.00  0.00     0.076 C 
ATOM      7  C8  UNL d   1       0.143  -2.261  -1.006  0.00  0.00     0.001 A 
ENDROOT
BRANCH   1   8
ATOM      8  C1  UNL d   1       2.010  -2.396  -2.700  0.00  0.00     0.053 C 
ATOM      9  C   UNL d   1       2.226  -2.522  -4.200  0.00  0.00     0.018 C 
ENDBRANCH   1   8
TORSDOF 1
ENDMDL
