MODEL 1
REMARK minimizedAffinity 6.91563129
REMARK minimizedRMSD -1
REMARK  1 active torsions:
REMARK  status: ('A' for Active; 'I' for Inactive)
REMARK    1  A    between atoms: C1_2  and  C2_3 
ROOT
ATOM      1  C2  UNL d   1       5.468   3.836  -3.528  0.00  0.00    -0.073 A 
ATOM      2  C3  UNL d   1       4.850   5.049  -3.853  0.00  0.00    -0.002 A 
ATOM      3  C4  UNL d   1       4.597   5.999  -2.863  0.00  0.00     0.004 A 
ATOM      4  C5  UNL d   1       4.965   5.750  -1.541  0.00  0.00    -0.004 A 
ATOM      5  C6  UNL d   1       5.594   4.549  -1.198  0.00  0.00    -0.075 A 
ATOM      6  C7  UNL d   1       5.993   4.264   0.220  0.00  0.00     0.076 C 
ATOM      7  C8  UNL d   1       5.842   3.599  -2.198  0.00  0.00     0.001 A 
ENDROOT
BRANCH   1   8
ATOM      8  C1  UNL d   1       5.749   2.810  -4.595  0.00  0.00     0.053 C 
ATOM      9  C   UNL d   1       5.764   3.424  -5.986  0.00  0.00     0.018 C 
ENDBRANCH   1   8
TORSDOF 1
ENDMDL
