MODEL 1
REMARK minimizedAffinity 1.77328789
REMARK minimizedRMSD -1
REMARK  1 active torsions:
REMARK  status: ('A' for Active; 'I' for Inactive)
REMARK    1  A    between atoms: C1_2  and  C2_3 
ROOT
ATOM      1  C2  UNL d   1       4.274   4.965  -3.146  0.00  0.00    -0.073 A 
ATOM      2  C3  UNL d   1       3.146   5.476  -3.797  0.00  0.00    -0.002 A 
ATOM      3  C4  UNL d   1       2.945   5.230  -5.156  0.00  0.00     0.004 A 
ATOM      4  C5  UNL d   1       3.865   4.467  -5.875  0.00  0.00    -0.004 A 
ATOM      5  C6  UNL d   1       4.993   3.938  -5.239  0.00  0.00    -0.075 A 
ATOM      6  C7  UNL d   1       5.993   3.118  -5.999  0.00  0.00     0.076 C 
ATOM      7  C8  UNL d   1       5.189   4.192  -3.875  0.00  0.00     0.001 A 
ENDROOT
BRANCH   1   8
ATOM      8  C1  UNL d   1       4.492   5.222  -1.677  0.00  0.00     0.053 C 
ATOM      9  C   UNL d   1       5.841   5.870  -1.406  0.00  0.00     0.018 C 
ENDBRANCH   1   8
TORSDOF 1
ENDMDL
