MODEL 1
REMARK minimizedAffinity 3.95207095
REMARK minimizedRMSD -1
REMARK  1 active torsions:
REMARK  status: ('A' for Active; 'I' for Inactive)
REMARK    1  A    between atoms: C1_2  and  C2_3 
ROOT
ATOM      1  C2  UNL d   1      -0.836  -2.272  -2.240  0.00  0.00    -0.073 A 
ATOM      2  C3  UNL d   1      -0.666  -2.555  -0.880  0.00  0.00    -0.002 A 
ATOM      3  C4  UNL d   1       0.615  -2.671  -0.339  0.00  0.00     0.004 A 
ATOM      4  C5  UNL d   1       1.737  -2.498  -1.149  0.00  0.00    -0.004 A 
ATOM      5  C6  UNL d   1       1.588  -2.203  -2.508  0.00  0.00    -0.075 A 
ATOM      6  C7  UNL d   1       2.785  -2.016  -3.394  0.00  0.00     0.076 C 
ATOM      7  C8  UNL d   1       0.298  -2.091  -3.045  0.00  0.00     0.001 A 
ENDROOT
BRANCH   1   8
ATOM      8  C1  UNL d   1      -2.218  -2.140  -2.828  0.00  0.00     0.053 C 
ATOM      9  C   UNL d   1      -3.302  -2.257  -1.767  0.00  0.00     0.018 C 
ENDBRANCH   1   8
TORSDOF 1
ENDMDL
