MODEL 1
REMARK minimizedAffinity 6.94857359
REMARK minimizedRMSD -1
REMARK  0 active torsions:
REMARK  status: ('A' for Active; 'I' for Inactive)
ROOT
ATOM      1  C   UNL d   1       1.576  -5.988  -5.656  0.00  0.00     0.020 A 
ATOM      2  C1  UNL d   1       0.827  -5.132  -4.850  0.00  0.00     0.020 A 
ATOM      3  C2  UNL d   1       1.390  -3.941  -4.385  0.00  0.00     0.034 A 
ATOM      4  C3  UNL d   1       2.704  -3.603  -4.726  0.00  0.00     0.017 A 
ATOM      5  C4  UNL d   1       3.455  -4.463  -5.536  0.00  0.00     0.017 A 
ATOM      6  C5  UNL d   1       2.887  -5.654  -5.999  0.00  0.00     0.034 A 
ATOM      7 Cl   UNL d   1       5.083  -4.114  -6.000  0.00  0.00    -0.070 Cl
ATOM      8 Cl1  UNL d   1       3.335  -2.115  -4.116  0.00  0.00    -0.070 Cl
ENDROOT
TORSDOF 0
ENDMDL
