MODEL 1
REMARK minimizedAffinity 20.4388733
REMARK minimizedRMSD -1
REMARK  0 active torsions:
REMARK  status: ('A' for Active; 'I' for Inactive)
ROOT
ATOM      1  C   UNL d   1      -4.084  -3.013   5.955  0.00  0.00     0.020 A 
ATOM      2  C1  UNL d   1      -5.464  -2.889   5.797  0.00  0.00     0.020 A 
ATOM      3  C2  UNL d   1      -6.000  -2.604   4.540  0.00  0.00     0.034 A 
ATOM      4  C3  UNL d   1      -5.156  -2.443   3.435  0.00  0.00     0.017 A 
ATOM      5  C4  UNL d   1      -3.771  -2.568   3.594  0.00  0.00     0.017 A 
ATOM      6  C5  UNL d   1      -3.239  -2.853   4.856  0.00  0.00     0.034 A 
ATOM      7 Cl   UNL d   1      -2.666  -2.383   2.278  0.00  0.00    -0.070 Cl
ATOM      8 Cl1  UNL d   1      -5.887  -2.093   1.909  0.00  0.00    -0.070 Cl
ENDROOT
TORSDOF 0
ENDMDL
