MODEL 1
REMARK minimizedAffinity 20.340704
REMARK minimizedRMSD -1
REMARK  0 active torsions:
REMARK  status: ('A' for Active; 'I' for Inactive)
ROOT
ATOM      1  C   UNL d   1       1.786  -1.367   1.889  0.00  0.00     0.020 A 
ATOM      2  C1  UNL d   1       1.514  -2.622   1.347  0.00  0.00     0.020 A 
ATOM      3  C2  UNL d   1       0.249  -3.192   1.504  0.00  0.00     0.034 A 
ATOM      4  C3  UNL d   1      -0.749  -2.506   2.206  0.00  0.00     0.017 A 
ATOM      5  C4  UNL d   1      -0.475  -1.246   2.751  0.00  0.00     0.017 A 
ATOM      6  C5  UNL d   1       0.794  -0.680   2.590  0.00  0.00     0.034 A 
ATOM      7 Cl   UNL d   1      -1.655  -0.340   3.629  0.00  0.00    -0.070 Cl
ATOM      8 Cl1  UNL d   1      -2.291  -3.270   2.362  0.00  0.00    -0.070 Cl
ENDROOT
TORSDOF 0
ENDMDL
