MODEL 1
REMARK minimizedAffinity 7.87453699
REMARK minimizedRMSD -1
REMARK  0 active torsions:
REMARK  status: ('A' for Active; 'I' for Inactive)
ROOT
ATOM      1  C   UNL d   1       1.932  -1.862   1.399  0.00  0.00     0.020 A 
ATOM      2  C1  UNL d   1       0.677  -1.598   0.852  0.00  0.00     0.020 A 
ATOM      3  C2  UNL d   1       0.401  -0.340   0.313  0.00  0.00     0.034 A 
ATOM      4  C3  UNL d   1       1.381   0.659   0.319  0.00  0.00     0.017 A 
ATOM      5  C4  UNL d   1       2.641   0.393   0.867  0.00  0.00     0.017 A 
ATOM      6  C5  UNL d   1       2.912  -0.869   1.406  0.00  0.00     0.034 A 
ATOM      7 Cl   UNL d   1       3.902   1.575   0.910  0.00  0.00    -0.070 Cl
ATOM      8 Cl1  UNL d   1       0.971   2.191  -0.366  0.00  0.00    -0.070 Cl
ENDROOT
TORSDOF 0
ENDMDL
