MODEL 1
REMARK minimizedAffinity 11.3924065
REMARK minimizedRMSD -1
REMARK  0 active torsions:
REMARK  status: ('A' for Active; 'I' for Inactive)
ROOT
ATOM      1  C   UNL d   1      -4.230  -3.061   6.000  0.00  0.00     0.020 A 
ATOM      2  C1  UNL d   1      -5.562  -3.065   5.585  0.00  0.00     0.020 A 
ATOM      3  C2  UNL d   1      -5.872  -2.902   4.233  0.00  0.00     0.034 A 
ATOM      4  C3  UNL d   1      -4.850  -2.735   3.291  0.00  0.00     0.017 A 
ATOM      5  C4  UNL d   1      -3.514  -2.731   3.709  0.00  0.00     0.017 A 
ATOM      6  C5  UNL d   1      -3.209  -2.895   5.064  0.00  0.00     0.034 A 
ATOM      7 Cl   UNL d   1      -2.199  -2.530   2.606  0.00  0.00    -0.070 Cl
ATOM      8 Cl1  UNL d   1      -5.307  -2.539   1.637  0.00  0.00    -0.070 Cl
ENDROOT
TORSDOF 0
ENDMDL
