MODEL 1
REMARK minimizedAffinity 11.8664341
REMARK minimizedRMSD -1
REMARK  0 active torsions:
REMARK  status: ('A' for Active; 'I' for Inactive)
ROOT
ATOM      1  C   UNL d   1       1.265  -5.887  -5.650  0.00  0.00     0.020 A 
ATOM      2  C1  UNL d   1       0.714  -4.851  -4.897  0.00  0.00     0.020 A 
ATOM      3  C2  UNL d   1       1.520  -3.794  -4.468  0.00  0.00     0.034 A 
ATOM      4  C3  UNL d   1       2.881  -3.771  -4.793  0.00  0.00     0.017 A 
ATOM      5  C4  UNL d   1       3.433  -4.811  -5.549  0.00  0.00     0.017 A 
ATOM      6  C5  UNL d   1       2.621  -5.867  -5.975  0.00  0.00     0.034 A 
ATOM      7 Cl   UNL d   1       5.104  -4.852  -5.989  0.00  0.00    -0.070 Cl
ATOM      8 Cl1  UNL d   1       3.819  -2.432  -4.231  0.00  0.00    -0.070 Cl
ENDROOT
TORSDOF 0
ENDMDL
