MODEL 1
REMARK minimizedAffinity 16.8533363
REMARK minimizedRMSD -1
REMARK  0 active torsions:
REMARK  status: ('A' for Active; 'I' for Inactive)
ROOT
ATOM      1  C   UNL d   1       1.983  -4.977   1.454  0.00  0.00     0.020 A 
ATOM      2  C1  UNL d   1       2.427  -4.908   0.134  0.00  0.00     0.020 A 
ATOM      3  C2  UNL d   1       1.601  -4.364  -0.853  0.00  0.00     0.034 A 
ATOM      4  C3  UNL d   1       0.329  -3.886  -0.520  0.00  0.00     0.017 A 
ATOM      5  C4  UNL d   1      -0.116  -3.955   0.805  0.00  0.00     0.017 A 
ATOM      6  C5  UNL d   1       0.715  -4.501   1.789  0.00  0.00     0.034 A 
ATOM      7 Cl   UNL d   1      -1.673  -3.385   1.292  0.00  0.00    -0.070 Cl
ATOM      8 Cl1  UNL d   1      -0.638  -3.225  -1.791  0.00  0.00    -0.070 Cl
ENDROOT
TORSDOF 0
ENDMDL
