MODEL 1
REMARK minimizedAffinity 7.2775383
REMARK minimizedRMSD -1
REMARK  0 active torsions:
REMARK  status: ('A' for Active; 'I' for Inactive)
ROOT
ATOM      1  C   UNL d   1       1.200  -6.000  -5.738  0.00  0.00     0.020 A 
ATOM      2  C1  UNL d   1       0.537  -4.940  -5.121  0.00  0.00     0.020 A 
ATOM      3  C2  UNL d   1       1.242  -3.788  -4.766  0.00  0.00     0.034 A 
ATOM      4  C3  UNL d   1       2.614  -3.693  -5.026  0.00  0.00     0.017 A 
ATOM      5  C4  UNL d   1       3.278  -4.758  -5.646  0.00  0.00     0.017 A 
ATOM      6  C5  UNL d   1       2.568  -5.909  -6.000  0.00  0.00     0.034 A 
ATOM      7 Cl   UNL d   1       4.969  -4.714  -6.000  0.00  0.00    -0.070 Cl
ATOM      8 Cl1  UNL d   1       3.422  -2.239  -4.560  0.00  0.00    -0.070 Cl
ENDROOT
TORSDOF 0
ENDMDL
