MODEL 1
REMARK minimizedAffinity 4.33457994
REMARK minimizedRMSD -1
REMARK  0 active torsions:
REMARK  status: ('A' for Active; 'I' for Inactive)
ROOT
ATOM      1  C   UNL d   1      -0.054  -6.000  -4.998  0.00  0.00     0.020 A 
ATOM      2  C1  UNL d   1      -0.381  -5.071  -4.010  0.00  0.00     0.020 A 
ATOM      3  C2  UNL d   1       0.551  -4.106  -3.623  0.00  0.00     0.034 A 
ATOM      4  C3  UNL d   1       1.815  -4.068  -4.223  0.00  0.00     0.017 A 
ATOM      5  C4  UNL d   1       2.143  -5.001  -5.214  0.00  0.00     0.017 A 
ATOM      6  C5  UNL d   1       1.205  -5.964  -5.598  0.00  0.00     0.034 A 
ATOM      7 Cl   UNL d   1       3.682  -5.016  -6.000  0.00  0.00    -0.070 Cl
ATOM      8 Cl1  UNL d   1       2.919  -2.848  -3.695  0.00  0.00    -0.070 Cl
ENDROOT
TORSDOF 0
ENDMDL
