MODEL 1
REMARK minimizedAffinity 19.8736515
REMARK minimizedRMSD -1
REMARK  0 active torsions:
REMARK  status: ('A' for Active; 'I' for Inactive)
ROOT
ATOM      1  C   UNL d   1      -0.868  -0.463   2.514  0.00  0.00     0.020 A 
ATOM      2  C1  UNL d   1      -1.316  -1.737   2.167  0.00  0.00     0.020 A 
ATOM      3  C2  UNL d   1      -0.432  -2.657   1.599  0.00  0.00     0.034 A 
ATOM      4  C3  UNL d   1       0.904  -2.305   1.376  0.00  0.00     0.017 A 
ATOM      5  C4  UNL d   1       1.353  -1.026   1.724  0.00  0.00     0.017 A 
ATOM      6  C5  UNL d   1       0.464  -0.108   2.293  0.00  0.00     0.034 A 
ATOM      7 Cl   UNL d   1       2.987  -0.518   1.479  0.00  0.00    -0.070 Cl
ATOM      8 Cl1  UNL d   1       1.941  -3.493   0.670  0.00  0.00    -0.070 Cl
ENDROOT
TORSDOF 0
ENDMDL
