MODEL 1
REMARK minimizedAffinity 12.8727722
REMARK minimizedRMSD -1
REMARK  0 active torsions:
REMARK  status: ('A' for Active; 'I' for Inactive)
ROOT
ATOM      1  C   UNL d   1      -2.495   4.129  -4.803  0.00  0.00     0.020 A 
ATOM      2  C1  UNL d   1      -2.095   5.440  -5.061  0.00  0.00     0.020 A 
ATOM      3  C2  UNL d   1      -1.031   5.998  -4.349  0.00  0.00     0.034 A 
ATOM      4  C3  UNL d   1      -0.364   5.246  -3.376  0.00  0.00     0.017 A 
ATOM      5  C4  UNL d   1      -0.765   3.930  -3.118  0.00  0.00     0.017 A 
ATOM      6  C5  UNL d   1      -1.831   3.376  -3.834  0.00  0.00     0.034 A 
ATOM      7 Cl   UNL d   1       0.010   2.940  -1.932  0.00  0.00    -0.070 Cl
ATOM      8 Cl1  UNL d   1       0.943   6.000  -2.534  0.00  0.00    -0.070 Cl
ENDROOT
TORSDOF 0
ENDMDL
