MODEL 1
REMARK minimizedAffinity 20.2880249
REMARK minimizedRMSD -1
REMARK  0 active torsions:
REMARK  status: ('A' for Active; 'I' for Inactive)
ROOT
ATOM      1  C   UNL d   1       0.837  -1.094   1.078  0.00  0.00     0.020 A 
ATOM      2  C1  UNL d   1       2.096  -1.351   1.620  0.00  0.00     0.020 A 
ATOM      3  C2  UNL d   1       3.104  -0.389   1.529  0.00  0.00     0.034 A 
ATOM      4  C3  UNL d   1       2.855   0.833   0.894  0.00  0.00     0.017 A 
ATOM      5  C4  UNL d   1       1.591   1.090   0.350  0.00  0.00     0.017 A 
ATOM      6  C5  UNL d   1       0.585   0.123   0.445  0.00  0.00     0.034 A 
ATOM      7 Cl   UNL d   1       1.209   2.574  -0.448  0.00  0.00    -0.070 Cl
ATOM      8 Cl1  UNL d   1       4.149   1.976   0.817  0.00  0.00    -0.070 Cl
ENDROOT
TORSDOF 0
ENDMDL
