MODEL 1
REMARK minimizedAffinity 14.0340824
REMARK minimizedRMSD -1
REMARK  0 active torsions:
REMARK  status: ('A' for Active; 'I' for Inactive)
ROOT
ATOM      1  C   UNL d   1       0.342   2.095  -0.666  0.00  0.00     0.020 A 
ATOM      2  C1  UNL d   1       0.975   2.385  -1.874  0.00  0.00     0.020 A 
ATOM      3  C2  UNL d   1       0.228   2.849  -2.959  0.00  0.00     0.034 A 
ATOM      4  C3  UNL d   1      -1.155   3.024  -2.838  0.00  0.00     0.017 A 
ATOM      5  C4  UNL d   1      -1.789   2.733  -1.625  0.00  0.00     0.017 A 
ATOM      6  C5  UNL d   1      -1.037   2.268  -0.542  0.00  0.00     0.034 A 
ATOM      7 Cl   UNL d   1      -3.492   2.924  -1.399  0.00  0.00    -0.070 Cl
ATOM      8 Cl1  UNL d   1      -2.016   3.602  -4.221  0.00  0.00    -0.070 Cl
ENDROOT
TORSDOF 0
ENDMDL
