MODEL 1
REMARK minimizedAffinity 9.95196342
REMARK minimizedRMSD -1
REMARK  0 active torsions:
REMARK  status: ('A' for Active; 'I' for Inactive)
ROOT
ATOM      1  C   UNL d   1       4.488   1.372   1.344  0.00  0.00     0.020 A 
ATOM      2  C1  UNL d   1       4.480   0.101   1.916  0.00  0.00     0.020 A 
ATOM      3  C2  UNL d   1       3.319  -0.675   1.879  0.00  0.00     0.034 A 
ATOM      4  C3  UNL d   1       2.162  -0.179   1.268  0.00  0.00     0.017 A 
ATOM      5  C4  UNL d   1       2.171   1.097   0.693  0.00  0.00     0.017 A 
ATOM      6  C5  UNL d   1       3.336   1.869   0.734  0.00  0.00     0.034 A 
ATOM      7 Cl   UNL d   1       0.781   1.776  -0.078  0.00  0.00    -0.070 Cl
ATOM      8 Cl1  UNL d   1       0.762  -1.193   1.258  0.00  0.00    -0.070 Cl
ENDROOT
TORSDOF 0
ENDMDL
