MODEL 1
REMARK minimizedAffinity 5.29151058
REMARK minimizedRMSD -1
REMARK  0 active torsions:
REMARK  status: ('A' for Active; 'I' for Inactive)
ROOT
ATOM      1  C   UNL d   1      -0.896  -0.673   4.374  0.00  0.00     0.020 A 
ATOM      2  C1  UNL d   1       0.088  -0.660   5.360  0.00  0.00     0.020 A 
ATOM      3  C2  UNL d   1       1.438  -0.642   5.000  0.00  0.00     0.034 A 
ATOM      4  C3  UNL d   1       1.806  -0.638   3.650  0.00  0.00     0.017 A 
ATOM      5  C4  UNL d   1       0.816  -0.651   2.660  0.00  0.00     0.017 A 
ATOM      6  C5  UNL d   1      -0.533  -0.669   3.026  0.00  0.00     0.034 A 
ATOM      7 Cl   UNL d   1       1.193  -0.646   0.973  0.00  0.00    -0.070 Cl
ATOM      8 Cl1  UNL d   1       3.492  -0.615   3.277  0.00  0.00    -0.070 Cl
ENDROOT
TORSDOF 0
ENDMDL
