MODEL 1
REMARK minimizedAffinity 10.0852118
REMARK minimizedRMSD -1
REMARK  0 active torsions:
REMARK  status: ('A' for Active; 'I' for Inactive)
ROOT
ATOM      1  C   UNL d   1      -5.999  -5.997   1.090  0.00  0.00     0.020 A 
ATOM      2  C1  UNL d   1      -5.163  -5.929  -0.024  0.00  0.00     0.020 A 
ATOM      3  C2  UNL d   1      -4.128  -4.993  -0.065  0.00  0.00     0.034 A 
ATOM      4  C3  UNL d   1      -3.926  -4.120   1.011  0.00  0.00     0.017 A 
ATOM      5  C4  UNL d   1      -4.765  -4.189   2.129  0.00  0.00     0.017 A 
ATOM      6  C5  UNL d   1      -5.800  -5.129   2.164  0.00  0.00     0.034 A 
ATOM      7 Cl   UNL d   1      -4.578  -3.146   3.494  0.00  0.00    -0.070 Cl
ATOM      8 Cl1  UNL d   1      -2.626  -2.988   0.893  0.00  0.00    -0.070 Cl
ENDROOT
TORSDOF 0
ENDMDL
