MODEL 1
REMARK minimizedAffinity 19.8134747
REMARK minimizedRMSD -1
REMARK  0 active torsions:
REMARK  status: ('A' for Active; 'I' for Inactive)
ROOT
ATOM      1  C   UNL d   1      -5.997  -5.527   2.432  0.00  0.00     0.020 A 
ATOM      2  C1  UNL d   1      -5.358  -4.404   2.957  0.00  0.00     0.020 A 
ATOM      3  C2  UNL d   1      -4.369  -3.754   2.215  0.00  0.00     0.034 A 
ATOM      4  C3  UNL d   1      -4.017  -4.225   0.945  0.00  0.00     0.017 A 
ATOM      5  C4  UNL d   1      -4.659  -5.352   0.420  0.00  0.00     0.017 A 
ATOM      6  C5  UNL d   1      -5.648  -6.000   1.166  0.00  0.00     0.034 A 
ATOM      7 Cl   UNL d   1      -4.279  -5.992  -1.140  0.00  0.00    -0.070 Cl
ATOM      8 Cl1  UNL d   1      -2.787  -3.371   0.084  0.00  0.00    -0.070 Cl
ENDROOT
TORSDOF 0
ENDMDL
