MODEL 1
REMARK minimizedAffinity 5.70172405
REMARK minimizedRMSD -1
REMARK  0 active torsions:
REMARK  status: ('A' for Active; 'I' for Inactive)
ROOT
ATOM      1  C1  BNZ d   1       3.770   3.316  -4.873  0.00  0.00     0.000 A 
ATOM      2  C2  BNZ d   1       3.755   4.684  -4.943  0.00  0.00     0.000 A 
ATOM      3  C3  BNZ d   1       4.861   5.414  -4.609  0.00  0.00     0.000 A 
ATOM      4  C4  BNZ d   1       5.966   4.779  -4.167  0.00  0.00     0.000 A 
ATOM      5  C5  BNZ d   1       5.994   3.402  -4.082  0.00  0.00     0.000 A 
ATOM      6  C6  BNZ d   1       4.892   2.668  -4.456  0.00  0.00     0.000 A 
ENDROOT
TORSDOF 0
ENDMDL
