MODEL 1
REMARK minimizedAffinity -3.92074585
REMARK minimizedRMSD -1
REMARK  0 active torsions:
REMARK  status: ('A' for Active; 'I' for Inactive)
ROOT
ATOM      1  C1  BNZ d   1       5.614  -1.847   3.408  0.00  0.00     0.000 A 
ATOM      2  C2  BNZ d   1       5.654  -0.572   2.912  0.00  0.00     0.000 A 
ATOM      3  C3  BNZ d   1       5.802   0.500   3.747  0.00  0.00     0.000 A 
ATOM      4  C4  BNZ d   1       5.870   0.299   5.079  0.00  0.00     0.000 A 
ATOM      5  C5  BNZ d   1       5.822  -0.981   5.596  0.00  0.00     0.000 A 
ATOM      6  C6  BNZ d   1       5.712  -2.060   4.749  0.00  0.00     0.000 A 
ENDROOT
TORSDOF 0
ENDMDL
