MODEL 1
REMARK minimizedAffinity 0.625478387
REMARK minimizedRMSD -1
REMARK  0 active torsions:
REMARK  status: ('A' for Active; 'I' for Inactive)
ROOT
ATOM      1  C1  BNZ d   1       4.942   4.165  -4.256  0.00  0.00     0.000 A 
ATOM      2  C2  BNZ d   1       3.726   4.246  -3.632  0.00  0.00     0.000 A 
ATOM      3  C3  BNZ d   1       3.553   5.046  -2.537  0.00  0.00     0.000 A 
ATOM      4  C4  BNZ d   1       4.604   5.733  -2.045  0.00  0.00     0.000 A 
ATOM      5  C5  BNZ d   1       5.839   5.654  -2.658  0.00  0.00     0.000 A 
ATOM      6  C6  BNZ d   1       6.000   4.878  -3.783  0.00  0.00     0.000 A 
ENDROOT
TORSDOF 0
ENDMDL
