MODEL 1
REMARK minimizedAffinity -3.51647949
REMARK minimizedRMSD -1
REMARK  0 active torsions:
REMARK  status: ('A' for Active; 'I' for Inactive)
ROOT
ATOM      1  C1  BNZ d   1       5.187   3.382   4.810  0.00  0.00     0.000 A 
ATOM      2  C2  BNZ d   1       5.360   2.036   4.989  0.00  0.00     0.000 A 
ATOM      3  C3  BNZ d   1       5.731   1.233   3.948  0.00  0.00     0.000 A 
ATOM      4  C4  BNZ d   1       5.890   1.769   2.721  0.00  0.00     0.000 A 
ATOM      5  C5  BNZ d   1       5.711   3.124   2.521  0.00  0.00     0.000 A 
ATOM      6  C6  BNZ d   1       5.375   3.935   3.581  0.00  0.00     0.000 A 
ENDROOT
TORSDOF 0
ENDMDL
