MODEL 1
REMARK minimizedAffinity -3.21835184
REMARK minimizedRMSD -1
REMARK  0 active torsions:
REMARK  status: ('A' for Active; 'I' for Inactive)
ROOT
ATOM      1  C1  BNZ d   1       5.610   2.305   5.840  0.00  0.00     0.000 A 
ATOM      2  C2  BNZ d   1       5.783   1.430   4.801  0.00  0.00     0.000 A 
ATOM      3  C3  BNZ d   1       5.995   1.886   3.530  0.00  0.00     0.000 A 
ATOM      4  C4  BNZ d   1       5.993   3.214   3.293  0.00  0.00     0.000 A 
ATOM      5  C5  BNZ d   1       5.810   4.108   4.329  0.00  0.00     0.000 A 
ATOM      6  C6  BNZ d   1       5.636   3.647   5.613  0.00  0.00     0.000 A 
ENDROOT
TORSDOF 0
ENDMDL
