MODEL 1
REMARK minimizedAffinity -1.48117387
REMARK minimizedRMSD -1
REMARK  0 active torsions:
REMARK  status: ('A' for Active; 'I' for Inactive)
ROOT
ATOM      1  C1  BNZ d   1       5.245   2.294   3.757  0.00  0.00     0.000 A 
ATOM      2  C2  BNZ d   1       5.994   1.303   3.180  0.00  0.00     0.000 A 
ATOM      3  C3  BNZ d   1       6.000   0.038   3.698  0.00  0.00     0.000 A 
ATOM      4  C4  BNZ d   1       5.290  -0.225   4.813  0.00  0.00     0.000 A 
ATOM      5  C5  BNZ d   1       4.537   0.765   5.413  0.00  0.00     0.000 A 
ATOM      6  C6  BNZ d   1       4.502   2.028   4.866  0.00  0.00     0.000 A 
ENDROOT
TORSDOF 0
ENDMDL
