MODEL 1
REMARK minimizedAffinity -2.04494166
REMARK minimizedRMSD -1
REMARK  0 active torsions:
REMARK  status: ('A' for Active; 'I' for Inactive)
ROOT
ATOM      1  C1  BNZ d   1       5.677   1.643   3.637  0.00  0.00     0.000 A 
ATOM      2  C2  BNZ d   1       5.359   0.312   3.675  0.00  0.00     0.000 A 
ATOM      3  C3  BNZ d   1       5.336  -0.368   4.861  0.00  0.00     0.000 A 
ATOM      4  C4  BNZ d   1       5.668   0.274   6.000  0.00  0.00     0.000 A 
ATOM      5  C5  BNZ d   1       5.999   1.614   5.976  0.00  0.00     0.000 A 
ATOM      6  C6  BNZ d   1       5.984   2.304   4.786  0.00  0.00     0.000 A 
ENDROOT
TORSDOF 0
ENDMDL
