MODEL 1
REMARK minimizedAffinity -3.33308721
REMARK minimizedRMSD -1
REMARK  0 active torsions:
REMARK  status: ('A' for Active; 'I' for Inactive)
ROOT
ATOM      1  C1  BNZ d   1       5.945   1.914   4.487  0.00  0.00     0.000 A 
ATOM      2  C2  BNZ d   1       5.520   1.454   5.705  0.00  0.00     0.000 A 
ATOM      3  C3  BNZ d   1       5.152   0.148   5.871  0.00  0.00     0.000 A 
ATOM      4  C4  BNZ d   1       5.171  -0.686   4.811  0.00  0.00     0.000 A 
ATOM      5  C5  BNZ d   1       5.588  -0.235   3.574  0.00  0.00     0.000 A 
ATOM      6  C6  BNZ d   1       5.994   1.070   3.420  0.00  0.00     0.000 A 
ENDROOT
TORSDOF 0
ENDMDL
