MODEL 1
REMARK minimizedAffinity -3.6913228
REMARK minimizedRMSD -1
REMARK  0 active torsions:
REMARK  status: ('A' for Active; 'I' for Inactive)
ROOT
ATOM      1  C1  BNZ d   1       5.793   0.337   5.175  0.00  0.00     0.000 A 
ATOM      2  C2  BNZ d   1       5.521  -0.805   5.880  0.00  0.00     0.000 A 
ATOM      3  C3  BNZ d   1       5.167  -1.957   5.236  0.00  0.00     0.000 A 
ATOM      4  C4  BNZ d   1       5.045  -1.956   3.893  0.00  0.00     0.000 A 
ATOM      5  C5  BNZ d   1       5.306  -0.810   3.169  0.00  0.00     0.000 A 
ATOM      6  C6  BNZ d   1       5.700   0.338   3.817  0.00  0.00     0.000 A 
ENDROOT
TORSDOF 0
ENDMDL
