MODEL 1
REMARK minimizedAffinity -1.1180892
REMARK minimizedRMSD -1
REMARK  0 active torsions:
REMARK  status: ('A' for Active; 'I' for Inactive)
ROOT
ATOM      1  C1  BNZ d   1       4.659  -0.043   5.948  0.00  0.00     0.000 A 
ATOM      2  C2  BNZ d   1       4.684   1.209   5.395  0.00  0.00     0.000 A 
ATOM      3  C3  BNZ d   1       5.338   1.442   4.218  0.00  0.00     0.000 A 
ATOM      4  C4  BNZ d   1       6.000   0.432   3.617  0.00  0.00     0.000 A 
ATOM      5  C5  BNZ d   1       5.992  -0.835   4.167  0.00  0.00     0.000 A 
ATOM      6  C6  BNZ d   1       5.299  -1.073   5.332  0.00  0.00     0.000 A 
ENDROOT
TORSDOF 0
ENDMDL
