MODEL 1
REMARK minimizedAffinity -0.536750853
REMARK minimizedRMSD -1
REMARK  0 active torsions:
REMARK  status: ('A' for Active; 'I' for Inactive)
ROOT
ATOM      1  C1  BNZ d   1       4.932  -0.057   5.988  0.00  0.00     0.000 A 
ATOM      2  C2  BNZ d   1       4.948   1.093   5.244  0.00  0.00     0.000 A 
ATOM      3  C3  BNZ d   1       5.463   1.101   3.978  0.00  0.00     0.000 A 
ATOM      4  C4  BNZ d   1       5.999  -0.030   3.473  0.00  0.00     0.000 A 
ATOM      5  C5  BNZ d   1       5.999  -1.194   4.214  0.00  0.00     0.000 A 
ATOM      6  C6  BNZ d   1       5.444  -1.208   5.473  0.00  0.00     0.000 A 
ENDROOT
TORSDOF 0
ENDMDL
