MODEL 1
REMARK minimizedAffinity -2.9710722
REMARK minimizedRMSD -1
REMARK  0 active torsions:
REMARK  status: ('A' for Active; 'I' for Inactive)
ROOT
ATOM      1  C1  BNZ d   1       5.983   2.647   5.245  0.00  0.00     0.000 A 
ATOM      2  C2  BNZ d   1       5.999   1.504   6.000  0.00  0.00     0.000 A 
ATOM      3  C3  BNZ d   1       5.475   0.338   5.516  0.00  0.00     0.000 A 
ATOM      4  C4  BNZ d   1       4.900   0.326   4.296  0.00  0.00     0.000 A 
ATOM      5  C5  BNZ d   1       4.868   1.472   3.526  0.00  0.00     0.000 A 
ATOM      6  C6  BNZ d   1       5.431   2.634   4.001  0.00  0.00     0.000 A 
ENDROOT
TORSDOF 0
ENDMDL
