MODEL 1
REMARK minimizedAffinity -2.96990037
REMARK minimizedRMSD -1
REMARK  0 active torsions:
REMARK  status: ('A' for Active; 'I' for Inactive)
ROOT
ATOM      1  C1  BNZ d   1       4.475   4.154   2.221  0.00  0.00     0.000 A 
ATOM      2  C2  BNZ d   1       4.491   4.204   3.590  0.00  0.00     0.000 A 
ATOM      3  C3  BNZ d   1       5.239   5.141   4.246  0.00  0.00     0.000 A 
ATOM      4  C4  BNZ d   1       5.999   5.999   3.537  0.00  0.00     0.000 A 
ATOM      5  C5  BNZ d   1       6.000   5.956   2.157  0.00  0.00     0.000 A 
ATOM      6  C6  BNZ d   1       5.216   5.036   1.498  0.00  0.00     0.000 A 
ENDROOT
TORSDOF 0
ENDMDL
