MODEL 1
REMARK minimizedAffinity -2.46719742
REMARK minimizedRMSD -1
REMARK  0 active torsions:
REMARK  status: ('A' for Active; 'I' for Inactive)
ROOT
ATOM      1  C2' OXE d   1       0.438   5.343   5.997  0.00  0.00     0.078 C 
ATOM      2  C1' OXE d   1       1.284   2.666   6.000  0.00  0.00     0.078 C 
ATOM      3  C1  OXE d   1       2.206   3.695   5.395  0.00  0.00    -0.078 A 
ATOM      4  C2  OXE d   1       1.764   4.995   5.356  0.00  0.00    -0.078 A 
ATOM      5  C3  OXE d   1       2.598   5.993   4.859  0.00  0.00     0.003 A 
ATOM      6  C4  OXE d   1       3.819   5.661   4.259  0.00  0.00    -0.002 A 
ATOM      7  C5  OXE d   1       4.271   4.337   4.252  0.00  0.00    -0.002 A 
ATOM      8  C6  OXE d   1       3.497   3.350   4.853  0.00  0.00     0.003 A 
ENDROOT
TORSDOF 0
ENDMDL
