MODEL 1
REMARK minimizedAffinity 11.8689289
REMARK minimizedRMSD -1
REMARK  0 active torsions:
REMARK  status: ('A' for Active; 'I' for Inactive)
ROOT
ATOM      1  C2' OXE d   1      -4.369   1.840   2.186  0.00  0.00     0.078 C 
ATOM      2  C1' OXE d   1      -5.770   0.261   0.336  0.00  0.00     0.078 C 
ATOM      3  C1  OXE d   1      -4.318   0.554   0.053  0.00  0.00    -0.078 A 
ATOM      4  C2  OXE d   1      -3.653   1.366   0.940  0.00  0.00    -0.078 A 
ATOM      5  C3  OXE d   1      -2.297   1.624   0.756  0.00  0.00     0.003 A 
ATOM      6  C4  OXE d   1      -1.645   1.190  -0.404  0.00  0.00    -0.002 A 
ATOM      7  C5  OXE d   1      -2.314   0.395  -1.340  0.00  0.00    -0.002 A 
ATOM      8  C6  OXE d   1      -3.636   0.033  -1.106  0.00  0.00     0.003 A 
ENDROOT
TORSDOF 0
ENDMDL
