MODEL 1
REMARK minimizedAffinity 10.765377
REMARK minimizedRMSD -1
REMARK  0 active torsions:
REMARK  status: ('A' for Active; 'I' for Inactive)
ROOT
ATOM      1  C2' OXE d   1       5.999   2.927   1.131  0.00  0.00     0.078 C 
ATOM      2  C1' OXE d   1       3.839   2.589   2.892  0.00  0.00     0.078 C 
ATOM      3  C1  OXE d   1       3.729   1.978   1.518  0.00  0.00    -0.078 A 
ATOM      4  C2  OXE d   1       4.771   2.188   0.647  0.00  0.00    -0.078 A 
ATOM      5  C3  OXE d   1       4.744   1.600  -0.615  0.00  0.00     0.003 A 
ATOM      6  C4  OXE d   1       3.600   0.926  -1.058  0.00  0.00    -0.002 A 
ATOM      7  C5  OXE d   1       2.511   0.735  -0.201  0.00  0.00    -0.002 A 
ATOM      8  C6  OXE d   1       2.577   1.217   1.102  0.00  0.00     0.003 A 
ENDROOT
TORSDOF 0
ENDMDL
