MODEL 1
REMARK minimizedAffinity 9.62587547
REMARK minimizedRMSD -1
REMARK  0 active torsions:
REMARK  status: ('A' for Active; 'I' for Inactive)
ROOT
ATOM      1  C2' OXE d   1       4.514   1.057  -2.207  0.00  0.00     0.078 C 
ATOM      2  C1' OXE d   1       4.180   0.605   0.543  0.00  0.00     0.078 C 
ATOM      3  C1  OXE d   1       3.732  -0.477  -0.407  0.00  0.00    -0.078 A 
ATOM      4  C2  OXE d   1       3.856  -0.228  -1.753  0.00  0.00    -0.078 A 
ATOM      5  C3  OXE d   1       3.508  -1.214  -2.671  0.00  0.00     0.003 A 
ATOM      6  C4  OXE d   1       2.890  -2.396  -2.243  0.00  0.00    -0.002 A 
ATOM      7  C5  OXE d   1       2.718  -2.652  -0.878  0.00  0.00    -0.002 A 
ATOM      8  C6  OXE d   1       3.171  -1.724   0.052  0.00  0.00     0.003 A 
ENDROOT
TORSDOF 0
ENDMDL
