MODEL 1
REMARK minimizedAffinity 2.24572849
REMARK minimizedRMSD -1
REMARK  0 active torsions:
REMARK  status: ('A' for Active; 'I' for Inactive)
ROOT
ATOM      1  C2' OXE d   1       3.741   5.855   3.194  0.00  0.00     0.078 C 
ATOM      2  C1' OXE d   1       3.636   5.870   5.999  0.00  0.00     0.078 C 
ATOM      3  C1  OXE d   1       3.280   4.588   5.289  0.00  0.00    -0.078 A 
ATOM      4  C2  OXE d   1       3.289   4.603   3.915  0.00  0.00    -0.078 A 
ATOM      5  C3  OXE d   1       3.021   3.433   3.211  0.00  0.00     0.003 A 
ATOM      6  C4  OXE d   1       2.593   2.282   3.885  0.00  0.00    -0.002 A 
ATOM      7  C5  OXE d   1       2.539   2.257   5.283  0.00  0.00    -0.002 A 
ATOM      8  C6  OXE d   1       2.919   3.387   6.000  0.00  0.00     0.003 A 
ENDROOT
TORSDOF 0
ENDMDL
