MODEL 1
REMARK minimizedAffinity 4.89393759
REMARK minimizedRMSD -1
REMARK  0 active torsions:
REMARK  status: ('A' for Active; 'I' for Inactive)
ROOT
ATOM      1  C2' OXE d   1      -2.789   3.765   4.602  0.00  0.00     0.078 C 
ATOM      2  C1' OXE d   1      -0.749   3.318   2.725  0.00  0.00     0.078 C 
ATOM      3  C1  OXE d   1      -0.458   4.253   3.872  0.00  0.00    -0.078 A 
ATOM      4  C2  OXE d   1      -1.477   4.502   4.760  0.00  0.00    -0.078 A 
ATOM      5  C3  OXE d   1      -1.244   5.314   5.866  0.00  0.00     0.003 A 
ATOM      6  C4  OXE d   1      -0.031   6.000   6.000  0.00  0.00    -0.002 A 
ATOM      7  C5  OXE d   1       1.007   5.791   5.085  0.00  0.00    -0.002 A 
ATOM      8  C6  OXE d   1       0.825   4.890   4.042  0.00  0.00     0.003 A 
ENDROOT
TORSDOF 0
ENDMDL
