MODEL 1
REMARK minimizedAffinity 4.28769207
REMARK minimizedRMSD -1
REMARK  1 active torsions:
REMARK  status: ('A' for Active; 'I' for Inactive)
REMARK    1  A    between atoms: C1_2  and  C2_3 
ROOT
ATOM      1  C2  UNL d   1       2.580   0.152  -1.376  0.00  0.00    -0.076 A 
ATOM      2  C3  UNL d   1       2.042  -0.405  -2.549  0.00  0.00     0.004 A 
ATOM      3  C4  UNL d   1       2.047  -1.783  -2.756  0.00  0.00    -0.003 A 
ATOM      4  C5  UNL d   1       2.590  -2.627  -1.793  0.00  0.00     0.000 A 
ATOM      5  C6  UNL d   1       3.112  -2.093  -0.616  0.00  0.00     0.000 A 
ATOM      6  C7  UNL d   1       3.100  -0.706  -0.384  0.00  0.00    -0.073 A 
ATOM      7  C8  UNL d   1       3.682  -0.184   0.901  0.00  0.00     0.078 C 
ENDROOT
BRANCH   1   8
ATOM      8  C1  UNL d   1       2.572   1.656  -1.219  0.00  0.00     0.053 C 
ATOM      9  C   UNL d   1       1.298   2.291  -1.755  0.00  0.00     0.018 C 
ENDBRANCH   1   8
TORSDOF 1
ENDMDL
