MODEL 1
REMARK minimizedAffinity 5.47316837
REMARK minimizedRMSD -1
REMARK  1 active torsions:
REMARK  status: ('A' for Active; 'I' for Inactive)
REMARK    1  A    between atoms: C1_2  and  C2_3 
ROOT
ATOM      1  C2  UNL d   1       0.763   1.904  -0.248  0.00  0.00    -0.076 A 
ATOM      2  C3  UNL d   1      -0.373   1.942  -1.076  0.00  0.00     0.004 A 
ATOM      3  C4  UNL d   1      -1.619   2.306  -0.569  0.00  0.00    -0.003 A 
ATOM      4  C5  UNL d   1      -1.750   2.640   0.775  0.00  0.00     0.000 A 
ATOM      5  C6  UNL d   1      -0.630   2.625   1.607  0.00  0.00     0.000 A 
ATOM      6  C7  UNL d   1       0.636   2.275   1.108  0.00  0.00    -0.073 A 
ATOM      7  C8  UNL d   1       1.808   2.270   2.051  0.00  0.00     0.078 C 
ENDROOT
BRANCH   1   8
ATOM      8  C1  UNL d   1       2.082   1.475  -0.848  0.00  0.00     0.053 C 
ATOM      9  C   UNL d   1       1.921   0.373  -1.884  0.00  0.00     0.018 C 
ENDBRANCH   1   8
TORSDOF 1
ENDMDL
