MODEL 1
REMARK minimizedAffinity 8.93773937
REMARK minimizedRMSD -1
REMARK  1 active torsions:
REMARK  status: ('A' for Active; 'I' for Inactive)
REMARK    1  A    between atoms: C1_2  and  C2_3 
ROOT
ATOM      1  C2  UNL d   1       1.752   2.733  -0.041  0.00  0.00    -0.076 A 
ATOM      2  C3  UNL d   1       2.350   1.724   0.734  0.00  0.00     0.004 A 
ATOM      3  C4  UNL d   1       3.062   2.036   1.891  0.00  0.00    -0.003 A 
ATOM      4  C5  UNL d   1       3.188   3.361   2.292  0.00  0.00     0.000 A 
ATOM      5  C6  UNL d   1       2.587   4.373   1.545  0.00  0.00     0.000 A 
ATOM      6  C7  UNL d   1       1.851   4.075   0.385  0.00  0.00    -0.073 A 
ATOM      7  C8  UNL d   1       1.229   5.207  -0.386  0.00  0.00     0.078 C 
ENDROOT
BRANCH   1   8
ATOM      8  C1  UNL d   1       1.015   2.338  -1.300  0.00  0.00     0.053 C 
ATOM      9  C   UNL d   1       1.631   1.125  -1.980  0.00  0.00     0.018 C 
ENDBRANCH   1   8
TORSDOF 1
ENDMDL
