MODEL 1
REMARK minimizedAffinity 5.14595795
REMARK minimizedRMSD -1
REMARK  1 active torsions:
REMARK  status: ('A' for Active; 'I' for Inactive)
REMARK    1  A    between atoms: C1_2  and  C2_3 
ROOT
ATOM      1  C2  UNL d   1       4.319  -3.684   4.585  0.00  0.00    -0.076 A 
ATOM      2  C3  UNL d   1       3.931  -2.403   4.157  0.00  0.00     0.004 A 
ATOM      3  C4  UNL d   1       4.561  -1.261   4.649  0.00  0.00    -0.003 A 
ATOM      4  C5  UNL d   1       5.589  -1.382   5.577  0.00  0.00     0.000 A 
ATOM      5  C6  UNL d   1       5.999  -2.646   5.999  0.00  0.00     0.000 A 
ATOM      6  C7  UNL d   1       5.385  -3.808   5.501  0.00  0.00    -0.073 A 
ATOM      7  C8  UNL d   1       5.863  -5.146   5.996  0.00  0.00     0.078 C 
ENDROOT
BRANCH   1   8
ATOM      8  C1  UNL d   1       3.581  -4.885   4.037  0.00  0.00     0.053 C 
ATOM      9  C   UNL d   1       2.165  -4.547   3.596  0.00  0.00     0.018 C 
ENDBRANCH   1   8
TORSDOF 1
ENDMDL
