MODEL 1
REMARK minimizedAffinity 1.0525279
REMARK minimizedRMSD -1
REMARK  1 active torsions:
REMARK  status: ('A' for Active; 'I' for Inactive)
REMARK    1  A    between atoms: C1_2  and  C2_3 
ROOT
ATOM      1  C2  UNL d   1       2.014  -0.739  -1.283  0.00  0.00    -0.076 A 
ATOM      2  C3  UNL d   1       0.687  -1.152  -1.494  0.00  0.00     0.004 A 
ATOM      3  C4  UNL d   1       0.179  -2.285  -0.860  0.00  0.00    -0.003 A 
ATOM      4  C5  UNL d   1       0.989  -3.023  -0.005  0.00  0.00     0.000 A 
ATOM      5  C6  UNL d   1       2.303  -2.617   0.230  0.00  0.00     0.000 A 
ATOM      6  C7  UNL d   1       2.826  -1.469  -0.388  0.00  0.00    -0.073 A 
ATOM      7  C8  UNL d   1       4.251  -1.081  -0.104  0.00  0.00     0.078 C 
ENDROOT
BRANCH   1   8
ATOM      8  C1  UNL d   1       2.518   0.482  -2.019  0.00  0.00     0.053 C 
ATOM      9  C   UNL d   1       1.420   1.503  -2.274  0.00  0.00     0.018 C 
ENDBRANCH   1   8
TORSDOF 1
ENDMDL
