MODEL 1
REMARK minimizedAffinity 5.67491341
REMARK minimizedRMSD -1
REMARK  1 active torsions:
REMARK  status: ('A' for Active; 'I' for Inactive)
REMARK    1  A    between atoms: C1_2  and  C2_3 
ROOT
ATOM      1  C2  UNL d   1       2.982  -2.856  -0.877  0.00  0.00    -0.076 A 
ATOM      2  C3  UNL d   1       4.208  -2.219  -0.613  0.00  0.00     0.004 A 
ATOM      3  C4  UNL d   1       4.577  -1.062  -1.296  0.00  0.00    -0.003 A 
ATOM      4  C5  UNL d   1       3.726  -0.522  -2.255  0.00  0.00     0.000 A 
ATOM      5  C6  UNL d   1       2.499  -1.131  -2.517  0.00  0.00     0.000 A 
ATOM      6  C7  UNL d   1       2.105  -2.289  -1.825  0.00  0.00    -0.073 A 
ATOM      7  C8  UNL d   1       0.773  -2.907  -2.152  0.00  0.00     0.078 C 
ENDROOT
BRANCH   1   8
ATOM      8  C1  UNL d   1       2.648  -4.123  -0.123  0.00  0.00     0.053 C 
ATOM      9  C   UNL d   1       2.792  -3.961   1.382  0.00  0.00     0.018 C 
ENDBRANCH   1   8
TORSDOF 1
ENDMDL
