MODEL 1
REMARK minimizedAffinity 4.07887316
REMARK minimizedRMSD -1
REMARK  1 active torsions:
REMARK  status: ('A' for Active; 'I' for Inactive)
REMARK    1  A    between atoms: C1_2  and  C2_3 
ROOT
ATOM      1  C2  UNL d   1       1.741  -0.533  -1.642  0.00  0.00    -0.076 A 
ATOM      2  C3  UNL d   1       0.467  -0.950  -1.218  0.00  0.00     0.004 A 
ATOM      3  C4  UNL d   1       0.313  -2.075  -0.408  0.00  0.00    -0.003 A 
ATOM      4  C5  UNL d   1       1.430  -2.800  -0.009  0.00  0.00     0.000 A 
ATOM      5  C6  UNL d   1       2.703  -2.390  -0.406  0.00  0.00     0.000 A 
ATOM      6  C7  UNL d   1       2.877  -1.250  -1.208  0.00  0.00    -0.073 A 
ATOM      7  C8  UNL d   1       4.272  -0.857  -1.611  0.00  0.00     0.078 C 
ENDROOT
BRANCH   1   8
ATOM      8  C1  UNL d   1       1.845   0.678  -2.541  0.00  0.00     0.053 C 
ATOM      9  C   UNL d   1       1.393   1.956  -1.852  0.00  0.00     0.018 C 
ENDBRANCH   1   8
TORSDOF 1
ENDMDL
