MODEL 1
REMARK minimizedAffinity 1.17662168
REMARK minimizedRMSD -1
REMARK  1 active torsions:
REMARK  status: ('A' for Active; 'I' for Inactive)
REMARK    1  A    between atoms: C1_2  and  C2_3 
ROOT
ATOM      1  C2  UNL d   1       2.076  -0.404  -1.907  0.00  0.00    -0.076 A 
ATOM      2  C3  UNL d   1       2.748  -0.092  -0.713  0.00  0.00     0.004 A 
ATOM      3  C4  UNL d   1       2.835  -1.019   0.324  0.00  0.00    -0.003 A 
ATOM      4  C5  UNL d   1       2.252  -2.274   0.184  0.00  0.00     0.000 A 
ATOM      5  C6  UNL d   1       1.597  -2.607  -1.001  0.00  0.00     0.000 A 
ATOM      6  C7  UNL d   1       1.514  -1.690  -2.063  0.00  0.00    -0.073 A 
ATOM      7  C8  UNL d   1       0.789  -2.100  -3.316  0.00  0.00     0.078 C 
ENDROOT
BRANCH   1   8
ATOM      8  C1  UNL d   1       1.990   0.651  -2.987  0.00  0.00     0.053 C 
ATOM      9  C   UNL d   1       2.360   2.036  -2.479  0.00  0.00     0.018 C 
ENDBRANCH   1   8
TORSDOF 1
ENDMDL
