MODEL 1
REMARK minimizedAffinity 2.67323613
REMARK minimizedRMSD -1
REMARK  1 active torsions:
REMARK  status: ('A' for Active; 'I' for Inactive)
REMARK    1  A    between atoms: C1_2  and  C2_3 
ROOT
ATOM      1  C2  UNL d   1       1.868   0.741  -1.861  0.00  0.00    -0.076 A 
ATOM      2  C3  UNL d   1       1.537  -0.625  -1.829  0.00  0.00     0.004 A 
ATOM      3  C4  UNL d   1       2.517  -1.597  -1.636  0.00  0.00    -0.003 A 
ATOM      4  C5  UNL d   1       3.845  -1.218  -1.472  0.00  0.00     0.000 A 
ATOM      5  C6  UNL d   1       4.189   0.133  -1.483  0.00  0.00     0.000 A 
ATOM      6  C7  UNL d   1       3.210   1.126  -1.660  0.00  0.00    -0.073 A 
ATOM      7  C8  UNL d   1       3.639   2.568  -1.670  0.00  0.00     0.078 C 
ENDROOT
BRANCH   1   8
ATOM      8  C1  UNL d   1       0.766   1.748  -2.101  0.00  0.00     0.053 C 
ATOM      9  C   UNL d   1      -0.313   1.698  -1.030  0.00  0.00     0.018 C 
ENDBRANCH   1   8
TORSDOF 1
ENDMDL
