MODEL 1
REMARK minimizedAffinity 12.9881544
REMARK minimizedRMSD -1
REMARK  1 active torsions:
REMARK  status: ('A' for Active; 'I' for Inactive)
REMARK    1  A    between atoms: C1_2  and  C2_3 
ROOT
ATOM      1  C2  UNL d   1       1.373   1.662  -0.765  0.00  0.00    -0.076 A 
ATOM      2  C3  UNL d   1       0.150   1.865  -1.427  0.00  0.00     0.004 A 
ATOM      3  C4  UNL d   1      -0.957   2.371  -0.749  0.00  0.00    -0.003 A 
ATOM      4  C5  UNL d   1      -0.859   2.683   0.603  0.00  0.00     0.000 A 
ATOM      5  C6  UNL d   1       0.351   2.505   1.271  0.00  0.00     0.000 A 
ATOM      6  C7  UNL d   1       1.482   2.011   0.599  0.00  0.00    -0.073 A 
ATOM      7  C8  UNL d   1       2.761   1.832   1.370  0.00  0.00     0.078 C 
ENDROOT
BRANCH   1   8
ATOM      8  C1  UNL d   1       2.532   1.085  -1.545  0.00  0.00     0.053 C 
ATOM      9  C   UNL d   1       2.156  -0.184  -2.295  0.00  0.00     0.018 C 
ENDBRANCH   1   8
TORSDOF 1
ENDMDL
