MODEL 1
REMARK minimizedAffinity 12.0692902
REMARK minimizedRMSD -1
REMARK  1 active torsions:
REMARK  status: ('A' for Active; 'I' for Inactive)
REMARK    1  A    between atoms: C1_2  and  C2_3 
ROOT
ATOM      1  C2  UNL d   1       1.404   1.919  -0.031  0.00  0.00    -0.076 A 
ATOM      2  C3  UNL d   1       2.085   2.213   1.164  0.00  0.00     0.004 A 
ATOM      3  C4  UNL d   1       1.402   2.692   2.280  0.00  0.00    -0.003 A 
ATOM      4  C5  UNL d   1       0.026   2.885   2.220  0.00  0.00     0.000 A 
ATOM      5  C6  UNL d   1      -0.668   2.582   1.050  0.00  0.00     0.000 A 
ATOM      6  C7  UNL d   1       0.003   2.082  -0.079  0.00  0.00    -0.073 A 
ATOM      7  C8  UNL d   1      -0.795   1.778  -1.318  0.00  0.00     0.078 C 
ENDROOT
BRANCH   1   8
ATOM      8  C1  UNL d   1       2.202   1.428  -1.217  0.00  0.00     0.053 C 
ATOM      9  C   UNL d   1       1.827   0.011  -1.625  0.00  0.00     0.018 C 
ENDBRANCH   1   8
TORSDOF 1
ENDMDL
