MODEL 1
REMARK minimizedAffinity 14.4760361
REMARK minimizedRMSD -1
REMARK  1 active torsions:
REMARK  status: ('A' for Active; 'I' for Inactive)
REMARK    1  A    between atoms: C1_2  and  C2_3 
ROOT
ATOM      1  C2  UNL d   1      -4.530  -0.444   3.560  0.00  0.00    -0.076 A 
ATOM      2  C3  UNL d   1      -4.120  -0.965   4.799  0.00  0.00     0.004 A 
ATOM      3  C4  UNL d   1      -4.634  -0.464   5.994  0.00  0.00    -0.003 A 
ATOM      4  C5  UNL d   1      -5.567   0.566   5.968  0.00  0.00     0.000 A 
ATOM      5  C6  UNL d   1      -5.999   1.083   4.747  0.00  0.00     0.000 A 
ATOM      6  C7  UNL d   1      -5.503   0.578   3.533  0.00  0.00    -0.073 A 
ATOM      7  C8  UNL d   1      -6.000   1.176   2.246  0.00  0.00     0.078 C 
ENDROOT
BRANCH   1   8
ATOM      8  C1  UNL d   1      -3.918  -1.009   2.298  0.00  0.00     0.053 C 
ATOM      9  C   UNL d   1      -2.588  -0.357   1.953  0.00  0.00     0.018 C 
ENDBRANCH   1   8
TORSDOF 1
ENDMDL
