MODEL 1
REMARK minimizedAffinity 3.46511364
REMARK minimizedRMSD -1
REMARK  1 active torsions:
REMARK  status: ('A' for Active; 'I' for Inactive)
REMARK    1  A    between atoms: C1_2  and  C2_3 
ROOT
ATOM      1  C2  UNL d   1       1.836   1.589  -0.448  0.00  0.00    -0.076 A 
ATOM      2  C3  UNL d   1       2.626   1.885   0.676  0.00  0.00     0.004 A 
ATOM      3  C4  UNL d   1       2.050   2.048   1.935  0.00  0.00    -0.003 A 
ATOM      4  C5  UNL d   1       0.675   1.915   2.091  0.00  0.00     0.000 A 
ATOM      5  C6  UNL d   1      -0.122   1.603   0.990  0.00  0.00     0.000 A 
ATOM      6  C7  UNL d   1       0.444   1.420  -0.283  0.00  0.00    -0.073 A 
ATOM      7  C8  UNL d   1      -0.464   1.091  -1.436  0.00  0.00     0.078 C 
ENDROOT
BRANCH   1   8
ATOM      8  C1  UNL d   1       2.512   1.451  -1.793  0.00  0.00     0.053 C 
ATOM      9  C   UNL d   1       2.970   0.027  -2.072  0.00  0.00     0.018 C 
ENDBRANCH   1   8
TORSDOF 1
ENDMDL
