MODEL 1
REMARK minimizedAffinity 6.3381319
REMARK minimizedRMSD -1
REMARK  1 active torsions:
REMARK  status: ('A' for Active; 'I' for Inactive)
REMARK    1  A    between atoms: C1_2  and  C2_3 
ROOT
ATOM      1  C2  UNL d   1       3.524  -3.359   3.384  0.00  0.00    -0.073 A 
ATOM      2  C3  UNL d   1       2.615  -3.848   4.329  0.00  0.00    -0.002 A 
ATOM      3  C4  UNL d   1       1.351  -3.270   4.456  0.00  0.00     0.004 A 
ATOM      4  C5  UNL d   1       0.981  -2.204   3.637  0.00  0.00    -0.004 A 
ATOM      5  C6  UNL d   1       1.871  -1.709   2.678  0.00  0.00    -0.075 A 
ATOM      6  C7  UNL d   1       1.489  -0.562   1.790  0.00  0.00     0.076 C 
ATOM      7  C8  UNL d   1       3.139  -2.293   2.558  0.00  0.00     0.001 A 
ENDROOT
BRANCH   1   8
ATOM      8  C1  UNL d   1       4.887  -3.984   3.239  0.00  0.00     0.053 C 
ATOM      9  C   UNL d   1       6.000  -2.952   3.331  0.00  0.00     0.018 C 
ENDBRANCH   1   8
TORSDOF 1
ENDMDL
