MODEL 1
REMARK minimizedAffinity 6.72255182
REMARK minimizedRMSD -1
REMARK  1 active torsions:
REMARK  status: ('A' for Active; 'I' for Inactive)
REMARK    1  A    between atoms: C1_2  and  C2_3 
ROOT
ATOM      1  C2  UNL d   1       2.401  -5.979  -1.261  0.00  0.00    -0.073 A 
ATOM      2  C3  UNL d   1       1.675  -5.993  -2.457  0.00  0.00    -0.002 A 
ATOM      3  C4  UNL d   1       2.339  -5.998  -3.685  0.00  0.00     0.004 A 
ATOM      4  C5  UNL d   1       3.733  -5.996  -3.729  0.00  0.00    -0.004 A 
ATOM      5  C6  UNL d   1       4.476  -5.995  -2.544  0.00  0.00    -0.075 A 
ATOM      6  C7  UNL d   1       5.976  -5.991  -2.574  0.00  0.00     0.076 C 
ATOM      7  C8  UNL d   1       3.802  -5.987  -1.315  0.00  0.00     0.001 A 
ENDROOT
BRANCH   1   8
ATOM      8  C1  UNL d   1       1.689  -5.981   0.067  0.00  0.00     0.053 C 
ATOM      9  C   UNL d   1       2.268  -4.952   1.026  0.00  0.00     0.018 C 
ENDBRANCH   1   8
TORSDOF 1
ENDMDL
