MODEL 1
REMARK minimizedAffinity 3.50975156
REMARK minimizedRMSD -1
REMARK  1 active torsions:
REMARK  status: ('A' for Active; 'I' for Inactive)
REMARK    1  A    between atoms: C1_2  and  C2_3 
ROOT
ATOM      1  C2  UNL d   1       2.066  -2.274   3.462  0.00  0.00    -0.073 A 
ATOM      2  C3  UNL d   1       1.473  -3.499   3.791  0.00  0.00    -0.002 A 
ATOM      3  C4  UNL d   1       2.236  -4.522   4.357  0.00  0.00     0.004 A 
ATOM      4  C5  UNL d   1       3.595  -4.328   4.606  0.00  0.00    -0.004 A 
ATOM      5  C6  UNL d   1       4.202  -3.107   4.296  0.00  0.00    -0.075 A 
ATOM      6  C7  UNL d   1       5.663  -2.884   4.556  0.00  0.00     0.076 C 
ATOM      7  C8  UNL d   1       3.430  -2.086   3.726  0.00  0.00     0.001 A 
ENDROOT
BRANCH   1   8
ATOM      8  C1  UNL d   1       1.245  -1.165   2.857  0.00  0.00     0.053 C 
ATOM      9  C   UNL d   1       2.005  -0.422   1.769  0.00  0.00     0.018 C 
ENDBRANCH   1   8
TORSDOF 1
ENDMDL
