MODEL 1
REMARK minimizedAffinity 5.64019537
REMARK minimizedRMSD -1
REMARK  1 active torsions:
REMARK  status: ('A' for Active; 'I' for Inactive)
REMARK    1  A    between atoms: C1_2  and  C2_3 
ROOT
ATOM      1  C2  UNL d   1      -0.107  -2.278   0.888  0.00  0.00    -0.073 A 
ATOM      2  C3  UNL d   1       0.359  -0.976   1.100  0.00  0.00    -0.002 A 
ATOM      3  C4  UNL d   1       1.447  -0.744   1.943  0.00  0.00     0.004 A 
ATOM      4  C5  UNL d   1       2.084  -1.810   2.576  0.00  0.00    -0.004 A 
ATOM      5  C6  UNL d   1       1.641  -3.121   2.368  0.00  0.00    -0.075 A 
ATOM      6  C7  UNL d   1       2.314  -4.279   3.044  0.00  0.00     0.076 C 
ATOM      7  C8  UNL d   1       0.546  -3.345   1.522  0.00  0.00     0.001 A 
ENDROOT
BRANCH   1   8
ATOM      8  C1  UNL d   1      -1.277  -2.534  -0.026  0.00  0.00     0.053 C 
ATOM      9  C   UNL d   1      -1.418  -1.455  -1.087  0.00  0.00     0.018 C 
ENDBRANCH   1   8
TORSDOF 1
ENDMDL
