MODEL 1
REMARK minimizedAffinity 5.09869576
REMARK minimizedRMSD -1
REMARK  1 active torsions:
REMARK  status: ('A' for Active; 'I' for Inactive)
REMARK    1  A    between atoms: C1_2  and  C2_3 
ROOT
ATOM      1  C2  UNL d   1       4.341  -2.762   4.178  0.00  0.00    -0.073 A 
ATOM      2  C3  UNL d   1       3.516  -2.098   3.262  0.00  0.00    -0.002 A 
ATOM      3  C4  UNL d   1       2.211  -2.540   3.040  0.00  0.00     0.004 A 
ATOM      4  C5  UNL d   1       1.715  -3.643   3.735  0.00  0.00    -0.004 A 
ATOM      5  C6  UNL d   1       2.520  -4.312   4.663  0.00  0.00    -0.075 A 
ATOM      6  C7  UNL d   1       2.003  -5.502   5.416  0.00  0.00     0.076 C 
ATOM      7  C8  UNL d   1       3.831  -3.864   4.878  0.00  0.00     0.001 A 
ENDROOT
BRANCH   1   8
ATOM      8  C1  UNL d   1       5.748  -2.285   4.426  0.00  0.00     0.053 C 
ATOM      9  C   UNL d   1       5.998  -1.985   5.895  0.00  0.00     0.018 C 
ENDBRANCH   1   8
TORSDOF 1
ENDMDL
