MODEL 1
REMARK minimizedAffinity -4.66866255
REMARK minimizedRMSD -1
REMARK  0 active torsions:
REMARK  status: ('A' for Active; 'I' for Inactive)
ROOT
ATOM      1  C1  DEN d   1       2.206   1.077  -0.079  0.00  0.00     0.130 A 
ATOM      2  C2  DEN d   1       1.899  -0.278   0.373  0.00  0.00    -0.031 A 
ATOM      3  C3  DEN d   1       0.511  -0.288   0.876  0.00  0.00     0.027 A 
ATOM      4  C4  DEN d   1      -1.185   1.651   0.995  0.00  0.00     0.027 A 
ATOM      5  C5  DEN d   1      -1.379   2.991   0.740  0.00  0.00    -0.003 A 
ATOM      6  C6  DEN d   1      -0.388   3.788   0.229  0.00  0.00     0.001 A 
ATOM      7  C7  DEN d   1       0.828   3.241  -0.085  0.00  0.00     0.017 A 
ATOM      8  C8  DEN d   1       1.033   1.893   0.177  0.00  0.00    -0.094 A 
ATOM      9  C9  DEN d   1       0.015   1.102   0.682  0.00  0.00    -0.072 A 
ENDROOT
TORSDOF 0
ENDMDL
