MODEL 1
REMARK minimizedAffinity -3.26830792
REMARK minimizedRMSD -1
REMARK  0 active torsions:
REMARK  status: ('A' for Active; 'I' for Inactive)
ROOT
ATOM      1  C1  DEN d   1       1.537   2.747  -0.261  0.00  0.00     0.130 A 
ATOM      2  C2  DEN d   1       0.287   3.251  -0.823  0.00  0.00    -0.031 A 
ATOM      3  C3  DEN d   1      -0.727   2.183  -0.714  0.00  0.00     0.027 A 
ATOM      4  C4  DEN d   1      -0.485  -0.189   0.269  0.00  0.00     0.027 A 
ATOM      5  C5  DEN d   1       0.390  -1.078   0.855  0.00  0.00    -0.003 A 
ATOM      6  C6  DEN d   1       1.705  -0.769   1.077  0.00  0.00     0.001 A 
ATOM      7  C7  DEN d   1       2.174   0.477   0.752  0.00  0.00     0.017 A 
ATOM      8  C8  DEN d   1       1.300   1.376   0.154  0.00  0.00    -0.094 A 
ATOM      9  C9  DEN d   1      -0.029   1.048  -0.051  0.00  0.00    -0.072 A 
ENDROOT
TORSDOF 0
ENDMDL
