MODEL 1
REMARK minimizedAffinity -2.51885295
REMARK minimizedRMSD -1
REMARK  0 active torsions:
REMARK  status: ('A' for Active; 'I' for Inactive)
ROOT
ATOM      1  C1  DEN d   1       0.573  -1.184  -0.614  0.00  0.00     0.130 A 
ATOM      2  C2  DEN d   1      -0.486  -2.183  -0.499  0.00  0.00    -0.031 A 
ATOM      3  C3  DEN d   1      -1.620  -1.564   0.217  0.00  0.00     0.027 A 
ATOM      4  C4  DEN d   1      -1.839   0.831   1.148  0.00  0.00     0.027 A 
ATOM      5  C5  DEN d   1      -1.195   2.039   1.301  0.00  0.00    -0.003 A 
ATOM      6  C6  DEN d   1       0.085   2.245   0.861  0.00  0.00     0.001 A 
ATOM      7  C7  DEN d   1       0.747   1.241   0.205  0.00  0.00     0.017 A 
ATOM      8  C8  DEN d   1       0.107   0.018   0.053  0.00  0.00    -0.094 A 
ATOM      9  C9  DEN d   1      -1.192  -0.166   0.494  0.00  0.00    -0.072 A 
ENDROOT
TORSDOF 0
ENDMDL
