MODEL 1
REMARK minimizedAffinity -1.0573988
REMARK minimizedRMSD -1
REMARK  0 active torsions:
REMARK  status: ('A' for Active; 'I' for Inactive)
ROOT
ATOM      1  C1  DEN d   1      -0.984   2.590   1.175  0.00  0.00     0.130 A 
ATOM      2  C2  DEN d   1       0.046   3.348   0.469  0.00  0.00    -0.031 A 
ATOM      3  C3  DEN d   1       0.918   2.387  -0.236  0.00  0.00     0.027 A 
ATOM      4  C4  DEN d   1       0.772  -0.187  -0.306  0.00  0.00     0.027 A 
ATOM      5  C5  DEN d   1       0.074  -1.285   0.147  0.00  0.00    -0.003 A 
ATOM      6  C6  DEN d   1      -0.995  -1.171   0.995  0.00  0.00     0.001 A 
ATOM      7  C7  DEN d   1      -1.427   0.071   1.380  0.00  0.00     0.017 A 
ATOM      8  C8  DEN d   1      -0.724   1.182   0.933  0.00  0.00    -0.094 A 
ATOM      9  C9  DEN d   1       0.348   1.047   0.067  0.00  0.00    -0.072 A 
ENDROOT
TORSDOF 0
ENDMDL
