MODEL 1
REMARK minimizedAffinity -3.94785309
REMARK minimizedRMSD -1
REMARK  0 active torsions:
REMARK  status: ('A' for Active; 'I' for Inactive)
ROOT
ATOM      1  C1  DEN d   1       0.490   2.267  -0.717  0.00  0.00     0.130 A 
ATOM      2  C2  DEN d   1      -0.343   3.315  -0.135  0.00  0.00    -0.031 A 
ATOM      3  C3  DEN d   1      -1.357   2.670   0.723  0.00  0.00     0.027 A 
ATOM      4  C4  DEN d   1      -1.713   0.162   1.207  0.00  0.00     0.027 A 
ATOM      5  C5  DEN d   1      -1.261  -1.110   0.932  0.00  0.00    -0.003 A 
ATOM      6  C6  DEN d   1      -0.224  -1.346   0.069  0.00  0.00     0.001 A 
ATOM      7  C7  DEN d   1       0.425  -0.290  -0.516  0.00  0.00     0.017 A 
ATOM      8  C8  DEN d   1      -0.029   0.994  -0.249  0.00  0.00    -0.094 A 
ATOM      9  C9  DEN d   1      -1.071   1.212   0.636  0.00  0.00    -0.072 A 
ENDROOT
TORSDOF 0
ENDMDL
