MODEL 1
REMARK minimizedAffinity -4.25221062
REMARK minimizedRMSD -1
REMARK  0 active torsions:
REMARK  status: ('A' for Active; 'I' for Inactive)
ROOT
ATOM      1  C1  DEN d   1      -1.023   0.341   1.221  0.00  0.00     0.130 A 
ATOM      2  C2  DEN d   1      -0.610  -0.800   0.408  0.00  0.00    -0.031 A 
ATOM      3  C3  DEN d   1       0.196  -0.290  -0.719  0.00  0.00     0.027 A 
ATOM      4  C4  DEN d   1       0.845   2.143  -1.280  0.00  0.00     0.027 A 
ATOM      5  C5  DEN d   1       0.718   3.457  -0.888  0.00  0.00    -0.003 A 
ATOM      6  C6  DEN d   1      -0.020   3.825   0.205  0.00  0.00     0.001 A 
ATOM      7  C7  DEN d   1      -0.623   2.864   0.972  0.00  0.00     0.017 A 
ATOM      8  C8  DEN d   1      -0.506   1.537   0.579  0.00  0.00    -0.094 A 
ATOM      9  C9  DEN d   1       0.255   1.184  -0.522  0.00  0.00    -0.072 A 
ENDROOT
TORSDOF 0
ENDMDL
