MODEL 1
REMARK minimizedAffinity -4.37492275
REMARK minimizedRMSD -1
REMARK  0 active torsions:
REMARK  status: ('A' for Active; 'I' for Inactive)
ROOT
ATOM      1  C1  DEN d   1       0.796   2.944  -0.606  0.00  0.00     0.130 A 
ATOM      2  C2  DEN d   1      -0.065   3.904   0.079  0.00  0.00    -0.031 A 
ATOM      3  C3  DEN d   1      -1.052   3.145   0.875  0.00  0.00     0.027 A 
ATOM      4  C4  DEN d   1      -1.324   0.592   1.115  0.00  0.00     0.027 A 
ATOM      5  C5  DEN d   1      -0.834  -0.632   0.715  0.00  0.00    -0.003 A 
ATOM      6  C6  DEN d   1       0.203  -0.749  -0.172  0.00  0.00     0.001 A 
ATOM      7  C7  DEN d   1       0.814   0.379  -0.654  0.00  0.00     0.017 A 
ATOM      8  C8  DEN d   1       0.321   1.616  -0.262  0.00  0.00    -0.094 A 
ATOM      9  C9  DEN d   1      -0.721   1.713   0.645  0.00  0.00    -0.072 A 
ENDROOT
TORSDOF 0
ENDMDL
