MODEL 1
REMARK minimizedAffinity -4.17780495
REMARK minimizedRMSD -1
REMARK  0 active torsions:
REMARK  status: ('A' for Active; 'I' for Inactive)
ROOT
ATOM      1  C1  DEN d   1       2.915   1.863   0.956  0.00  0.00     0.130 A 
ATOM      2  C2  DEN d   1       3.384   0.480   0.990  0.00  0.00    -0.031 A 
ATOM      3  C3  DEN d   1       2.203  -0.404   0.925  0.00  0.00     0.027 A 
ATOM      4  C4  DEN d   1      -0.292   0.229   0.772  0.00  0.00     0.027 A 
ATOM      5  C5  DEN d   1      -1.183   1.278   0.726  0.00  0.00    -0.003 A 
ATOM      6  C6  DEN d   1      -0.777   2.584   0.788  0.00  0.00     0.001 A 
ATOM      7  C7  DEN d   1       0.560   2.877   0.853  0.00  0.00     0.017 A 
ATOM      8  C8  DEN d   1       1.464   1.824   0.907  0.00  0.00    -0.094 A 
ATOM      9  C9  DEN d   1       1.034   0.510   0.831  0.00  0.00    -0.072 A 
ENDROOT
TORSDOF 0
ENDMDL
