MODEL 1
REMARK minimizedAffinity -3.94013119
REMARK minimizedRMSD -1
REMARK  0 active torsions:
REMARK  status: ('A' for Active; 'I' for Inactive)
ROOT
ATOM      1  C1  DEN d   1       0.515  -0.534  -1.444  0.00  0.00     0.130 A 
ATOM      2  C2  DEN d   1      -0.098  -1.823  -1.134  0.00  0.00    -0.031 A 
ATOM      3  C3  DEN d   1      -1.156  -1.596  -0.129  0.00  0.00     0.027 A 
ATOM      4  C4  DEN d   1      -1.903   0.616   0.969  0.00  0.00     0.027 A 
ATOM      5  C5  DEN d   1      -1.671   1.972   1.033  0.00  0.00    -0.003 A 
ATOM      6  C6  DEN d   1      -0.680   2.578   0.307  0.00  0.00     0.001 A 
ATOM      7  C7  DEN d   1       0.087   1.833  -0.549  0.00  0.00     0.017 A 
ATOM      8  C8  DEN d   1      -0.136   0.463  -0.613  0.00  0.00    -0.094 A 
ATOM      9  C9  DEN d   1      -1.151  -0.129   0.119  0.00  0.00    -0.072 A 
ENDROOT
TORSDOF 0
ENDMDL
