MODEL 1
REMARK minimizedAffinity -2.16564226
REMARK minimizedRMSD -1
REMARK  0 active torsions:
REMARK  status: ('A' for Active; 'I' for Inactive)
ROOT
ATOM      1  C1  DEN d   1      -1.212   0.376   0.248  0.00  0.00     0.130 A 
ATOM      2  C2  DEN d   1      -0.530  -0.894   0.014  0.00  0.00    -0.031 A 
ATOM      3  C3  DEN d   1       0.925  -0.642   0.042  0.00  0.00     0.027 A 
ATOM      4  C4  DEN d   1       2.180   1.579   0.427  0.00  0.00     0.027 A 
ATOM      5  C5  DEN d   1       2.028   2.928   0.657  0.00  0.00    -0.003 A 
ATOM      6  C6  DEN d   1       0.797   3.523   0.733  0.00  0.00     0.001 A 
ATOM      7  C7  DEN d   1      -0.334   2.757   0.622  0.00  0.00     0.017 A 
ATOM      8  C8  DEN d   1      -0.190   1.397   0.382  0.00  0.00    -0.094 A 
ATOM      9  C9  DEN d   1       1.064   0.813   0.321  0.00  0.00    -0.072 A 
ENDROOT
TORSDOF 0
ENDMDL
