MODEL 1
REMARK minimizedAffinity -5.12938881
REMARK minimizedRMSD -1
REMARK  0 active torsions:
REMARK  status: ('A' for Active; 'I' for Inactive)
ROOT
ATOM      1  C1  DEN d   1       0.341  -0.993  -0.752  0.00  0.00     0.130 A 
ATOM      2  C2  DEN d   1      -0.246  -1.640   0.418  0.00  0.00    -0.031 A 
ATOM      3  C3  DEN d   1      -0.627  -0.586   1.380  0.00  0.00     0.027 A 
ATOM      4  C4  DEN d   1      -0.372   1.972   1.169  0.00  0.00     0.027 A 
ATOM      5  C5  DEN d   1       0.081   2.992   0.362  0.00  0.00    -0.003 A 
ATOM      6  C6  DEN d   1       0.677   2.756  -0.848  0.00  0.00     0.001 A 
ATOM      7  C7  DEN d   1       0.797   1.470  -1.307  0.00  0.00     0.017 A 
ATOM      8  C8  DEN d   1       0.350   0.436  -0.495  0.00  0.00    -0.094 A 
ATOM      9  C9  DEN d   1      -0.262   0.696   0.719  0.00  0.00    -0.072 A 
ENDROOT
TORSDOF 0
ENDMDL
