MODEL 1
REMARK minimizedAffinity -2.21274686
REMARK minimizedRMSD -1
REMARK  0 active torsions:
REMARK  status: ('A' for Active; 'I' for Inactive)
ROOT
ATOM      1  C1  DEN d   1      -2.144   1.443   0.545  0.00  0.00     0.130 A 
ATOM      2  C2  DEN d   1      -1.499   2.750   0.639  0.00  0.00    -0.031 A 
ATOM      3  C3  DEN d   1      -0.051   2.561   0.419  0.00  0.00     0.027 A 
ATOM      4  C4  DEN d   1       1.247   0.384  -0.062  0.00  0.00     0.027 A 
ATOM      5  C5  DEN d   1       1.132  -0.979  -0.224  0.00  0.00    -0.003 A 
ATOM      6  C6  DEN d   1      -0.068  -1.629  -0.109  0.00  0.00     0.001 A 
ATOM      7  C7  DEN d   1      -1.209  -0.910   0.133  0.00  0.00     0.017 A 
ATOM      8  C8  DEN d   1      -1.100   0.463   0.305  0.00  0.00    -0.094 A 
ATOM      9  C9  DEN d   1       0.120   1.104   0.172  0.00  0.00    -0.072 A 
ENDROOT
TORSDOF 0
ENDMDL
