MODEL 1
REMARK minimizedAffinity -4.13807201
REMARK minimizedRMSD -1
REMARK  0 active torsions:
REMARK  status: ('A' for Active; 'I' for Inactive)
ROOT
ATOM      1  C1  DEN d   1       1.546   0.089  -0.704  0.00  0.00     0.130 A 
ATOM      2  C2  DEN d   1       1.058  -1.250  -0.386  0.00  0.00    -0.031 A 
ATOM      3  C3  DEN d   1      -0.212  -1.110   0.354  0.00  0.00     0.027 A 
ATOM      4  C4  DEN d   1      -1.467   1.040   1.030  0.00  0.00     0.027 A 
ATOM      5  C5  DEN d   1      -1.437   2.417   0.991  0.00  0.00    -0.003 A 
ATOM      6  C6  DEN d   1      -0.402   3.109   0.419  0.00  0.00     0.001 A 
ATOM      7  C7  DEN d   1       0.624   2.425  -0.178  0.00  0.00     0.017 A 
ATOM      8  C8  DEN d   1       0.604   1.037  -0.136  0.00  0.00    -0.094 A 
ATOM      9  C9  DEN d   1      -0.457   0.356   0.436  0.00  0.00    -0.072 A 
ENDROOT
TORSDOF 0
ENDMDL
