MODEL 1
REMARK minimizedAffinity -4.5689249
REMARK minimizedRMSD -1
REMARK  0 active torsions:
REMARK  status: ('A' for Active; 'I' for Inactive)
ROOT
ATOM      1  C1  DEN d   1       1.347  -1.065   0.669  0.00  0.00     0.130 A 
ATOM      2  C2  DEN d   1       2.695  -0.538   0.478  0.00  0.00    -0.031 A 
ATOM      3  C3  DEN d   1       2.583   0.898   0.152  0.00  0.00     0.027 A 
ATOM      4  C4  DEN d   1       0.463   2.350  -0.069  0.00  0.00     0.027 A 
ATOM      5  C5  DEN d   1      -0.913   2.344  -0.008  0.00  0.00    -0.003 A 
ATOM      6  C6  DEN d   1      -1.628   1.204   0.247  0.00  0.00     0.001 A 
ATOM      7  C7  DEN d   1      -0.967   0.030   0.496  0.00  0.00     0.017 A 
ATOM      8  C8  DEN d   1       0.420   0.027   0.429  0.00  0.00    -0.094 A 
ATOM      9  C9  DEN d   1       1.125   1.192   0.182  0.00  0.00    -0.072 A 
ENDROOT
TORSDOF 0
ENDMDL
