MODEL 1
REMARK minimizedAffinity -2.96159554
REMARK minimizedRMSD -1
REMARK  0 active torsions:
REMARK  status: ('A' for Active; 'I' for Inactive)
ROOT
ATOM      1  C1  DEN d   1       1.189   2.264  -0.502  0.00  0.00     0.130 A 
ATOM      2  C2  DEN d   1       0.298   3.329  -0.050  0.00  0.00    -0.031 A 
ATOM      3  C3  DEN d   1      -0.889   2.701   0.565  0.00  0.00     0.027 A 
ATOM      4  C4  DEN d   1      -1.427   0.197   0.866  0.00  0.00     0.027 A 
ATOM      5  C5  DEN d   1      -0.978  -1.084   0.632  0.00  0.00    -0.003 A 
ATOM      6  C6  DEN d   1       0.199  -1.337  -0.022  0.00  0.00     0.001 A 
ATOM      7  C7  DEN d   1       0.990  -0.293  -0.424  0.00  0.00     0.017 A 
ATOM      8  C8  DEN d   1       0.540   1.001  -0.198  0.00  0.00    -0.094 A 
ATOM      9  C9  DEN d   1      -0.647   1.236   0.476  0.00  0.00    -0.072 A 
ENDROOT
TORSDOF 0
ENDMDL
