MODEL 1
REMARK minimizedAffinity 12.1462364
REMARK minimizedRMSD -1
REMARK  0 active torsions:
REMARK  status: ('A' for Active; 'I' for Inactive)
ROOT
ATOM      1  C   UNL d   1       0.064   1.872  -0.178  0.00  0.00     0.023 A 
ATOM      2  C1  UNL d   1       0.366   1.794  -1.537  0.00  0.00     0.003 A 
ATOM      3  C2  UNL d   1      -0.591   2.154  -2.488  0.00  0.00     0.048 A 
ATOM      4  C3  UNL d   1      -1.848   2.593  -2.073  0.00  0.00     0.023 A 
ATOM      5  C4  UNL d   1      -2.154   2.674  -0.713  0.00  0.00     0.048 A 
ATOM      6  C5  UNL d   1      -1.194   2.311   0.234  0.00  0.00     0.003 A 
ATOM      7  I   UNL d   1      -3.273   3.131  -3.486  0.00  0.00    -0.146 I 
ENDROOT
TORSDOF 0
ENDMDL
