MODEL 1
REMARK minimizedAffinity 6.21813154
REMARK minimizedRMSD -1
REMARK  0 active torsions:
REMARK  status: ('A' for Active; 'I' for Inactive)
ROOT
ATOM      1  C   UNL d   1      -1.626  -1.435  -1.507  0.00  0.00     0.023 A 
ATOM      2  C1  UNL d   1      -2.601  -0.463  -1.282  0.00  0.00     0.003 A 
ATOM      3  C2  UNL d   1      -2.226   0.836  -0.934  0.00  0.00     0.048 A 
ATOM      4  C3  UNL d   1      -0.874   1.157  -0.813  0.00  0.00     0.023 A 
ATOM      5  C4  UNL d   1       0.105   0.188  -1.038  0.00  0.00     0.048 A 
ATOM      6  C5  UNL d   1      -0.275  -1.110  -1.385  0.00  0.00     0.003 A 
ATOM      7  I   UNL d   1      -0.314   3.090  -0.295  0.00  0.00    -0.146 I 
ENDROOT
TORSDOF 0
ENDMDL
