MODEL 1
REMARK minimizedAffinity 5.51773834
REMARK minimizedRMSD -1
REMARK  0 active torsions:
REMARK  status: ('A' for Active; 'I' for Inactive)
ROOT
ATOM      1  C   UNL d   1       1.046   2.044   3.823  0.00  0.00     0.023 A 
ATOM      2  C1  UNL d   1       1.794   3.046   3.204  0.00  0.00     0.003 A 
ATOM      3  C2  UNL d   1       1.369   3.585   1.988  0.00  0.00     0.048 A 
ATOM      4  C3  UNL d   1       0.195   3.119   1.397  0.00  0.00     0.023 A 
ATOM      5  C4  UNL d   1      -0.557   2.117   2.014  0.00  0.00     0.048 A 
ATOM      6  C5  UNL d   1      -0.128   1.580   3.229  0.00  0.00     0.003 A 
ATOM      7  I   UNL d   1      -0.440   3.920  -0.413  0.00  0.00    -0.146 I 
ENDROOT
TORSDOF 0
ENDMDL
