MODEL 1
REMARK minimizedAffinity 7.65529394
REMARK minimizedRMSD -1
REMARK  0 active torsions:
REMARK  status: ('A' for Active; 'I' for Inactive)
ROOT
ATOM      1  C   UNL d   1       1.328   3.387   3.264  0.00  0.00     0.023 A 
ATOM      2  C1  UNL d   1       0.602   2.197   3.318  0.00  0.00     0.003 A 
ATOM      3  C2  UNL d   1      -0.090   1.748   2.191  0.00  0.00     0.048 A 
ATOM      4  C3  UNL d   1      -0.052   2.494   1.014  0.00  0.00     0.023 A 
ATOM      5  C4  UNL d   1       0.673   3.686   0.955  0.00  0.00     0.048 A 
ATOM      6  C5  UNL d   1       1.363   4.131   2.084  0.00  0.00     0.003 A 
ATOM      7  I   UNL d   1      -1.081   1.828  -0.665  0.00  0.00    -0.146 I 
ENDROOT
TORSDOF 0
ENDMDL
