MODEL 1
REMARK minimizedAffinity 4.4057827
REMARK minimizedRMSD -1
REMARK  0 active torsions:
REMARK  status: ('A' for Active; 'I' for Inactive)
ROOT
ATOM      1  C   UNL d   1      -1.268  -1.735  -1.824  0.00  0.00     0.023 A 
ATOM      2  C1  UNL d   1       0.043  -1.267  -1.738  0.00  0.00     0.003 A 
ATOM      3  C2  UNL d   1       0.293   0.040  -1.316  0.00  0.00     0.048 A 
ATOM      4  C3  UNL d   1      -0.773   0.874  -0.979  0.00  0.00     0.023 A 
ATOM      5  C4  UNL d   1      -2.086   0.410  -1.062  0.00  0.00     0.048 A 
ATOM      6  C5  UNL d   1      -2.332  -0.898  -1.486  0.00  0.00     0.003 A 
ATOM      7  I   UNL d   1      -0.403   2.820  -0.349  0.00  0.00    -0.146 I 
ENDROOT
TORSDOF 0
ENDMDL
