MODEL 1
REMARK minimizedAffinity 10.9259062
REMARK minimizedRMSD -1
REMARK  0 active torsions:
REMARK  status: ('A' for Active; 'I' for Inactive)
ROOT
ATOM      1  C   UNL d   1       5.445  -4.542  -3.105  0.00  0.00     0.023 A 
ATOM      2  C1  UNL d   1       4.511  -5.355  -3.747  0.00  0.00     0.003 A 
ATOM      3  C2  UNL d   1       3.364  -5.773  -3.069  0.00  0.00     0.048 A 
ATOM      4  C3  UNL d   1       3.156  -5.372  -1.750  0.00  0.00     0.023 A 
ATOM      5  C4  UNL d   1       4.087  -4.557  -1.104  0.00  0.00     0.048 A 
ATOM      6  C5  UNL d   1       5.233  -4.143  -1.785  0.00  0.00     0.003 A 
ATOM      7  I   UNL d   1       1.449  -5.992  -0.739  0.00  0.00    -0.146 I 
ENDROOT
TORSDOF 0
ENDMDL
