MODEL 1
REMARK minimizedAffinity -0.472682416
REMARK minimizedRMSD -1
REMARK  1 active torsions:
REMARK  status: ('A' for Active; 'I' for Inactive)
REMARK    1  A    between atoms: C1_2  and  C2_3 
ROOT
ATOM      1  C2  UNL d   1      -0.582  -0.657   2.554  0.00  0.00    -0.073 A 
ATOM      2  C3  UNL d   1      -0.714  -0.051   1.299  0.00  0.00    -0.002 A 
ATOM      3  C4  UNL d   1      -1.977   0.140   0.738  0.00  0.00     0.004 A 
ATOM      4  C5  UNL d   1      -3.120  -0.266   1.426  0.00  0.00    -0.004 A 
ATOM      5  C6  UNL d   1      -3.010  -0.864   2.686  0.00  0.00    -0.075 A 
ATOM      6  C7  UNL d   1      -4.230  -1.308   3.438  0.00  0.00     0.076 C 
ATOM      7  C8  UNL d   1      -1.738  -1.054   3.242  0.00  0.00     0.001 A 
ENDROOT
BRANCH   1   8
ATOM      8  C1  UNL d   1       0.779  -0.860   3.167  0.00  0.00     0.053 C 
ATOM      9  C   UNL d   1       0.699  -1.565   4.512  0.00  0.00     0.018 C 
ENDBRANCH   1   8
TORSDOF 1
ENDMDL
