MODEL 1
REMARK minimizedAffinity -0.0793349072
REMARK minimizedRMSD -1
REMARK  1 active torsions:
REMARK  status: ('A' for Active; 'I' for Inactive)
REMARK    1  A    between atoms: C1_2  and  C2_3 
ROOT
ATOM      1  C2  UNL d   1       0.309  -0.696   1.854  0.00  0.00    -0.073 A 
ATOM      2  C3  UNL d   1      -0.871  -0.227   2.443  0.00  0.00    -0.002 A 
ATOM      3  C4  UNL d   1      -2.004   0.006   1.662  0.00  0.00     0.004 A 
ATOM      4  C5  UNL d   1      -1.970  -0.232   0.288  0.00  0.00    -0.004 A 
ATOM      5  C6  UNL d   1      -0.804  -0.711  -0.317  0.00  0.00    -0.075 A 
ATOM      6  C7  UNL d   1      -0.751  -0.971  -1.794  0.00  0.00     0.076 C 
ATOM      7  C8  UNL d   1       0.330  -0.941   0.474  0.00  0.00     0.001 A 
ENDROOT
BRANCH   1   8
ATOM      8  C1  UNL d   1       1.533  -0.955   2.695  0.00  0.00     0.053 C 
ATOM      9  C   UNL d   1       1.173  -1.402   4.103  0.00  0.00     0.018 C 
ENDBRANCH   1   8
TORSDOF 1
ENDMDL
