MODEL 1
REMARK minimizedAffinity 1.62331557
REMARK minimizedRMSD -1
REMARK  1 active torsions:
REMARK  status: ('A' for Active; 'I' for Inactive)
REMARK    1  A    between atoms: C1_2  and  C2_3 
ROOT
ATOM      1  C2  UNL d   1      -0.078  -0.116   1.136  0.00  0.00    -0.073 A 
ATOM      2  C3  UNL d   1      -0.583  -0.080   2.441  0.00  0.00    -0.002 A 
ATOM      3  C4  UNL d   1      -1.948   0.111   2.663  0.00  0.00     0.004 A 
ATOM      4  C5  UNL d   1      -2.820   0.262   1.585  0.00  0.00    -0.004 A 
ATOM      5  C6  UNL d   1      -2.336   0.217   0.274  0.00  0.00    -0.075 A 
ATOM      6  C7  UNL d   1      -3.261   0.380  -0.897  0.00  0.00     0.076 C 
ATOM      7  C8  UNL d   1      -0.964   0.027   0.059  0.00  0.00     0.001 A 
ENDROOT
BRANCH   1   8
ATOM      8  C1  UNL d   1       1.394  -0.328   0.891  0.00  0.00     0.053 C 
ATOM      9  C   UNL d   1       2.131   0.984   0.673  0.00  0.00     0.018 C 
ENDBRANCH   1   8
TORSDOF 1
ENDMDL
