MODEL 1
REMARK minimizedAffinity 6.99647379
REMARK minimizedRMSD -1
REMARK  1 active torsions:
REMARK  status: ('A' for Active; 'I' for Inactive)
REMARK    1  A    between atoms: C1_2  and  C2_3 
ROOT
ATOM      1  C2  UNL d   1      -0.985  -0.516   2.432  0.00  0.00    -0.073 A 
ATOM      2  C3  UNL d   1      -0.170  -0.192   1.342  0.00  0.00    -0.002 A 
ATOM      3  C4  UNL d   1       1.214  -0.354   1.423  0.00  0.00     0.004 A 
ATOM      4  C5  UNL d   1       1.795  -0.847   2.591  0.00  0.00    -0.004 A 
ATOM      5  C6  UNL d   1       0.996  -1.188   3.688  0.00  0.00    -0.075 A 
ATOM      6  C7  UNL d   1       1.606  -1.718   4.952  0.00  0.00     0.076 C 
ATOM      7  C8  UNL d   1      -0.393  -1.020   3.599  0.00  0.00     0.001 A 
ENDROOT
BRANCH   1   8
ATOM      8  C1  UNL d   1      -2.480  -0.349   2.346  0.00  0.00     0.053 C 
ATOM      9  C   UNL d   1      -3.221  -1.558   2.895  0.00  0.00     0.018 C 
ENDBRANCH   1   8
TORSDOF 1
ENDMDL
