MODEL 1
REMARK minimizedAffinity 1.12969577
REMARK minimizedRMSD -1
REMARK  1 active torsions:
REMARK  status: ('A' for Active; 'I' for Inactive)
REMARK    1  A    between atoms: C1_2  and  C2_3 
ROOT
ATOM      1  C2  UNL d   1      -1.767  -0.561   2.402  0.00  0.00    -0.073 A 
ATOM      2  C3  UNL d   1      -2.712  -1.300   3.121  0.00  0.00    -0.002 A 
ATOM      3  C4  UNL d   1      -2.314  -2.103   4.191  0.00  0.00     0.004 A 
ATOM      4  C5  UNL d   1      -0.970  -2.170   4.556  0.00  0.00    -0.004 A 
ATOM      5  C6  UNL d   1      -0.011  -1.430   3.856  0.00  0.00    -0.075 A 
ATOM      6  C7  UNL d   1       1.440  -1.493   4.235  0.00  0.00     0.076 C 
ATOM      7  C8  UNL d   1      -0.418  -0.628   2.782  0.00  0.00     0.001 A 
ENDROOT
BRANCH   1   8
ATOM      8  C1  UNL d   1      -2.193   0.312   1.250  0.00  0.00     0.053 C 
ATOM      9  C   UNL d   1      -1.908  -0.338  -0.095  0.00  0.00     0.018 C 
ENDBRANCH   1   8
TORSDOF 1
ENDMDL
