MODEL 1
REMARK minimizedAffinity -0.374598801
REMARK minimizedRMSD -1
REMARK  0 active torsions:
REMARK  status: ('A' for Active; 'I' for Inactive)
ROOT
ATOM      1  C   UNL d   1       3.973  -1.292  -1.384  0.00  0.00     0.023 A 
ATOM      2  C1  UNL d   1       4.021   0.050  -1.005  0.00  0.00     0.003 A 
ATOM      3  C2  UNL d   1       3.146   0.533  -0.030  0.00  0.00     0.048 A 
ATOM      4  C3  UNL d   1       2.227  -0.331   0.564  0.00  0.00     0.023 A 
ATOM      5  C4  UNL d   1       2.177  -1.675   0.189  0.00  0.00     0.048 A 
ATOM      6  C5  UNL d   1       3.053  -2.153  -0.787  0.00  0.00     0.003 A 
ATOM      7  I   UNL d   1       0.924   0.386   2.016  0.00  0.00    -0.146 I 
ENDROOT
TORSDOF 0
ENDMDL
