MODEL 1
REMARK minimizedAffinity 5.56997585
REMARK minimizedRMSD -1
REMARK  0 active torsions:
REMARK  status: ('A' for Active; 'I' for Inactive)
ROOT
ATOM      1  C   UNL d   1       0.353  -3.666  -0.355  0.00  0.00     0.023 A 
ATOM      2  C1  UNL d   1       1.221  -3.365   0.695  0.00  0.00     0.003 A 
ATOM      3  C2  UNL d   1       2.148  -2.329   0.562  0.00  0.00     0.048 A 
ATOM      4  C3  UNL d   1       2.199  -1.596  -0.624  0.00  0.00     0.023 A 
ATOM      5  C4  UNL d   1       1.332  -1.892  -1.676  0.00  0.00     0.048 A 
ATOM      6  C5  UNL d   1       0.408  -2.930  -1.539  0.00  0.00     0.003 A 
ATOM      7  I   UNL d   1       3.577  -0.053  -0.824  0.00  0.00    -0.146 I 
ENDROOT
TORSDOF 0
ENDMDL
