MODEL 1
REMARK minimizedAffinity 11.203248
REMARK minimizedRMSD -1
REMARK  0 active torsions:
REMARK  status: ('A' for Active; 'I' for Inactive)
ROOT
ATOM      1  C   UNL d   1      -2.130   3.798  -0.165  0.00  0.00     0.023 A 
ATOM      2  C1  UNL d   1      -1.542   2.571  -0.472  0.00  0.00     0.003 A 
ATOM      3  C2  UNL d   1      -0.885   1.842   0.521  0.00  0.00     0.048 A 
ATOM      4  C3  UNL d   1      -0.821   2.346   1.820  0.00  0.00     0.023 A 
ATOM      5  C4  UNL d   1      -1.409   3.572   2.132  0.00  0.00     0.048 A 
ATOM      6  C5  UNL d   1      -2.064   4.298   1.135  0.00  0.00     0.003 A 
ATOM      7  I   UNL d   1       0.156   1.263   3.301  0.00  0.00    -0.146 I 
ENDROOT
TORSDOF 0
ENDMDL
