MODEL 1
REMARK minimizedAffinity 8.53228283
REMARK minimizedRMSD -1
REMARK  0 active torsions:
REMARK  status: ('A' for Active; 'I' for Inactive)
ROOT
ATOM      1  C   UNL d   1      -1.633   1.534   1.724  0.00  0.00     0.023 A 
ATOM      2  C1  UNL d   1      -0.645   1.164   2.637  0.00  0.00     0.003 A 
ATOM      3  C2  UNL d   1       0.616   0.774   2.182  0.00  0.00     0.048 A 
ATOM      4  C3  UNL d   1       0.884   0.757   0.814  0.00  0.00     0.023 A 
ATOM      5  C4  UNL d   1      -0.101   1.128  -0.103  0.00  0.00     0.048 A 
ATOM      6  C5  UNL d   1      -1.361   1.516   0.356  0.00  0.00     0.003 A 
ATOM      7  I   UNL d   1       2.761   0.178   0.135  0.00  0.00    -0.146 I 
ENDROOT
TORSDOF 0
ENDMDL
