MODEL 1
REMARK minimizedAffinity 4.66682768
REMARK minimizedRMSD -1
REMARK  0 active torsions:
REMARK  status: ('A' for Active; 'I' for Inactive)
ROOT
ATOM      1  C   UNL d   1       2.667  -2.777  -1.176  0.00  0.00     0.023 A 
ATOM      2  C1  UNL d   1       2.496  -2.268   0.111  0.00  0.00     0.003 A 
ATOM      3  C2  UNL d   1       3.153  -1.097   0.493  0.00  0.00     0.048 A 
ATOM      4  C3  UNL d   1       3.980  -0.440  -0.417  0.00  0.00     0.023 A 
ATOM      5  C4  UNL d   1       4.154  -0.945  -1.707  0.00  0.00     0.048 A 
ATOM      6  C5  UNL d   1       3.495  -2.117  -2.084  0.00  0.00     0.003 A 
ATOM      7  I   UNL d   1       4.960   1.303   0.149  0.00  0.00    -0.146 I 
ENDROOT
TORSDOF 0
ENDMDL
