MODEL 1
REMARK minimizedAffinity 6.89394522
REMARK minimizedRMSD -1
REMARK  0 active torsions:
REMARK  status: ('A' for Active; 'I' for Inactive)
ROOT
ATOM      1  C   UNL d   1      -4.296   1.090  -4.947  0.00  0.00     0.023 A 
ATOM      2  C1  UNL d   1      -4.582   0.258  -3.864  0.00  0.00     0.003 A 
ATOM      3  C2  UNL d   1      -3.557  -0.156  -3.011  0.00  0.00     0.048 A 
ATOM      4  C3  UNL d   1      -2.249   0.268  -3.244  0.00  0.00     0.023 A 
ATOM      5  C4  UNL d   1      -1.959   1.102  -4.325  0.00  0.00     0.048 A 
ATOM      6  C5  UNL d   1      -2.987   1.512  -5.177  0.00  0.00     0.003 A 
ATOM      7  I   UNL d   1      -0.722  -0.345  -1.975  0.00  0.00    -0.146 I 
ENDROOT
TORSDOF 0
ENDMDL
