MODEL 1
REMARK minimizedAffinity 8.71476936
REMARK minimizedRMSD -1
REMARK  0 active torsions:
REMARK  status: ('A' for Active; 'I' for Inactive)
ROOT
ATOM      1  C   UNL d   1       1.419  -3.154  -0.334  0.00  0.00     0.023 A 
ATOM      2  C1  UNL d   1       1.705  -2.528   0.880  0.00  0.00     0.003 A 
ATOM      3  C2  UNL d   1       2.407  -1.321   0.896  0.00  0.00     0.048 A 
ATOM      4  C3  UNL d   1       2.819  -0.744  -0.305  0.00  0.00     0.023 A 
ATOM      5  C4  UNL d   1       2.534  -1.366  -1.522  0.00  0.00     0.048 A 
ATOM      6  C5  UNL d   1       1.833  -2.574  -1.533  0.00  0.00     0.003 A 
ATOM      7  I   UNL d   1       3.863   1.053  -0.283  0.00  0.00    -0.146 I 
ENDROOT
TORSDOF 0
ENDMDL
