MODEL 1
REMARK minimizedAffinity 1.61338687
REMARK minimizedRMSD -1
REMARK  0 active torsions:
REMARK  status: ('A' for Active; 'I' for Inactive)
ROOT
ATOM      1  C   UNL d   1      -1.457   1.270   1.910  0.00  0.00     0.023 A 
ATOM      2  C1  UNL d   1      -1.217   1.416   0.544  0.00  0.00     0.003 A 
ATOM      3  C2  UNL d   1       0.054   1.160   0.026  0.00  0.00     0.048 A 
ATOM      4  C3  UNL d   1       1.080   0.757   0.879  0.00  0.00     0.023 A 
ATOM      5  C4  UNL d   1       0.845   0.609   2.247  0.00  0.00     0.048 A 
ATOM      6  C5  UNL d   1      -0.428   0.868   2.761  0.00  0.00     0.003 A 
ATOM      7  I   UNL d   1       2.973   0.375   0.110  0.00  0.00    -0.146 I 
ENDROOT
TORSDOF 0
ENDMDL
