MODEL 1
REMARK minimizedAffinity 7.00934219
REMARK minimizedRMSD -1
REMARK  0 active torsions:
REMARK  status: ('A' for Active; 'I' for Inactive)
ROOT
ATOM      1  C   UNL d   1       1.249  -0.005   4.229  0.00  0.00     0.023 A 
ATOM      2  C1  UNL d   1      -0.127  -0.234   4.206  0.00  0.00     0.003 A 
ATOM      3  C2  UNL d   1      -0.930   0.421   3.270  0.00  0.00     0.048 A 
ATOM      4  C3  UNL d   1      -0.350   1.303   2.359  0.00  0.00     0.023 A 
ATOM      5  C4  UNL d   1       1.026   1.535   2.378  0.00  0.00     0.048 A 
ATOM      6  C5  UNL d   1       1.825   0.879   3.316  0.00  0.00     0.003 A 
ATOM      7  I   UNL d   1      -1.543   2.279   0.965  0.00  0.00    -0.146 I 
ENDROOT
TORSDOF 0
ENDMDL
