MODEL 1
REMARK minimizedAffinity 2.94244623
REMARK minimizedRMSD -1
REMARK  0 active torsions:
REMARK  status: ('A' for Active; 'I' for Inactive)
ROOT
ATOM      1  C   UNL d   1      -1.469   0.795   1.771  0.00  0.00     0.023 A 
ATOM      2  C1  UNL d   1      -1.256   0.998   0.407  0.00  0.00     0.003 A 
ATOM      3  C2  UNL d   1       0.022   0.839  -0.132  0.00  0.00     0.048 A 
ATOM      4  C3  UNL d   1       1.082   0.474   0.697  0.00  0.00     0.023 A 
ATOM      5  C4  UNL d   1       0.873   0.269   2.062  0.00  0.00     0.048 A 
ATOM      6  C5  UNL d   1      -0.406   0.431   2.597  0.00  0.00     0.003 A 
ATOM      7  I   UNL d   1       2.985   0.235  -0.104  0.00  0.00    -0.146 I 
ENDROOT
TORSDOF 0
ENDMDL
