MODEL 1
REMARK minimizedAffinity 4.31261587
REMARK minimizedRMSD -1
REMARK  0 active torsions:
REMARK  status: ('A' for Active; 'I' for Inactive)
ROOT
ATOM      1  C   UNL d   1      -1.186   1.032   2.266  0.00  0.00     0.023 A 
ATOM      2  C1  UNL d   1      -1.170   1.251   0.888  0.00  0.00     0.003 A 
ATOM      3  C2  UNL d   1       0.033   1.181   0.183  0.00  0.00     0.048 A 
ATOM      4  C3  UNL d   1       1.216   0.891   0.861  0.00  0.00     0.023 A 
ATOM      5  C4  UNL d   1       1.205   0.670   2.240  0.00  0.00     0.048 A 
ATOM      6  C5  UNL d   1      -0.000   0.742   2.941  0.00  0.00     0.003 A 
ATOM      7  I   UNL d   1       3.008   0.786  -0.186  0.00  0.00    -0.146 I 
ENDROOT
TORSDOF 0
ENDMDL
