MODEL 1
REMARK minimizedAffinity -3.66070604
REMARK minimizedRMSD -1
REMARK  0 active torsions:
REMARK  status: ('A' for Active; 'I' for Inactive)
ROOT
ATOM      1  C1  BNZ d   1      -4.891  -5.249   1.906  0.00  0.00     0.000 A 
ATOM      2  C2  BNZ d   1      -5.996  -4.442   1.963  0.00  0.00     0.000 A 
ATOM      3  C3  BNZ d   1      -5.989  -3.295   2.707  0.00  0.00     0.000 A 
ATOM      4  C4  BNZ d   1      -4.892  -2.978   3.424  0.00  0.00     0.000 A 
ATOM      5  C5  BNZ d   1      -3.773  -3.785   3.385  0.00  0.00     0.000 A 
ATOM      6  C6  BNZ d   1      -3.770  -4.918   2.604  0.00  0.00     0.000 A 
ENDROOT
TORSDOF 0
ENDMDL
