MODEL 1
REMARK minimizedAffinity -1.02110445
REMARK minimizedRMSD -1
REMARK  0 active torsions:
REMARK  status: ('A' for Active; 'I' for Inactive)
ROOT
ATOM      1  C1  BNZ d   1       2.455  -4.007  -1.385  0.00  0.00     0.000 A 
ATOM      2  C2  BNZ d   1       1.505  -3.091  -1.751  0.00  0.00     0.000 A 
ATOM      3  C3  BNZ d   1       1.356  -2.721  -3.059  0.00  0.00     0.000 A 
ATOM      4  C4  BNZ d   1       2.182  -3.238  -3.992  0.00  0.00     0.000 A 
ATOM      5  C5  BNZ d   1       3.150  -4.155  -3.637  0.00  0.00     0.000 A 
ATOM      6  C6  BNZ d   1       3.272  -4.554  -2.326  0.00  0.00     0.000 A 
ENDROOT
TORSDOF 0
ENDMDL
