MODEL 1
REMARK minimizedAffinity -2.82053065
REMARK minimizedRMSD -1
REMARK  0 active torsions:
REMARK  status: ('A' for Active; 'I' for Inactive)
ROOT
ATOM      1  C1  BNZ d   1      -4.124  -2.993   4.114  0.00  0.00     0.000 A 
ATOM      2  C2  BNZ d   1      -5.058  -2.304   3.386  0.00  0.00     0.000 A 
ATOM      3  C3  BNZ d   1      -5.998  -2.967   2.647  0.00  0.00     0.000 A 
ATOM      4  C4  BNZ d   1      -5.978  -4.315   2.605  0.00  0.00     0.000 A 
ATOM      5  C5  BNZ d   1      -5.037  -5.023   3.326  0.00  0.00     0.000 A 
ATOM      6  C6  BNZ d   1      -4.117  -4.354   4.099  0.00  0.00     0.000 A 
ENDROOT
TORSDOF 0
ENDMDL
