MODEL 1
REMARK minimizedAffinity 2.86621952
REMARK minimizedRMSD -1
REMARK  0 active torsions:
REMARK  status: ('A' for Active; 'I' for Inactive)
ROOT
ATOM      1  C1  BNZ d   1       2.244  -0.099  -1.235  0.00  0.00     0.000 A 
ATOM      2  C2  BNZ d   1       2.944  -0.748  -0.253  0.00  0.00     0.000 A 
ATOM      3  C3  BNZ d   1       3.195  -2.089  -0.342  0.00  0.00     0.000 A 
ATOM      4  C4  BNZ d   1       2.712  -2.785  -1.391  0.00  0.00     0.000 A 
ATOM      5  C5  BNZ d   1       1.996  -2.147  -2.384  0.00  0.00     0.000 A 
ATOM      6  C6  BNZ d   1       1.779  -0.790  -2.311  0.00  0.00     0.000 A 
ENDROOT
TORSDOF 0
ENDMDL
