MODEL 1
REMARK minimizedAffinity -1.68628991
REMARK minimizedRMSD -1
REMARK  0 active torsions:
REMARK  status: ('A' for Active; 'I' for Inactive)
ROOT
ATOM      1  C1  BNZ d   1      -5.048  -5.985   3.017  0.00  0.00     0.000 A 
ATOM      2  C2  BNZ d   1      -6.000  -5.300   2.310  0.00  0.00     0.000 A 
ATOM      3  C3  BNZ d   1      -5.999  -3.933   2.277  0.00  0.00     0.000 A 
ATOM      4  C4  BNZ d   1      -5.072  -3.254   2.984  0.00  0.00     0.000 A 
ATOM      5  C5  BNZ d   1      -4.112  -3.930   3.710  0.00  0.00     0.000 A 
ATOM      6  C6  BNZ d   1      -4.093  -5.306   3.708  0.00  0.00     0.000 A 
ENDROOT
TORSDOF 0
ENDMDL
