MODEL 1
REMARK minimizedAffinity -0.916427553
REMARK minimizedRMSD -1
REMARK  0 active torsions:
REMARK  status: ('A' for Active; 'I' for Inactive)
ROOT
ATOM      1  C1  BNZ d   1       3.174  -5.370  -2.417  0.00  0.00     0.000 A 
ATOM      2  C2  BNZ d   1       3.244  -5.241  -3.779  0.00  0.00     0.000 A 
ATOM      3  C3  BNZ d   1       2.945  -4.053  -4.385  0.00  0.00     0.000 A 
ATOM      4  C4  BNZ d   1       2.537  -3.009  -3.635  0.00  0.00     0.000 A 
ATOM      5  C5  BNZ d   1       2.451  -3.127  -2.262  0.00  0.00     0.000 A 
ATOM      6  C6  BNZ d   1       2.791  -4.312  -1.651  0.00  0.00     0.000 A 
ENDROOT
TORSDOF 0
ENDMDL
