MODEL 1
REMARK minimizedAffinity -2.43185806
REMARK minimizedRMSD -1
REMARK  0 active torsions:
REMARK  status: ('A' for Active; 'I' for Inactive)
ROOT
ATOM      1  C1  BNZ d   1       3.395  -3.674  -4.046  0.00  0.00     0.000 A 
ATOM      2  C2  BNZ d   1       3.843  -4.326  -2.928  0.00  0.00     0.000 A 
ATOM      3  C3  BNZ d   1       3.226  -4.151  -1.721  0.00  0.00     0.000 A 
ATOM      4  C4  BNZ d   1       2.188  -3.295  -1.626  0.00  0.00     0.000 A 
ATOM      5  C5  BNZ d   1       1.730  -2.624  -2.742  0.00  0.00     0.000 A 
ATOM      6  C6  BNZ d   1       2.329  -2.832  -3.963  0.00  0.00     0.000 A 
ENDROOT
TORSDOF 0
ENDMDL
