MODEL 1
REMARK minimizedAffinity 6.17982388
REMARK minimizedRMSD -1
REMARK  0 active torsions:
REMARK  status: ('A' for Active; 'I' for Inactive)
ROOT
ATOM      1  C1  BNZ d   1       2.059  -3.375  -2.953  0.00  0.00     0.000 A 
ATOM      2  C2  BNZ d   1       2.848  -3.492  -4.066  0.00  0.00     0.000 A 
ATOM      3  C3  BNZ d   1       4.055  -4.132  -4.004  0.00  0.00     0.000 A 
ATOM      4  C4  BNZ d   1       4.488  -4.618  -2.823  0.00  0.00     0.000 A 
ATOM      5  C5  BNZ d   1       3.708  -4.499  -1.690  0.00  0.00     0.000 A 
ATOM      6  C6  BNZ d   1       2.477  -3.889  -1.764  0.00  0.00     0.000 A 
ENDROOT
TORSDOF 0
ENDMDL
