MODEL 1
REMARK minimizedAffinity 3.56812572
REMARK minimizedRMSD -1
REMARK  0 active torsions:
REMARK  status: ('A' for Active; 'I' for Inactive)
ROOT
ATOM      1  C1  BNZ d   1       2.515  -3.730  -4.119  0.00  0.00     0.000 A 
ATOM      2  C2  BNZ d   1       3.638  -4.485  -4.332  0.00  0.00     0.000 A 
ATOM      3  C3  BNZ d   1       4.282  -5.092  -3.290  0.00  0.00     0.000 A 
ATOM      4  C4  BNZ d   1       3.826  -4.912  -2.034  0.00  0.00     0.000 A 
ATOM      5  C5  BNZ d   1       2.700  -4.147  -1.802  0.00  0.00     0.000 A 
ATOM      6  C6  BNZ d   1       2.033  -3.569  -2.857  0.00  0.00     0.000 A 
ENDROOT
TORSDOF 0
ENDMDL
