MODEL 1
REMARK minimizedAffinity 8.37562847
REMARK minimizedRMSD -1
REMARK  0 active torsions:
REMARK  status: ('A' for Active; 'I' for Inactive)
ROOT
ATOM      1  C1  BNZ d   1      -3.865  -2.038   4.495  0.00  0.00     0.000 A 
ATOM      2  C2  BNZ d   1      -4.020  -1.488   3.250  0.00  0.00     0.000 A 
ATOM      3  C3  BNZ d   1      -3.839  -0.148   3.050  0.00  0.00     0.000 A 
ATOM      4  C4  BNZ d   1      -3.543   0.645   4.100  0.00  0.00     0.000 A 
ATOM      5  C5  BNZ d   1      -3.392   0.107   5.362  0.00  0.00     0.000 A 
ATOM      6  C6  BNZ d   1      -3.537  -1.248   5.553  0.00  0.00     0.000 A 
ENDROOT
TORSDOF 0
ENDMDL
