MODEL 1
REMARK minimizedAffinity 13.2075081
REMARK minimizedRMSD -1
REMARK  0 active torsions:
REMARK  status: ('A' for Active; 'I' for Inactive)
ROOT
ATOM      1  C1  BNZ d   1       3.107   1.626  -1.296  0.00  0.00     0.000 A 
ATOM      2  C2  BNZ d   1       2.140   1.594  -2.265  0.00  0.00     0.000 A 
ATOM      3  C3  BNZ d   1       1.627   0.405  -2.703  0.00  0.00     0.000 A 
ATOM      4  C4  BNZ d   1       2.109  -0.751  -2.200  0.00  0.00     0.000 A 
ATOM      5  C5  BNZ d   1       3.090  -0.735  -1.229  0.00  0.00     0.000 A 
ATOM      6  C6  BNZ d   1       3.576   0.465  -0.763  0.00  0.00     0.000 A 
ENDROOT
TORSDOF 0
ENDMDL
