MODEL 1
REMARK minimizedAffinity 7.12427902
REMARK minimizedRMSD -1
REMARK  0 active torsions:
REMARK  status: ('A' for Active; 'I' for Inactive)
ROOT
ATOM      1  C1  BNZ d   1      -2.271   4.075  -4.174  0.00  0.00     0.000 A 
ATOM      2  C2  BNZ d   1      -2.262   2.706  -4.182  0.00  0.00     0.000 A 
ATOM      3  C3  BNZ d   1      -2.983   2.006  -5.108  0.00  0.00     0.000 A 
ATOM      4  C4  BNZ d   1      -3.744   2.674  -5.999  0.00  0.00     0.000 A 
ATOM      5  C5  BNZ d   1      -3.771   4.055  -5.998  0.00  0.00     0.000 A 
ATOM      6  C6  BNZ d   1      -3.013   4.757  -5.090  0.00  0.00     0.000 A 
ENDROOT
TORSDOF 0
ENDMDL
