MODEL 1
REMARK minimizedAffinity 7.62107468
REMARK minimizedRMSD -1
REMARK  0 active torsions:
REMARK  status: ('A' for Active; 'I' for Inactive)
ROOT
ATOM      1  C1  BNZ d   1      -4.233   1.492   3.817  0.00  0.00     0.000 A 
ATOM      2  C2  BNZ d   1      -5.392   2.222   3.836  0.00  0.00     0.000 A 
ATOM      3  C3  BNZ d   1      -5.720   2.986   4.921  0.00  0.00     0.000 A 
ATOM      4  C4  BNZ d   1      -4.911   2.987   6.000  0.00  0.00     0.000 A 
ATOM      5  C5  BNZ d   1      -3.744   2.249   6.000  0.00  0.00     0.000 A 
ATOM      6  C6  BNZ d   1      -3.397   1.512   4.891  0.00  0.00     0.000 A 
ENDROOT
TORSDOF 0
ENDMDL
