MODEL 1
REMARK minimizedAffinity 7.9801693
REMARK minimizedRMSD -1
REMARK  0 active torsions:
REMARK  status: ('A' for Active; 'I' for Inactive)
ROOT
ATOM      1  C1  BNZ d   1      -3.610  -5.131   1.284  0.00  0.00     0.000 A 
ATOM      2  C2  BNZ d   1      -3.654  -5.686   0.033  0.00  0.00     0.000 A 
ATOM      3  C3  BNZ d   1      -4.850  -5.980  -0.561  0.00  0.00     0.000 A 
ATOM      4  C4  BNZ d   1      -5.997  -5.756   0.112  0.00  0.00     0.000 A 
ATOM      5  C5  BNZ d   1      -5.969  -5.205   1.377  0.00  0.00     0.000 A 
ATOM      6  C6  BNZ d   1      -4.765  -4.875   1.956  0.00  0.00     0.000 A 
ENDROOT
TORSDOF 0
ENDMDL
