MODEL 1
REMARK minimizedAffinity 7.3458252
REMARK minimizedRMSD -1
REMARK  0 active torsions:
REMARK  status: ('A' for Active; 'I' for Inactive)
ROOT
ATOM      1  C1  BNZ d   1       1.121  -1.099  -1.866  0.00  0.00     0.000 A 
ATOM      2  C2  BNZ d   1       1.967  -1.091  -0.790  0.00  0.00     0.000 A 
ATOM      3  C3  BNZ d   1       2.392  -2.261  -0.225  0.00  0.00     0.000 A 
ATOM      4  C4  BNZ d   1       1.941  -3.435  -0.711  0.00  0.00     0.000 A 
ATOM      5  C5  BNZ d   1       1.080  -3.459  -1.791  0.00  0.00     0.000 A 
ATOM      6  C6  BNZ d   1       0.685  -2.281  -2.381  0.00  0.00     0.000 A 
ENDROOT
TORSDOF 0
ENDMDL
