MODEL 1
REMARK minimizedAffinity 8.15975571
REMARK minimizedRMSD -1
REMARK  1 active torsions:
REMARK  status: ('A' for Active; 'I' for Inactive)
REMARK    1  A    between atoms: C1_2  and  C2_3 
ROOT
ATOM      1  C2  UNL d   1       0.292  -2.340   1.374  0.00  0.00    -0.073 A 
ATOM      2  C3  UNL d   1       1.209  -1.381   1.820  0.00  0.00    -0.002 A 
ATOM      3  C4  UNL d   1       2.580  -1.590   1.663  0.00  0.00     0.004 A 
ATOM      4  C5  UNL d   1       3.047  -2.754   1.053  0.00  0.00    -0.004 A 
ATOM      5  C6  UNL d   1       2.147  -3.718   0.590  0.00  0.00    -0.075 A 
ATOM      6  C7  UNL d   1       2.634  -4.977  -0.066  0.00  0.00     0.076 C 
ATOM      7  C8  UNL d   1       0.772  -3.503   0.754  0.00  0.00     0.001 A 
ENDROOT
BRANCH   1   8
ATOM      8  C1  UNL d   1      -1.189  -2.116   1.536  0.00  0.00     0.053 C 
ATOM      9  C   UNL d   1      -1.793  -3.035   2.586  0.00  0.00     0.018 C 
ENDBRANCH   1   8
TORSDOF 1
ENDMDL
