MODEL 1
REMARK minimizedAffinity 10.2903185
REMARK minimizedRMSD -1
REMARK  1 active torsions:
REMARK  status: ('A' for Active; 'I' for Inactive)
REMARK    1  A    between atoms: C1_2  and  C2_3 
ROOT
ATOM      1  C2  UNL d   1      -3.988   1.224  -3.051  0.00  0.00    -0.073 A 
ATOM      2  C3  UNL d   1      -2.791   1.871  -2.723  0.00  0.00    -0.002 A 
ATOM      3  C4  UNL d   1      -2.436   3.061  -3.358  0.00  0.00     0.004 A 
ATOM      4  C5  UNL d   1      -3.275   3.620  -4.322  0.00  0.00    -0.004 A 
ATOM      5  C6  UNL d   1      -4.481   2.996  -4.655  0.00  0.00    -0.075 A 
ATOM      6  C7  UNL d   1      -5.394   3.583  -5.691  0.00  0.00     0.076 C 
ATOM      7  C8  UNL d   1      -4.830   1.799  -4.015  0.00  0.00     0.001 A 
ENDROOT
BRANCH   1   8
ATOM      8  C1  UNL d   1      -4.380  -0.058  -2.363  0.00  0.00     0.053 C 
ATOM      9  C   UNL d   1      -3.216  -0.677  -1.606  0.00  0.00     0.018 C 
ENDBRANCH   1   8
TORSDOF 1
ENDMDL
