MODEL 1
REMARK minimizedAffinity -0.617641151
REMARK minimizedRMSD -1
REMARK  1 active torsions:
REMARK  status: ('A' for Active; 'I' for Inactive)
REMARK    1  A    between atoms: C1_2  and  C2_3 
ROOT
ATOM      1  C2  UNL d   1      -1.841   5.274   5.974  0.00  0.00    -0.073 A 
ATOM      2  C3  UNL d   1      -3.043   5.989   5.972  0.00  0.00    -0.002 A 
ATOM      3  C4  UNL d   1      -4.265   5.314   5.970  0.00  0.00     0.004 A 
ATOM      4  C5  UNL d   1      -4.296   3.920   5.978  0.00  0.00    -0.004 A 
ATOM      5  C6  UNL d   1      -3.105   3.187   5.993  0.00  0.00    -0.075 A 
ATOM      6  C7  UNL d   1      -3.122   1.687   6.000  0.00  0.00     0.076 C 
ATOM      7  C8  UNL d   1      -1.882   3.872   5.992  0.00  0.00     0.001 A 
ENDROOT
BRANCH   1   8
ATOM      8  C1  UNL d   1      -0.519   5.998   5.982  0.00  0.00     0.053 C 
ATOM      9  C   UNL d   1       0.443   5.441   4.946  0.00  0.00     0.018 C 
ENDBRANCH   1   8
TORSDOF 1
ENDMDL
