MODEL 1
REMARK minimizedAffinity 18.183485
REMARK minimizedRMSD -1
REMARK  1 active torsions:
REMARK  status: ('A' for Active; 'I' for Inactive)
REMARK    1  A    between atoms: C1_2  and  C2_3 
ROOT
ATOM      1  C2  UNL d   1      -4.887  -1.670  -3.096  0.00  0.00    -0.073 A 
ATOM      2  C3  UNL d   1      -5.850  -0.903  -3.761  0.00  0.00    -0.002 A 
ATOM      3  C4  UNL d   1      -6.000  -1.006  -5.145  0.00  0.00     0.004 A 
ATOM      4  C5  UNL d   1      -5.195  -1.879  -5.875  0.00  0.00    -0.004 A 
ATOM      5  C6  UNL d   1      -4.234  -2.663  -5.227  0.00  0.00    -0.075 A 
ATOM      6  C7  UNL d   1      -3.358  -3.606  -5.999  0.00  0.00     0.076 C 
ATOM      7  C8  UNL d   1      -4.088  -2.552  -3.838  0.00  0.00     0.001 A 
ENDROOT
BRANCH   1   8
ATOM      8  C1  UNL d   1      -4.726  -1.568  -1.601  0.00  0.00     0.053 C 
ATOM      9  C   UNL d   1      -3.527  -0.716  -1.214  0.00  0.00     0.018 C 
ENDBRANCH   1   8
TORSDOF 1
ENDMDL
