MODEL 1
REMARK minimizedAffinity 5.39361906
REMARK minimizedRMSD -1
REMARK  1 active torsions:
REMARK  status: ('A' for Active; 'I' for Inactive)
REMARK    1  A    between atoms: C1_2  and  C2_3 
ROOT
ATOM      1  C2  UNL d   1       1.256  -2.555   0.413  0.00  0.00    -0.073 A 
ATOM      2  C3  UNL d   1       2.280  -1.915   1.120  0.00  0.00    -0.002 A 
ATOM      3  C4  UNL d   1       3.461  -2.596   1.421  0.00  0.00     0.004 A 
ATOM      4  C5  UNL d   1       3.632  -3.919   1.014  0.00  0.00    -0.004 A 
ATOM      5  C6  UNL d   1       2.624  -4.572   0.296  0.00  0.00    -0.075 A 
ATOM      6  C7  UNL d   1       2.791  -5.996  -0.147  0.00  0.00     0.076 C 
ATOM      7  C8  UNL d   1       1.440  -3.882   0.000  0.00  0.00     0.001 A 
ENDROOT
BRANCH   1   8
ATOM      8  C1  UNL d   1      -0.018  -1.822   0.080  0.00  0.00     0.053 C 
ATOM      9  C   UNL d   1      -0.260  -1.753  -1.419  0.00  0.00     0.018 C 
ENDBRANCH   1   8
TORSDOF 1
ENDMDL
