MODEL 1
REMARK minimizedAffinity 14.3900299
REMARK minimizedRMSD -1
REMARK  1 active torsions:
REMARK  status: ('A' for Active; 'I' for Inactive)
REMARK    1  A    between atoms: C1_2  and  C2_3 
ROOT
ATOM      1  C2  UNL d   1       0.802  -1.604   1.272  0.00  0.00    -0.073 A 
ATOM      2  C3  UNL d   1       1.572  -0.648   0.599  0.00  0.00    -0.002 A 
ATOM      3  C4  UNL d   1       2.745  -1.024  -0.057  0.00  0.00     0.004 A 
ATOM      4  C5  UNL d   1       3.156  -2.357  -0.052  0.00  0.00    -0.004 A 
ATOM      5  C6  UNL d   1       2.394  -3.328   0.605  0.00  0.00    -0.075 A 
ATOM      6  C7  UNL d   1       2.823  -4.765   0.621  0.00  0.00     0.076 C 
ATOM      7  C8  UNL d   1       1.218  -2.942   1.263  0.00  0.00     0.001 A 
ENDROOT
BRANCH   1   8
ATOM      8  C1  UNL d   1      -0.469  -1.204   1.976  0.00  0.00     0.053 C 
ATOM      9  C   UNL d   1      -1.553  -2.262   1.841  0.00  0.00     0.018 C 
ENDBRANCH   1   8
TORSDOF 1
ENDMDL
