MODEL 1
REMARK minimizedAffinity 7.84592915
REMARK minimizedRMSD -1
REMARK  1 active torsions:
REMARK  status: ('A' for Active; 'I' for Inactive)
REMARK    1  A    between atoms: C1_2  and  C2_3 
ROOT
ATOM      1  C2  UNL d   1       1.503  -1.903   1.287  0.00  0.00    -0.073 A 
ATOM      2  C3  UNL d   1       1.715  -1.214   2.487  0.00  0.00    -0.002 A 
ATOM      3  C4  UNL d   1       0.631  -0.760   3.240  0.00  0.00     0.004 A 
ATOM      4  C5  UNL d   1      -0.673  -0.997   2.807  0.00  0.00    -0.004 A 
ATOM      5  C6  UNL d   1      -0.906  -1.695   1.617  0.00  0.00    -0.075 A 
ATOM      6  C7  UNL d   1      -2.303  -1.956   1.135  0.00  0.00     0.076 C 
ATOM      7  C8  UNL d   1       0.188  -2.144   0.864  0.00  0.00     0.001 A 
ENDROOT
BRANCH   1   8
ATOM      8  C1  UNL d   1       2.670  -2.400   0.474  0.00  0.00     0.053 C 
ATOM      9  C   UNL d   1       2.490  -3.847   0.044  0.00  0.00     0.018 C 
ENDBRANCH   1   8
TORSDOF 1
ENDMDL
