MODEL 1
REMARK minimizedAffinity 15.7380915
REMARK minimizedRMSD -1
REMARK  1 active torsions:
REMARK  status: ('A' for Active; 'I' for Inactive)
REMARK    1  A    between atoms: C1_2  and  C2_3 
ROOT
ATOM      1  C2  UNL d   1      -3.801   4.580   5.535  0.00  0.00    -0.073 A 
ATOM      2  C3  UNL d   1      -2.648   4.464   4.751  0.00  0.00    -0.002 A 
ATOM      3  C4  UNL d   1      -2.179   3.207   4.368  0.00  0.00     0.004 A 
ATOM      4  C5  UNL d   1      -2.861   2.055   4.758  0.00  0.00    -0.004 A 
ATOM      5  C6  UNL d   1      -4.022   2.150   5.532  0.00  0.00    -0.075 A 
ATOM      6  C7  UNL d   1      -4.766   0.920   5.962  0.00  0.00     0.076 C 
ATOM      7  C8  UNL d   1      -4.485   3.416   5.915  0.00  0.00     0.001 A 
ENDROOT
BRANCH   1   8
ATOM      8  C1  UNL d   1      -4.315   5.935   5.946  0.00  0.00     0.053 C 
ATOM      9  C   UNL d   1      -5.835   5.994   5.943  0.00  0.00     0.018 C 
ENDBRANCH   1   8
TORSDOF 1
ENDMDL
