MODEL 1
REMARK minimizedAffinity 10.4781685
REMARK minimizedRMSD -1
REMARK  1 active torsions:
REMARK  status: ('A' for Active; 'I' for Inactive)
REMARK    1  A    between atoms: C1_2  and  C2_3 
ROOT
ATOM      1  C2  UNL d   1       4.212  -2.691   3.859  0.00  0.00    -0.073 A 
ATOM      2  C3  UNL d   1       5.168  -1.842   4.428  0.00  0.00    -0.002 A 
ATOM      3  C4  UNL d   1       5.953  -2.279   5.495  0.00  0.00     0.004 A 
ATOM      4  C5  UNL d   1       5.796  -3.570   6.000  0.00  0.00    -0.004 A 
ATOM      5  C6  UNL d   1       4.854  -4.438   5.437  0.00  0.00    -0.075 A 
ATOM      6  C7  UNL d   1       4.671  -5.828   5.969  0.00  0.00     0.076 C 
ATOM      7  C8  UNL d   1       4.068  -3.990   4.367  0.00  0.00     0.001 A 
ENDROOT
BRANCH   1   8
ATOM      8  C1  UNL d   1       3.367  -2.225   2.702  0.00  0.00     0.053 C 
ATOM      9  C   UNL d   1       3.992  -2.575   1.361  0.00  0.00     0.018 C 
ENDBRANCH   1   8
TORSDOF 1
ENDMDL
