MODEL 1
REMARK minimizedAffinity -4.34742641
REMARK minimizedRMSD -1
REMARK  1 active torsions:
REMARK  status: ('A' for Active; 'I' for Inactive)
REMARK    1  A    between atoms: N_2  and  C1_3 
ROOT
ATOM      1  C1  UNL d   1       1.482   1.903  -0.332  0.00  0.00     0.143 A 
ATOM      2  C2  UNL d   1       0.599   2.828   0.235  0.00  0.00    -0.057 A 
ATOM      3  C3  UNL d   1       1.006   4.134   0.530  0.00  0.00     0.033 A 
ATOM      4  C4  UNL d   1       2.317   4.531   0.289  0.00  0.00    -0.042 A 
ATOM      5  C5  UNL d   1       3.219   3.621  -0.251  0.00  0.00     0.033 A 
ATOM      6  C6  UNL d   1       2.804   2.320  -0.549  0.00  0.00    -0.057 A 
ENDROOT
BRANCH   1   7
ATOM      7  N   UNL d   1       1.164   0.561  -0.557  0.00  0.00    -0.732 N 
ATOM      8  C   UNL d   1      -0.171   0.066  -0.298  0.00  0.00     0.284 C 
ATOM      9  H3  UNL d   1       1.583   0.201  -1.411  0.00  0.00     0.395 HD
ENDBRANCH   1   7
TORSDOF 1
ENDMDL
