MODEL 1
REMARK minimizedAffinity -2.51042843
REMARK minimizedRMSD -1
REMARK  1 active torsions:
REMARK  status: ('A' for Active; 'I' for Inactive)
REMARK    1  A    between atoms: N_2  and  C1_3 
ROOT
ATOM      1  C1  UNL d   1      -0.840   2.971  -2.405  0.00  0.00     0.143 A 
ATOM      2  C2  UNL d   1      -1.543   1.789  -2.151  0.00  0.00    -0.057 A 
ATOM      3  C3  UNL d   1      -2.530   1.328  -3.030  0.00  0.00     0.033 A 
ATOM      4  C4  UNL d   1      -2.853   2.059  -4.169  0.00  0.00    -0.042 A 
ATOM      5  C5  UNL d   1      -2.184   3.250  -4.428  0.00  0.00     0.033 A 
ATOM      6  C6  UNL d   1      -1.195   3.702  -3.550  0.00  0.00    -0.057 A 
ENDROOT
BRANCH   1   7
ATOM      7  N   UNL d   1       0.082   3.533  -1.519  0.00  0.00    -0.732 N 
ATOM      8  C   UNL d   1       0.304   2.946  -0.215  0.00  0.00     0.284 C 
ATOM      9  H3  UNL d   1       0.932   3.841  -1.987  0.00  0.00     0.395 HD
ENDBRANCH   1   7
TORSDOF 1
ENDMDL
