MODEL 1
REMARK minimizedAffinity -0.560351849
REMARK minimizedRMSD -1
REMARK  1 active torsions:
REMARK  status: ('A' for Active; 'I' for Inactive)
REMARK    1  A    between atoms: N_2  and  C1_3 
ROOT
ATOM      1  C1  UNL d   1      -1.377   1.243  -1.456  0.00  0.00     0.143 A 
ATOM      2  C2  UNL d   1      -2.447   0.603  -2.092  0.00  0.00    -0.057 A 
ATOM      3  C3  UNL d   1      -3.030   1.138  -3.247  0.00  0.00     0.033 A 
ATOM      4  C4  UNL d   1      -2.571   2.342  -3.772  0.00  0.00    -0.042 A 
ATOM      5  C5  UNL d   1      -1.525   3.007  -3.142  0.00  0.00     0.033 A 
ATOM      6  C6  UNL d   1      -0.942   2.465  -1.993  0.00  0.00    -0.057 A 
ENDROOT
BRANCH   1   7
ATOM      7  N   UNL d   1      -0.819   0.812  -0.250  0.00  0.00    -0.732 N 
ATOM      8  C   UNL d   1      -0.097  -0.439  -0.176  0.00  0.00     0.284 C 
ATOM      9  H3  UNL d   1      -0.388   1.572   0.271  0.00  0.00     0.395 HD
ENDBRANCH   1   7
TORSDOF 1
ENDMDL
