MODEL 1
REMARK minimizedAffinity -0.0389165543
REMARK minimizedRMSD -1
REMARK  1 active torsions:
REMARK  status: ('A' for Active; 'I' for Inactive)
REMARK    1  A    between atoms: N_2  and  C1_3 
ROOT
ATOM      1  C1  UNL d   1      -0.780  -0.315   0.060  0.00  0.00     0.143 A 
ATOM      2  C2  UNL d   1      -1.838   0.432   0.589  0.00  0.00    -0.057 A 
ATOM      3  C3  UNL d   1      -2.006   1.783   0.263  0.00  0.00     0.033 A 
ATOM      4  C4  UNL d   1      -1.100   2.420  -0.578  0.00  0.00    -0.042 A 
ATOM      5  C5  UNL d   1      -0.027   1.704  -1.096  0.00  0.00     0.033 A 
ATOM      6  C6  UNL d   1       0.132   0.353  -0.772  0.00  0.00    -0.057 A 
ENDROOT
BRANCH   1   7
ATOM      7  N   UNL d   1      -0.502  -1.635   0.423  0.00  0.00    -0.732 N 
ATOM      8  C   UNL d   1      -1.092  -2.212   1.612  0.00  0.00     0.284 C 
ATOM      9  H3  UNL d   1      -0.482  -2.263  -0.377  0.00  0.00     0.395 HD
ENDBRANCH   1   7
TORSDOF 1
ENDMDL
