MODEL 1
REMARK minimizedAffinity -3.87369084
REMARK minimizedRMSD -1
REMARK  1 active torsions:
REMARK  status: ('A' for Active; 'I' for Inactive)
REMARK    1  A    between atoms: N_2  and  C1_3 
ROOT
ATOM      1  C1  UNL d   1      -0.968   3.046  -1.826  0.00  0.00     0.143 A 
ATOM      2  C2  UNL d   1      -1.493   2.108  -0.930  0.00  0.00    -0.057 A 
ATOM      3  C3  UNL d   1      -2.404   1.132  -1.350  0.00  0.00     0.033 A 
ATOM      4  C4  UNL d   1      -2.831   1.094  -2.674  0.00  0.00    -0.042 A 
ATOM      5  C5  UNL d   1      -2.342   2.032  -3.577  0.00  0.00     0.033 A 
ATOM      6  C6  UNL d   1      -1.427   3.000  -3.152  0.00  0.00    -0.057 A 
ENDROOT
BRANCH   1   7
ATOM      7  N   UNL d   1      -0.135   4.101  -1.448  0.00  0.00    -0.732 N 
ATOM      8  C   UNL d   1       0.390   4.181  -0.102  0.00  0.00     0.284 C 
ATOM      9  H3  UNL d   1       0.538   4.343  -2.172  0.00  0.00     0.395 HD
ENDBRANCH   1   7
TORSDOF 1
ENDMDL
