MODEL 1
REMARK minimizedAffinity -2.72470021
REMARK minimizedRMSD -1
REMARK  1 active torsions:
REMARK  status: ('A' for Active; 'I' for Inactive)
REMARK    1  A    between atoms: N_2  and  C1_3 
ROOT
ATOM      1  C1  UNL d   1      -1.428   2.006  -1.905  0.00  0.00     0.143 A 
ATOM      2  C2  UNL d   1      -2.224   1.466  -2.920  0.00  0.00    -0.057 A 
ATOM      3  C3  UNL d   1      -2.324   2.085  -4.172  0.00  0.00     0.033 A 
ATOM      4  C4  UNL d   1      -1.650   3.276  -4.421  0.00  0.00    -0.042 A 
ATOM      5  C5  UNL d   1      -0.873   3.845  -3.418  0.00  0.00     0.033 A 
ATOM      6  C6  UNL d   1      -0.771   3.218  -2.173  0.00  0.00    -0.057 A 
ENDROOT
BRANCH   1   7
ATOM      7  N   UNL d   1      -1.365   1.491  -0.608  0.00  0.00    -0.732 N 
ATOM      8  C   UNL d   1      -0.649   0.263  -0.336  0.00  0.00     0.284 C 
ATOM      9  H3  UNL d   1      -1.227   2.216   0.092  0.00  0.00     0.395 HD
ENDBRANCH   1   7
TORSDOF 1
ENDMDL
