MODEL 1
REMARK minimizedAffinity -1.71729791
REMARK minimizedRMSD -1
REMARK  1 active torsions:
REMARK  status: ('A' for Active; 'I' for Inactive)
REMARK    1  A    between atoms: N_2  and  C1_3 
ROOT
ATOM      1  C1  UNL d   1      -0.365   0.027  -0.264  0.00  0.00     0.143 A 
ATOM      2  C2  UNL d   1       1.034  -0.005  -0.298  0.00  0.00    -0.057 A 
ATOM      3  C3  UNL d   1       1.752  -1.043   0.308  0.00  0.00     0.033 A 
ATOM      4  C4  UNL d   1       1.082  -2.056   0.987  0.00  0.00    -0.042 A 
ATOM      5  C5  UNL d   1      -0.306  -2.031   1.056  0.00  0.00     0.033 A 
ATOM      6  C6  UNL d   1      -1.018  -0.996   0.443  0.00  0.00    -0.057 A 
ENDROOT
BRANCH   1   7
ATOM      7  N   UNL d   1      -1.131   1.083  -0.762  0.00  0.00    -0.732 N 
ATOM      8  C   UNL d   1      -1.885   0.932  -1.988  0.00  0.00     0.284 C 
ATOM      9  H3  UNL d   1      -1.628   1.583  -0.028  0.00  0.00     0.395 HD
ENDBRANCH   1   7
TORSDOF 1
ENDMDL
