MODEL 1
REMARK minimizedAffinity -3.51988506
REMARK minimizedRMSD -1
REMARK  1 active torsions:
REMARK  status: ('A' for Active; 'I' for Inactive)
REMARK    1  A    between atoms: N_2  and  C1_3 
ROOT
ATOM      1  C1  UNL d   1       0.208  -0.309  -0.525  0.00  0.00     0.143 A 
ATOM      2  C2  UNL d   1      -0.360  -1.587  -0.482  0.00  0.00    -0.057 A 
ATOM      3  C3  UNL d   1       0.182  -2.595   0.325  0.00  0.00     0.033 A 
ATOM      4  C4  UNL d   1       1.322  -2.350   1.083  0.00  0.00    -0.042 A 
ATOM      5  C5  UNL d   1       1.917  -1.095   1.037  0.00  0.00     0.033 A 
ATOM      6  C6  UNL d   1       1.368  -0.090   0.235  0.00  0.00    -0.057 A 
ENDROOT
BRANCH   1   7
ATOM      7  N   UNL d   1      -0.226   0.706  -1.382  0.00  0.00    -0.732 N 
ATOM      8  C   UNL d   1      -1.630   1.039  -1.478  0.00  0.00     0.284 C 
ATOM      9  H3  UNL d   1       0.394   1.513  -1.372  0.00  0.00     0.395 HD
ENDBRANCH   1   7
TORSDOF 1
ENDMDL
