MODEL 1
REMARK minimizedAffinity -3.7848506
REMARK minimizedRMSD -1
REMARK  1 active torsions:
REMARK  status: ('A' for Active; 'I' for Inactive)
REMARK    1  A    between atoms: N_2  and  C1_3 
ROOT
ATOM      1  C1  UNL d   1       0.133  -0.245  -0.010  0.00  0.00     0.143 A 
ATOM      2  C2  UNL d   1       1.397  -0.558  -0.521  0.00  0.00    -0.057 A 
ATOM      3  C3  UNL d   1       2.055  -1.739  -0.156  0.00  0.00     0.033 A 
ATOM      4  C4  UNL d   1       1.470  -2.616   0.752  0.00  0.00    -0.042 A 
ATOM      5  C5  UNL d   1       0.225  -2.313   1.291  0.00  0.00     0.033 A 
ATOM      6  C6  UNL d   1      -0.430  -1.135   0.918  0.00  0.00    -0.057 A 
ENDROOT
BRANCH   1   7
ATOM      7  N   UNL d   1      -0.529   0.960  -0.258  0.00  0.00    -0.732 N 
ATOM      8  C   UNL d   1       0.165   2.223  -0.127  0.00  0.00     0.284 C 
ATOM      9  H3  UNL d   1      -1.145   0.906  -1.067  0.00  0.00     0.395 HD
ENDBRANCH   1   7
TORSDOF 1
ENDMDL
