MODEL 1
REMARK minimizedAffinity -5.08437824
REMARK minimizedRMSD -1
REMARK  1 active torsions:
REMARK  status: ('A' for Active; 'I' for Inactive)
REMARK    1  A    between atoms: N_2  and  C1_3 
ROOT
ATOM      1  C1  UNL d   1       0.371  -0.121   0.184  0.00  0.00     0.143 A 
ATOM      2  C2  UNL d   1       1.745  -0.321   0.010  0.00  0.00    -0.057 A 
ATOM      3  C3  UNL d   1       2.341  -1.555   0.294  0.00  0.00     0.033 A 
ATOM      4  C4  UNL d   1       1.576  -2.606   0.789  0.00  0.00    -0.042 A 
ATOM      5  C5  UNL d   1       0.214  -2.423   0.994  0.00  0.00     0.033 A 
ATOM      6  C6  UNL d   1      -0.378  -1.190   0.701  0.00  0.00    -0.057 A 
ENDROOT
BRANCH   1   7
ATOM      7  N   UNL d   1      -0.264   1.111   0.013  0.00  0.00    -0.732 N 
ATOM      8  C   UNL d   1       0.492   2.344   0.066  0.00  0.00     0.284 C 
ATOM      9  H3  UNL d   1      -0.968   1.086  -0.722  0.00  0.00     0.395 HD
ENDBRANCH   1   7
TORSDOF 1
ENDMDL
