MODEL 1
REMARK minimizedAffinity -1.60954237
REMARK minimizedRMSD -1
REMARK  1 active torsions:
REMARK  status: ('A' for Active; 'I' for Inactive)
REMARK    1  A    between atoms: N_2  and  C1_3 
ROOT
ATOM      1  C1  UNL d   1      -2.102   2.435  -3.736  0.00  0.00     0.143 A 
ATOM      2  C2  UNL d   1      -1.729   1.121  -4.036  0.00  0.00    -0.057 A 
ATOM      3  C3  UNL d   1      -2.317   0.032  -3.382  0.00  0.00     0.033 A 
ATOM      4  C4  UNL d   1      -3.271   0.240  -2.391  0.00  0.00    -0.042 A 
ATOM      5  C5  UNL d   1      -3.639   1.539  -2.058  0.00  0.00     0.033 A 
ATOM      6  C6  UNL d   1      -3.053   2.622  -2.720  0.00  0.00    -0.057 A 
ENDROOT
BRANCH   1   7
ATOM      7  N   UNL d   1      -1.483   3.563  -4.282  0.00  0.00    -0.732 N 
ATOM      8  C   UNL d   1      -0.420   4.238  -3.569  0.00  0.00     0.284 C 
ATOM      9  H3  UNL d   1      -1.320   3.471  -5.282  0.00  0.00     0.395 HD
ENDBRANCH   1   7
TORSDOF 1
ENDMDL
