MODEL 1
REMARK minimizedAffinity -4.42268038
REMARK minimizedRMSD -1
REMARK  1 active torsions:
REMARK  status: ('A' for Active; 'I' for Inactive)
REMARK    1  A    between atoms: N_2  and  C1_3 
ROOT
ATOM      1  C1  UNL d   1       1.486   0.675  -0.250  0.00  0.00     0.143 A 
ATOM      2  C2  UNL d   1       2.302   1.789  -0.028  0.00  0.00    -0.057 A 
ATOM      3  C3  UNL d   1       1.755   3.065   0.153  0.00  0.00     0.033 A 
ATOM      4  C4  UNL d   1       0.379   3.255   0.086  0.00  0.00    -0.042 A 
ATOM      5  C5  UNL d   1      -0.450   2.166  -0.159  0.00  0.00     0.033 A 
ATOM      6  C6  UNL d   1       0.102   0.893  -0.332  0.00  0.00    -0.057 A 
ENDROOT
BRANCH   1   7
ATOM      7  N   UNL d   1       1.975  -0.602  -0.536  0.00  0.00    -0.732 N 
ATOM      8  C   UNL d   1       1.395  -1.770   0.091  0.00  0.00     0.284 C 
ATOM      9  H3  UNL d   1       2.190  -0.724  -1.523  0.00  0.00     0.395 HD
ENDBRANCH   1   7
TORSDOF 1
ENDMDL
