MODEL 1
REMARK minimizedAffinity -4.57124901
REMARK minimizedRMSD -1
REMARK  1 active torsions:
REMARK  status: ('A' for Active; 'I' for Inactive)
REMARK    1  A    between atoms: N_2  and  C1_3 
ROOT
ATOM      1  C1  UNL d   1      -0.451   0.234   0.306  0.00  0.00     0.143 A 
ATOM      2  C2  UNL d   1      -1.617   0.384   1.065  0.00  0.00    -0.057 A 
ATOM      3  C3  UNL d   1      -1.568   0.831   2.391  0.00  0.00     0.033 A 
ATOM      4  C4  UNL d   1      -0.345   1.110   2.992  0.00  0.00    -0.042 A 
ATOM      5  C5  UNL d   1       0.828   0.945   2.265  0.00  0.00     0.033 A 
ATOM      6  C6  UNL d   1       0.772   0.504   0.939  0.00  0.00    -0.057 A 
ENDROOT
BRANCH   1   7
ATOM      7  N   UNL d   1      -0.427  -0.300  -0.985  0.00  0.00    -0.732 N 
ATOM      8  C   UNL d   1       0.827  -0.669  -1.606  0.00  0.00     0.284 C 
ATOM      9  H3  UNL d   1      -1.181  -0.963  -1.145  0.00  0.00     0.395 HD
ENDBRANCH   1   7
TORSDOF 1
ENDMDL
