MODEL 1
REMARK minimizedAffinity -1.50886321
REMARK minimizedRMSD -1
REMARK  1 active torsions:
REMARK  status: ('A' for Active; 'I' for Inactive)
REMARK    1  A    between atoms: N_2  and  C1_3 
ROOT
ATOM      1  C1  UNL d   1      -0.489   0.230   1.590  0.00  0.00     0.143 A 
ATOM      2  C2  UNL d   1       0.878  -0.044   1.703  0.00  0.00    -0.057 A 
ATOM      3  C3  UNL d   1       1.579  -0.682   0.672  0.00  0.00     0.033 A 
ATOM      4  C4  UNL d   1       0.915  -1.085  -0.482  0.00  0.00    -0.042 A 
ATOM      5  C5  UNL d   1      -0.449  -0.845  -0.606  0.00  0.00     0.033 A 
ATOM      6  C6  UNL d   1      -1.141  -0.202   0.424  0.00  0.00    -0.057 A 
ENDROOT
BRANCH   1   7
ATOM      7  N   UNL d   1      -1.262   0.772   2.620  0.00  0.00    -0.732 N 
ATOM      8  C   UNL d   1      -0.709   1.772   3.507  0.00  0.00     0.284 C 
ATOM      9  H3  UNL d   1      -2.220   0.956   2.331  0.00  0.00     0.395 HD
ENDBRANCH   1   7
TORSDOF 1
ENDMDL
