MODEL 1
REMARK minimizedAffinity -4.62234068
REMARK minimizedRMSD -1
REMARK  1 active torsions:
REMARK  status: ('A' for Active; 'I' for Inactive)
REMARK    1  A    between atoms: N_2  and  C1_3 
ROOT
ATOM      1  C1  UNL d   1       0.291  -0.044   0.455  0.00  0.00     0.143 A 
ATOM      2  C2  UNL d   1      -1.055   0.273   0.244  0.00  0.00    -0.057 A 
ATOM      3  C3  UNL d   1      -1.882   0.670   1.301  0.00  0.00     0.033 A 
ATOM      4  C4  UNL d   1      -1.383   0.729   2.598  0.00  0.00    -0.042 A 
ATOM      5  C5  UNL d   1      -0.055   0.394   2.836  0.00  0.00     0.033 A 
ATOM      6  C6  UNL d   1       0.768   0.005   1.774  0.00  0.00    -0.057 A 
ENDROOT
BRANCH   1   7
ATOM      7  N   UNL d   1       1.139  -0.540  -0.538  0.00  0.00    -0.732 N 
ATOM      8  C   UNL d   1       0.824  -0.352  -1.938  0.00  0.00     0.284 C 
ATOM      9  H3  UNL d   1       2.122  -0.408  -0.312  0.00  0.00     0.395 HD
ENDBRANCH   1   7
TORSDOF 1
ENDMDL
