MODEL 1
REMARK minimizedAffinity -3.4309628
REMARK minimizedRMSD -1
REMARK  1 active torsions:
REMARK  status: ('A' for Active; 'I' for Inactive)
REMARK    1  A    between atoms: N_2  and  C1_3 
ROOT
ATOM      1  C1  UNL d   1      -0.067  -0.230  -0.035  0.00  0.00     0.143 A 
ATOM      2  C2  UNL d   1      -1.455  -0.100  -0.146  0.00  0.00    -0.057 A 
ATOM      3  C3  UNL d   1      -2.217   0.457   0.888  0.00  0.00     0.033 A 
ATOM      4  C4  UNL d   1      -1.605   0.868   2.068  0.00  0.00    -0.042 A 
ATOM      5  C5  UNL d   1      -0.229   0.725   2.210  0.00  0.00     0.033 A 
ATOM      6  C6  UNL d   1       0.527   0.174   1.171  0.00  0.00    -0.057 A 
ENDROOT
BRANCH   1   7
ATOM      7  N   UNL d   1       0.734  -0.865  -0.988  0.00  0.00    -0.732 N 
ATOM      8  C   UNL d   1       0.478  -0.688  -2.401  0.00  0.00     0.284 C 
ATOM      9  H3  UNL d   1       1.720  -0.851  -0.739  0.00  0.00     0.395 HD
ENDBRANCH   1   7
TORSDOF 1
ENDMDL
