MODEL 1
REMARK minimizedAffinity -4.71720886
REMARK minimizedRMSD -1
REMARK  1 active torsions:
REMARK  status: ('A' for Active; 'I' for Inactive)
REMARK    1  A    between atoms: N_2  and  C1_3 
ROOT
ATOM      1  C1  UNL d   1       0.041   0.239  -0.126  0.00  0.00     0.143 A 
ATOM      2  C2  UNL d   1      -1.320   0.553  -0.196  0.00  0.00    -0.057 A 
ATOM      3  C3  UNL d   1      -1.991   1.123   0.893  0.00  0.00     0.033 A 
ATOM      4  C4  UNL d   1      -1.316   1.362   2.085  0.00  0.00    -0.042 A 
ATOM      5  C5  UNL d   1       0.032   1.035   2.186  0.00  0.00     0.033 A 
ATOM      6  C6  UNL d   1       0.698   0.472   1.093  0.00  0.00    -0.057 A 
ENDROOT
BRANCH   1   7
ATOM      7  N   UNL d   1       0.741  -0.420  -1.140  0.00  0.00    -0.732 N 
ATOM      8  C   UNL d   1       0.869   0.175  -2.453  0.00  0.00     0.284 C 
ATOM      9  H3  UNL d   1       1.591  -0.864  -0.801  0.00  0.00     0.395 HD
ENDBRANCH   1   7
TORSDOF 1
ENDMDL
