MODEL 1
REMARK minimizedAffinity -3.11697531
REMARK minimizedRMSD -1
REMARK  1 active torsions:
REMARK  status: ('A' for Active; 'I' for Inactive)
REMARK    1  A    between atoms: N_2  and  C1_3 
ROOT
ATOM      1  C1  UNL d   1      -1.142   0.168   1.306  0.00  0.00     0.143 A 
ATOM      2  C2  UNL d   1       0.212  -0.111   1.092  0.00  0.00    -0.057 A 
ATOM      3  C3  UNL d   1       0.643  -0.771  -0.065  0.00  0.00     0.033 A 
ATOM      4  C4  UNL d   1      -0.279  -1.191  -1.018  0.00  0.00    -0.042 A 
ATOM      5  C5  UNL d   1      -1.632  -0.946  -0.814  0.00  0.00     0.033 A 
ATOM      6  C6  UNL d   1      -2.056  -0.281   0.340  0.00  0.00    -0.057 A 
ENDROOT
BRANCH   1   7
ATOM      7  N   UNL d   1      -1.643   0.732   2.482  0.00  0.00    -0.732 N 
ATOM      8  C   UNL d   1      -1.022   1.905   3.060  0.00  0.00     0.284 C 
ATOM      9  H3  UNL d   1      -2.661   0.748   2.502  0.00  0.00     0.395 HD
ENDBRANCH   1   7
TORSDOF 1
ENDMDL
