MODEL 1
REMARK minimizedAffinity -3.49094033
REMARK minimizedRMSD -1
REMARK  1 active torsions:
REMARK  status: ('A' for Active; 'I' for Inactive)
REMARK    1  A    between atoms: N_2  and  C1_3 
ROOT
ATOM      1  C1  UNL d   1       0.426  -0.588  -0.237  0.00  0.00     0.143 A 
ATOM      2  C2  UNL d   1       1.041  -0.090   0.917  0.00  0.00    -0.057 A 
ATOM      3  C3  UNL d   1       0.294   0.523   1.930  0.00  0.00     0.033 A 
ATOM      4  C4  UNL d   1      -1.082   0.676   1.793  0.00  0.00    -0.042 A 
ATOM      5  C5  UNL d   1      -1.710   0.211   0.644  0.00  0.00     0.033 A 
ATOM      6  C6  UNL d   1      -0.960  -0.406  -0.362  0.00  0.00    -0.057 A 
ENDROOT
BRANCH   1   7
ATOM      7  N   UNL d   1       1.126  -1.119  -1.323  0.00  0.00    -0.732 N 
ATOM      8  C   UNL d   1       0.786  -0.737  -2.677  0.00  0.00     0.284 C 
ATOM      9  H3  UNL d   1       2.126  -1.183  -1.148  0.00  0.00     0.395 HD
ENDBRANCH   1   7
TORSDOF 1
ENDMDL
