MODEL 1
REMARK minimizedAffinity 0.140325621
REMARK minimizedRMSD -1
REMARK  1 active torsions:
REMARK  status: ('A' for Active; 'I' for Inactive)
REMARK    1  A    between atoms: N_2  and  C1_3 
ROOT
ATOM      1  C1  UNL d   1       1.059  -0.464  -2.124  0.00  0.00     0.143 A 
ATOM      2  C2  UNL d   1       0.103  -0.459  -3.146  0.00  0.00    -0.057 A 
ATOM      3  C3  UNL d   1       0.375   0.122  -4.390  0.00  0.00     0.033 A 
ATOM      4  C4  UNL d   1       1.600   0.736  -4.626  0.00  0.00    -0.042 A 
ATOM      5  C5  UNL d   1       2.556   0.765  -3.616  0.00  0.00     0.033 A 
ATOM      6  C6  UNL d   1       2.282   0.177  -2.378  0.00  0.00    -0.057 A 
ENDROOT
BRANCH   1   7
ATOM      7  N   UNL d   1       0.814  -0.938  -0.833  0.00  0.00    -0.732 N 
ATOM      8  C   UNL d   1      -0.048  -0.206   0.071  0.00  0.00     0.284 C 
ATOM      9  H3  UNL d   1       0.681  -1.946  -0.808  0.00  0.00     0.395 HD
ENDBRANCH   1   7
TORSDOF 1
ENDMDL
