MODEL 1
REMARK minimizedAffinity -0.525588274
REMARK minimizedRMSD -1
REMARK  0 active torsions:
REMARK  status: ('A' for Active; 'I' for Inactive)
ROOT
ATOM      1  C4' PXY d   1       2.976  -3.192  -0.967  0.00  0.00     0.077 C 
ATOM      2  C1' PXY d   1      -0.949  -0.953   2.638  0.00  0.00     0.077 C 
ATOM      3  C1  PXY d   1       0.081  -1.551   1.700  0.00  0.00    -0.082 A 
ATOM      4  C2  PXY d   1       0.794  -0.755   0.919  0.00  0.00     0.003 A 
ATOM      5  C3  PXY d   1       1.707  -1.282   0.042  0.00  0.00     0.003 A 
ATOM      6  C4  PXY d   1       1.931  -2.632   0.002  0.00  0.00    -0.082 A 
ATOM      7  C5  PXY d   1       1.215  -3.449   0.803  0.00  0.00     0.003 A 
ATOM      8  C6  PXY d   1       0.263  -2.898   1.657  0.00  0.00     0.003 A 
ENDROOT
TORSDOF 0
ENDMDL
