MODEL 1
REMARK minimizedAffinity -4.38273954
REMARK minimizedRMSD -1
REMARK  0 active torsions:
REMARK  status: ('A' for Active; 'I' for Inactive)
ROOT
ATOM      1  C4' PXY d   1       3.583  -4.560  -0.546  0.00  0.00     0.077 C 
ATOM      2  C1' PXY d   1      -0.532  -0.736   0.817  0.00  0.00     0.077 C 
ATOM      3  C1  PXY d   1       0.554  -1.730   0.453  0.00  0.00    -0.082 A 
ATOM      4  C2  PXY d   1       0.277  -3.024   0.436  0.00  0.00     0.003 A 
ATOM      5  C3  PXY d   1       1.255  -3.938   0.141  0.00  0.00     0.003 A 
ATOM      6  C4  PXY d   1       2.516  -3.521  -0.193  0.00  0.00    -0.082 A 
ATOM      7  C5  PXY d   1       2.803  -2.202  -0.188  0.00  0.00     0.003 A 
ATOM      8  C6  PXY d   1       1.807  -1.292   0.155  0.00  0.00     0.003 A 
ENDROOT
TORSDOF 0
ENDMDL
