MODEL 1
REMARK minimizedAffinity -4.28092766
REMARK minimizedRMSD -1
REMARK  0 active torsions:
REMARK  status: ('A' for Active; 'I' for Inactive)
ROOT
ATOM      1  C4' PXY d   1       3.709  -4.051   0.136  0.00  0.00     0.077 C 
ATOM      2  C1' PXY d   1      -0.566  -0.256   0.994  0.00  0.00     0.077 C 
ATOM      3  C1  PXY d   1       0.562  -1.242   0.762  0.00  0.00    -0.082 A 
ATOM      4  C2  PXY d   1       0.314  -2.541   0.809  0.00  0.00     0.003 A 
ATOM      5  C3  PXY d   1       1.329  -3.447   0.633  0.00  0.00     0.003 A 
ATOM      6  C4  PXY d   1       2.599  -3.019   0.355  0.00  0.00    -0.082 A 
ATOM      7  C5  PXY d   1       2.857  -1.695   0.295  0.00  0.00     0.003 A 
ATOM      8  C6  PXY d   1       1.822  -0.792   0.517  0.00  0.00     0.003 A 
ENDROOT
TORSDOF 0
ENDMDL
