MODEL 1
REMARK minimizedAffinity -0.165810093
REMARK minimizedRMSD -1
REMARK  0 active torsions:
REMARK  status: ('A' for Active; 'I' for Inactive)
ROOT
ATOM      1  C4' PXY d   1      -0.554  -0.860   0.899  0.00  0.00     0.077 C 
ATOM      2  C1' PXY d   1       3.674  -4.657  -0.158  0.00  0.00     0.077 C 
ATOM      3  C1  PXY d   1       2.574  -3.653   0.124  0.00  0.00    -0.082 A 
ATOM      4  C2  PXY d   1       1.331  -4.074   0.288  0.00  0.00     0.003 A 
ATOM      5  C3  PXY d   1       0.318  -3.176   0.512  0.00  0.00     0.003 A 
ATOM      6  C4  PXY d   1       0.590  -1.839   0.622  0.00  0.00    -0.082 A 
ATOM      7  C5  PXY d   1       1.858  -1.402   0.467  0.00  0.00     0.003 A 
ATOM      8  C6  PXY d   1       2.865  -2.326   0.200  0.00  0.00     0.003 A 
ENDROOT
TORSDOF 0
ENDMDL
