MODEL 1
REMARK minimizedAffinity -6.33788872
REMARK minimizedRMSD -1
REMARK  0 active torsions:
REMARK  status: ('A' for Active; 'I' for Inactive)
ROOT
ATOM      1  C4' PXY d   1      -1.486   0.327   1.115  0.00  0.00     0.077 C 
ATOM      2  C1' PXY d   1       2.788  -3.478   0.299  0.00  0.00     0.077 C 
ATOM      3  C1  PXY d   1       1.659  -2.488   0.508  0.00  0.00    -0.082 A 
ATOM      4  C2  PXY d   1       1.931  -1.198   0.615  0.00  0.00     0.003 A 
ATOM      5  C3  PXY d   1       0.925  -0.293   0.835  0.00  0.00     0.003 A 
ATOM      6  C4  PXY d   1      -0.379  -0.707   0.895  0.00  0.00    -0.082 A 
ATOM      7  C5  PXY d   1      -0.666  -2.021   0.776  0.00  0.00     0.003 A 
ATOM      8  C6  PXY d   1       0.374  -2.928   0.593  0.00  0.00     0.003 A 
ENDROOT
TORSDOF 0
ENDMDL
