MODEL 1
REMARK minimizedAffinity -2.56814861
REMARK minimizedRMSD -1
REMARK  0 active torsions:
REMARK  status: ('A' for Active; 'I' for Inactive)
ROOT
ATOM      1  C4' PXY d   1      -0.079  -0.967   0.808  0.00  0.00     0.077 C 
ATOM      2  C1' PXY d   1       4.164  -4.759  -0.207  0.00  0.00     0.077 C 
ATOM      3  C1  PXY d   1       3.060  -3.756   0.064  0.00  0.00    -0.082 A 
ATOM      4  C2  PXY d   1       1.819  -4.181   0.241  0.00  0.00     0.003 A 
ATOM      5  C3  PXY d   1       0.803  -3.285   0.455  0.00  0.00     0.003 A 
ATOM      6  C4  PXY d   1       1.069  -1.945   0.542  0.00  0.00    -0.082 A 
ATOM      7  C5  PXY d   1       2.333  -1.504   0.373  0.00  0.00     0.003 A 
ATOM      8  C6  PXY d   1       3.344  -2.426   0.115  0.00  0.00     0.003 A 
ENDROOT
TORSDOF 0
ENDMDL
