MODEL 1
REMARK minimizedAffinity -5.65128136
REMARK minimizedRMSD -1
REMARK  0 active torsions:
REMARK  status: ('A' for Active; 'I' for Inactive)
ROOT
ATOM      1  C4' PXY d   1      -0.458  -0.710   0.700  0.00  0.00     0.077 C 
ATOM      2  C1' PXY d   1       3.907  -4.426  -0.046  0.00  0.00     0.077 C 
ATOM      3  C1  PXY d   1       2.771  -3.443   0.155  0.00  0.00    -0.082 A 
ATOM      4  C2  PXY d   1       1.524  -3.884   0.196  0.00  0.00     0.003 A 
ATOM      5  C3  PXY d   1       0.482  -3.006   0.345  0.00  0.00     0.003 A 
ATOM      6  C4  PXY d   1       0.722  -1.667   0.508  0.00  0.00    -0.082 A 
ATOM      7  C5  PXY d   1       1.992  -1.211   0.479  0.00  0.00     0.003 A 
ATOM      8  C6  PXY d   1       3.033  -2.114   0.285  0.00  0.00     0.003 A 
ENDROOT
TORSDOF 0
ENDMDL
