MODEL 1
REMARK minimizedAffinity -4.7671299
REMARK minimizedRMSD -1
REMARK  0 active torsions:
REMARK  status: ('A' for Active; 'I' for Inactive)
ROOT
ATOM      1  C4' PXY d   1      -0.659  -0.663   0.816  0.00  0.00     0.077 C 
ATOM      2  C1' PXY d   1       3.873  -4.119  -0.150  0.00  0.00     0.077 C 
ATOM      3  C1  PXY d   1       2.693  -3.204   0.109  0.00  0.00    -0.082 A 
ATOM      4  C2  PXY d   1       1.478  -3.717   0.212  0.00  0.00     0.003 A 
ATOM      5  C3  PXY d   1       0.395  -2.900   0.414  0.00  0.00     0.003 A 
ATOM      6  C4  PXY d   1       0.564  -1.550   0.565  0.00  0.00    -0.082 A 
ATOM      7  C5  PXY d   1       1.802  -1.020   0.471  0.00  0.00     0.003 A 
ATOM      8  C6  PXY d   1       2.883  -1.861   0.225  0.00  0.00     0.003 A 
ENDROOT
TORSDOF 0
ENDMDL
