MODEL 1
REMARK minimizedAffinity -0.374679744
REMARK minimizedRMSD -1
REMARK  0 active torsions:
REMARK  status: ('A' for Active; 'I' for Inactive)
ROOT
ATOM      1  C4' PXY d   1      -5.398  -5.831   5.999  0.00  0.00     0.077 C 
ATOM      2  C1' PXY d   1      -5.514  -3.430   0.742  0.00  0.00     0.077 C 
ATOM      3  C1  PXY d   1      -5.493  -4.067   2.118  0.00  0.00    -0.082 A 
ATOM      4  C2  PXY d   1      -4.973  -3.405   3.138  0.00  0.00     0.003 A 
ATOM      5  C3  PXY d   1      -4.917  -3.979   4.382  0.00  0.00     0.003 A 
ATOM      6  C4  PXY d   1      -5.448  -5.223   4.595  0.00  0.00    -0.082 A 
ATOM      7  C5  PXY d   1      -5.990  -5.901   3.562  0.00  0.00     0.003 A 
ATOM      8  C6  PXY d   1      -6.000  -5.317   2.298  0.00  0.00     0.003 A 
ENDROOT
TORSDOF 0
ENDMDL
