MODEL 1
REMARK minimizedAffinity -0.244471386
REMARK minimizedRMSD -1
REMARK  0 active torsions:
REMARK  status: ('A' for Active; 'I' for Inactive)
ROOT
ATOM      1  C4' PXY d   1      -0.516  -0.498   0.849  0.00  0.00     0.077 C 
ATOM      2  C1' PXY d   1       3.265  -4.706  -0.339  0.00  0.00     0.077 C 
ATOM      3  C1  PXY d   1       2.284  -3.595  -0.024  0.00  0.00    -0.082 A 
ATOM      4  C2  PXY d   1       1.031  -3.895   0.278  0.00  0.00     0.003 A 
ATOM      5  C3  PXY d   1       0.122  -2.901   0.534  0.00  0.00     0.003 A 
ATOM      6  C4  PXY d   1       0.512  -1.588   0.534  0.00  0.00    -0.082 A 
ATOM      7  C5  PXY d   1       1.791  -1.275   0.237  0.00  0.00     0.003 A 
ATOM      8  C6  PXY d   1       2.688  -2.296  -0.060  0.00  0.00     0.003 A 
ENDROOT
TORSDOF 0
ENDMDL
