MODEL 1
REMARK minimizedAffinity -3.73241305
REMARK minimizedRMSD -1
REMARK  0 active torsions:
REMARK  status: ('A' for Active; 'I' for Inactive)
ROOT
ATOM      1  C4' PXY d   1       4.172  -4.940  -0.213  0.00  0.00     0.077 C 
ATOM      2  C1' PXY d   1      -0.014  -1.127   0.951  0.00  0.00     0.077 C 
ATOM      3  C1  PXY d   1       1.091  -2.117   0.641  0.00  0.00    -0.082 A 
ATOM      4  C2  PXY d   1       0.796  -3.397   0.482  0.00  0.00     0.003 A 
ATOM      5  C3  PXY d   1       1.788  -4.311   0.233  0.00  0.00     0.003 A 
ATOM      6  C4  PXY d   1       3.087  -3.903   0.092  0.00  0.00    -0.082 A 
ATOM      7  C5  PXY d   1       3.394  -2.597   0.242  0.00  0.00     0.003 A 
ATOM      8  C6  PXY d   1       2.379  -1.691   0.535  0.00  0.00     0.003 A 
ENDROOT
TORSDOF 0
ENDMDL
