MODEL 1
REMARK minimizedAffinity -0.0504663363
REMARK minimizedRMSD -1
REMARK  0 active torsions:
REMARK  status: ('A' for Active; 'I' for Inactive)
ROOT
ATOM      1  C4' PXY d   1      -0.861  -0.861   0.584  0.00  0.00     0.077 C 
ATOM      2  C1' PXY d   1       3.439  -4.685   0.041  0.00  0.00     0.077 C 
ATOM      3  C1  PXY d   1       2.319  -3.674   0.190  0.00  0.00    -0.082 A 
ATOM      4  C2  PXY d   1       1.061  -4.072   0.089  0.00  0.00     0.003 A 
ATOM      5  C3  PXY d   1       0.037  -3.166   0.189  0.00  0.00     0.003 A 
ATOM      6  C4  PXY d   1       0.301  -1.848   0.450  0.00  0.00    -0.082 A 
ATOM      7  C5  PXY d   1       1.582  -1.436   0.565  0.00  0.00     0.003 A 
ATOM      8  C6  PXY d   1       2.608  -2.365   0.419  0.00  0.00     0.003 A 
ENDROOT
TORSDOF 0
ENDMDL
