MODEL 1
REMARK minimizedAffinity -5.03821659
REMARK minimizedRMSD -1
REMARK  0 active torsions:
REMARK  status: ('A' for Active; 'I' for Inactive)
ROOT
ATOM      1  C4' PXY d   1       3.751  -4.123  -0.262  0.00  0.00     0.077 C 
ATOM      2  C1' PXY d   1      -0.803  -0.695   0.700  0.00  0.00     0.077 C 
ATOM      3  C1  PXY d   1       0.398  -1.584   0.443  0.00  0.00    -0.082 A 
ATOM      4  C2  PXY d   1       0.220  -2.876   0.219  0.00  0.00     0.003 A 
ATOM      5  C3  PXY d   1       1.297  -3.699   0.017  0.00  0.00     0.003 A 
ATOM      6  C4  PXY d   1       2.567  -3.186  -0.008  0.00  0.00    -0.082 A 
ATOM      7  C5  PXY d   1       2.756  -1.868   0.209  0.00  0.00     0.003 A 
ATOM      8  C6  PXY d   1       1.652  -1.056   0.453  0.00  0.00     0.003 A 
ENDROOT
TORSDOF 0
ENDMDL
