MODEL 1
REMARK minimizedAffinity -2.967067
REMARK minimizedRMSD -1
REMARK  0 active torsions:
REMARK  status: ('A' for Active; 'I' for Inactive)
ROOT
ATOM      1  C4' PXY d   1       3.812   3.378  -3.227  0.00  0.00     0.077 C 
ATOM      2  C1' PXY d   1      -0.565   6.000  -5.945  0.00  0.00     0.077 C 
ATOM      3  C1  PXY d   1       0.586   5.305  -5.243  0.00  0.00    -0.082 A 
ATOM      4  C2  PXY d   1       0.599   5.236  -3.922  0.00  0.00     0.003 A 
ATOM      5  C3  PXY d   1       1.648   4.639  -3.270  0.00  0.00     0.003 A 
ATOM      6  C4  PXY d   1       2.666   4.061  -3.979  0.00  0.00    -0.082 A 
ATOM      7  C5  PXY d   1       2.654   4.118  -5.327  0.00  0.00     0.003 A 
ATOM      8  C6  PXY d   1       1.601   4.764  -5.969  0.00  0.00     0.003 A 
ENDROOT
TORSDOF 0
ENDMDL
