MODEL 1
REMARK minimizedAffinity 2.719069
REMARK minimizedRMSD -1
REMARK  0 active torsions:
REMARK  status: ('A' for Active; 'I' for Inactive)
ROOT
ATOM      1  C4' PXY d   1      -2.193  -0.615   0.603  0.00  0.00     0.077 C 
ATOM      2  C1' PXY d   1       3.509  -0.368   1.520  0.00  0.00     0.077 C 
ATOM      3  C1  PXY d   1       2.016  -0.438   1.267  0.00  0.00    -0.082 A 
ATOM      4  C2  PXY d   1       1.200   0.347   1.952  0.00  0.00     0.003 A 
ATOM      5  C3  PXY d   1      -0.156   0.274   1.759  0.00  0.00     0.003 A 
ATOM      6  C4  PXY d   1      -0.677  -0.573   0.818  0.00  0.00    -0.082 A 
ATOM      7  C5  PXY d   1       0.150  -1.368   0.108  0.00  0.00     0.003 A 
ATOM      8  C6  PXY d   1       1.519  -1.309   0.348  0.00  0.00     0.003 A 
ENDROOT
TORSDOF 0
ENDMDL
