MODEL 1
REMARK minimizedAffinity -1.77004337
REMARK minimizedRMSD -1
REMARK  0 active torsions:
REMARK  status: ('A' for Active; 'I' for Inactive)
ROOT
ATOM      1  C4' PXY d   1       3.663  -4.356  -0.281  0.00  0.00     0.077 C 
ATOM      2  C1' PXY d   1      -0.766  -0.929   1.150  0.00  0.00     0.077 C 
ATOM      3  C1  PXY d   1       0.389  -1.838   0.779  0.00  0.00    -0.082 A 
ATOM      4  C2  PXY d   1       1.610  -1.337   0.681  0.00  0.00     0.003 A 
ATOM      5  C3  PXY d   1       2.660  -2.139   0.316  0.00  0.00     0.003 A 
ATOM      6  C4  PXY d   1       2.469  -3.477   0.100  0.00  0.00    -0.082 A 
ATOM      7  C5  PXY d   1       1.228  -3.997   0.209  0.00  0.00     0.003 A 
ATOM      8  C6  PXY d   1       0.167  -3.159   0.540  0.00  0.00     0.003 A 
ENDROOT
TORSDOF 0
ENDMDL
