MODEL 1
REMARK minimizedAffinity -2.81795621
REMARK minimizedRMSD -1
REMARK  0 active torsions:
REMARK  status: ('A' for Active; 'I' for Inactive)
ROOT
ATOM      1  C4' PXY d   1       3.631  -4.799  -0.350  0.00  0.00     0.077 C 
ATOM      2  C1' PXY d   1      -0.068  -0.480   0.687  0.00  0.00     0.077 C 
ATOM      3  C1  PXY d   1       0.893  -1.621   0.420  0.00  0.00    -0.082 A 
ATOM      4  C2  PXY d   1       2.187  -1.372   0.302  0.00  0.00     0.003 A 
ATOM      5  C3  PXY d   1       3.067  -2.387   0.030  0.00  0.00     0.003 A 
ATOM      6  C4  PXY d   1       2.625  -3.679  -0.071  0.00  0.00    -0.082 A 
ATOM      7  C5  PXY d   1       1.307  -3.943   0.058  0.00  0.00     0.003 A 
ATOM      8  C6  PXY d   1       0.425  -2.892   0.294  0.00  0.00     0.003 A 
ENDROOT
TORSDOF 0
ENDMDL
