MODEL 1
REMARK minimizedAffinity -0.467792243
REMARK minimizedRMSD -1
REMARK  0 active torsions:
REMARK  status: ('A' for Active; 'I' for Inactive)
ROOT
ATOM      1  C4' PXY d   1       3.598  -4.486  -0.312  0.00  0.00     0.077 C 
ATOM      2  C1' PXY d   1      -1.098  -1.253   0.642  0.00  0.00     0.077 C 
ATOM      3  C1  PXY d   1       0.140  -2.090   0.388  0.00  0.00    -0.082 A 
ATOM      4  C2  PXY d   1       0.015  -3.383   0.135  0.00  0.00     0.003 A 
ATOM      5  C3  PXY d   1       1.126  -4.161  -0.065  0.00  0.00     0.003 A 
ATOM      6  C4  PXY d   1       2.375  -3.600  -0.059  0.00  0.00    -0.082 A 
ATOM      7  C5  PXY d   1       2.510  -2.280   0.188  0.00  0.00     0.003 A 
ATOM      8  C6  PXY d   1       1.372  -1.515   0.430  0.00  0.00     0.003 A 
ENDROOT
TORSDOF 0
ENDMDL
