MODEL 1
REMARK minimizedAffinity 3.58047247
REMARK minimizedRMSD -1
REMARK  0 active torsions:
REMARK  status: ('A' for Active; 'I' for Inactive)
ROOT
ATOM      1  C4' PXY d   1       2.426  -4.448  -0.049  0.00  0.00     0.077 C 
ATOM      2  C1' PXY d   1      -0.736   0.125   1.535  0.00  0.00     0.077 C 
ATOM      3  C1  PXY d   1       0.083  -1.082   1.121  0.00  0.00    -0.082 A 
ATOM      4  C2  PXY d   1       1.400  -1.050   1.238  0.00  0.00     0.003 A 
ATOM      5  C3  PXY d   1       2.159  -2.120   0.839  0.00  0.00     0.003 A 
ATOM      6  C4  PXY d   1       1.558  -3.256   0.365  0.00  0.00    -0.082 A 
ATOM      7  C5  PXY d   1       0.214  -3.301   0.252  0.00  0.00     0.003 A 
ATOM      8  C6  PXY d   1      -0.535  -2.188   0.624  0.00  0.00     0.003 A 
ENDROOT
TORSDOF 0
ENDMDL
