MODEL 1
REMARK minimizedAffinity -3.58404756
REMARK minimizedRMSD -1
REMARK  0 active torsions:
REMARK  status: ('A' for Active; 'I' for Inactive)
ROOT
ATOM      1  C4' PXY d   1       2.991  -4.053  -0.594  0.00  0.00     0.077 C 
ATOM      2  C1' PXY d   1      -0.818  -0.013   1.014  0.00  0.00     0.077 C 
ATOM      3  C1  PXY d   1       0.187  -1.063   0.585  0.00  0.00    -0.082 A 
ATOM      4  C2  PXY d   1      -0.144  -2.344   0.634  0.00  0.00     0.003 A 
ATOM      5  C3  PXY d   1       0.764  -3.309   0.280  0.00  0.00     0.003 A 
ATOM      6  C4  PXY d   1       2.005  -2.957  -0.180  0.00  0.00    -0.082 A 
ATOM      7  C5  PXY d   1       2.346  -1.653  -0.243  0.00  0.00     0.003 A 
ATOM      8  C6  PXY d   1       1.424  -0.690   0.160  0.00  0.00     0.003 A 
ENDROOT
TORSDOF 0
ENDMDL
