MODEL 1
REMARK minimizedAffinity 4.56686449
REMARK minimizedRMSD -1
REMARK  1 active torsions:
REMARK  status: ('A' for Active; 'I' for Inactive)
REMARK    1  A    between atoms: N_2  and  C1_3 
ROOT
ATOM      1  C1  UNL d   1       3.430   1.401  -1.124  0.00  0.00     0.143 A 
ATOM      2  C2  UNL d   1       2.312   0.666  -1.535  0.00  0.00    -0.057 A 
ATOM      3  C3  UNL d   1       1.812  -0.388  -0.761  0.00  0.00     0.033 A 
ATOM      4  C4  UNL d   1       2.440  -0.746   0.427  0.00  0.00    -0.042 A 
ATOM      5  C5  UNL d   1       3.567  -0.045   0.843  0.00  0.00     0.033 A 
ATOM      6  C6  UNL d   1       4.058   1.010   0.069  0.00  0.00    -0.057 A 
ENDROOT
BRANCH   1   7
ATOM      7  N   UNL d   1       4.034   2.395  -1.897  0.00  0.00    -0.732 N 
ATOM      8  C   UNL d   1       5.451   2.662  -1.779  0.00  0.00     0.284 C 
ATOM      9  H3  UNL d   1       3.687   2.408  -2.854  0.00  0.00     0.395 HD
ENDBRANCH   1   7
TORSDOF 1
ENDMDL
