MODEL 1
REMARK minimizedAffinity 8.01287937
REMARK minimizedRMSD -1
REMARK  1 active torsions:
REMARK  status: ('A' for Active; 'I' for Inactive)
REMARK    1  A    between atoms: N_2  and  C1_3 
ROOT
ATOM      1  C1  UNL d   1       4.478   2.844  -1.312  0.00  0.00     0.143 A 
ATOM      2  C2  UNL d   1       3.786   3.060  -0.115  0.00  0.00    -0.057 A 
ATOM      3  C3  UNL d   1       3.048   2.036   0.491  0.00  0.00     0.033 A 
ATOM      4  C4  UNL d   1       2.966   0.782  -0.105  0.00  0.00    -0.042 A 
ATOM      5  C5  UNL d   1       3.626   0.552  -1.308  0.00  0.00     0.033 A 
ATOM      6  C6  UNL d   1       4.366   1.577  -1.905  0.00  0.00    -0.057 A 
ENDROOT
BRANCH   1   7
ATOM      7  N   UNL d   1       5.148   3.848  -2.015  0.00  0.00    -0.732 N 
ATOM      8  C   UNL d   1       5.687   4.999  -1.322  0.00  0.00     0.284 C 
ATOM      9  H3  UNL d   1       5.758   3.475  -2.739  0.00  0.00     0.395 HD
ENDBRANCH   1   7
TORSDOF 1
ENDMDL
