MODEL 1
REMARK minimizedAffinity 4.65799141
REMARK minimizedRMSD -1
REMARK  1 active torsions:
REMARK  status: ('A' for Active; 'I' for Inactive)
REMARK    1  A    between atoms: N_2  and  C1_3 
ROOT
ATOM      1  C1  UNL d   1      -3.206   0.437  -2.694  0.00  0.00     0.143 A 
ATOM      2  C2  UNL d   1      -4.464   0.796  -2.197  0.00  0.00    -0.057 A 
ATOM      3  C3  UNL d   1      -4.710   0.858  -0.820  0.00  0.00     0.033 A 
ATOM      4  C4  UNL d   1      -3.707   0.533   0.087  0.00  0.00    -0.042 A 
ATOM      5  C5  UNL d   1      -2.457   0.149  -0.384  0.00  0.00     0.033 A 
ATOM      6  C6  UNL d   1      -2.215   0.095  -1.761  0.00  0.00    -0.057 A 
ENDROOT
BRANCH   1   7
ATOM      7  N   UNL d   1      -2.928   0.261  -4.052  0.00  0.00    -0.732 N 
ATOM      8  C   UNL d   1      -3.984   0.340  -5.037  0.00  0.00     0.284 C 
ATOM      9  H3  UNL d   1      -2.062   0.716  -4.332  0.00  0.00     0.395 HD
ENDBRANCH   1   7
TORSDOF 1
ENDMDL
