MODEL 1
REMARK minimizedAffinity 15.53473
REMARK minimizedRMSD -1
REMARK  1 active torsions:
REMARK  status: ('A' for Active; 'I' for Inactive)
REMARK    1  A    between atoms: N_2  and  C1_3 
ROOT
ATOM      1  C1  UNL d   1       3.936   3.943   3.374  0.00  0.00     0.143 A 
ATOM      2  C2  UNL d   1       2.740   3.221   3.298  0.00  0.00    -0.057 A 
ATOM      3  C3  UNL d   1       1.502   3.871   3.231  0.00  0.00     0.033 A 
ATOM      4  C4  UNL d   1       1.436   5.260   3.267  0.00  0.00    -0.042 A 
ATOM      5  C5  UNL d   1       2.610   5.998   3.366  0.00  0.00     0.033 A 
ATOM      6  C6  UNL d   1       3.844   5.343   3.427  0.00  0.00    -0.057 A 
ENDROOT
BRANCH   1   7
ATOM      7  N   UNL d   1       5.191   3.354   3.542  0.00  0.00    -0.732 N 
ATOM      8  C   UNL d   1       5.457   2.499   4.679  0.00  0.00     0.284 C 
ATOM      9  H3  UNL d   1       5.582   3.015   2.666  0.00  0.00     0.395 HD
ENDBRANCH   1   7
TORSDOF 1
ENDMDL
