MODEL 1
REMARK minimizedAffinity 15.6557083
REMARK minimizedRMSD -1
REMARK  1 active torsions:
REMARK  status: ('A' for Active; 'I' for Inactive)
REMARK    1  A    between atoms: N_2  and  C1_3 
ROOT
ATOM      1  C1  UNL d   1      -4.271   3.300  -0.744  0.00  0.00     0.143 A 
ATOM      2  C2  UNL d   1      -4.981   3.231  -1.948  0.00  0.00    -0.057 A 
ATOM      3  C3  UNL d   1      -5.569   2.034  -2.376  0.00  0.00     0.033 A 
ATOM      4  C4  UNL d   1      -5.431   0.875  -1.620  0.00  0.00    -0.042 A 
ATOM      5  C5  UNL d   1      -4.709   0.915  -0.433  0.00  0.00     0.033 A 
ATOM      6  C6  UNL d   1      -4.130   2.114  -0.007  0.00  0.00    -0.057 A 
ENDROOT
BRANCH   1   7
ATOM      7  N   UNL d   1      -3.581   4.435  -0.313  0.00  0.00    -0.732 N 
ATOM      8  C   UNL d   1      -4.298   5.636   0.061  0.00  0.00     0.284 C 
ATOM      9  H3  UNL d   1      -2.804   4.207   0.303  0.00  0.00     0.395 HD
ENDBRANCH   1   7
TORSDOF 1
ENDMDL
