MODEL 1
REMARK minimizedAffinity -0.688399315
REMARK minimizedRMSD -1
REMARK  2 active torsions:
REMARK  status: ('A' for Active; 'I' for Inactive)
REMARK    1  A    between atoms: C1_2  and  C2_3 
REMARK    2  A    between atoms: C2_3  and  C3_4 
ROOT
ATOM      1  C3  UNL d   1      -0.019  -0.773  -2.177  0.00  0.00    -0.075 A 
ATOM      2  C4  UNL d   1       0.301  -0.664  -0.816  0.00  0.00     0.002 A 
ATOM      3  C5  UNL d   1       1.175   0.329  -0.371  0.00  0.00     0.002 A 
ATOM      4  C6  UNL d   1       1.748   1.216  -1.280  0.00  0.00    -0.004 A 
ATOM      5  C7  UNL d   1       1.450   1.106  -2.637  0.00  0.00     0.002 A 
ATOM      6  C8  UNL d   1       0.572   0.117  -3.084  0.00  0.00     0.002 A 
ENDROOT
BRANCH   1   7
ATOM      7  C2  UNL d   1      -0.988  -1.826  -2.660  0.00  0.00     0.056 C 
BRANCH   7   8
ATOM      8  C1  UNL d   1      -2.432  -1.602  -2.201  0.00  0.00     0.007 C 
ATOM      9  C   UNL d   1      -3.465  -2.129  -3.189  0.00  0.00     0.009 C 
ENDBRANCH   7   8
ENDBRANCH   1   7
TORSDOF 2
ENDMDL
