MODEL 1
REMARK minimizedAffinity 6.2563138
REMARK minimizedRMSD -1
REMARK  2 active torsions:
REMARK  status: ('A' for Active; 'I' for Inactive)
REMARK    1  A    between atoms: C1_2  and  C2_3 
REMARK    2  A    between atoms: C2_3  and  C3_4 
ROOT
ATOM      1  C3  UNL d   1      -2.026   3.069   2.092  0.00  0.00    -0.075 A 
ATOM      2  C4  UNL d   1      -2.450   2.521   3.312  0.00  0.00     0.002 A 
ATOM      3  C5  UNL d   1      -3.774   2.115   3.484  0.00  0.00     0.002 A 
ATOM      4  C6  UNL d   1      -4.691   2.261   2.445  0.00  0.00    -0.004 A 
ATOM      5  C7  UNL d   1      -4.285   2.820   1.235  0.00  0.00     0.002 A 
ATOM      6  C8  UNL d   1      -2.960   3.223   1.059  0.00  0.00     0.002 A 
ENDROOT
BRANCH   1   7
ATOM      7  C2  UNL d   1      -0.588   3.483   1.890  0.00  0.00     0.056 C 
BRANCH   7   8
ATOM      8  C1  UNL d   1       0.080   2.842   0.669  0.00  0.00     0.007 C 
ATOM      9  C   UNL d   1       0.954   1.646   1.022  0.00  0.00     0.009 C 
ENDBRANCH   7   8
ENDBRANCH   1   7
TORSDOF 2
ENDMDL
