MODEL 1
REMARK minimizedAffinity 7.01861763
REMARK minimizedRMSD -1
REMARK  2 active torsions:
REMARK  status: ('A' for Active; 'I' for Inactive)
REMARK    1  A    between atoms: C1_2  and  C2_3 
REMARK    2  A    between atoms: C2_3  and  C3_4 
ROOT
ATOM      1  C3  UNL d   1      -1.578  -3.833   1.222  0.00  0.00    -0.075 A 
ATOM      2  C4  UNL d   1      -0.347  -3.163   1.162  0.00  0.00     0.002 A 
ATOM      3  C5  UNL d   1       0.185  -2.768  -0.066  0.00  0.00     0.002 A 
ATOM      4  C6  UNL d   1      -0.500  -3.047  -1.247  0.00  0.00    -0.004 A 
ATOM      5  C7  UNL d   1      -1.715  -3.727  -1.200  0.00  0.00     0.002 A 
ATOM      6  C8  UNL d   1      -2.252  -4.119   0.027  0.00  0.00     0.002 A 
ENDROOT
BRANCH   1   7
ATOM      7  C2  UNL d   1      -2.174  -4.236   2.550  0.00  0.00     0.056 C 
BRANCH   7   8
ATOM      8  C1  UNL d   1      -2.791  -3.074   3.335  0.00  0.00     0.007 C 
ATOM      9  C   UNL d   1      -3.892  -2.351   2.571  0.00  0.00     0.009 C 
ENDBRANCH   7   8
ENDBRANCH   1   7
TORSDOF 2
ENDMDL
