MODEL 1
REMARK minimizedAffinity 8.66338539
REMARK minimizedRMSD -1
REMARK  2 active torsions:
REMARK  status: ('A' for Active; 'I' for Inactive)
REMARK    1  A    between atoms: C1_2  and  C2_3 
REMARK    2  A    between atoms: C2_3  and  C3_4 
ROOT
ATOM      1  C3  UNL d   1       0.967  -1.754  -1.147  0.00  0.00    -0.075 A 
ATOM      2  C4  UNL d   1       0.378  -1.000  -2.171  0.00  0.00     0.002 A 
ATOM      3  C5  UNL d   1       0.622   0.370  -2.272  0.00  0.00     0.002 A 
ATOM      4  C6  UNL d   1       1.449   1.004  -1.347  0.00  0.00    -0.004 A 
ATOM      5  C7  UNL d   1       2.027   0.267  -0.316  0.00  0.00     0.002 A 
ATOM      6  C8  UNL d   1       1.788  -1.105  -0.215  0.00  0.00     0.002 A 
ENDROOT
BRANCH   1   7
ATOM      7  C2  UNL d   1       0.730  -3.242  -1.049  0.00  0.00     0.056 C 
BRANCH   7   8
ATOM      8  C1  UNL d   1       1.971  -4.092  -1.345  0.00  0.00     0.007 C 
ATOM      9  C   UNL d   1       1.871  -4.863  -2.655  0.00  0.00     0.009 C 
ENDBRANCH   7   8
ENDBRANCH   1   7
TORSDOF 2
ENDMDL
