MODEL 1
REMARK minimizedAffinity 1.24480844
REMARK minimizedRMSD -1
REMARK  2 active torsions:
REMARK  status: ('A' for Active; 'I' for Inactive)
REMARK    1  A    between atoms: C1_2  and  C2_3 
REMARK    2  A    between atoms: C2_3  and  C3_4 
ROOT
ATOM      1  C3  UNL d   1       1.375  -1.193  -1.514  0.00  0.00    -0.075 A 
ATOM      2  C4  UNL d   1       1.066  -0.699  -2.790  0.00  0.00     0.002 A 
ATOM      3  C5  UNL d   1       1.036   0.675  -3.030  0.00  0.00     0.002 A 
ATOM      4  C6  UNL d   1       1.303   1.571  -1.998  0.00  0.00    -0.004 A 
ATOM      5  C7  UNL d   1       1.595   1.093  -0.722  0.00  0.00     0.002 A 
ATOM      6  C8  UNL d   1       1.631  -0.282  -0.480  0.00  0.00     0.002 A 
ENDROOT
BRANCH   1   7
ATOM      7  C2  UNL d   1       1.438  -2.679  -1.254  0.00  0.00     0.056 C 
BRANCH   7   8
ATOM      8  C1  UNL d   1       1.955  -3.498  -2.442  0.00  0.00     0.007 C 
ATOM      9  C   UNL d   1       3.105  -4.426  -2.076  0.00  0.00     0.009 C 
ENDBRANCH   7   8
ENDBRANCH   1   7
TORSDOF 2
ENDMDL
