MODEL 1
REMARK minimizedAffinity 4.93737888
REMARK minimizedRMSD -1
REMARK  2 active torsions:
REMARK  status: ('A' for Active; 'I' for Inactive)
REMARK    1  A    between atoms: C1_2  and  C2_3 
REMARK    2  A    between atoms: C2_3  and  C3_4 
ROOT
ATOM      1  C3  UNL d   1       0.494   1.440   1.758  0.00  0.00    -0.075 A 
ATOM      2  C4  UNL d   1      -0.044   0.189   1.422  0.00  0.00     0.002 A 
ATOM      3  C5  UNL d   1       0.385  -0.482   0.277  0.00  0.00     0.002 A 
ATOM      4  C6  UNL d   1       1.348   0.091  -0.551  0.00  0.00    -0.004 A 
ATOM      5  C7  UNL d   1       1.877   1.341  -0.236  0.00  0.00     0.002 A 
ATOM      6  C8  UNL d   1       1.453   2.013   0.912  0.00  0.00     0.002 A 
ENDROOT
BRANCH   1   7
ATOM      7  C2  UNL d   1       0.055   2.158   3.012  0.00  0.00     0.056 C 
BRANCH   7   8
ATOM      8  C1  UNL d   1      -1.438   2.013   3.324  0.00  0.00     0.007 C 
ATOM      9  C   UNL d   1      -1.935   3.015   4.357  0.00  0.00     0.009 C 
ENDBRANCH   7   8
ENDBRANCH   1   7
TORSDOF 2
ENDMDL
