MODEL 1
REMARK minimizedAffinity 3.23080134
REMARK minimizedRMSD -1
REMARK  2 active torsions:
REMARK  status: ('A' for Active; 'I' for Inactive)
REMARK    1  A    between atoms: C1_2  and  C2_3 
REMARK    2  A    between atoms: C2_3  and  C3_4 
ROOT
ATOM      1  C3  UNL d   1       0.871  -0.995  -1.899  0.00  0.00    -0.075 A 
ATOM      2  C4  UNL d   1       0.739  -0.215  -3.057  0.00  0.00     0.002 A 
ATOM      3  C5  UNL d   1       0.952   1.163  -3.011  0.00  0.00     0.002 A 
ATOM      4  C6  UNL d   1       1.288   1.779  -1.807  0.00  0.00    -0.004 A 
ATOM      5  C7  UNL d   1       1.405   1.016  -0.647  0.00  0.00     0.002 A 
ATOM      6  C8  UNL d   1       1.197  -0.363  -0.692  0.00  0.00     0.002 A 
ENDROOT
BRANCH   1   7
ATOM      7  C2  UNL d   1       0.671  -2.491  -1.949  0.00  0.00     0.056 C 
BRANCH   7   8
ATOM      8  C1  UNL d   1       1.808  -3.294  -1.308  0.00  0.00     0.007 C 
ATOM      9  C   UNL d   1       2.296  -4.444  -2.180  0.00  0.00     0.009 C 
ENDBRANCH   7   8
ENDBRANCH   1   7
TORSDOF 2
ENDMDL
