MODEL 1
REMARK minimizedAffinity 8.48017502
REMARK minimizedRMSD -1
REMARK  2 active torsions:
REMARK  status: ('A' for Active; 'I' for Inactive)
REMARK    1  A    between atoms: C1_2  and  C2_3 
REMARK    2  A    between atoms: C2_3  and  C3_4 
ROOT
ATOM      1  C3  UNL d   1       1.364  -2.700  -1.122  0.00  0.00    -0.075 A 
ATOM      2  C4  UNL d   1       0.624  -2.298  -2.244  0.00  0.00     0.002 A 
ATOM      3  C5  UNL d   1       0.268  -0.960  -2.416  0.00  0.00     0.002 A 
ATOM      4  C6  UNL d   1       0.638  -0.010  -1.467  0.00  0.00    -0.004 A 
ATOM      5  C7  UNL d   1       1.359  -0.401  -0.340  0.00  0.00     0.002 A 
ATOM      6  C8  UNL d   1       1.720  -1.738  -0.168  0.00  0.00     0.002 A 
ENDROOT
BRANCH   1   7
ATOM      7  C2  UNL d   1       1.777  -4.141  -0.945  0.00  0.00     0.056 C 
BRANCH   7   8
ATOM      8  C1  UNL d   1       2.293  -4.804  -2.227  0.00  0.00     0.007 C 
ATOM      9  C   UNL d   1       3.779  -5.130  -2.178  0.00  0.00     0.009 C 
ENDBRANCH   7   8
ENDBRANCH   1   7
TORSDOF 2
ENDMDL
