MODEL 1
REMARK minimizedAffinity -0.0668764412
REMARK minimizedRMSD -1
REMARK  2 active torsions:
REMARK  status: ('A' for Active; 'I' for Inactive)
REMARK    1  A    between atoms: C1_2  and  C2_3 
REMARK    2  A    between atoms: C2_3  and  C3_4 
ROOT
ATOM      1  C3  UNL d   1       1.213   0.969  -0.047  0.00  0.00    -0.075 A 
ATOM      2  C4  UNL d   1       1.484  -0.148  -0.850  0.00  0.00     0.002 A 
ATOM      3  C5  UNL d   1       0.883  -1.378  -0.579  0.00  0.00     0.002 A 
ATOM      4  C6  UNL d   1       0.015  -1.509   0.502  0.00  0.00    -0.004 A 
ATOM      5  C7  UNL d   1      -0.248  -0.410   1.317  0.00  0.00     0.002 A 
ATOM      6  C8  UNL d   1       0.348   0.823   1.046  0.00  0.00     0.002 A 
ENDROOT
BRANCH   1   7
ATOM      7  C2  UNL d   1       1.837   2.310  -0.352  0.00  0.00     0.056 C 
BRANCH   7   8
ATOM      8  C1  UNL d   1       3.049   2.236  -1.287  0.00  0.00     0.007 C 
ATOM      9  C   UNL d   1       4.380   2.295  -0.550  0.00  0.00     0.009 C 
ENDBRANCH   7   8
ENDBRANCH   1   7
TORSDOF 2
ENDMDL
