MODEL 1
REMARK minimizedAffinity 7.50972319
REMARK minimizedRMSD -1
REMARK  2 active torsions:
REMARK  status: ('A' for Active; 'I' for Inactive)
REMARK    1  A    between atoms: C1_2  and  C2_3 
REMARK    2  A    between atoms: C2_3  and  C3_4 
ROOT
ATOM      1  C3  UNL d   1       1.237  -2.663  -2.334  0.00  0.00    -0.075 A 
ATOM      2  C4  UNL d   1       0.374  -1.858  -3.090  0.00  0.00     0.002 A 
ATOM      3  C5  UNL d   1       0.029  -0.580  -2.649  0.00  0.00     0.002 A 
ATOM      4  C6  UNL d   1       0.533  -0.096  -1.444  0.00  0.00    -0.004 A 
ATOM      5  C7  UNL d   1       1.379  -0.895  -0.676  0.00  0.00     0.002 A 
ATOM      6  C8  UNL d   1       1.729  -2.172  -1.118  0.00  0.00     0.002 A 
ENDROOT
BRANCH   1   7
ATOM      7  C2  UNL d   1       1.637  -4.036  -2.821  0.00  0.00     0.056 C 
BRANCH   7   8
ATOM      8  C1  UNL d   1       2.656  -4.744  -1.921  0.00  0.00     0.007 C 
ATOM      9  C   UNL d   1       4.054  -4.798  -2.524  0.00  0.00     0.009 C 
ENDBRANCH   7   8
ENDBRANCH   1   7
TORSDOF 2
ENDMDL
