MODEL 1
REMARK minimizedAffinity 3.1651814
REMARK minimizedRMSD -1
REMARK  2 active torsions:
REMARK  status: ('A' for Active; 'I' for Inactive)
REMARK    1  A    between atoms: C1_2  and  C2_3 
REMARK    2  A    between atoms: C2_3  and  C3_4 
ROOT
ATOM      1  C3  UNL d   1      -5.369  -3.152  -5.273  0.00  0.00    -0.075 A 
ATOM      2  C4  UNL d   1      -5.933  -1.995  -5.829  0.00  0.00     0.002 A 
ATOM      3  C5  UNL d   1      -5.795  -0.762  -5.191  0.00  0.00     0.002 A 
ATOM      4  C6  UNL d   1      -5.102  -0.672  -3.986  0.00  0.00    -0.004 A 
ATOM      5  C7  UNL d   1      -4.552  -1.818  -3.415  0.00  0.00     0.002 A 
ATOM      6  C8  UNL d   1      -4.685  -3.052  -4.054  0.00  0.00     0.002 A 
ENDROOT
BRANCH   1   7
ATOM      7  C2  UNL d   1      -5.489  -4.485  -5.973  0.00  0.00     0.056 C 
BRANCH   7   8
ATOM      8  C1  UNL d   1      -4.201  -5.314  -5.962  0.00  0.00     0.007 C 
ATOM      9  C   UNL d   1      -2.939  -4.463  -5.901  0.00  0.00     0.009 C 
ENDBRANCH   7   8
ENDBRANCH   1   7
TORSDOF 2
ENDMDL
