MODEL 1
REMARK minimizedAffinity 10.3580036
REMARK minimizedRMSD -1
REMARK  2 active torsions:
REMARK  status: ('A' for Active; 'I' for Inactive)
REMARK    1  A    between atoms: C1_2  and  C2_3 
REMARK    2  A    between atoms: C2_3  and  C3_4 
ROOT
ATOM      1  C3  UNL d   1       0.624  -4.158  -2.242  0.00  0.00    -0.075 A 
ATOM      2  C4  UNL d   1       0.753  -3.036  -1.410  0.00  0.00     0.002 A 
ATOM      3  C5  UNL d   1       1.919  -2.830  -0.674  0.00  0.00     0.002 A 
ATOM      4  C6  UNL d   1       2.966  -3.746  -0.751  0.00  0.00    -0.004 A 
ATOM      5  C7  UNL d   1       2.843  -4.873  -1.561  0.00  0.00     0.002 A 
ATOM      6  C8  UNL d   1       1.678  -5.079  -2.302  0.00  0.00     0.002 A 
ENDROOT
BRANCH   1   7
ATOM      7  C2  UNL d   1      -0.625  -4.371  -3.064  0.00  0.00     0.056 C 
BRANCH   7   8
ATOM      8  C1  UNL d   1      -0.361  -4.555  -4.562  0.00  0.00     0.007 C 
ATOM      9  C   UNL d   1      -0.502  -5.999  -5.024  0.00  0.00     0.009 C 
ENDBRANCH   7   8
ENDBRANCH   1   7
TORSDOF 2
ENDMDL
