MODEL 1
REMARK minimizedAffinity -2.10878325
REMARK minimizedRMSD -1
REMARK  0 active torsions:
REMARK  status: ('A' for Active; 'I' for Inactive)
ROOT
ATOM      1  C1  DEN d   1       2.395   1.684   1.126  0.00  0.00     0.130 A 
ATOM      2  C2  DEN d   1       3.251   0.558   1.491  0.00  0.00    -0.031 A 
ATOM      3  C3  DEN d   1       2.552  -0.688   1.117  0.00  0.00     0.027 A 
ATOM      4  C4  DEN d   1       0.241  -0.982   0.010  0.00  0.00     0.027 A 
ATOM      5  C5  DEN d   1      -0.863  -0.318  -0.476  0.00  0.00    -0.003 A 
ATOM      6  C6  DEN d   1      -0.973   1.047  -0.432  0.00  0.00     0.001 A 
ATOM      7  C7  DEN d   1       0.059   1.795   0.069  0.00  0.00     0.017 A 
ATOM      8  C8  DEN d   1       1.173   1.132   0.568  0.00  0.00    -0.094 A 
ATOM      9  C9  DEN d   1       1.270  -0.247   0.503  0.00  0.00    -0.072 A 
ENDROOT
TORSDOF 0
ENDMDL
