MODEL 1
REMARK minimizedAffinity -1.45323038
REMARK minimizedRMSD -1
REMARK  0 active torsions:
REMARK  status: ('A' for Active; 'I' for Inactive)
ROOT
ATOM      1  C1  DEN d   1       1.491   2.023   1.002  0.00  0.00     0.130 A 
ATOM      2  C2  DEN d   1       2.159   1.029   1.837  0.00  0.00    -0.031 A 
ATOM      3  C3  DEN d   1       1.344  -0.202   1.823  0.00  0.00     0.027 A 
ATOM      4  C4  DEN d   1      -0.873  -0.666   0.589  0.00  0.00     0.027 A 
ATOM      5  C5  DEN d   1      -1.834  -0.123  -0.235  0.00  0.00    -0.003 A 
ATOM      6  C6  DEN d   1      -1.772   1.173  -0.674  0.00  0.00     0.001 A 
ATOM      7  C7  DEN d   1      -0.703   1.957  -0.327  0.00  0.00     0.017 A 
ATOM      8  C8  DEN d   1       0.266   1.419   0.510  0.00  0.00    -0.094 A 
ATOM      9  C9  DEN d   1       0.192   0.103   0.933  0.00  0.00    -0.072 A 
ENDROOT
TORSDOF 0
ENDMDL
