MODEL 1
REMARK minimizedAffinity -5.81920671
REMARK minimizedRMSD -1
REMARK  0 active torsions:
REMARK  status: ('A' for Active; 'I' for Inactive)
ROOT
ATOM      1  C1  DEN d   1      -0.005   0.558  -0.817  0.00  0.00     0.130 A 
ATOM      2  C2  DEN d   1      -0.510  -0.726  -1.294  0.00  0.00    -0.031 A 
ATOM      3  C3  DEN d   1       0.494  -1.760  -0.970  0.00  0.00     0.027 A 
ATOM      4  C4  DEN d   1       2.766  -1.498   0.223  0.00  0.00     0.027 A 
ATOM      5  C5  DEN d   1       3.632  -0.597   0.803  0.00  0.00    -0.003 A 
ATOM      6  C6  DEN d   1       3.364   0.745   0.852  0.00  0.00     0.001 A 
ATOM      7  C7  DEN d   1       2.180   1.220   0.353  0.00  0.00     0.017 A 
ATOM      8  C8  DEN d   1       1.305   0.319  -0.240  0.00  0.00    -0.094 A 
ATOM      9  C9  DEN d   1       1.589  -1.036  -0.269  0.00  0.00    -0.072 A 
ENDROOT
TORSDOF 0
ENDMDL
