MODEL 1
REMARK minimizedAffinity -6.65443897
REMARK minimizedRMSD -1
REMARK  0 active torsions:
REMARK  status: ('A' for Active; 'I' for Inactive)
ROOT
ATOM      1  C1  DEN d   1       3.184   0.215   0.439  0.00  0.00     0.130 A 
ATOM      2  C2  DEN d   1       2.818   1.628   0.457  0.00  0.00    -0.031 A 
ATOM      3  C3  DEN d   1       1.415   1.742   0.011  0.00  0.00     0.027 A 
ATOM      4  C4  DEN d   1      -0.219  -0.124  -0.697  0.00  0.00     0.027 A 
ATOM      5  C5  DEN d   1      -0.360  -1.481  -0.885  0.00  0.00    -0.003 A 
ATOM      6  C6  DEN d   1       0.673  -2.357  -0.680  0.00  0.00     0.001 A 
ATOM      7  C7  DEN d   1       1.879  -1.891  -0.230  0.00  0.00     0.017 A 
ATOM      8  C8  DEN d   1       2.031  -0.523  -0.045  0.00  0.00    -0.094 A 
ATOM      9  C9  DEN d   1       0.971   0.345  -0.246  0.00  0.00    -0.072 A 
ENDROOT
TORSDOF 0
ENDMDL
