MODEL 1
REMARK minimizedAffinity -3.40976238
REMARK minimizedRMSD -1
REMARK  0 active torsions:
REMARK  status: ('A' for Active; 'I' for Inactive)
ROOT
ATOM      1  C1  DEN d   1       2.391   1.445   0.362  0.00  0.00     0.130 A 
ATOM      2  C2  DEN d   1       3.059   0.188   0.687  0.00  0.00    -0.031 A 
ATOM      3  C3  DEN d   1       2.095  -0.910   0.471  0.00  0.00     0.027 A 
ATOM      4  C4  DEN d   1      -0.352  -0.786  -0.336  0.00  0.00     0.027 A 
ATOM      5  C5  DEN d   1      -1.364   0.063  -0.725  0.00  0.00    -0.003 A 
ATOM      6  C6  DEN d   1      -1.207   1.424  -0.746  0.00  0.00     0.001 A 
ATOM      7  C7  DEN d   1       0.003   1.973  -0.415  0.00  0.00     0.017 A 
ATOM      8  C8  DEN d   1       1.026   1.124  -0.014  0.00  0.00    -0.094 A 
ATOM      9  C9  DEN d   1       0.852  -0.250  -0.011  0.00  0.00    -0.072 A 
ENDROOT
TORSDOF 0
ENDMDL
