MODEL 1
REMARK minimizedAffinity -3.18672585
REMARK minimizedRMSD -1
REMARK  0 active torsions:
REMARK  status: ('A' for Active; 'I' for Inactive)
ROOT
ATOM      1  C1  DEN d   1       2.547  -0.541   0.745  0.00  0.00     0.130 A 
ATOM      2  C2  DEN d   1       2.997  -1.829   0.223  0.00  0.00    -0.031 A 
ATOM      3  C3  DEN d   1       1.878  -2.432  -0.530  0.00  0.00     0.027 A 
ATOM      4  C4  DEN d   1      -0.492  -1.500  -0.938  0.00  0.00     0.027 A 
ATOM      5  C5  DEN d   1      -1.344  -0.448  -0.684  0.00  0.00    -0.003 A 
ATOM      6  C6  DEN d   1      -0.972   0.622   0.087  0.00  0.00     0.001 A 
ATOM      7  C7  DEN d   1       0.299   0.686   0.593  0.00  0.00     0.017 A 
ATOM      8  C8  DEN d   1       1.161  -0.375   0.347  0.00  0.00    -0.094 A 
ATOM      9  C9  DEN d   1       0.771  -1.442  -0.445  0.00  0.00    -0.072 A 
ENDROOT
TORSDOF 0
ENDMDL
