MODEL 1
REMARK minimizedAffinity -2.83874893
REMARK minimizedRMSD -1
REMARK  0 active torsions:
REMARK  status: ('A' for Active; 'I' for Inactive)
ROOT
ATOM      1  C   UNL d   1       1.494  -2.189  -0.664  0.00  0.00     0.124 A 
ATOM      2  C1  UNL d   1       2.287  -1.353   0.111  0.00  0.00     0.062 A 
ATOM      3  C2  UNL d   1       1.789  -0.131   0.555  0.00  0.00     0.162 A 
ATOM      4  C3  UNL d   1       0.492   0.262   0.227  0.00  0.00    -0.034 A 
ATOM      5  C4  UNL d   1      -0.299  -0.583  -0.554  0.00  0.00     0.162 A 
ATOM      6  C5  UNL d   1       0.203  -1.803  -0.995  0.00  0.00     0.062 A 
ATOM      7  F   UNL d   1      -0.564  -2.610  -1.744  0.00  0.00    -0.097 F 
ATOM      8  F1  UNL d   1      -1.550  -0.236  -0.888  0.00  0.00    -0.096 F 
ATOM      9  I   UNL d   1      -0.255   2.088   0.889  0.00  0.00    -0.060 I 
ATOM     10  F2  UNL d   1       2.577   0.657   1.302  0.00  0.00    -0.096 F 
ATOM     11  F3  UNL d   1       3.535  -1.722   0.431  0.00  0.00    -0.097 F 
ATOM     12  F4  UNL d   1       1.976  -3.363  -1.091  0.00  0.00    -0.092 F 
ENDROOT
TORSDOF 0
ENDMDL
