MODEL 1
REMARK minimizedAffinity 6.49709558
REMARK minimizedRMSD -1
REMARK  0 active torsions:
REMARK  status: ('A' for Active; 'I' for Inactive)
ROOT
ATOM      1  C   UNL d   1      -0.856   1.473  -0.488  0.00  0.00     0.124 A 
ATOM      2  C1  UNL d   1       0.375   1.992  -0.113  0.00  0.00     0.062 A 
ATOM      3  C2  UNL d   1       1.451   1.140   0.122  0.00  0.00     0.162 A 
ATOM      4  C3  UNL d   1       1.301  -0.239  -0.020  0.00  0.00    -0.034 A 
ATOM      5  C4  UNL d   1       0.059  -0.753  -0.396  0.00  0.00     0.162 A 
ATOM      6  C5  UNL d   1      -1.014   0.102  -0.629  0.00  0.00     0.062 A 
ATOM      7  F   UNL d   1      -2.203  -0.401  -0.992  0.00  0.00    -0.097 F 
ATOM      8  F1  UNL d   1      -0.121  -2.075  -0.541  0.00  0.00    -0.096 F 
ATOM      9  I   UNL d   1       2.907  -1.516   0.330  0.00  0.00    -0.060 I 
ATOM     10  F2  UNL d   1       2.630   1.669   0.483  0.00  0.00    -0.096 F 
ATOM     11  F3  UNL d   1       0.530   3.316   0.026  0.00  0.00    -0.097 F 
ATOM     12  F4  UNL d   1      -1.890   2.295  -0.712  0.00  0.00    -0.092 F 
ENDROOT
TORSDOF 0
ENDMDL
