MODEL 1
REMARK minimizedAffinity -1.09523106
REMARK minimizedRMSD -1
REMARK  0 active torsions:
REMARK  status: ('A' for Active; 'I' for Inactive)
ROOT
ATOM      1  C   UNL d   1       2.636  -0.232  -0.214  0.00  0.00     0.124 A 
ATOM      2  C1  UNL d   1       2.226   1.094  -0.204  0.00  0.00     0.062 A 
ATOM      3  C2  UNL d   1       0.870   1.407  -0.165  0.00  0.00     0.162 A 
ATOM      4  C3  UNL d   1      -0.086   0.391  -0.135  0.00  0.00    -0.034 A 
ATOM      5  C4  UNL d   1       0.335  -0.940  -0.147  0.00  0.00     0.162 A 
ATOM      6  C5  UNL d   1       1.691  -1.247  -0.186  0.00  0.00     0.062 A 
ATOM      7  F   UNL d   1       2.086  -2.529  -0.196  0.00  0.00    -0.097 F 
ATOM      8  F1  UNL d   1      -0.558  -1.941  -0.119  0.00  0.00    -0.096 F 
ATOM      9  I   UNL d   1      -2.114   0.855  -0.077  0.00  0.00    -0.060 I 
ATOM     10  F2  UNL d   1       0.502   2.697  -0.156  0.00  0.00    -0.096 F 
ATOM     11  F3  UNL d   1       3.137   2.077  -0.233  0.00  0.00    -0.097 F 
ATOM     12  F4  UNL d   1       3.941  -0.530  -0.253  0.00  0.00    -0.092 F 
ENDROOT
TORSDOF 0
ENDMDL
