MODEL 1
REMARK minimizedAffinity -2.42981076
REMARK minimizedRMSD -1
REMARK  1 active torsions:
REMARK  status: ('A' for Active; 'I' for Inactive)
REMARK    1  A    between atoms: C1_2  and  C2_3 
ROOT
ATOM      1  C2  UNL d   1      -0.078  -1.217  -1.026  0.00  0.00    -0.076 A 
ATOM      2  C3  UNL d   1      -0.966  -0.136  -1.162  0.00  0.00     0.004 A 
ATOM      3  C4  UNL d   1      -0.571   1.161  -0.840  0.00  0.00    -0.003 A 
ATOM      4  C5  UNL d   1       0.718   1.399  -0.377  0.00  0.00     0.000 A 
ATOM      5  C6  UNL d   1       1.618   0.341  -0.253  0.00  0.00     0.000 A 
ATOM      6  C7  UNL d   1       1.241  -0.971  -0.589  0.00  0.00    -0.073 A 
ATOM      7  C8  UNL d   1       2.251  -2.075  -0.431  0.00  0.00     0.078 C 
ENDROOT
BRANCH   1   8
ATOM      8  C1  UNL d   1      -0.570  -2.606  -1.365  0.00  0.00     0.053 C 
ATOM      9  C   UNL d   1      -0.934  -2.753  -2.835  0.00  0.00     0.018 C 
ENDBRANCH   1   8
TORSDOF 1
ENDMDL
