MODEL 1
REMARK minimizedAffinity 0.827908278
REMARK minimizedRMSD -1
REMARK  1 active torsions:
REMARK  status: ('A' for Active; 'I' for Inactive)
REMARK    1  A    between atoms: C1_2  and  C2_3 
ROOT
ATOM      1  C2  UNL d   1       3.399  -1.329  -1.402  0.00  0.00    -0.076 A 
ATOM      2  C3  UNL d   1       3.820  -0.198  -0.682  0.00  0.00     0.004 A 
ATOM      3  C4  UNL d   1       4.721   0.711  -1.235  0.00  0.00    -0.003 A 
ATOM      4  C5  UNL d   1       5.215   0.503  -2.518  0.00  0.00     0.000 A 
ATOM      5  C6  UNL d   1       4.795  -0.605  -3.254  0.00  0.00     0.000 A 
ATOM      6  C7  UNL d   1       3.875  -1.522  -2.717  0.00  0.00    -0.073 A 
ATOM      7  C8  UNL d   1       3.461  -2.702  -3.552  0.00  0.00     0.078 C 
ENDROOT
BRANCH   1   8
ATOM      8  C1  UNL d   1       2.442  -2.295  -0.740  0.00  0.00     0.053 C 
ATOM      9  C   UNL d   1       1.018  -1.763  -0.695  0.00  0.00     0.018 C 
ENDBRANCH   1   8
TORSDOF 1
ENDMDL
