MODEL 1
REMARK minimizedAffinity 1.05835629
REMARK minimizedRMSD -1
REMARK  1 active torsions:
REMARK  status: ('A' for Active; 'I' for Inactive)
REMARK    1  A    between atoms: C1_2  and  C2_3 
ROOT
ATOM      1  C2  UNL d   1       0.375  -2.292  -2.826  0.00  0.00    -0.076 A 
ATOM      2  C3  UNL d   1       1.409  -2.767  -3.651  0.00  0.00     0.004 A 
ATOM      3  C4  UNL d   1       2.715  -2.876  -3.174  0.00  0.00    -0.003 A 
ATOM      4  C5  UNL d   1       3.006  -2.513  -1.864  0.00  0.00     0.000 A 
ATOM      5  C6  UNL d   1       1.989  -2.056  -1.026  0.00  0.00     0.000 A 
ATOM      6  C7  UNL d   1       0.665  -1.956  -1.486  0.00  0.00    -0.073 A 
ATOM      7  C8  UNL d   1      -0.391  -1.452  -0.541  0.00  0.00     0.078 C 
ENDROOT
BRANCH   1   8
ATOM      8  C1  UNL d   1      -1.016  -2.169  -3.406  0.00  0.00     0.053 C 
ATOM      9  C   UNL d   1      -1.302  -3.226  -4.461  0.00  0.00     0.018 C 
ENDBRANCH   1   8
TORSDOF 1
ENDMDL
