MODEL 1
REMARK minimizedAffinity -1.70793223
REMARK minimizedRMSD -1
REMARK  1 active torsions:
REMARK  status: ('A' for Active; 'I' for Inactive)
REMARK    1  A    between atoms: C1_2  and  C2_3 
ROOT
ATOM      1  C2  UNL d   1       3.037  -0.788  -1.316  0.00  0.00    -0.076 A 
ATOM      2  C3  UNL d   1       2.709  -2.103  -1.688  0.00  0.00     0.004 A 
ATOM      3  C4  UNL d   1       3.497  -2.810  -2.594  0.00  0.00    -0.003 A 
ATOM      4  C5  UNL d   1       4.627  -2.214  -3.143  0.00  0.00     0.000 A 
ATOM      5  C6  UNL d   1       4.977  -0.917  -2.772  0.00  0.00     0.000 A 
ATOM      6  C7  UNL d   1       4.203  -0.196  -1.847  0.00  0.00    -0.073 A 
ATOM      7  C8  UNL d   1       4.624   1.203  -1.487  0.00  0.00     0.078 C 
ENDROOT
BRANCH   1   8
ATOM      8  C1  UNL d   1       2.130  -0.061  -0.349  0.00  0.00     0.053 C 
ATOM      9  C   UNL d   1       0.659  -0.207  -0.708  0.00  0.00     0.018 C 
ENDBRANCH   1   8
TORSDOF 1
ENDMDL
