MODEL 1
REMARK minimizedAffinity 1.37316525
REMARK minimizedRMSD -1
REMARK  1 active torsions:
REMARK  status: ('A' for Active; 'I' for Inactive)
REMARK    1  A    between atoms: C1_2  and  C2_3 
ROOT
ATOM      1  C2  UNL d   1       3.217  -0.965  -1.544  0.00  0.00    -0.076 A 
ATOM      2  C3  UNL d   1       3.669   0.233  -0.963  0.00  0.00     0.004 A 
ATOM      3  C4  UNL d   1       4.882   0.802  -1.345  0.00  0.00    -0.003 A 
ATOM      4  C5  UNL d   1       5.664   0.184  -2.315  0.00  0.00     0.000 A 
ATOM      5  C6  UNL d   1       5.223  -0.996  -2.914  0.00  0.00     0.000 A 
ATOM      6  C7  UNL d   1       3.994  -1.574  -2.552  0.00  0.00    -0.073 A 
ATOM      7  C8  UNL d   1       3.571  -2.850  -3.227  0.00  0.00     0.078 C 
ENDROOT
BRANCH   1   8
ATOM      8  C1  UNL d   1       1.906  -1.550  -1.071  0.00  0.00     0.053 C 
ATOM      9  C   UNL d   1       0.981  -0.500  -0.475  0.00  0.00     0.018 C 
ENDBRANCH   1   8
TORSDOF 1
ENDMDL
