MODEL 1
REMARK minimizedAffinity -3.94683504
REMARK minimizedRMSD -1
REMARK  1 active torsions:
REMARK  status: ('A' for Active; 'I' for Inactive)
REMARK    1  A    between atoms: C1_2  and  C2_3 
ROOT
ATOM      1  C2  UNL d   1       2.414  -1.322  -1.448  0.00  0.00    -0.076 A 
ATOM      2  C3  UNL d   1       1.554  -0.430  -0.783  0.00  0.00     0.004 A 
ATOM      3  C4  UNL d   1       0.176  -0.637  -0.770  0.00  0.00    -0.003 A 
ATOM      4  C5  UNL d   1      -0.366  -1.739  -1.422  0.00  0.00     0.000 A 
ATOM      5  C6  UNL d   1       0.473  -2.644  -2.072  0.00  0.00     0.000 A 
ATOM      6  C7  UNL d   1       1.867  -2.459  -2.081  0.00  0.00    -0.073 A 
ATOM      7  C8  UNL d   1       2.724  -3.463  -2.802  0.00  0.00     0.078 C 
ENDROOT
BRANCH   1   8
ATOM      8  C1  UNL d   1       3.898  -1.032  -1.451  0.00  0.00     0.053 C 
ATOM      9  C   UNL d   1       4.200   0.458  -1.475  0.00  0.00     0.018 C 
ENDBRANCH   1   8
TORSDOF 1
ENDMDL
