MODEL 1
REMARK minimizedAffinity 1.73722637
REMARK minimizedRMSD -1
REMARK  1 active torsions:
REMARK  status: ('A' for Active; 'I' for Inactive)
REMARK    1  A    between atoms: C1_2  and  C2_3 
ROOT
ATOM      1  C2  UNL d   1      -3.116   2.878   2.449  0.00  0.00    -0.076 A 
ATOM      2  C3  UNL d   1      -1.860   2.653   3.039  0.00  0.00     0.004 A 
ATOM      3  C4  UNL d   1      -0.886   3.650   3.057  0.00  0.00    -0.003 A 
ATOM      4  C5  UNL d   1      -1.153   4.889   2.486  0.00  0.00     0.000 A 
ATOM      5  C6  UNL d   1      -2.400   5.137   1.913  0.00  0.00     0.000 A 
ATOM      6  C7  UNL d   1      -3.398   4.148   1.901  0.00  0.00    -0.073 A 
ATOM      7  C8  UNL d   1      -4.723   4.467   1.264  0.00  0.00     0.078 C 
ENDROOT
BRANCH   1   8
ATOM      8  C1  UNL d   1      -4.123   1.751   2.435  0.00  0.00     0.053 C 
ATOM      9  C   UNL d   1      -4.066   0.935   1.153  0.00  0.00     0.018 C 
ENDBRANCH   1   8
TORSDOF 1
ENDMDL
