MODEL 1
REMARK minimizedAffinity 2.12739587
REMARK minimizedRMSD -1
REMARK  1 active torsions:
REMARK  status: ('A' for Active; 'I' for Inactive)
REMARK    1  A    between atoms: C1_2  and  C2_3 
ROOT
ATOM      1  C2  UNL d   1       2.558  -0.952  -1.408  0.00  0.00    -0.076 A 
ATOM      2  C3  UNL d   1       2.798   0.299  -0.814  0.00  0.00     0.004 A 
ATOM      3  C4  UNL d   1       3.909   1.062  -1.171  0.00  0.00    -0.003 A 
ATOM      4  C5  UNL d   1       4.797   0.586  -2.129  0.00  0.00     0.000 A 
ATOM      5  C6  UNL d   1       4.565  -0.645  -2.742  0.00  0.00     0.000 A 
ATOM      6  C7  UNL d   1       3.441  -1.419  -2.405  0.00  0.00    -0.073 A 
ATOM      7  C8  UNL d   1       3.243  -2.742  -3.093  0.00  0.00     0.078 C 
ENDROOT
BRANCH   1   8
ATOM      8  C1  UNL d   1       1.352  -1.747  -0.961  0.00  0.00     0.053 C 
ATOM      9  C   UNL d   1       0.144  -0.865  -0.682  0.00  0.00     0.018 C 
ENDBRANCH   1   8
TORSDOF 1
ENDMDL
