MODEL 1
REMARK minimizedAffinity -1.20763516
REMARK minimizedRMSD -1
REMARK  1 active torsions:
REMARK  status: ('A' for Active; 'I' for Inactive)
REMARK    1  A    between atoms: C1_2  and  C2_3 
ROOT
ATOM      1  C2  UNL d   1       2.158  -0.207  -0.595  0.00  0.00    -0.076 A 
ATOM      2  C3  UNL d   1       2.453  -1.575  -0.471  0.00  0.00     0.004 A 
ATOM      3  C4  UNL d   1       1.473  -2.543  -0.684  0.00  0.00    -0.003 A 
ATOM      4  C5  UNL d   1       0.181  -2.158  -1.024  0.00  0.00     0.000 A 
ATOM      5  C6  UNL d   1      -0.126  -0.805  -1.169  0.00  0.00     0.000 A 
ATOM      6  C7  UNL d   1       0.855   0.183  -0.974  0.00  0.00    -0.073 A 
ATOM      7  C8  UNL d   1       0.468   1.627  -1.137  0.00  0.00     0.078 C 
ENDROOT
BRANCH   1   8
ATOM      8  C1  UNL d   1       3.255   0.798  -0.326  0.00  0.00     0.053 C 
ATOM      9  C   UNL d   1       4.296   0.835  -1.434  0.00  0.00     0.018 C 
ENDBRANCH   1   8
TORSDOF 1
ENDMDL
