MODEL 1
REMARK minimizedAffinity -2.0660162
REMARK minimizedRMSD -1
REMARK  1 active torsions:
REMARK  status: ('A' for Active; 'I' for Inactive)
REMARK    1  A    between atoms: C1_2  and  C2_3 
ROOT
ATOM      1  C2  UNL d   1      -0.593   0.126  -0.403  0.00  0.00    -0.076 A 
ATOM      2  C3  UNL d   1      -0.690  -1.086  -1.110  0.00  0.00     0.004 A 
ATOM      3  C4  UNL d   1       0.245  -2.102  -0.921  0.00  0.00    -0.003 A 
ATOM      4  C5  UNL d   1       1.291  -1.924  -0.022  0.00  0.00     0.000 A 
ATOM      5  C6  UNL d   1       1.392  -0.735   0.701  0.00  0.00     0.000 A 
ATOM      6  C7  UNL d   1       0.448   0.293   0.534  0.00  0.00    -0.073 A 
ATOM      7  C8  UNL d   1       0.609   1.557   1.334  0.00  0.00     0.078 C 
ENDROOT
BRANCH   1   8
ATOM      8  C1  UNL d   1      -1.621   1.203  -0.670  0.00  0.00     0.053 C 
ATOM      9  C   UNL d   1      -2.927   0.959   0.070  0.00  0.00     0.018 C 
ENDBRANCH   1   8
TORSDOF 1
ENDMDL
