MODEL 1
REMARK minimizedAffinity -5.12026358
REMARK minimizedRMSD -1
REMARK  0 active torsions:
REMARK  status: ('A' for Active; 'I' for Inactive)
ROOT
ATOM      1  C   UNL d   1       2.821  -0.263   0.627  0.00  0.00     0.078 C 
ATOM      2  C1  UNL d   1       1.324  -0.340   0.654  0.00  0.00    -0.077 A 
ATOM      3  C2  UNL d   1       0.538   0.747   0.254  0.00  0.00    -0.001 A 
ATOM      4  C3  UNL d   1      -0.855   0.664   0.294  0.00  0.00     0.003 A 
ATOM      5  C4  UNL d   1      -1.474  -0.504   0.734  0.00  0.00    -0.005 A 
ATOM      6  C5  UNL d   1      -0.700  -1.591   1.135  0.00  0.00     0.003 A 
ATOM      7  C6  UNL d   1       0.693  -1.510   1.097  0.00  0.00    -0.001 A 
ENDROOT
TORSDOF 0
ENDMDL
