MODEL 1
REMARK minimizedAffinity -4.55161572
REMARK minimizedRMSD -1
REMARK  0 active torsions:
REMARK  status: ('A' for Active; 'I' for Inactive)
ROOT
ATOM      1  C   UNL d   1       2.920  -0.644   0.157  0.00  0.00     0.078 C 
ATOM      2  C1  UNL d   1       1.465  -0.302   0.046  0.00  0.00    -0.077 A 
ATOM      3  C2  UNL d   1       1.042   1.030  -0.050  0.00  0.00    -0.001 A 
ATOM      4  C3  UNL d   1      -0.317   1.334  -0.142  0.00  0.00     0.003 A 
ATOM      5  C4  UNL d   1      -1.265   0.313  -0.139  0.00  0.00    -0.005 A 
ATOM      6  C5  UNL d   1      -0.854  -1.015  -0.042  0.00  0.00     0.003 A 
ATOM      7  C6  UNL d   1       0.505  -1.321   0.051  0.00  0.00    -0.001 A 
ENDROOT
TORSDOF 0
ENDMDL
