MODEL 1
REMARK minimizedAffinity -5.26392603
REMARK minimizedRMSD -1
REMARK  0 active torsions:
REMARK  status: ('A' for Active; 'I' for Inactive)
ROOT
ATOM      1  C   UNL d   1       1.159   1.996  -0.054  0.00  0.00     0.078 C 
ATOM      2  C1  UNL d   1       1.182   0.722   0.736  0.00  0.00    -0.077 A 
ATOM      3  C2  UNL d   1       0.106  -0.173   0.694  0.00  0.00    -0.001 A 
ATOM      4  C3  UNL d   1       0.137  -1.350   1.443  0.00  0.00     0.003 A 
ATOM      5  C4  UNL d   1       1.242  -1.643   2.240  0.00  0.00    -0.005 A 
ATOM      6  C5  UNL d   1       2.317  -0.758   2.290  0.00  0.00     0.003 A 
ATOM      7  C6  UNL d   1       2.287   0.420   1.542  0.00  0.00    -0.001 A 
ENDROOT
TORSDOF 0
ENDMDL
