MODEL 1
REMARK minimizedAffinity -3.94818616
REMARK minimizedRMSD -1
REMARK  0 active torsions:
REMARK  status: ('A' for Active; 'I' for Inactive)
ROOT
ATOM      1  C   UNL d   1      -1.856  -0.713  -1.256  0.00  0.00     0.078 C 
ATOM      2  C1  UNL d   1      -0.693  -0.075  -0.557  0.00  0.00    -0.077 A 
ATOM      3  C2  UNL d   1       0.325  -0.853   0.006  0.00  0.00    -0.001 A 
ATOM      4  C3  UNL d   1       1.397  -0.245   0.662  0.00  0.00     0.003 A 
ATOM      5  C4  UNL d   1       1.459   1.143   0.763  0.00  0.00    -0.005 A 
ATOM      6  C5  UNL d   1       0.449   1.926   0.208  0.00  0.00     0.003 A 
ATOM      7  C6  UNL d   1      -0.623   1.320  -0.449  0.00  0.00    -0.001 A 
ENDROOT
TORSDOF 0
ENDMDL
