MODEL 1
REMARK minimizedAffinity -3.18858266
REMARK minimizedRMSD -1
REMARK  0 active torsions:
REMARK  status: ('A' for Active; 'I' for Inactive)
ROOT
ATOM      1  C   UNL d   1       2.948   0.263   0.909  0.00  0.00     0.078 C 
ATOM      2  C1  UNL d   1       1.517   0.335   0.465  0.00  0.00    -0.077 A 
ATOM      3  C2  UNL d   1       0.705  -0.805   0.464  0.00  0.00    -0.001 A 
ATOM      4  C3  UNL d   1      -0.622  -0.726   0.039  0.00  0.00     0.003 A 
ATOM      5  C4  UNL d   1      -1.148   0.492  -0.390  0.00  0.00    -0.005 A 
ATOM      6  C5  UNL d   1      -0.346   1.631  -0.395  0.00  0.00     0.003 A 
ATOM      7  C6  UNL d   1       0.981   1.553   0.030  0.00  0.00    -0.001 A 
ENDROOT
TORSDOF 0
ENDMDL
