MODEL 1
REMARK minimizedAffinity -5.71508312
REMARK minimizedRMSD -1
REMARK  0 active torsions:
REMARK  status: ('A' for Active; 'I' for Inactive)
ROOT
ATOM      1  C   UNL d   1      -1.296   0.086   0.018  0.00  0.00     0.078 C 
ATOM      2  C1  UNL d   1       0.181   0.077   0.280  0.00  0.00    -0.077 A 
ATOM      3  C2  UNL d   1       0.943   1.244   0.153  0.00  0.00    -0.001 A 
ATOM      4  C3  UNL d   1       2.318   1.219   0.391  0.00  0.00     0.003 A 
ATOM      5  C4  UNL d   1       2.943   0.028   0.754  0.00  0.00    -0.005 A 
ATOM      6  C5  UNL d   1       2.194  -1.140   0.880  0.00  0.00     0.003 A 
ATOM      7  C6  UNL d   1       0.818  -1.116   0.643  0.00  0.00    -0.001 A 
ENDROOT
TORSDOF 0
ENDMDL
