MODEL 1
REMARK minimizedAffinity -5.40273476
REMARK minimizedRMSD -1
REMARK  0 active torsions:
REMARK  status: ('A' for Active; 'I' for Inactive)
ROOT
ATOM      1  C   UNL d   1       3.108  -0.590   0.525  0.00  0.00     0.078 C 
ATOM      2  C1  UNL d   1       1.608  -0.577   0.507  0.00  0.00    -0.077 A 
ATOM      3  C2  UNL d   1       0.874  -1.739   0.777  0.00  0.00    -0.001 A 
ATOM      4  C3  UNL d   1      -0.521  -1.714   0.747  0.00  0.00     0.003 A 
ATOM      5  C4  UNL d   1      -1.194  -0.532   0.447  0.00  0.00    -0.005 A 
ATOM      6  C5  UNL d   1      -0.472   0.628   0.175  0.00  0.00     0.003 A 
ATOM      7  C6  UNL d   1       0.923   0.606   0.204  0.00  0.00    -0.001 A 
ENDROOT
TORSDOF 0
ENDMDL
