MODEL 1
REMARK minimizedAffinity -5.3553443
REMARK minimizedRMSD -1
REMARK  0 active torsions:
REMARK  status: ('A' for Active; 'I' for Inactive)
ROOT
ATOM      1  C   UNL d   1      -1.124  -0.083  -0.408  0.00  0.00     0.078 C 
ATOM      2  C1  UNL d   1       0.059  -0.365   0.470  0.00  0.00    -0.077 A 
ATOM      3  C2  UNL d   1       0.086  -1.490   1.304  0.00  0.00    -0.001 A 
ATOM      4  C3  UNL d   1       1.189  -1.734   2.123  0.00  0.00     0.003 A 
ATOM      5  C4  UNL d   1       2.273  -0.858   2.118  0.00  0.00    -0.005 A 
ATOM      6  C5  UNL d   1       2.254   0.265   1.293  0.00  0.00     0.003 A 
ATOM      7  C6  UNL d   1       1.152   0.511   0.473  0.00  0.00    -0.001 A 
ENDROOT
TORSDOF 0
ENDMDL
