MODEL 1
REMARK minimizedAffinity -4.39631367
REMARK minimizedRMSD -1
REMARK  1 active torsions:
REMARK  status: ('A' for Active; 'I' for Inactive)
REMARK    1  A    between atoms: C1_2  and  C2_3 
ROOT
ATOM      1  C2  UNL d   1      -1.165  -1.217   0.528  0.00  0.00    -0.076 A 
ATOM      2  C3  UNL d   1       0.193  -0.866   0.441  0.00  0.00     0.004 A 
ATOM      3  C4  UNL d   1       0.630   0.089  -0.476  0.00  0.00    -0.003 A 
ATOM      4  C5  UNL d   1      -0.284   0.707  -1.321  0.00  0.00     0.000 A 
ATOM      5  C6  UNL d   1      -1.638   0.384  -1.237  0.00  0.00     0.000 A 
ATOM      6  C7  UNL d   1      -2.097  -0.564  -0.306  0.00  0.00    -0.073 A 
ATOM      7  C8  UNL d   1      -3.568  -0.879  -0.263  0.00  0.00     0.078 C 
ENDROOT
BRANCH   1   8
ATOM      8  C1  UNL d   1      -1.576  -2.279   1.523  0.00  0.00     0.053 C 
ATOM      9  C   UNL d   1      -1.725  -3.651   0.884  0.00  0.00     0.018 C 
ENDBRANCH   1   8
TORSDOF 1
ENDMDL
