MODEL 1
REMARK minimizedAffinity -3.20831394
REMARK minimizedRMSD -1
REMARK  1 active torsions:
REMARK  status: ('A' for Active; 'I' for Inactive)
REMARK    1  A    between atoms: C1_2  and  C2_3 
ROOT
ATOM      1  C2  UNL d   1       0.731   1.520   0.472  0.00  0.00    -0.076 A 
ATOM      2  C3  UNL d   1       0.603   2.901   0.699  0.00  0.00     0.004 A 
ATOM      3  C4  UNL d   1       1.714   3.683   1.012  0.00  0.00    -0.003 A 
ATOM      4  C5  UNL d   1       2.971   3.096   1.103  0.00  0.00     0.000 A 
ATOM      5  C6  UNL d   1       3.120   1.730   0.863  0.00  0.00     0.000 A 
ATOM      6  C7  UNL d   1       2.013   0.931   0.530  0.00  0.00    -0.073 A 
ATOM      7  C8  UNL d   1       2.230  -0.538   0.288  0.00  0.00     0.078 C 
ENDROOT
BRANCH   1   8
ATOM      8  C1  UNL d   1      -0.513   0.718   0.162  0.00  0.00     0.053 C 
ATOM      9  C   UNL d   1      -0.759   0.579  -1.332  0.00  0.00     0.018 C 
ENDBRANCH   1   8
TORSDOF 1
ENDMDL
