MODEL 1
REMARK minimizedAffinity -5.87962389
REMARK minimizedRMSD -1
REMARK  1 active torsions:
REMARK  status: ('A' for Active; 'I' for Inactive)
REMARK    1  A    between atoms: C1_2  and  C2_3 
ROOT
ATOM      1  C2  UNL d   1      -0.440  -0.964   0.220  0.00  0.00    -0.076 A 
ATOM      2  C3  UNL d   1      -1.122  -0.046  -0.598  0.00  0.00     0.004 A 
ATOM      3  C4  UNL d   1      -2.501  -0.133  -0.778  0.00  0.00    -0.003 A 
ATOM      4  C5  UNL d   1      -3.221  -1.139  -0.144  0.00  0.00     0.000 A 
ATOM      5  C6  UNL d   1      -2.563  -2.048   0.685  0.00  0.00     0.000 A 
ATOM      6  C7  UNL d   1      -1.176  -1.964   0.891  0.00  0.00    -0.073 A 
ATOM      7  C8  UNL d   1      -0.517  -2.974   1.790  0.00  0.00     0.078 C 
ENDROOT
BRANCH   1   8
ATOM      8  C1  UNL d   1       1.061  -0.836   0.356  0.00  0.00     0.053 C 
ATOM      9  C   UNL d   1       1.518   0.613   0.426  0.00  0.00     0.018 C 
ENDBRANCH   1   8
TORSDOF 1
ENDMDL
