MODEL 1
REMARK minimizedAffinity -4.76459885
REMARK minimizedRMSD -1
REMARK  1 active torsions:
REMARK  status: ('A' for Active; 'I' for Inactive)
REMARK    1  A    between atoms: C1_2  and  C2_3 
ROOT
ATOM      1  C2  UNL d   1      -0.694  -0.979   0.621  0.00  0.00    -0.076 A 
ATOM      2  C3  UNL d   1      -1.305  -0.314  -0.456  0.00  0.00     0.004 A 
ATOM      3  C4  UNL d   1      -2.565  -0.695  -0.913  0.00  0.00    -0.003 A 
ATOM      4  C5  UNL d   1      -3.235  -1.748  -0.300  0.00  0.00     0.000 A 
ATOM      5  C6  UNL d   1      -2.652  -2.408   0.781  0.00  0.00     0.000 A 
ATOM      6  C7  UNL d   1      -1.389  -2.025   1.265  0.00  0.00    -0.073 A 
ATOM      7  C8  UNL d   1      -0.805  -2.776   2.430  0.00  0.00     0.078 C 
ENDROOT
BRANCH   1   8
ATOM      8  C1  UNL d   1       0.686  -0.539   1.056  0.00  0.00     0.053 C 
ATOM      9  C   UNL d   1       1.359   0.363   0.033  0.00  0.00     0.018 C 
ENDBRANCH   1   8
TORSDOF 1
ENDMDL
