MODEL 1
REMARK minimizedAffinity -3.93365073
REMARK minimizedRMSD -1
REMARK  1 active torsions:
REMARK  status: ('A' for Active; 'I' for Inactive)
REMARK    1  A    between atoms: C1_2  and  C2_3 
ROOT
ATOM      1  C2  UNL d   1      -1.983  -1.489   0.170  0.00  0.00    -0.076 A 
ATOM      2  C3  UNL d   1      -2.108  -2.432   1.205  0.00  0.00     0.004 A 
ATOM      3  C4  UNL d   1      -1.069  -2.649   2.108  0.00  0.00    -0.003 A 
ATOM      4  C5  UNL d   1       0.113  -1.925   1.991  0.00  0.00     0.000 A 
ATOM      5  C6  UNL d   1       0.248  -0.973   0.981  0.00  0.00     0.000 A 
ATOM      6  C7  UNL d   1      -0.797  -0.731   0.073  0.00  0.00    -0.073 A 
ATOM      7  C8  UNL d   1      -0.595   0.304  -1.001  0.00  0.00     0.078 C 
ENDROOT
BRANCH   1   8
ATOM      8  C1  UNL d   1      -3.133  -1.317  -0.796  0.00  0.00     0.053 C 
ATOM      9  C   UNL d   1      -4.488  -1.417  -0.113  0.00  0.00     0.018 C 
ENDBRANCH   1   8
TORSDOF 1
ENDMDL
