MODEL 1
REMARK minimizedAffinity 9.96110821
REMARK minimizedRMSD -1
REMARK  2 active torsions:
REMARK  status: ('A' for Active; 'I' for Inactive)
REMARK    1  A    between atoms: C2'_3  and  C1'_4 
REMARK    2  A    between atoms: C1'_4  and  C1_5 
ROOT
ATOM      1  C1  I4B d   1      -2.716  -2.814  -0.040  0.00  0.00    -0.075 A 
ATOM      2  C2  I4B d   1      -1.624  -2.126  -0.509  0.00  0.00     0.003 A 
ATOM      3  C3  I4B d   1      -1.442  -1.942  -1.901  0.00  0.00     0.002 A 
ATOM      4  C4  I4B d   1      -2.344  -2.501  -2.784  0.00  0.00    -0.004 A 
ATOM      5  C5  I4B d   1      -3.462  -3.178  -2.306  0.00  0.00     0.002 A 
ATOM      6  C6  I4B d   1      -3.656  -3.325  -0.925  0.00  0.00     0.003 A 
ENDROOT
BRANCH   1   7
ATOM      7  C1' I4B d   1      -2.859  -3.018   1.435  0.00  0.00     0.060 C 
BRANCH   7   8
ATOM      8  C2' I4B d   1      -1.478  -3.260   2.010  0.00  0.00    -0.013 C 
ATOM      9  C4' I4B d   1      -1.172  -2.290   3.120  0.00  0.00     0.013 C 
ATOM     10  C3' I4B d   1      -1.422  -4.677   2.497  0.00  0.00     0.013 C 
ENDBRANCH   7   8
ENDBRANCH   1   7
TORSDOF 2
ENDMDL
