MODEL 1
REMARK minimizedAffinity 13.0141935
REMARK minimizedRMSD -1
REMARK  2 active torsions:
REMARK  status: ('A' for Active; 'I' for Inactive)
REMARK    1  A    between atoms: C2'_3  and  C1'_4 
REMARK    2  A    between atoms: C1'_4  and  C1_5 
ROOT
ATOM      1  C1  I4B d   1       3.052   3.264   0.957  0.00  0.00    -0.075 A 
ATOM      2  C2  I4B d   1       4.206   2.586   0.653  0.00  0.00     0.003 A 
ATOM      3  C3  I4B d   1       4.185   1.179   0.495  0.00  0.00     0.002 A 
ATOM      4  C4  I4B d   1       3.007   0.490   0.698  0.00  0.00    -0.004 A 
ATOM      5  C5  I4B d   1       1.833   1.182   0.983  0.00  0.00     0.002 A 
ATOM      6  C6  I4B d   1       1.853   2.579   1.101  0.00  0.00     0.003 A 
ENDROOT
BRANCH   1   7
ATOM      7  C1' I4B d   1       3.117   4.746   1.149  0.00  0.00     0.060 C 
BRANCH   7   8
ATOM      8  C2' I4B d   1       4.576   5.139   1.264  0.00  0.00    -0.013 C 
ATOM      9  C4' I4B d   1       5.002   6.000   0.104  0.00  0.00     0.013 C 
ATOM     10  C3' I4B d   1       4.761   5.856   2.568  0.00  0.00     0.013 C 
ENDBRANCH   7   8
ENDBRANCH   1   7
TORSDOF 2
ENDMDL
