MODEL 1
REMARK minimizedAffinity 5.28349447
REMARK minimizedRMSD -1
REMARK  2 active torsions:
REMARK  status: ('A' for Active; 'I' for Inactive)
REMARK    1  A    between atoms: C2'_3  and  C1'_4 
REMARK    2  A    between atoms: C1'_4  and  C1_5 
ROOT
ATOM      1  C1  I4B d   1       3.935   2.391   1.076  0.00  0.00    -0.075 A 
ATOM      2  C2  I4B d   1       4.395   1.114   0.875  0.00  0.00     0.003 A 
ATOM      3  C3  I4B d   1       3.544   0.006   1.103  0.00  0.00     0.002 A 
ATOM      4  C4  I4B d   1       2.265   0.217   1.578  0.00  0.00    -0.004 A 
ATOM      5  C5  I4B d   1       1.793   1.514   1.759  0.00  0.00     0.002 A 
ATOM      6  C6  I4B d   1       2.629   2.609   1.495  0.00  0.00     0.003 A 
ENDROOT
BRANCH   1   7
ATOM      7  C1' I4B d   1       4.871   3.537   0.857  0.00  0.00     0.060 C 
BRANCH   7   8
ATOM      8  C2' I4B d   1       4.755   4.470   2.046  0.00  0.00    -0.013 C 
ATOM      9  C4' I4B d   1       6.000   4.432   2.892  0.00  0.00     0.013 C 
ATOM     10  C3' I4B d   1       4.494   5.852   1.526  0.00  0.00     0.013 C 
ENDBRANCH   7   8
ENDBRANCH   1   7
TORSDOF 2
ENDMDL
