MODEL 1
REMARK minimizedAffinity 5.63526201
REMARK minimizedRMSD -1
REMARK  2 active torsions:
REMARK  status: ('A' for Active; 'I' for Inactive)
REMARK    1  A    between atoms: C2'_3  and  C1'_4 
REMARK    2  A    between atoms: C1'_4  and  C1_5 
ROOT
ATOM      1  C1  I4B d   1      -2.199  -3.252  -3.718  0.00  0.00    -0.075 A 
ATOM      2  C2  I4B d   1      -1.103  -4.067  -3.855  0.00  0.00     0.003 A 
ATOM      3  C3  I4B d   1      -0.274  -3.961  -4.999  0.00  0.00     0.002 A 
ATOM      4  C4  I4B d   1      -0.605  -3.067  -5.997  0.00  0.00    -0.004 A 
ATOM      5  C5  I4B d   1      -1.703  -2.226  -5.846  0.00  0.00     0.002 A 
ATOM      6  C6  I4B d   1      -2.499  -2.310  -4.693  0.00  0.00     0.003 A 
ENDROOT
BRANCH   1   7
ATOM      7  C1' I4B d   1      -3.071  -3.414  -2.514  0.00  0.00     0.060 C 
BRANCH   7   8
ATOM      8  C2' I4B d   1      -3.760  -4.760  -2.613  0.00  0.00    -0.013 C 
ATOM      9  C4' I4B d   1      -3.640  -5.530  -1.325  0.00  0.00     0.013 C 
ATOM     10  C3' I4B d   1      -5.196  -4.519  -2.969  0.00  0.00     0.013 C 
ENDBRANCH   7   8
ENDBRANCH   1   7
TORSDOF 2
ENDMDL
