MODEL 1
REMARK minimizedAffinity 6.38520861
REMARK minimizedRMSD -1
REMARK  2 active torsions:
REMARK  status: ('A' for Active; 'I' for Inactive)
REMARK    1  A    between atoms: C2'_3  and  C1'_4 
REMARK    2  A    between atoms: C1'_4  and  C1_5 
ROOT
ATOM      1  C1  I4B d   1       3.861   1.320   0.799  0.00  0.00    -0.075 A 
ATOM      2  C2  I4B d   1       4.905   2.173   1.056  0.00  0.00     0.003 A 
ATOM      3  C3  I4B d   1       5.995   1.746   1.852  0.00  0.00     0.002 A 
ATOM      4  C4  I4B d   1       5.976   0.484   2.410  0.00  0.00    -0.004 A 
ATOM      5  C5  I4B d   1       4.927  -0.387   2.130  0.00  0.00     0.002 A 
ATOM      6  C6  I4B d   1       3.869   0.029   1.309  0.00  0.00     0.003 A 
ENDROOT
BRANCH   1   7
ATOM      7  C1' I4B d   1       2.711   1.815  -0.019  0.00  0.00     0.060 C 
BRANCH   7   8
ATOM      8  C2' I4B d   1       1.612   2.244   0.931  0.00  0.00    -0.013 C 
ATOM      9  C4' I4B d   1       0.510   2.966   0.201  0.00  0.00     0.013 C 
ATOM     10  C3' I4B d   1       1.092   1.018   1.621  0.00  0.00     0.013 C 
ENDBRANCH   7   8
ENDBRANCH   1   7
TORSDOF 2
ENDMDL
