MODEL 1
REMARK minimizedAffinity -1.45390582
REMARK minimizedRMSD -1
REMARK  2 active torsions:
REMARK  status: ('A' for Active; 'I' for Inactive)
REMARK    1  A    between atoms: C2'_3  and  C1'_4 
REMARK    2  A    between atoms: C1'_4  and  C1_5 
ROOT
ATOM      1  C1  I4B d   1      -5.024   3.191   4.431  0.00  0.00    -0.075 A 
ATOM      2  C2  I4B d   1      -5.355   3.683   3.194  0.00  0.00     0.003 A 
ATOM      3  C3  I4B d   1      -5.827   5.011   3.058  0.00  0.00     0.002 A 
ATOM      4  C4  I4B d   1      -5.999   5.790   4.185  0.00  0.00    -0.004 A 
ATOM      5  C5  I4B d   1      -5.642   5.296   5.436  0.00  0.00     0.002 A 
ATOM      6  C6  I4B d   1      -5.139   3.993   5.559  0.00  0.00     0.003 A 
ENDROOT
BRANCH   1   7
ATOM      7  C1' I4B d   1      -4.560   1.773   4.542  0.00  0.00     0.060 C 
BRANCH   7   8
ATOM      8  C2' I4B d   1      -5.784   0.891   4.685  0.00  0.00    -0.013 C 
ATOM      9  C4' I4B d   1      -5.967   0.014   3.474  0.00  0.00     0.013 C 
ATOM     10  C3' I4B d   1      -5.620   0.070   5.929  0.00  0.00     0.013 C 
ENDBRANCH   7   8
ENDBRANCH   1   7
TORSDOF 2
ENDMDL
