MODEL 1
REMARK minimizedAffinity 13.0840149
REMARK minimizedRMSD -1
REMARK  2 active torsions:
REMARK  status: ('A' for Active; 'I' for Inactive)
REMARK    1  A    between atoms: C2'_3  and  C1'_4 
REMARK    2  A    between atoms: C1'_4  and  C1_5 
ROOT
ATOM      1  C1  I4B d   1      -0.842  -2.720  -0.847  0.00  0.00    -0.075 A 
ATOM      2  C2  I4B d   1      -2.088  -2.177  -1.039  0.00  0.00     0.003 A 
ATOM      3  C3  I4B d   1      -2.884  -2.587  -2.136  0.00  0.00     0.002 A 
ATOM      4  C4  I4B d   1      -2.378  -3.500  -3.038  0.00  0.00    -0.004 A 
ATOM      5  C5  I4B d   1      -1.123  -4.067  -2.830  0.00  0.00     0.002 A 
ATOM      6  C6  I4B d   1      -0.355  -3.684  -1.720  0.00  0.00     0.003 A 
ENDROOT
BRANCH   1   7
ATOM      7  C1' I4B d   1      -0.015  -2.239   0.303  0.00  0.00     0.060 C 
BRANCH   7   8
ATOM      8  C2' I4B d   1       1.264  -1.650  -0.256  0.00  0.00    -0.013 C 
ATOM      9  C4' I4B d   1       1.890  -0.685   0.716  0.00  0.00     0.013 C 
ATOM     10  C3' I4B d   1       2.196  -2.782  -0.570  0.00  0.00     0.013 C 
ENDBRANCH   7   8
ENDBRANCH   1   7
TORSDOF 2
ENDMDL
