MODEL 1
REMARK minimizedAffinity 11.953764
REMARK minimizedRMSD -1
REMARK  2 active torsions:
REMARK  status: ('A' for Active; 'I' for Inactive)
REMARK    1  A    between atoms: C2'_3  and  C1'_4 
REMARK    2  A    between atoms: C1'_4  and  C1_5 
ROOT
ATOM      1  C1  I4B d   1      -1.601  -2.703  -1.136  0.00  0.00    -0.075 A 
ATOM      2  C2  I4B d   1      -2.656  -2.867  -0.273  0.00  0.00     0.003 A 
ATOM      3  C3  I4B d   1      -2.442  -3.407   1.019  0.00  0.00     0.002 A 
ATOM      4  C4  I4B d   1      -1.175  -3.813   1.385  0.00  0.00    -0.004 A 
ATOM      5  C5  I4B d   1      -0.103  -3.624   0.517  0.00  0.00     0.002 A 
ATOM      6  C6  I4B d   1      -0.315  -3.055  -0.747  0.00  0.00     0.003 A 
ENDROOT
BRANCH   1   7
ATOM      7  C1' I4B d   1      -1.868  -2.161  -2.505  0.00  0.00     0.060 C 
BRANCH   7   8
ATOM      8  C2' I4B d   1      -2.344  -3.306  -3.376  0.00  0.00    -0.013 C 
ATOM      9  C4' I4B d   1      -1.251  -4.320  -3.589  0.00  0.00     0.013 C 
ATOM     10  C3' I4B d   1      -3.537  -3.928  -2.713  0.00  0.00     0.013 C 
ENDBRANCH   7   8
ENDBRANCH   1   7
TORSDOF 2
ENDMDL
