MODEL 1
REMARK minimizedAffinity 15.400197
REMARK minimizedRMSD -1
REMARK  2 active torsions:
REMARK  status: ('A' for Active; 'I' for Inactive)
REMARK    1  A    between atoms: C2'_3  and  C1'_4 
REMARK    2  A    between atoms: C1'_4  and  C1_5 
ROOT
ATOM      1  C1  I4B d   1      -1.173  -2.327  -3.640  0.00  0.00    -0.075 A 
ATOM      2  C2  I4B d   1      -0.041  -3.067  -3.404  0.00  0.00     0.003 A 
ATOM      3  C3  I4B d   1       0.815  -3.422  -4.475  0.00  0.00     0.002 A 
ATOM      4  C4  I4B d   1       0.476  -3.063  -5.764  0.00  0.00    -0.004 A 
ATOM      5  C5  I4B d   1      -0.660  -2.293  -5.998  0.00  0.00     0.002 A 
ATOM      6  C6  I4B d   1      -1.483  -1.912  -4.929  0.00  0.00     0.003 A 
ENDROOT
BRANCH   1   7
ATOM      7  C1' I4B d   1      -2.071  -1.998  -2.491  0.00  0.00     0.060 C 
BRANCH   7   8
ATOM      8  C2' I4B d   1      -1.205  -1.801  -1.263  0.00  0.00    -0.013 C 
ATOM      9  C4' I4B d   1      -0.684  -0.390  -1.184  0.00  0.00     0.013 C 
ATOM     10  C3' I4B d   1      -2.027  -2.143  -0.057  0.00  0.00     0.013 C 
ENDBRANCH   7   8
ENDBRANCH   1   7
TORSDOF 2
ENDMDL
