MODEL 1
REMARK minimizedAffinity 16.1131783
REMARK minimizedRMSD -1
REMARK  2 active torsions:
REMARK  status: ('A' for Active; 'I' for Inactive)
REMARK    1  A    between atoms: C2'_3  and  C1'_4 
REMARK    2  A    between atoms: C1'_4  and  C1_5 
ROOT
ATOM      1  C1  I4B d   1       1.945   0.925   2.529  0.00  0.00    -0.075 A 
ATOM      2  C2  I4B d   1       3.035   0.271   3.046  0.00  0.00     0.003 A 
ATOM      3  C3  I4B d   1       4.108  -0.103   2.202  0.00  0.00     0.002 A 
ATOM      4  C4  I4B d   1       4.028   0.150   0.848  0.00  0.00    -0.004 A 
ATOM      5  C5  I4B d   1       2.933   0.834   0.329  0.00  0.00     0.002 A 
ATOM      6  C6  I4B d   1       1.890   1.236   1.177  0.00  0.00     0.003 A 
ENDROOT
BRANCH   1   7
ATOM      7  C1' I4B d   1       0.814   1.276   3.444  0.00  0.00     0.060 C 
BRANCH   7   8
ATOM      8  C2' I4B d   1       0.785   0.255   4.563  0.00  0.00    -0.013 C 
ATOM      9  C4' I4B d   1       0.695   0.924   5.909  0.00  0.00     0.013 C 
ATOM     10  C3' I4B d   1      -0.386  -0.652   4.331  0.00  0.00     0.013 C 
ENDBRANCH   7   8
ENDBRANCH   1   7
TORSDOF 2
ENDMDL
