MODEL 1
REMARK minimizedAffinity 11.473484
REMARK minimizedRMSD -1
REMARK  2 active torsions:
REMARK  status: ('A' for Active; 'I' for Inactive)
REMARK    1  A    between atoms: C2'_3  and  C1'_4 
REMARK    2  A    between atoms: C1'_4  and  C1_5 
ROOT
ATOM      1  C1  I4B d   1       4.731   1.962  -0.634  0.00  0.00    -0.075 A 
ATOM      2  C2  I4B d   1       5.366   3.112  -1.033  0.00  0.00     0.003 A 
ATOM      3  C3  I4B d   1       5.906   3.213  -2.338  0.00  0.00     0.002 A 
ATOM      4  C4  I4B d   1       5.834   2.129  -3.188  0.00  0.00    -0.004 A 
ATOM      5  C5  I4B d   1       5.170   0.972  -2.791  0.00  0.00     0.002 A 
ATOM      6  C6  I4B d   1       4.605   0.892  -1.510  0.00  0.00     0.003 A 
ENDROOT
BRANCH   1   7
ATOM      7  C1' I4B d   1       4.201   1.878   0.762  0.00  0.00     0.060 C 
BRANCH   7   8
ATOM      8  C2' I4B d   1       3.632   0.488   0.962  0.00  0.00    -0.013 C 
ATOM      9  C4' I4B d   1       4.428  -0.286   1.979  0.00  0.00     0.013 C 
ATOM     10  C3' I4B d   1       2.201   0.631   1.389  0.00  0.00     0.013 C 
ENDBRANCH   7   8
ENDBRANCH   1   7
TORSDOF 2
ENDMDL
