MODEL 1
REMARK minimizedAffinity 14.5446281
REMARK minimizedRMSD -1
REMARK  2 active torsions:
REMARK  status: ('A' for Active; 'I' for Inactive)
REMARK    1  A    between atoms: C2'_3  and  C1'_4 
REMARK    2  A    between atoms: C1'_4  and  C1_5 
ROOT
ATOM      1  C1  I4B d   1      -1.381  -2.703  -0.059  0.00  0.00    -0.075 A 
ATOM      2  C2  I4B d   1      -0.801  -2.598  -1.299  0.00  0.00     0.003 A 
ATOM      3  C3  I4B d   1      -1.597  -2.682  -2.467  0.00  0.00     0.002 A 
ATOM      4  C4  I4B d   1      -2.951  -2.922  -2.352  0.00  0.00    -0.004 A 
ATOM      5  C5  I4B d   1      -3.540  -3.005  -1.094  0.00  0.00     0.002 A 
ATOM      6  C6  I4B d   1      -2.753  -2.883   0.060  0.00  0.00     0.003 A 
ENDROOT
BRANCH   1   7
ATOM      7  C1' I4B d   1      -0.507  -2.642   1.153  0.00  0.00     0.060 C 
BRANCH   7   8
ATOM      8  C2' I4B d   1      -1.398  -2.717   2.376  0.00  0.00    -0.013 C 
ATOM      9  C4' I4B d   1      -1.375  -4.095   2.984  0.00  0.00     0.013 C 
ATOM     10  C3' I4B d   1      -0.927  -1.684   3.356  0.00  0.00     0.013 C 
ENDBRANCH   7   8
ENDBRANCH   1   7
TORSDOF 2
ENDMDL
