MODEL 1
REMARK minimizedAffinity 9.14348888
REMARK minimizedRMSD -1
REMARK  2 active torsions:
REMARK  status: ('A' for Active; 'I' for Inactive)
REMARK    1  A    between atoms: C2'_3  and  C1'_4 
REMARK    2  A    between atoms: C1'_4  and  C1_5 
ROOT
ATOM      1  C1  I4B d   1      -1.744  -2.781  -0.997  0.00  0.00    -0.075 A 
ATOM      2  C2  I4B d   1      -0.436  -2.628  -0.611  0.00  0.00     0.003 A 
ATOM      3  C3  I4B d   1       0.007  -3.147   0.629  0.00  0.00     0.002 A 
ATOM      4  C4  I4B d   1      -0.896  -3.765   1.469  0.00  0.00    -0.004 A 
ATOM      5  C5  I4B d   1      -2.217  -3.939   1.067  0.00  0.00     0.002 A 
ATOM      6  C6  I4B d   1      -2.642  -3.456  -0.179  0.00  0.00     0.003 A 
ENDROOT
BRANCH   1   7
ATOM      7  C1' I4B d   1      -2.186  -2.191  -2.298  0.00  0.00     0.060 C 
BRANCH   7   8
ATOM      8  C2' I4B d   1      -2.168  -3.291  -3.340  0.00  0.00    -0.013 C 
ATOM      9  C4' I4B d   1      -1.706  -2.770  -4.675  0.00  0.00     0.013 C 
ATOM     10  C3' I4B d   1      -1.267  -4.383  -2.844  0.00  0.00     0.013 C 
ENDBRANCH   7   8
ENDBRANCH   1   7
TORSDOF 2
ENDMDL
