MODEL 1
REMARK minimizedAffinity 6.05204964
REMARK minimizedRMSD -1
REMARK  1 active torsions:
REMARK  status: ('A' for Active; 'I' for Inactive)
REMARK    1  A    between atoms: C1_2  and  C2_3 
ROOT
ATOM      1  C2  UNL d   1      -3.584  -0.237  -2.708  0.00  0.00    -0.076 A 
ATOM      2  C3  UNL d   1      -4.610  -0.406  -3.653  0.00  0.00     0.004 A 
ATOM      3  C4  UNL d   1      -4.492   0.113  -4.942  0.00  0.00    -0.003 A 
ATOM      4  C5  UNL d   1      -3.345   0.809  -5.306  0.00  0.00     0.000 A 
ATOM      5  C6  UNL d   1      -2.309   0.970  -4.386  0.00  0.00     0.000 A 
ATOM      6  C7  UNL d   1      -2.405   0.439  -3.089  0.00  0.00    -0.073 A 
ATOM      7  C8  UNL d   1      -1.260   0.648  -2.136  0.00  0.00     0.078 C 
ENDROOT
BRANCH   1   8
ATOM      8  C1  UNL d   1      -3.780  -0.799  -1.318  0.00  0.00     0.053 C 
ATOM      9  C   UNL d   1      -4.786  -0.001  -0.504  0.00  0.00     0.018 C 
ENDBRANCH   1   8
TORSDOF 1
ENDMDL
