MODEL 1
REMARK minimizedAffinity 15.2664814
REMARK minimizedRMSD -1
REMARK  1 active torsions:
REMARK  status: ('A' for Active; 'I' for Inactive)
REMARK    1  A    between atoms: C1_2  and  C2_3 
ROOT
ATOM      1  C2  UNL d   1      -4.971   1.070  -4.213  0.00  0.00    -0.076 A 
ATOM      2  C3  UNL d   1      -5.895   1.644  -3.322  0.00  0.00     0.004 A 
ATOM      3  C4  UNL d   1      -5.849   3.003  -3.018  0.00  0.00    -0.003 A 
ATOM      4  C5  UNL d   1      -4.879   3.812  -3.600  0.00  0.00     0.000 A 
ATOM      5  C6  UNL d   1      -3.966   3.263  -4.500  0.00  0.00     0.000 A 
ATOM      6  C7  UNL d   1      -4.008   1.898  -4.830  0.00  0.00    -0.073 A 
ATOM      7  C8  UNL d   1      -2.995   1.358  -5.802  0.00  0.00     0.078 C 
ENDROOT
BRANCH   1   8
ATOM      8  C1  UNL d   1      -5.052  -0.415  -4.484  0.00  0.00     0.053 C 
ATOM      9  C   UNL d   1      -6.000  -0.748  -5.626  0.00  0.00     0.018 C 
ENDBRANCH   1   8
TORSDOF 1
ENDMDL
