MODEL 1
REMARK minimizedAffinity 6.00200701
REMARK minimizedRMSD -1
REMARK  1 active torsions:
REMARK  status: ('A' for Active; 'I' for Inactive)
REMARK    1  A    between atoms: C1_2  and  C2_3 
ROOT
ATOM      1  C2  UNL d   1       4.035  -0.993  -0.362  0.00  0.00    -0.076 A 
ATOM      2  C3  UNL d   1       3.472   0.043  -1.128  0.00  0.00     0.004 A 
ATOM      3  C4  UNL d   1       4.158   1.239  -1.331  0.00  0.00    -0.003 A 
ATOM      4  C5  UNL d   1       5.419   1.418  -0.772  0.00  0.00     0.000 A 
ATOM      5  C6  UNL d   1       6.000   0.394  -0.025  0.00  0.00     0.000 A 
ATOM      6  C7  UNL d   1       5.329  -0.824   0.176  0.00  0.00    -0.073 A 
ATOM      7  C8  UNL d   1       6.000  -1.892   0.995  0.00  0.00     0.078 C 
ENDROOT
BRANCH   1   8
ATOM      8  C1  UNL d   1       3.233  -2.258  -0.154  0.00  0.00     0.053 C 
ATOM      9  C   UNL d   1       2.625  -2.782  -1.446  0.00  0.00     0.018 C 
ENDBRANCH   1   8
TORSDOF 1
ENDMDL
