MODEL 1
REMARK minimizedAffinity 16.9654751
REMARK minimizedRMSD -1
REMARK  1 active torsions:
REMARK  status: ('A' for Active; 'I' for Inactive)
REMARK    1  A    between atoms: C1_2  and  C2_3 
ROOT
ATOM      1  C2  UNL d   1      -1.117  -4.864  -2.737  0.00  0.00    -0.076 A 
ATOM      2  C3  UNL d   1      -1.119  -5.676  -1.590  0.00  0.00     0.004 A 
ATOM      3  C4  UNL d   1      -0.096  -5.590  -0.648  0.00  0.00    -0.003 A 
ATOM      4  C5  UNL d   1       0.946  -4.689  -0.837  0.00  0.00     0.000 A 
ATOM      5  C6  UNL d   1       0.955  -3.863  -1.960  0.00  0.00     0.000 A 
ATOM      6  C7  UNL d   1      -0.078  -3.925  -2.911  0.00  0.00    -0.073 A 
ATOM      7  C8  UNL d   1      -0.014  -3.015  -4.107  0.00  0.00     0.078 C 
ENDROOT
BRANCH   1   8
ATOM      8  C1  UNL d   1      -2.240  -5.021  -3.738  0.00  0.00     0.053 C 
ATOM      9  C   UNL d   1      -1.897  -6.000  -4.849  0.00  0.00     0.018 C 
ENDBRANCH   1   8
TORSDOF 1
ENDMDL
