MODEL 1
REMARK minimizedAffinity 6.93748951
REMARK minimizedRMSD -1
REMARK  1 active torsions:
REMARK  status: ('A' for Active; 'I' for Inactive)
REMARK    1  A    between atoms: C1_2  and  C2_3 
ROOT
ATOM      1  C2  UNL d   1       3.755  -0.211  -1.164  0.00  0.00    -0.076 A 
ATOM      2  C3  UNL d   1       4.920  -0.214  -1.951  0.00  0.00     0.004 A 
ATOM      3  C4  UNL d   1       5.957   0.682  -1.701  0.00  0.00    -0.003 A 
ATOM      4  C5  UNL d   1       5.847   1.597  -0.660  0.00  0.00     0.000 A 
ATOM      5  C6  UNL d   1       4.706   1.603   0.142  0.00  0.00     0.000 A 
ATOM      6  C7  UNL d   1       3.658   0.695  -0.086  0.00  0.00    -0.073 A 
ATOM      7  C8  UNL d   1       2.448   0.750   0.806  0.00  0.00     0.078 C 
ENDROOT
BRANCH   1   8
ATOM      8  C1  UNL d   1       2.651  -1.188  -1.500  0.00  0.00     0.053 C 
ATOM      9  C   UNL d   1       2.975  -2.607  -1.058  0.00  0.00     0.018 C 
ENDBRANCH   1   8
TORSDOF 1
ENDMDL
