MODEL 1
REMARK minimizedAffinity 9.5054388
REMARK minimizedRMSD -1
REMARK  1 active torsions:
REMARK  status: ('A' for Active; 'I' for Inactive)
REMARK    1  A    between atoms: C1_2  and  C2_3 
ROOT
ATOM      1  C2  UNL d   1      -0.004  -1.884  -0.852  0.00  0.00    -0.076 A 
ATOM      2  C3  UNL d   1      -0.726  -0.809  -1.400  0.00  0.00     0.004 A 
ATOM      3  C4  UNL d   1      -0.393   0.509  -1.093  0.00  0.00    -0.003 A 
ATOM      4  C5  UNL d   1       0.667   0.774  -0.233  0.00  0.00     0.000 A 
ATOM      5  C6  UNL d   1       1.406  -0.279   0.305  0.00  0.00     0.000 A 
ATOM      6  C7  UNL d   1       1.094  -1.614  -0.007  0.00  0.00    -0.073 A 
ATOM      7  C8  UNL d   1       1.920  -2.711   0.607  0.00  0.00     0.078 C 
ENDROOT
BRANCH   1   8
ATOM      8  C1  UNL d   1      -0.427  -3.293  -1.200  0.00  0.00     0.053 C 
ATOM      9  C   UNL d   1      -1.933  -3.487  -1.112  0.00  0.00     0.018 C 
ENDBRANCH   1   8
TORSDOF 1
ENDMDL
