MODEL 1
REMARK minimizedAffinity 17.3390255
REMARK minimizedRMSD -1
REMARK  0 active torsions:
REMARK  status: ('A' for Active; 'I' for Inactive)
ROOT
ATOM      1  C   UNL d   1       4.753   2.657   1.807  0.00  0.00    -0.002 A 
ATOM      2  C1  UNL d   1       3.890   1.954   0.978  0.00  0.00     0.010 A 
ATOM      3  C2  UNL d   1       3.743   2.313  -0.363  0.00  0.00     0.041 A 
ATOM      4  C3  UNL d   1       4.486   3.401  -0.862  0.00  0.00    -0.075 A 
ATOM      5  S   UNL d   1       4.468   4.022  -2.471  0.00  0.00     0.015 SA
ATOM      6  C4  UNL d   1       5.606   5.234  -2.096  0.00  0.00     0.022 A 
ATOM      7  C5  UNL d   1       6.000   5.182  -0.780  0.00  0.00     0.026 A 
ATOM      8  C6  UNL d   1       5.362   4.124  -0.047  0.00  0.00    -0.082 A 
ATOM      9  C7  UNL d   1       5.488   3.735   1.308  0.00  0.00     0.045 A 
ENDROOT
TORSDOF 0
ENDMDL
