MODEL 1
REMARK minimizedAffinity 12.8659048
REMARK minimizedRMSD -1
REMARK  0 active torsions:
REMARK  status: ('A' for Active; 'I' for Inactive)
ROOT
ATOM      1  C   UNL d   1      -0.856   5.878  -1.441  0.00  0.00    -0.002 A 
ATOM      2  C1  UNL d   1       0.438   6.000  -1.930  0.00  0.00     0.010 A 
ATOM      3  C2  UNL d   1       0.698   5.856  -3.294  0.00  0.00     0.041 A 
ATOM      4  C3  UNL d   1      -0.374   5.588  -4.168  0.00  0.00    -0.075 A 
ATOM      5  S   UNL d   1      -0.294   5.373  -5.876  0.00  0.00     0.015 SA
ATOM      6  C4  UNL d   1      -1.975   5.117  -5.998  0.00  0.00     0.022 A 
ATOM      7  C5  UNL d   1      -2.597   5.189  -4.775  0.00  0.00     0.026 A 
ATOM      8  C6  UNL d   1      -1.685   5.462  -3.699  0.00  0.00    -0.082 A 
ATOM      9  C7  UNL d   1      -1.917   5.612  -2.311  0.00  0.00     0.045 A 
ENDROOT
TORSDOF 0
ENDMDL
