MODEL 1
REMARK minimizedAffinity 15.8645248
REMARK minimizedRMSD -1
REMARK  0 active torsions:
REMARK  status: ('A' for Active; 'I' for Inactive)
ROOT
ATOM      1  C   UNL d   1       5.246   3.892  -4.794  0.00  0.00    -0.002 A 
ATOM      2  C1  UNL d   1       4.130   3.231  -4.302  0.00  0.00     0.010 A 
ATOM      3  C2  UNL d   1       3.669   3.483  -3.008  0.00  0.00     0.041 A 
ATOM      4  C3  UNL d   1       4.353   4.421  -2.211  0.00  0.00    -0.075 A 
ATOM      5  S   UNL d   1       3.968   4.891  -0.598  0.00  0.00     0.015 SA
ATOM      6  C4  UNL d   1       5.276   5.982  -0.524  0.00  0.00     0.022 A 
ATOM      7  C5  UNL d   1       5.999   6.000  -1.693  0.00  0.00     0.026 A 
ATOM      8  C6  UNL d   1       5.479   5.101  -2.685  0.00  0.00    -0.082 A 
ATOM      9  C7  UNL d   1       5.923   4.823  -4.000  0.00  0.00     0.045 A 
ENDROOT
TORSDOF 0
ENDMDL
