MODEL 1
REMARK minimizedAffinity 23.9469604
REMARK minimizedRMSD -1
REMARK  0 active torsions:
REMARK  status: ('A' for Active; 'I' for Inactive)
ROOT
ATOM      1  C   UNL d   1      -4.127   5.421  -1.487  0.00  0.00    -0.002 A 
ATOM      2  C1  UNL d   1      -2.933   5.379  -0.782  0.00  0.00     0.010 A 
ATOM      3  C2  UNL d   1      -1.710   5.379  -1.455  0.00  0.00     0.041 A 
ATOM      4  C3  UNL d   1      -1.707   5.423  -2.863  0.00  0.00    -0.075 A 
ATOM      5  S   UNL d   1      -0.329   5.432  -3.900  0.00  0.00     0.015 SA
ATOM      6  C4  UNL d   1      -1.294   5.491  -5.304  0.00  0.00     0.022 A 
ATOM      7  C5  UNL d   1      -2.636   5.505  -5.007  0.00  0.00     0.026 A 
ATOM      8  C6  UNL d   1      -2.896   5.466  -3.596  0.00  0.00    -0.082 A 
ATOM      9  C7  UNL d   1      -4.120   5.464  -2.884  0.00  0.00     0.045 A 
ENDROOT
TORSDOF 0
ENDMDL
