MODEL 1
REMARK minimizedAffinity 16.0694942
REMARK minimizedRMSD -1
REMARK  0 active torsions:
REMARK  status: ('A' for Active; 'I' for Inactive)
ROOT
ATOM      1  C   UNL d   1       0.550   3.630  -3.601  0.00  0.00    -0.002 A 
ATOM      2  C1  UNL d   1       1.860   3.425  -4.011  0.00  0.00     0.010 A 
ATOM      3  C2  UNL d   1       2.763   2.748  -3.189  0.00  0.00     0.041 A 
ATOM      4  C3  UNL d   1       2.324   2.275  -1.937  0.00  0.00    -0.075 A 
ATOM      5  S   UNL d   1       3.254   1.418  -0.765  0.00  0.00     0.015 SA
ATOM      6  C4  UNL d   1       1.934   1.303   0.307  0.00  0.00     0.022 A 
ATOM      7  C5  UNL d   1       0.804   1.898  -0.200  0.00  0.00     0.026 A 
ATOM      8  C6  UNL d   1       1.009   2.468  -1.503  0.00  0.00    -0.082 A 
ATOM      9  C7  UNL d   1       0.117   3.158  -2.358  0.00  0.00     0.045 A 
ENDROOT
TORSDOF 0
ENDMDL
