MODEL 1
REMARK minimizedAffinity 11.48314
REMARK minimizedRMSD -1
REMARK  0 active torsions:
REMARK  status: ('A' for Active; 'I' for Inactive)
ROOT
ATOM      1  C   UNL d   1      -2.277   0.004   2.823  0.00  0.00    -0.002 A 
ATOM      2  C1  UNL d   1      -1.920  -1.140   2.124  0.00  0.00     0.010 A 
ATOM      3  C2  UNL d   1      -2.480  -1.412   0.874  0.00  0.00     0.041 A 
ATOM      4  C3  UNL d   1      -3.413  -0.506   0.333  0.00  0.00    -0.075 A 
ATOM      5  S   UNL d   1      -4.228  -0.632  -1.181  0.00  0.00     0.015 SA
ATOM      6  C4  UNL d   1      -5.069   0.830  -0.935  0.00  0.00     0.022 A 
ATOM      7  C5  UNL d   1      -4.748   1.414   0.268  0.00  0.00     0.026 A 
ATOM      8  C6  UNL d   1      -3.788   0.654   1.019  0.00  0.00    -0.082 A 
ATOM      9  C7  UNL d   1      -3.203   0.901   2.284  0.00  0.00     0.045 A 
ENDROOT
TORSDOF 0
ENDMDL
