MODEL 1
REMARK minimizedAffinity 16.7955112
REMARK minimizedRMSD -1
REMARK  0 active torsions:
REMARK  status: ('A' for Active; 'I' for Inactive)
ROOT
ATOM      1  C   UNL d   1      -5.999   1.361   2.364  0.00  0.00    -0.002 A 
ATOM      2  C1  UNL d   1      -5.960   1.734   3.700  0.00  0.00     0.010 A 
ATOM      3  C2  UNL d   1      -4.822   1.491   4.473  0.00  0.00     0.041 A 
ATOM      4  C3  UNL d   1      -3.714   0.861   3.874  0.00  0.00    -0.075 A 
ATOM      5  S   UNL d   1      -2.213   0.463   4.624  0.00  0.00     0.015 SA
ATOM      6  C4  UNL d   1      -1.589  -0.211   3.189  0.00  0.00     0.022 A 
ATOM      7  C5  UNL d   1      -2.490  -0.143   2.153  0.00  0.00     0.026 A 
ATOM      8  C6  UNL d   1      -3.729   0.477   2.530  0.00  0.00    -0.082 A 
ATOM      9  C7  UNL d   1      -4.897   0.736   1.773  0.00  0.00     0.045 A 
ENDROOT
TORSDOF 0
ENDMDL
