MODEL 1
REMARK minimizedAffinity 1.27065039
REMARK minimizedRMSD -1
REMARK  0 active torsions:
REMARK  status: ('A' for Active; 'I' for Inactive)
ROOT
ATOM      1  C   UNL d   1      -1.433  -0.950   1.722  0.00  0.00    -0.002 A 
ATOM      2  C1  UNL d   1      -1.008  -0.136   2.763  0.00  0.00     0.010 A 
ATOM      3  C2  UNL d   1      -1.932   0.578   3.529  0.00  0.00     0.041 A 
ATOM      4  C3  UNL d   1      -3.303   0.458   3.229  0.00  0.00    -0.075 A 
ATOM      5  S   UNL d   1      -4.615   1.238   4.032  0.00  0.00     0.015 SA
ATOM      6  C4  UNL d   1      -5.770   0.508   3.013  0.00  0.00     0.022 A 
ATOM      7  C5  UNL d   1      -5.187  -0.312   2.077  0.00  0.00     0.026 A 
ATOM      8  C6  UNL d   1      -3.756  -0.355   2.186  0.00  0.00    -0.082 A 
ATOM      9  C7  UNL d   1      -2.794  -1.066   1.428  0.00  0.00     0.045 A 
ENDROOT
TORSDOF 0
ENDMDL
