MODEL 1
REMARK minimizedAffinity 14.9509945
REMARK minimizedRMSD -1
REMARK  0 active torsions:
REMARK  status: ('A' for Active; 'I' for Inactive)
ROOT
ATOM      1  C   UNL d   1      -3.992  -0.148   2.881  0.00  0.00    -0.002 A 
ATOM      2  C1  UNL d   1      -3.015   0.555   3.572  0.00  0.00     0.010 A 
ATOM      3  C2  UNL d   1      -1.687   0.126   3.555  0.00  0.00     0.041 A 
ATOM      4  C3  UNL d   1      -1.352  -1.031   2.824  0.00  0.00    -0.075 A 
ATOM      5  S   UNL d   1       0.210  -1.741   2.660  0.00  0.00     0.015 SA
ATOM      6  C4  UNL d   1      -0.383  -2.994   1.668  0.00  0.00     0.022 A 
ATOM      7  C5  UNL d   1      -1.737  -2.888   1.457  0.00  0.00     0.026 A 
ATOM      8  C6  UNL d   1      -2.318  -1.755   2.120  0.00  0.00    -0.082 A 
ATOM      9  C7  UNL d   1      -3.657  -1.295   2.157  0.00  0.00     0.045 A 
ENDROOT
TORSDOF 0
ENDMDL
