MODEL 1
REMARK minimizedAffinity 19.3282604
REMARK minimizedRMSD -1
REMARK  0 active torsions:
REMARK  status: ('A' for Active; 'I' for Inactive)
ROOT
ATOM      1  C   UNL d   1       5.150   4.162   1.852  0.00  0.00    -0.002 A 
ATOM      2  C1  UNL d   1       5.999   3.401   1.061  0.00  0.00     0.010 A 
ATOM      3  C2  UNL d   1       5.501   2.346   0.294  0.00  0.00     0.041 A 
ATOM      4  C3  UNL d   1       4.120   2.067   0.335  0.00  0.00    -0.075 A 
ATOM      5  S   UNL d   1       3.285   0.825  -0.521  0.00  0.00     0.015 SA
ATOM      6  C4  UNL d   1       1.781   1.276   0.143  0.00  0.00     0.022 A 
ATOM      7  C5  UNL d   1       1.895   2.346   0.998  0.00  0.00     0.026 A 
ATOM      8  C6  UNL d   1       3.245   2.820   1.123  0.00  0.00    -0.082 A 
ATOM      9  C7  UNL d   1       3.781   3.882   1.890  0.00  0.00     0.045 A 
ENDROOT
TORSDOF 0
ENDMDL
