MODEL 1
REMARK minimizedAffinity -3.6454494
REMARK minimizedRMSD -1
REMARK  0 active torsions:
REMARK  status: ('A' for Active; 'I' for Inactive)
ROOT
ATOM      1  C   UNL d   1      -2.391   0.574   1.821  0.00  0.00     0.078 C 
ATOM      2  C1  UNL d   1      -0.942   0.190   1.872  0.00  0.00    -0.077 A 
ATOM      3  C2  UNL d   1      -0.312  -0.089   3.091  0.00  0.00    -0.001 A 
ATOM      4  C3  UNL d   1       1.040  -0.435   3.124  0.00  0.00     0.003 A 
ATOM      5  C4  UNL d   1       1.773  -0.504   1.941  0.00  0.00    -0.005 A 
ATOM      6  C5  UNL d   1       1.156  -0.226   0.724  0.00  0.00     0.003 A 
ATOM      7  C6  UNL d   1      -0.196   0.121   0.689  0.00  0.00    -0.001 A 
ENDROOT
TORSDOF 0
ENDMDL
