MODEL 1
REMARK minimizedAffinity -4.96941566
REMARK minimizedRMSD -1
REMARK  0 active torsions:
REMARK  status: ('A' for Active; 'I' for Inactive)
ROOT
ATOM      1  C   UNL d   1       0.136  -0.145  -1.194  0.00  0.00     0.078 C 
ATOM      2  C1  UNL d   1      -0.248   0.099   0.235  0.00  0.00    -0.077 A 
ATOM      3  C2  UNL d   1      -1.404  -0.474   0.779  0.00  0.00    -0.001 A 
ATOM      4  C3  UNL d   1      -1.754  -0.230   2.108  0.00  0.00     0.003 A 
ATOM      5  C4  UNL d   1      -0.954   0.588   2.903  0.00  0.00    -0.005 A 
ATOM      6  C5  UNL d   1       0.196   1.165   2.370  0.00  0.00     0.003 A 
ATOM      7  C6  UNL d   1       0.548   0.922   1.041  0.00  0.00    -0.001 A 
ENDROOT
TORSDOF 0
ENDMDL
