MODEL 1
REMARK minimizedAffinity -3.16246438
REMARK minimizedRMSD -1
REMARK  0 active torsions:
REMARK  status: ('A' for Active; 'I' for Inactive)
ROOT
ATOM      1  C   UNL d   1       1.969  -0.699   2.229  0.00  0.00     0.078 C 
ATOM      2  C1  UNL d   1       0.969  -0.523   1.126  0.00  0.00    -0.077 A 
ATOM      3  C2  UNL d   1      -0.343  -0.115   1.400  0.00  0.00    -0.001 A 
ATOM      4  C3  UNL d   1      -1.266   0.036   0.364  0.00  0.00     0.003 A 
ATOM      5  C4  UNL d   1      -0.888  -0.220  -0.953  0.00  0.00    -0.005 A 
ATOM      6  C5  UNL d   1       0.414  -0.628  -1.235  0.00  0.00     0.003 A 
ATOM      7  C6  UNL d   1       1.339  -0.779  -0.200  0.00  0.00    -0.001 A 
ENDROOT
TORSDOF 0
ENDMDL
