MODEL 1
REMARK minimizedAffinity -2.12785745
REMARK minimizedRMSD -1
REMARK  0 active torsions:
REMARK  status: ('A' for Active; 'I' for Inactive)
ROOT
ATOM      1  C   UNL d   1      -0.013  -0.981  -1.272  0.00  0.00     0.078 C 
ATOM      2  C1  UNL d   1      -0.339  -0.574   0.134  0.00  0.00    -0.077 A 
ATOM      3  C2  UNL d   1       0.544  -0.845   1.187  0.00  0.00    -0.001 A 
ATOM      4  C3  UNL d   1       0.224  -0.469   2.492  0.00  0.00     0.003 A 
ATOM      5  C4  UNL d   1      -0.981   0.179   2.757  0.00  0.00    -0.005 A 
ATOM      6  C5  UNL d   1      -1.867   0.451   1.717  0.00  0.00     0.003 A 
ATOM      7  C6  UNL d   1      -1.548   0.076   0.411  0.00  0.00    -0.001 A 
ENDROOT
TORSDOF 0
ENDMDL
