MODEL 1
REMARK minimizedAffinity -4.97173643
REMARK minimizedRMSD -1
REMARK  0 active torsions:
REMARK  status: ('A' for Active; 'I' for Inactive)
ROOT
ATOM      1  C   UNL d   1      -0.723   1.468   2.979  0.00  0.00     0.078 C 
ATOM      2  C1  UNL d   1      -0.222   0.624   1.845  0.00  0.00    -0.077 A 
ATOM      3  C2  UNL d   1       1.103   0.172   1.813  0.00  0.00    -0.001 A 
ATOM      4  C3  UNL d   1       1.558  -0.605   0.747  0.00  0.00     0.003 A 
ATOM      5  C4  UNL d   1       0.695  -0.937  -0.296  0.00  0.00    -0.005 A 
ATOM      6  C5  UNL d   1      -0.625  -0.491  -0.273  0.00  0.00     0.003 A 
ATOM      7  C6  UNL d   1      -1.082   0.287   0.792  0.00  0.00    -0.001 A 
ENDROOT
TORSDOF 0
ENDMDL
