MODEL 1
REMARK minimizedAffinity -5.93310356
REMARK minimizedRMSD -1
REMARK  0 active torsions:
REMARK  status: ('A' for Active; 'I' for Inactive)
ROOT
ATOM      1  C   UNL d   1       0.447  -0.642  -0.366  0.00  0.00     0.078 C 
ATOM      2  C1  UNL d   1       0.348  -0.007   0.989  0.00  0.00    -0.077 A 
ATOM      3  C2  UNL d   1       1.314  -0.250   1.972  0.00  0.00    -0.001 A 
ATOM      4  C3  UNL d   1       1.204   0.340   3.232  0.00  0.00     0.003 A 
ATOM      5  C4  UNL d   1       0.128   1.177   3.521  0.00  0.00    -0.005 A 
ATOM      6  C5  UNL d   1      -0.840   1.424   2.550  0.00  0.00     0.003 A 
ATOM      7  C6  UNL d   1      -0.731   0.834   1.289  0.00  0.00    -0.001 A 
ENDROOT
TORSDOF 0
ENDMDL
