MODEL 1
REMARK minimizedAffinity -4.29787493
REMARK minimizedRMSD -1
REMARK  0 active torsions:
REMARK  status: ('A' for Active; 'I' for Inactive)
ROOT
ATOM      1  C   UNL d   1      -1.451   0.055   0.471  0.00  0.00     0.078 C 
ATOM      2  C1  UNL d   1      -0.559   0.075   1.676  0.00  0.00    -0.077 A 
ATOM      3  C2  UNL d   1       0.798  -0.256   1.575  0.00  0.00    -0.001 A 
ATOM      4  C3  UNL d   1       1.615  -0.242   2.707  0.00  0.00     0.003 A 
ATOM      5  C4  UNL d   1       1.084   0.101   3.948  0.00  0.00    -0.005 A 
ATOM      6  C5  UNL d   1      -0.266   0.430   4.060  0.00  0.00     0.003 A 
ATOM      7  C6  UNL d   1      -1.084   0.417   2.929  0.00  0.00    -0.001 A 
ENDROOT
TORSDOF 0
ENDMDL
