MODEL 1
REMARK minimizedAffinity -4.82635021
REMARK minimizedRMSD -1
REMARK  0 active torsions:
REMARK  status: ('A' for Active; 'I' for Inactive)
ROOT
ATOM      1  C   UNL d   1       2.195   0.393   0.439  0.00  0.00     0.078 C 
ATOM      2  C1  UNL d   1       0.948   0.370   1.270  0.00  0.00    -0.077 A 
ATOM      3  C2  UNL d   1      -0.307   0.164   0.682  0.00  0.00    -0.001 A 
ATOM      4  C3  UNL d   1      -1.461   0.155   1.467  0.00  0.00     0.003 A 
ATOM      5  C4  UNL d   1      -1.373   0.353   2.844  0.00  0.00    -0.005 A 
ATOM      6  C5  UNL d   1      -0.129   0.561   3.437  0.00  0.00     0.003 A 
ATOM      7  C6  UNL d   1       1.026   0.571   2.654  0.00  0.00    -0.001 A 
ENDROOT
TORSDOF 0
ENDMDL
