MODEL 1
REMARK minimizedAffinity 5.15531635
REMARK minimizedRMSD -1
REMARK  0 active torsions:
REMARK  status: ('A' for Active; 'I' for Inactive)
ROOT
ATOM      1  C   UNL d   1       2.853   0.138   2.218  0.00  0.00     0.020 A 
ATOM      2  C1  UNL d   1       2.081  -0.645   1.361  0.00  0.00     0.020 A 
ATOM      3  C2  UNL d   1       0.689  -0.525   1.369  0.00  0.00     0.034 A 
ATOM      4  C3  UNL d   1       0.066   0.381   2.234  0.00  0.00     0.017 A 
ATOM      5  C4  UNL d   1       0.842   1.167   3.094  0.00  0.00     0.017 A 
ATOM      6  C5  UNL d   1       2.235   1.042   3.082  0.00  0.00     0.034 A 
ATOM      7 Cl   UNL d   1       0.145   2.307   4.190  0.00  0.00    -0.070 Cl
ATOM      8 Cl1  UNL d   1      -1.659   0.478   2.190  0.00  0.00    -0.070 Cl
ENDROOT
TORSDOF 0
ENDMDL
