MODEL 1
REMARK minimizedAffinity 6.06130409
REMARK minimizedRMSD -1
REMARK  0 active torsions:
REMARK  status: ('A' for Active; 'I' for Inactive)
ROOT
ATOM      1  C   UNL d   1      -2.907  -0.842   4.259  0.00  0.00     0.020 A 
ATOM      2  C1  UNL d   1      -1.903  -1.804   4.151  0.00  0.00     0.020 A 
ATOM      3  C2  UNL d   1      -0.666  -1.463   3.600  0.00  0.00     0.034 A 
ATOM      4  C3  UNL d   1      -0.429  -0.157   3.155  0.00  0.00     0.017 A 
ATOM      5  C4  UNL d   1      -1.437   0.808   3.264  0.00  0.00     0.017 A 
ATOM      6  C5  UNL d   1      -2.674   0.461   3.817  0.00  0.00     0.034 A 
ATOM      7 Cl   UNL d   1      -1.220   2.439   2.737  0.00  0.00    -0.070 Cl
ATOM      8 Cl1  UNL d   1       1.124   0.194   2.484  0.00  0.00    -0.070 Cl
ENDROOT
TORSDOF 0
ENDMDL
