MODEL 1
REMARK minimizedAffinity 12.0081415
REMARK minimizedRMSD -1
REMARK  0 active torsions:
REMARK  status: ('A' for Active; 'I' for Inactive)
ROOT
ATOM      1  C   UNL d   1       0.049   1.329   3.792  0.00  0.00     0.020 A 
ATOM      2  C1  UNL d   1       0.176   1.529   2.418  0.00  0.00     0.020 A 
ATOM      3  C2  UNL d   1       0.566   0.473   1.591  0.00  0.00     0.034 A 
ATOM      4  C3  UNL d   1       0.830  -0.788   2.138  0.00  0.00     0.017 A 
ATOM      5  C4  UNL d   1       0.702  -0.988   3.517  0.00  0.00     0.017 A 
ATOM      6  C5  UNL d   1       0.311   0.073   4.340  0.00  0.00     0.034 A 
ATOM      7 Cl   UNL d   1       1.011  -2.516   4.264  0.00  0.00    -0.070 Cl
ATOM      8 Cl1  UNL d   1       1.308  -2.048   1.056  0.00  0.00    -0.070 Cl
ENDROOT
TORSDOF 0
ENDMDL
