MODEL 1
REMARK minimizedAffinity 13.0967903
REMARK minimizedRMSD -1
REMARK  0 active torsions:
REMARK  status: ('A' for Active; 'I' for Inactive)
ROOT
ATOM      1  C   UNL d   1       1.811  -1.313   3.600  0.00  0.00     0.020 A 
ATOM      2  C1  UNL d   1       2.144   0.018   3.847  0.00  0.00     0.020 A 
ATOM      3  C2  UNL d   1       1.313   1.043   3.390  0.00  0.00     0.034 A 
ATOM      4  C3  UNL d   1       0.145   0.738   2.682  0.00  0.00     0.017 A 
ATOM      5  C4  UNL d   1      -0.189  -0.598   2.434  0.00  0.00     0.017 A 
ATOM      6  C5  UNL d   1       0.647  -1.620   2.895  0.00  0.00     0.034 A 
ATOM      7 Cl   UNL d   1      -1.614  -1.053   1.568  0.00  0.00    -0.070 Cl
ATOM      8 Cl1  UNL d   1      -0.837   2.055   2.146  0.00  0.00    -0.070 Cl
ENDROOT
TORSDOF 0
ENDMDL
