MODEL 1
REMARK minimizedAffinity 8.79558945
REMARK minimizedRMSD -1
REMARK  0 active torsions:
REMARK  status: ('A' for Active; 'I' for Inactive)
ROOT
ATOM      1  C   UNL d   1       2.164   0.697   1.850  0.00  0.00     0.020 A 
ATOM      2  C1  UNL d   1       1.447  -0.422   1.431  0.00  0.00     0.020 A 
ATOM      3  C2  UNL d   1       0.146  -0.632   1.896  0.00  0.00     0.034 A 
ATOM      4  C3  UNL d   1      -0.440   0.279   2.782  0.00  0.00     0.017 A 
ATOM      5  C4  UNL d   1       0.281   1.402   3.202  0.00  0.00     0.017 A 
ATOM      6  C5  UNL d   1       1.583   1.607   2.734  0.00  0.00     0.034 A 
ATOM      7 Cl   UNL d   1      -0.375   2.570   4.294  0.00  0.00    -0.070 Cl
ATOM      8 Cl1  UNL d   1      -2.052  -0.043   3.315  0.00  0.00    -0.070 Cl
ENDROOT
TORSDOF 0
ENDMDL
