MODEL 1
REMARK minimizedAffinity 4.49702168
REMARK minimizedRMSD -1
REMARK  0 active torsions:
REMARK  status: ('A' for Active; 'I' for Inactive)
ROOT
ATOM      1  C   UNL d   1       0.476  -1.919  -5.435  0.00  0.00     0.020 A 
ATOM      2  C1  UNL d   1       0.062  -0.895  -4.585  0.00  0.00     0.020 A 
ATOM      3  C2  UNL d   1      -0.526  -1.202  -3.356  0.00  0.00     0.034 A 
ATOM      4  C3  UNL d   1      -0.703  -2.537  -2.975  0.00  0.00     0.017 A 
ATOM      5  C4  UNL d   1      -0.287  -3.565  -3.830  0.00  0.00     0.017 A 
ATOM      6  C5  UNL d   1       0.301  -3.251  -5.059  0.00  0.00     0.034 A 
ATOM      7 Cl   UNL d   1      -0.472  -5.236  -3.428  0.00  0.00    -0.070 Cl
ATOM      8 Cl1  UNL d   1      -1.437  -2.845  -1.441  0.00  0.00    -0.070 Cl
ENDROOT
TORSDOF 0
ENDMDL
