MODEL 1
REMARK minimizedAffinity 8.68159771
REMARK minimizedRMSD -1
REMARK  0 active torsions:
REMARK  status: ('A' for Active; 'I' for Inactive)
ROOT
ATOM      1  C   UNL d   1       3.782  -0.741  -0.461  0.00  0.00     0.020 A 
ATOM      2  C1  UNL d   1       3.694   0.385  -1.279  0.00  0.00     0.020 A 
ATOM      3  C2  UNL d   1       2.879   1.455  -0.908  0.00  0.00     0.034 A 
ATOM      4  C3  UNL d   1       2.147   1.403   0.284  0.00  0.00     0.017 A 
ATOM      5  C4  UNL d   1       2.236   0.272   1.105  0.00  0.00     0.017 A 
ATOM      6  C5  UNL d   1       3.055  -0.797   0.728  0.00  0.00     0.034 A 
ATOM      7 Cl   UNL d   1       1.365   0.135   2.591  0.00  0.00    -0.070 Cl
ATOM      8 Cl1  UNL d   1       1.159   2.763   0.681  0.00  0.00    -0.070 Cl
ENDROOT
TORSDOF 0
ENDMDL
