MODEL 1
REMARK minimizedAffinity 13.5058641
REMARK minimizedRMSD -1
REMARK  0 active torsions:
REMARK  status: ('A' for Active; 'I' for Inactive)
ROOT
ATOM      1  C   UNL d   1      -1.899  -4.874  -5.355  0.00  0.00     0.020 A 
ATOM      2  C1  UNL d   1      -0.777  -5.626  -5.700  0.00  0.00     0.020 A 
ATOM      3  C2  UNL d   1       0.165  -5.963  -4.725  0.00  0.00     0.034 A 
ATOM      4  C3  UNL d   1      -0.014  -5.547  -3.401  0.00  0.00     0.017 A 
ATOM      5  C4  UNL d   1      -1.140  -4.792  -3.055  0.00  0.00     0.017 A 
ATOM      6  C5  UNL d   1      -2.080  -4.458  -4.035  0.00  0.00     0.034 A 
ATOM      7 Cl   UNL d   1      -1.429  -4.244  -1.442  0.00  0.00    -0.070 Cl
ATOM      8 Cl1  UNL d   1       1.191  -6.000  -2.247  0.00  0.00    -0.070 Cl
ENDROOT
TORSDOF 0
ENDMDL
