MODEL 1
REMARK minimizedAffinity 7.13604975
REMARK minimizedRMSD -1
REMARK  0 active torsions:
REMARK  status: ('A' for Active; 'I' for Inactive)
ROOT
ATOM      1  C   UNL d   1      -5.880   5.999   0.247  0.00  0.00     0.020 A 
ATOM      2  C1  UNL d   1      -5.600   5.761  -1.098  0.00  0.00     0.020 A 
ATOM      3  C2  UNL d   1      -5.439   4.452  -1.556  0.00  0.00     0.034 A 
ATOM      4  C3  UNL d   1      -5.558   3.376  -0.669  0.00  0.00     0.017 A 
ATOM      5  C4  UNL d   1      -5.839   3.616   0.681  0.00  0.00     0.017 A 
ATOM      6  C5  UNL d   1      -5.999   4.929   1.134  0.00  0.00     0.034 A 
ATOM      7 Cl   UNL d   1      -5.999   2.340   1.835  0.00  0.00    -0.070 Cl
ATOM      8 Cl1  UNL d   1      -5.346   1.783  -1.305  0.00  0.00    -0.070 Cl
ENDROOT
TORSDOF 0
ENDMDL
