MODEL 1
REMARK minimizedAffinity -1.92914617
REMARK minimizedRMSD -1
REMARK  0 active torsions:
REMARK  status: ('A' for Active; 'I' for Inactive)
ROOT
ATOM      1  C   UNL d   1      -0.811  -0.880  -1.582  0.00  0.00     0.077 C 
ATOM      2  C1  UNL d   1      -0.649  -0.162  -0.276  0.00  0.00    -0.074 A 
ATOM      3  C2  UNL d   1      -1.758   0.346   0.408  0.00  0.00    -0.005 A 
ATOM      4  C3  UNL d   1      -1.593   1.003   1.627  0.00  0.00     0.006 A 
ATOM      5  C4  UNL d   1      -0.318   1.159   2.174  0.00  0.00    -0.005 A 
ATOM      6  C5  UNL d   1       0.802   0.657   1.505  0.00  0.00    -0.074 A 
ATOM      7  C6  UNL d   1       2.178   0.808   2.083  0.00  0.00     0.077 C 
ATOM      8  C7  UNL d   1       0.627  -0.008   0.284  0.00  0.00    -0.001 A 
ENDROOT
TORSDOF 0
ENDMDL
