MODEL 1
REMARK minimizedAffinity -4.7762332
REMARK minimizedRMSD -1
REMARK  0 active torsions:
REMARK  status: ('A' for Active; 'I' for Inactive)
ROOT
ATOM      1  C   UNL d   1       0.036  -0.780  -1.787  0.00  0.00     0.077 C 
ATOM      2  C1  UNL d   1       0.429  -0.421  -0.386  0.00  0.00    -0.074 A 
ATOM      3  C2  UNL d   1       1.643  -0.858   0.155  0.00  0.00    -0.005 A 
ATOM      4  C3  UNL d   1       2.000  -0.507   1.457  0.00  0.00     0.006 A 
ATOM      5  C4  UNL d   1       1.148   0.282   2.231  0.00  0.00    -0.005 A 
ATOM      6  C5  UNL d   1      -0.069   0.729   1.707  0.00  0.00    -0.074 A 
ATOM      7  C6  UNL d   1      -0.992   1.586   2.522  0.00  0.00     0.077 C 
ATOM      8  C7  UNL d   1      -0.418   0.378   0.395  0.00  0.00    -0.001 A 
ENDROOT
TORSDOF 0
ENDMDL
