MODEL 1
REMARK minimizedAffinity -5.57511854
REMARK minimizedRMSD -1
REMARK  0 active torsions:
REMARK  status: ('A' for Active; 'I' for Inactive)
ROOT
ATOM      1  C   UNL d   1      -2.535  -2.474  -5.851  0.00  0.00     0.077 C 
ATOM      2  C1  UNL d   1      -1.665  -1.411  -5.250  0.00  0.00    -0.074 A 
ATOM      3  C2  UNL d   1      -1.578  -0.141  -5.829  0.00  0.00    -0.005 A 
ATOM      4  C3  UNL d   1      -0.771   0.841  -5.253  0.00  0.00     0.006 A 
ATOM      5  C4  UNL d   1      -0.045   0.563  -4.095  0.00  0.00    -0.005 A 
ATOM      6  C5  UNL d   1      -0.120  -0.701  -3.501  0.00  0.00    -0.074 A 
ATOM      7  C6  UNL d   1       0.647  -1.014  -2.251  0.00  0.00     0.077 C 
ATOM      8  C7  UNL d   1      -0.938  -1.680  -4.082  0.00  0.00    -0.001 A 
ENDROOT
TORSDOF 0
ENDMDL
