MODEL 1
REMARK minimizedAffinity -5.38410902
REMARK minimizedRMSD -1
REMARK  0 active torsions:
REMARK  status: ('A' for Active; 'I' for Inactive)
ROOT
ATOM      1  C   UNL d   1      -1.663  -1.273  -4.252  0.00  0.00     0.077 C 
ATOM      2  C1  UNL d   1      -0.657  -0.643  -3.335  0.00  0.00    -0.074 A 
ATOM      3  C2  UNL d   1       0.502  -0.047  -3.842  0.00  0.00    -0.005 A 
ATOM      4  C3  UNL d   1       1.425   0.544  -2.978  0.00  0.00     0.006 A 
ATOM      5  C4  UNL d   1       1.197   0.545  -1.602  0.00  0.00    -0.005 A 
ATOM      6  C5  UNL d   1       0.043  -0.046  -1.077  0.00  0.00    -0.074 A 
ATOM      7  C6  UNL d   1      -0.221  -0.045   0.400  0.00  0.00     0.077 C 
ATOM      8  C7  UNL d   1      -0.882  -0.631  -1.952  0.00  0.00    -0.001 A 
ENDROOT
TORSDOF 0
ENDMDL
