MODEL 1
REMARK minimizedAffinity -3.18053722
REMARK minimizedRMSD -1
REMARK  0 active torsions:
REMARK  status: ('A' for Active; 'I' for Inactive)
ROOT
ATOM      1  C   UNL d   1      -0.521  -1.478  -4.709  0.00  0.00     0.077 C 
ATOM      2  C1  UNL d   1       0.284  -0.722  -3.694  0.00  0.00    -0.074 A 
ATOM      3  C2  UNL d   1       1.300   0.153  -4.089  0.00  0.00    -0.005 A 
ATOM      4  C3  UNL d   1       2.034   0.857  -3.134  0.00  0.00     0.006 A 
ATOM      5  C4  UNL d   1       1.759   0.692  -1.776  0.00  0.00    -0.005 A 
ATOM      6  C5  UNL d   1       0.745  -0.178  -1.362  0.00  0.00    -0.074 A 
ATOM      7  C6  UNL d   1       0.430  -0.359   0.094  0.00  0.00     0.077 C 
ATOM      8  C7  UNL d   1       0.008  -0.876  -2.328  0.00  0.00    -0.001 A 
ENDROOT
TORSDOF 0
ENDMDL
