MODEL 1
REMARK minimizedAffinity -6.10555124
REMARK minimizedRMSD -1
REMARK  0 active torsions:
REMARK  status: ('A' for Active; 'I' for Inactive)
ROOT
ATOM      1  C   UNL d   1       0.175  -0.429  -0.864  0.00  0.00     0.077 C 
ATOM      2  C1  UNL d   1      -0.124   0.118   0.500  0.00  0.00    -0.074 A 
ATOM      3  C2  UNL d   1      -1.345   0.745   0.772  0.00  0.00    -0.005 A 
ATOM      4  C3  UNL d   1      -1.612   1.240   2.048  0.00  0.00     0.006 A 
ATOM      5  C4  UNL d   1      -0.663   1.115   3.063  0.00  0.00    -0.005 A 
ATOM      6  C5  UNL d   1       0.563   0.492   2.810  0.00  0.00    -0.074 A 
ATOM      7  C6  UNL d   1       1.590   0.340   3.893  0.00  0.00     0.077 C 
ATOM      8  C7  UNL d   1       0.821  -0.010   1.527  0.00  0.00    -0.001 A 
ENDROOT
TORSDOF 0
ENDMDL
