MODEL 1
REMARK minimizedAffinity -4.71865654
REMARK minimizedRMSD -1
REMARK  0 active torsions:
REMARK  status: ('A' for Active; 'I' for Inactive)
ROOT
ATOM      1  C   UNL d   1       1.911  -0.722   3.152  0.00  0.00     0.077 C 
ATOM      2  C1  UNL d   1       0.786  -0.211   2.302  0.00  0.00    -0.074 A 
ATOM      3  C2  UNL d   1      -0.324   0.415   2.880  0.00  0.00    -0.005 A 
ATOM      4  C3  UNL d   1      -1.359   0.893   2.076  0.00  0.00     0.006 A 
ATOM      5  C4  UNL d   1      -1.295   0.751   0.690  0.00  0.00    -0.005 A 
ATOM      6  C5  UNL d   1      -0.193   0.129   0.094  0.00  0.00    -0.074 A 
ATOM      7  C6  UNL d   1      -0.104  -0.023  -1.395  0.00  0.00     0.077 C 
ATOM      8  C7  UNL d   1       0.846  -0.343   0.908  0.00  0.00    -0.001 A 
ENDROOT
TORSDOF 0
ENDMDL
