MODEL 1
REMARK minimizedAffinity -3.50717616
REMARK minimizedRMSD -1
REMARK  0 active torsions:
REMARK  status: ('A' for Active; 'I' for Inactive)
ROOT
ATOM      1  C   UNL d   1      -1.353   0.549  -4.650  0.00  0.00     0.077 C 
ATOM      2  C1  UNL d   1      -0.058   0.411  -3.907  0.00  0.00    -0.074 A 
ATOM      3  C2  UNL d   1       1.079   1.123  -4.304  0.00  0.00    -0.005 A 
ATOM      4  C3  UNL d   1       2.274   0.991  -3.597  0.00  0.00     0.006 A 
ATOM      5  C4  UNL d   1       2.345   0.148  -2.488  0.00  0.00    -0.005 A 
ATOM      6  C5  UNL d   1       1.219  -0.571  -2.075  0.00  0.00    -0.074 A 
ATOM      7  C6  UNL d   1       1.275  -1.474  -0.879  0.00  0.00     0.077 C 
ATOM      8  C7  UNL d   1       0.019  -0.429  -2.786  0.00  0.00    -0.001 A 
ENDROOT
TORSDOF 0
ENDMDL
