MODEL 1
REMARK minimizedAffinity 8.63769436
REMARK minimizedRMSD -1
REMARK  0 active torsions:
REMARK  status: ('A' for Active; 'I' for Inactive)
ROOT
ATOM      1  C   UNL d   1       3.226  -5.996  -1.381  0.00  0.00     0.078 C 
ATOM      2  C1  UNL d   1       2.056  -5.155  -1.796  0.00  0.00    -0.077 A 
ATOM      3  C2  UNL d   1       1.281  -4.478  -0.846  0.00  0.00    -0.001 A 
ATOM      4  C3  UNL d   1       0.189  -3.706  -1.246  0.00  0.00     0.003 A 
ATOM      5  C4  UNL d   1      -0.139  -3.605  -2.596  0.00  0.00    -0.005 A 
ATOM      6  C5  UNL d   1       0.625  -4.277  -3.549  0.00  0.00     0.003 A 
ATOM      7  C6  UNL d   1       1.717  -5.049  -3.151  0.00  0.00    -0.001 A 
ENDROOT
TORSDOF 0
ENDMDL
