MODEL 1
REMARK minimizedAffinity 13.2223616
REMARK minimizedRMSD -1
REMARK  0 active torsions:
REMARK  status: ('A' for Active; 'I' for Inactive)
ROOT
ATOM      1  C   UNL d   1       0.157   0.747   3.658  0.00  0.00     0.078 C 
ATOM      2  C1  UNL d   1       0.726  -0.587   4.039  0.00  0.00    -0.077 A 
ATOM      3  C2  UNL d   1       0.248  -1.283   5.156  0.00  0.00    -0.001 A 
ATOM      4  C3  UNL d   1       0.793  -2.519   5.505  0.00  0.00     0.003 A 
ATOM      5  C4  UNL d   1       1.822  -3.070   4.743  0.00  0.00    -0.005 A 
ATOM      6  C5  UNL d   1       2.306  -2.384   3.631  0.00  0.00     0.003 A 
ATOM      7  C6  UNL d   1       1.762  -1.148   3.280  0.00  0.00    -0.001 A 
ENDROOT
TORSDOF 0
ENDMDL
