MODEL 1
REMARK minimizedAffinity 12.2204447
REMARK minimizedRMSD -1
REMARK  0 active torsions:
REMARK  status: ('A' for Active; 'I' for Inactive)
ROOT
ATOM      1  C   UNL d   1      -4.332   1.052  -5.755  0.00  0.00     0.078 C 
ATOM      2  C1  UNL d   1      -4.077   2.181  -4.802  0.00  0.00    -0.077 A 
ATOM      3  C2  UNL d   1      -3.063   3.115  -5.045  0.00  0.00    -0.001 A 
ATOM      4  C3  UNL d   1      -2.831   4.156  -4.144  0.00  0.00     0.003 A 
ATOM      5  C4  UNL d   1      -3.609   4.272  -2.994  0.00  0.00    -0.005 A 
ATOM      6  C5  UNL d   1      -4.620   3.346  -2.743  0.00  0.00     0.003 A 
ATOM      7  C6  UNL d   1      -4.853   2.305  -3.642  0.00  0.00    -0.001 A 
ENDROOT
TORSDOF 0
ENDMDL
