MODEL 1
REMARK minimizedAffinity 18.9215755
REMARK minimizedRMSD -1
REMARK  0 active torsions:
REMARK  status: ('A' for Active; 'I' for Inactive)
ROOT
ATOM      1  C   UNL d   1      -0.390   0.739   3.240  0.00  0.00     0.078 C 
ATOM      2  C1  UNL d   1      -0.805  -0.430   4.082  0.00  0.00    -0.077 A 
ATOM      3  C2  UNL d   1      -1.957  -1.166   3.777  0.00  0.00    -0.001 A 
ATOM      4  C3  UNL d   1      -2.336  -2.246   4.575  0.00  0.00     0.003 A 
ATOM      5  C4  UNL d   1      -1.570  -2.599   5.685  0.00  0.00    -0.005 A 
ATOM      6  C5  UNL d   1      -0.424  -1.872   5.997  0.00  0.00     0.003 A 
ATOM      7  C6  UNL d   1      -0.043  -0.792   5.200  0.00  0.00    -0.001 A 
ENDROOT
TORSDOF 0
ENDMDL
