MODEL 1
REMARK minimizedAffinity 5.51290131
REMARK minimizedRMSD -1
REMARK  0 active torsions:
REMARK  status: ('A' for Active; 'I' for Inactive)
ROOT
ATOM      1  C   UNL d   1       0.348   1.014   3.331  0.00  0.00     0.078 C 
ATOM      2  C1  UNL d   1      -0.016   1.814   2.116  0.00  0.00    -0.077 A 
ATOM      3  C2  UNL d   1       0.951   2.163   1.165  0.00  0.00    -0.001 A 
ATOM      4  C3  UNL d   1       0.600   2.917   0.044  0.00  0.00     0.003 A 
ATOM      5  C4  UNL d   1      -0.719   3.329  -0.137  0.00  0.00    -0.005 A 
ATOM      6  C5  UNL d   1      -1.688   2.988   0.804  0.00  0.00     0.003 A 
ATOM      7  C6  UNL d   1      -1.339   2.235   1.926  0.00  0.00    -0.001 A 
ENDROOT
TORSDOF 0
ENDMDL
