MODEL 1
REMARK minimizedAffinity 9.15798569
REMARK minimizedRMSD -1
REMARK  0 active torsions:
REMARK  status: ('A' for Active; 'I' for Inactive)
ROOT
ATOM      1  C   UNL d   1      -0.747  -4.869  -3.016  0.00  0.00     0.078 C 
ATOM      2  C1  UNL d   1       0.305  -4.878  -1.948  0.00  0.00    -0.077 A 
ATOM      3  C2  UNL d   1       1.118  -6.000  -1.746  0.00  0.00    -0.001 A 
ATOM      4  C3  UNL d   1       2.087  -5.998  -0.741  0.00  0.00     0.003 A 
ATOM      5  C4  UNL d   1       2.251  -4.878   0.071  0.00  0.00    -0.005 A 
ATOM      6  C5  UNL d   1       1.445  -3.758  -0.121  0.00  0.00     0.003 A 
ATOM      7  C6  UNL d   1       0.476  -3.757  -1.125  0.00  0.00    -0.001 A 
ENDROOT
TORSDOF 0
ENDMDL
