MODEL 1
REMARK minimizedAffinity 8.39833355
REMARK minimizedRMSD -1
REMARK  0 active torsions:
REMARK  status: ('A' for Active; 'I' for Inactive)
ROOT
ATOM      1  C   UNL d   1       5.965  -5.942  -3.707  0.00  0.00     0.078 C 
ATOM      2  C1  UNL d   1       5.978  -5.221  -2.392  0.00  0.00    -0.077 A 
ATOM      3  C2  UNL d   1       5.959  -5.927  -1.182  0.00  0.00    -0.001 A 
ATOM      4  C3  UNL d   1       5.962  -5.242   0.034  0.00  0.00     0.003 A 
ATOM      5  C4  UNL d   1       5.983  -3.849   0.053  0.00  0.00    -0.005 A 
ATOM      6  C5  UNL d   1       6.000  -3.139  -1.145  0.00  0.00     0.003 A 
ATOM      7  C6  UNL d   1       5.997  -3.821  -2.363  0.00  0.00    -0.001 A 
ENDROOT
TORSDOF 0
ENDMDL
