MODEL 1
REMARK minimizedAffinity 8.70836735
REMARK minimizedRMSD -1
REMARK  0 active torsions:
REMARK  status: ('A' for Active; 'I' for Inactive)
ROOT
ATOM      1  C   UNL d   1       1.722   4.330  -2.528  0.00  0.00     0.078 C 
ATOM      2  C1  UNL d   1       0.971   3.440  -1.584  0.00  0.00    -0.077 A 
ATOM      3  C2  UNL d   1       1.542   2.258  -1.098  0.00  0.00    -0.001 A 
ATOM      4  C3  UNL d   1       0.827   1.434  -0.227  0.00  0.00     0.003 A 
ATOM      5  C4  UNL d   1      -0.464   1.783   0.164  0.00  0.00    -0.005 A 
ATOM      6  C5  UNL d   1      -1.042   2.957  -0.316  0.00  0.00     0.003 A 
ATOM      7  C6  UNL d   1      -0.328   3.782  -1.187  0.00  0.00    -0.001 A 
ENDROOT
TORSDOF 0
ENDMDL
