MODEL 1
REMARK minimizedAffinity -0.935744047
REMARK minimizedRMSD -1
REMARK  0 active torsions:
REMARK  status: ('A' for Active; 'I' for Inactive)
ROOT
ATOM      1  N1  IND d   1       4.188  -5.912  -2.251  0.00  0.00    -0.196 N 
ATOM      2  C2  IND d   1       3.073  -5.940  -1.461  0.00  0.00     0.054 A 
ATOM      3  C3  IND d   1       1.956  -5.939  -2.223  0.00  0.00    -0.031 A 
ATOM      4  C4  IND d   1       1.725  -5.998  -4.786  0.00  0.00     0.051 A 
ATOM      5  C5  IND d   1       2.462  -5.947  -5.936  0.00  0.00    -0.031 A 
ATOM      6  C6  IND d   1       3.841  -5.882  -5.916  0.00  0.00     0.015 A 
ATOM      7  C7  IND d   1       4.536  -5.878  -4.740  0.00  0.00    -0.016 A 
ATOM      8  C8  IND d   1       3.791  -5.924  -3.570  0.00  0.00    -0.047 A 
ATOM      9  C9  IND d   1       2.390  -5.946  -3.584  0.00  0.00    -0.096 A 
ATOM     10  HN1 IND d   1       5.001  -5.891  -1.972  0.00  0.00     0.298 HD
ENDROOT
TORSDOF 0
ENDMDL
