MODEL 1
REMARK minimizedAffinity 6.31311893
REMARK minimizedRMSD -1
REMARK  0 active torsions:
REMARK  status: ('A' for Active; 'I' for Inactive)
ROOT
ATOM      1  N1  IND d   1      -4.656   2.652   1.471  0.00  0.00    -0.196 N 
ATOM      2  C2  IND d   1      -5.674   3.380   0.921  0.00  0.00     0.054 A 
ATOM      3  C3  IND d   1      -5.516   3.471  -0.419  0.00  0.00    -0.031 A 
ATOM      4  C4  IND d   1      -3.718   2.416  -1.929  0.00  0.00     0.051 A 
ATOM      5  C5  IND d   1      -2.558   1.695  -1.881  0.00  0.00    -0.031 A 
ATOM      6  C6  IND d   1      -2.029   1.244  -0.689  0.00  0.00     0.015 A 
ATOM      7  C7  IND d   1      -2.649   1.490   0.504  0.00  0.00    -0.016 A 
ATOM      8  C8  IND d   1      -3.823   2.228   0.459  0.00  0.00    -0.047 A 
ATOM      9  C9  IND d   1      -4.342   2.724  -0.744  0.00  0.00    -0.096 A 
ATOM     10  HN1 IND d   1      -4.553   2.486   2.309  0.00  0.00     0.298 HD
ENDROOT
TORSDOF 0
ENDMDL
