MODEL 1
REMARK minimizedAffinity -0.688374698
REMARK minimizedRMSD -1
REMARK  0 active torsions:
REMARK  status: ('A' for Active; 'I' for Inactive)
ROOT
ATOM      1  N1  IND d   1       5.634  -5.932  -2.290  0.00  0.00    -0.196 N 
ATOM      2  C2  IND d   1       4.514  -5.925  -1.506  0.00  0.00     0.054 A 
ATOM      3  C3  IND d   1       3.402  -5.911  -2.276  0.00  0.00    -0.031 A 
ATOM      4  C4  IND d   1       3.186  -6.000  -4.839  0.00  0.00     0.051 A 
ATOM      5  C5  IND d   1       3.932  -5.980  -5.984  0.00  0.00    -0.031 A 
ATOM      6  C6  IND d   1       5.311  -5.945  -5.956  0.00  0.00     0.015 A 
ATOM      7  C7  IND d   1       5.999  -5.940  -4.776  0.00  0.00    -0.016 A 
ATOM      8  C8  IND d   1       5.245  -5.953  -3.611  0.00  0.00    -0.047 A 
ATOM      9  C9  IND d   1       3.844  -5.946  -3.634  0.00  0.00    -0.096 A 
ATOM     10  HN1 IND d   1       6.445  -5.925  -2.005  0.00  0.00     0.298 HD
ENDROOT
TORSDOF 0
ENDMDL
