MODEL 1
REMARK minimizedAffinity 1.06443107
REMARK minimizedRMSD -1
REMARK  0 active torsions:
REMARK  status: ('A' for Active; 'I' for Inactive)
ROOT
ATOM      1  N1  IND d   1       1.621  -5.998  -4.360  0.00  0.00    -0.196 N 
ATOM      2  C2  IND d   1       1.839  -5.964  -5.709  0.00  0.00     0.054 A 
ATOM      3  C3  IND d   1       3.164  -5.907  -5.970  0.00  0.00    -0.031 A 
ATOM      4  C4  IND d   1       5.156  -5.961  -4.340  0.00  0.00     0.051 A 
ATOM      5  C5  IND d   1       5.458  -5.951  -3.007  0.00  0.00    -0.031 A 
ATOM      6  C6  IND d   1       4.477  -5.959  -2.038  0.00  0.00     0.015 A 
ATOM      7  C7  IND d   1       3.151  -5.989  -2.366  0.00  0.00    -0.016 A 
ATOM      8  C8  IND d   1       2.841  -5.992  -3.719  0.00  0.00    -0.047 A 
ATOM      9  C9  IND d   1       3.832  -5.941  -4.707  0.00  0.00    -0.096 A 
ATOM     10  HN1 IND d   1       0.852  -6.018  -3.976  0.00  0.00     0.298 HD
ENDROOT
TORSDOF 0
ENDMDL
