MODEL 1
REMARK minimizedAffinity 3.11904907
REMARK minimizedRMSD -1
REMARK  0 active torsions:
REMARK  status: ('A' for Active; 'I' for Inactive)
ROOT
ATOM      1  N1  IND d   1       5.887  -5.928  -4.551  0.00  0.00    -0.196 N 
ATOM      2  C2  IND d   1       5.525  -5.943  -5.869  0.00  0.00     0.054 A 
ATOM      3  C3  IND d   1       4.179  -5.998  -5.986  0.00  0.00    -0.031 A 
ATOM      4  C4  IND d   1       2.375  -5.967  -4.150  0.00  0.00     0.051 A 
ATOM      5  C5  IND d   1       2.219  -5.995  -2.792  0.00  0.00    -0.031 A 
ATOM      6  C6  IND d   1       3.300  -5.999  -1.934  0.00  0.00     0.015 A 
ATOM      7  C7  IND d   1       4.582  -5.964  -2.404  0.00  0.00    -0.016 A 
ATOM      8  C8  IND d   1       4.744  -5.943  -3.782  0.00  0.00    -0.047 A 
ATOM      9  C9  IND d   1       3.652  -5.982  -4.658  0.00  0.00    -0.096 A 
ATOM     10  HN1 IND d   1       6.693  -5.912  -4.252  0.00  0.00     0.298 HD
ENDROOT
TORSDOF 0
ENDMDL
