MODEL 1
REMARK minimizedAffinity 16.2772045
REMARK minimizedRMSD -1
REMARK  0 active torsions:
REMARK  status: ('A' for Active; 'I' for Inactive)
ROOT
ATOM      1  N1  IND d   1      -4.739   2.889   1.499  0.00  0.00    -0.196 N 
ATOM      2  C2  IND d   1      -6.000   3.015   0.985  0.00  0.00     0.054 A 
ATOM      3  C3  IND d   1      -5.999   2.737  -0.338  0.00  0.00    -0.031 A 
ATOM      4  C4  IND d   1      -4.062   1.954  -1.843  0.00  0.00     0.051 A 
ATOM      5  C5  IND d   1      -2.714   1.729  -1.834  0.00  0.00    -0.031 A 
ATOM      6  C6  IND d   1      -1.958   1.879  -0.690  0.00  0.00     0.015 A 
ATOM      7  C7  IND d   1      -2.525   2.251   0.496  0.00  0.00    -0.016 A 
ATOM      8  C8  IND d   1      -3.893   2.488   0.489  0.00  0.00    -0.047 A 
ATOM      9  C9  IND d   1      -4.659   2.378  -0.679  0.00  0.00    -0.096 A 
ATOM     10  HN1 IND d   1      -4.513   3.036   2.315  0.00  0.00     0.298 HD
ENDROOT
TORSDOF 0
ENDMDL
