MODEL 1
REMARK minimizedAffinity 0.26364243
REMARK minimizedRMSD -1
REMARK  0 active torsions:
REMARK  status: ('A' for Active; 'I' for Inactive)
ROOT
ATOM      1  N1  IND d   1       3.896   0.582  -2.573  0.00  0.00    -0.196 N 
ATOM      2  C2  IND d   1       4.201  -0.457  -1.739  0.00  0.00     0.054 A 
ATOM      3  C3  IND d   1       4.995  -1.350  -2.371  0.00  0.00    -0.031 A 
ATOM      4  C4  IND d   1       6.000  -1.257  -4.740  0.00  0.00     0.051 A 
ATOM      5  C5  IND d   1       5.977  -0.520  -5.891  0.00  0.00    -0.031 A 
ATOM      6  C6  IND d   1       5.248   0.646  -5.996  0.00  0.00     0.015 A 
ATOM      7  C7  IND d   1       4.519   1.128  -4.946  0.00  0.00    -0.016 A 
ATOM      8  C8  IND d   1       4.534   0.379  -3.778  0.00  0.00    -0.047 A 
ATOM      9  C9  IND d   1       5.238  -0.828  -3.678  0.00  0.00    -0.096 A 
ATOM     10  HN1 IND d   1       3.391   1.251  -2.379  0.00  0.00     0.298 HD
ENDROOT
TORSDOF 0
ENDMDL
