MODEL 1
REMARK minimizedAffinity -5.14135218
REMARK minimizedRMSD -1
REMARK  0 active torsions:
REMARK  status: ('A' for Active; 'I' for Inactive)
ROOT
ATOM      1  C1  BNZ d   1      -1.710   3.043   1.166  0.00  0.00     0.000 A 
ATOM      2  C2  BNZ d   1      -1.956   1.729   1.462  0.00  0.00     0.000 A 
ATOM      3  C3  BNZ d   1      -1.451   0.729   0.679  0.00  0.00     0.000 A 
ATOM      4  C4  BNZ d   1      -0.734   1.044  -0.419  0.00  0.00     0.000 A 
ATOM      5  C5  BNZ d   1      -0.485   2.364  -0.736  0.00  0.00     0.000 A 
ATOM      6  C6  BNZ d   1      -0.963   3.367   0.076  0.00  0.00     0.000 A 
ENDROOT
TORSDOF 0
ENDMDL
