MODEL 1
REMARK minimizedAffinity -2.34511852
REMARK minimizedRMSD -1
REMARK  0 active torsions:
REMARK  status: ('A' for Active; 'I' for Inactive)
ROOT
ATOM      1  C1  BNZ d   1       0.189   0.387   0.099  0.00  0.00     0.000 A 
ATOM      2  C2  BNZ d   1      -0.409   1.554   0.492  0.00  0.00     0.000 A 
ATOM      3  C3  BNZ d   1      -1.179   1.600   1.621  0.00  0.00     0.000 A 
ATOM      4  C4  BNZ d   1      -1.382   0.472   2.332  0.00  0.00     0.000 A 
ATOM      5  C5  BNZ d   1      -0.793  -0.714   1.943  0.00  0.00     0.000 A 
ATOM      6  C6  BNZ d   1       0.013  -0.748   0.828  0.00  0.00     0.000 A 
ENDROOT
TORSDOF 0
ENDMDL
