MODEL 1
REMARK minimizedAffinity -4.21888399
REMARK minimizedRMSD -1
REMARK  0 active torsions:
REMARK  status: ('A' for Active; 'I' for Inactive)
ROOT
ATOM      1  C1  BNZ d   1      -1.521   3.241   1.378  0.00  0.00     0.000 A 
ATOM      2  C2  BNZ d   1      -1.704   1.888   1.482  0.00  0.00     0.000 A 
ATOM      3  C3  BNZ d   1      -1.190   1.038   0.543  0.00  0.00     0.000 A 
ATOM      4  C4  BNZ d   1      -0.528   1.544  -0.518  0.00  0.00     0.000 A 
ATOM      5  C5  BNZ d   1      -0.343   2.906  -0.642  0.00  0.00     0.000 A 
ATOM      6  C6  BNZ d   1      -0.829   3.756   0.325  0.00  0.00     0.000 A 
ENDROOT
TORSDOF 0
ENDMDL
