MODEL 1
REMARK minimizedAffinity -4.75706148
REMARK minimizedRMSD -1
REMARK  0 active torsions:
REMARK  status: ('A' for Active; 'I' for Inactive)
ROOT
ATOM      1  C1  BNZ d   1      -0.143  -0.003   1.717  0.00  0.00     0.000 A 
ATOM      2  C2  BNZ d   1      -1.088   0.836   2.243  0.00  0.00     0.000 A 
ATOM      3  C3  BNZ d   1      -1.659   1.814   1.477  0.00  0.00     0.000 A 
ATOM      4  C4  BNZ d   1      -1.254   1.978   0.201  0.00  0.00     0.000 A 
ATOM      5  C5  BNZ d   1      -0.295   1.146  -0.340  0.00  0.00     0.000 A 
ATOM      6  C6  BNZ d   1       0.249   0.137   0.421  0.00  0.00     0.000 A 
ENDROOT
TORSDOF 0
ENDMDL
