MODEL 1
REMARK minimizedAffinity -4.80577803
REMARK minimizedRMSD -1
REMARK  0 active torsions:
REMARK  status: ('A' for Active; 'I' for Inactive)
ROOT
ATOM      1  C1  BNZ d   1      -2.412   2.770   1.120  0.00  0.00     0.000 A 
ATOM      2  C2  BNZ d   1      -2.970   1.542   1.362  0.00  0.00     0.000 A 
ATOM      3  C3  BNZ d   1      -2.213   0.406   1.303  0.00  0.00     0.000 A 
ATOM      4  C4  BNZ d   1      -0.910   0.494   0.964  0.00  0.00     0.000 A 
ATOM      5  C5  BNZ d   1      -0.336   1.723   0.709  0.00  0.00     0.000 A 
ATOM      6  C6  BNZ d   1      -1.092   2.868   0.807  0.00  0.00     0.000 A 
ENDROOT
TORSDOF 0
ENDMDL
