MODEL 1
REMARK minimizedAffinity -5.27657509
REMARK minimizedRMSD -1
REMARK  0 active torsions:
REMARK  status: ('A' for Active; 'I' for Inactive)
ROOT
ATOM      1  C1  BNZ d   1      -0.433   1.144  -0.425  0.00  0.00     0.000 A 
ATOM      2  C2  BNZ d   1      -0.925   0.796   0.805  0.00  0.00     0.000 A 
ATOM      3  C3  BNZ d   1      -1.377   1.750   1.673  0.00  0.00     0.000 A 
ATOM      4  C4  BNZ d   1      -1.299   3.051   1.328  0.00  0.00     0.000 A 
ATOM      5  C5  BNZ d   1      -0.796   3.418   0.095  0.00  0.00     0.000 A 
ATOM      6  C6  BNZ d   1      -0.378   2.453  -0.792  0.00  0.00     0.000 A 
ENDROOT
TORSDOF 0
ENDMDL
