MODEL 1
REMARK minimizedAffinity -4.01513815
REMARK minimizedRMSD -1
REMARK  0 active torsions:
REMARK  status: ('A' for Active; 'I' for Inactive)
ROOT
ATOM      1  C1  BNZ d   1      -0.240   0.851  -0.042  0.00  0.00     0.000 A 
ATOM      2  C2  BNZ d   1      -0.912   1.987   0.324  0.00  0.00     0.000 A 
ATOM      3  C3  BNZ d   1      -1.678   2.013   1.456  0.00  0.00     0.000 A 
ATOM      4  C4  BNZ d   1      -1.804   0.893   2.197  0.00  0.00     0.000 A 
ATOM      5  C5  BNZ d   1      -1.141  -0.263   1.835  0.00  0.00     0.000 A 
ATOM      6  C6  BNZ d   1      -0.339  -0.274   0.717  0.00  0.00     0.000 A 
ENDROOT
TORSDOF 0
ENDMDL
