MODEL 1
REMARK minimizedAffinity -4.55395269
REMARK minimizedRMSD -1
REMARK  0 active torsions:
REMARK  status: ('A' for Active; 'I' for Inactive)
ROOT
ATOM      1  C1  BNZ d   1      -1.904   3.733   0.303  0.00  0.00     0.000 A 
ATOM      2  C2  BNZ d   1      -2.177   3.180   1.526  0.00  0.00     0.000 A 
ATOM      3  C3  BNZ d   1      -1.837   1.885   1.799  0.00  0.00     0.000 A 
ATOM      4  C4  BNZ d   1      -1.260   1.133   0.839  0.00  0.00     0.000 A 
ATOM      5  C5  BNZ d   1      -0.987   1.674  -0.401  0.00  0.00     0.000 A 
ATOM      6  C6  BNZ d   1      -1.295   2.990  -0.661  0.00  0.00     0.000 A 
ENDROOT
TORSDOF 0
ENDMDL
