MODEL 1
REMARK minimizedAffinity -4.49777317
REMARK minimizedRMSD -1
REMARK  0 active torsions:
REMARK  status: ('A' for Active; 'I' for Inactive)
ROOT
ATOM      1  C1  BNZ d   1      -1.505   3.138   0.100  0.00  0.00     0.000 A 
ATOM      2  C2  BNZ d   1      -2.153   2.725   1.233  0.00  0.00     0.000 A 
ATOM      3  C3  BNZ d   1      -1.921   1.485   1.760  0.00  0.00     0.000 A 
ATOM      4  C4  BNZ d   1      -1.073   0.646   1.131  0.00  0.00     0.000 A 
ATOM      5  C5  BNZ d   1      -0.419   1.044  -0.019  0.00  0.00     0.000 A 
ATOM      6  C6  BNZ d   1      -0.626   2.307  -0.524  0.00  0.00     0.000 A 
ENDROOT
TORSDOF 0
ENDMDL
