MODEL 1
REMARK minimizedAffinity -5.14981699
REMARK minimizedRMSD -1
REMARK  0 active torsions:
REMARK  status: ('A' for Active; 'I' for Inactive)
ROOT
ATOM      1  C1  BNZ d   1      -1.151   3.697   0.136  0.00  0.00     0.000 A 
ATOM      2  C2  BNZ d   1      -1.564   3.321   1.386  0.00  0.00     0.000 A 
ATOM      3  C3  BNZ d   1      -1.561   2.005   1.758  0.00  0.00     0.000 A 
ATOM      4  C4  BNZ d   1      -1.185   1.065   0.867  0.00  0.00     0.000 A 
ATOM      5  C5  BNZ d   1      -0.775   1.428  -0.400  0.00  0.00     0.000 A 
ATOM      6  C6  BNZ d   1      -0.741   2.756  -0.758  0.00  0.00     0.000 A 
ENDROOT
TORSDOF 0
ENDMDL
