MODEL 1
REMARK minimizedAffinity -4.46769714
REMARK minimizedRMSD -1
REMARK  0 active torsions:
REMARK  status: ('A' for Active; 'I' for Inactive)
ROOT
ATOM      1  C1  BNZ d   1      -2.014   2.841   1.093  0.00  0.00     0.000 A 
ATOM      2  C2  BNZ d   1      -2.044   1.543   1.529  0.00  0.00     0.000 A 
ATOM      3  C3  BNZ d   1      -1.170   0.618   1.032  0.00  0.00     0.000 A 
ATOM      4  C4  BNZ d   1      -0.296   0.980   0.071  0.00  0.00     0.000 A 
ATOM      5  C5  BNZ d   1      -0.260   2.283  -0.386  0.00  0.00     0.000 A 
ATOM      6  C6  BNZ d   1      -1.115   3.221   0.145  0.00  0.00     0.000 A 
ENDROOT
TORSDOF 0
ENDMDL
