MODEL 1
REMARK minimizedAffinity -4.00965118
REMARK minimizedRMSD -1
REMARK  0 active torsions:
REMARK  status: ('A' for Active; 'I' for Inactive)
ROOT
ATOM      1  C1  BNZ d   1      -1.275   2.231   1.102  0.00  0.00     0.000 A 
ATOM      2  C2  BNZ d   1      -0.867   1.731  -0.106  0.00  0.00     0.000 A 
ATOM      3  C3  BNZ d   1      -0.255   0.512  -0.188  0.00  0.00     0.000 A 
ATOM      4  C4  BNZ d   1      -0.016  -0.188   0.940  0.00  0.00     0.000 A 
ATOM      5  C5  BNZ d   1      -0.413   0.307   2.166  0.00  0.00     0.000 A 
ATOM      6  C6  BNZ d   1      -1.064   1.517   2.241  0.00  0.00     0.000 A 
ENDROOT
TORSDOF 0
ENDMDL
