MODEL 1
REMARK minimizedAffinity -4.91367292
REMARK minimizedRMSD -1
REMARK  0 active torsions:
REMARK  status: ('A' for Active; 'I' for Inactive)
ROOT
ATOM      1  C1  BNZ d   1      -1.250   1.861   1.625  0.00  0.00     0.000 A 
ATOM      2  C2  BNZ d   1      -0.940   3.146   1.265  0.00  0.00     0.000 A 
ATOM      3  C3  BNZ d   1      -0.188   3.399   0.152  0.00  0.00     0.000 A 
ATOM      4  C4  BNZ d   1       0.286   2.367  -0.576  0.00  0.00     0.000 A 
ATOM      5  C5  BNZ d   1      -0.009   1.066  -0.221  0.00  0.00     0.000 A 
ATOM      6  C6  BNZ d   1      -0.799   0.817   0.878  0.00  0.00     0.000 A 
ENDROOT
TORSDOF 0
ENDMDL
