MODEL 1
REMARK minimizedAffinity -3.36451221
REMARK minimizedRMSD -1
REMARK  0 active torsions:
REMARK  status: ('A' for Active; 'I' for Inactive)
ROOT
ATOM      1  C1  BNZ d   1       1.638  -3.039  -1.386  0.00  0.00     0.000 A 
ATOM      2  C2  BNZ d   1       1.569  -1.927  -0.590  0.00  0.00     0.000 A 
ATOM      3  C3  BNZ d   1       0.731  -0.893  -0.904  0.00  0.00     0.000 A 
ATOM      4  C4  BNZ d   1      -0.005  -0.955  -2.032  0.00  0.00     0.000 A 
ATOM      5  C5  BNZ d   1       0.060  -2.065  -2.849  0.00  0.00     0.000 A 
ATOM      6  C6  BNZ d   1       0.875  -3.121  -2.510  0.00  0.00     0.000 A 
ENDROOT
TORSDOF 0
ENDMDL
