MODEL 1
REMARK minimizedAffinity -4.04779339
REMARK minimizedRMSD -1
REMARK  0 active torsions:
REMARK  status: ('A' for Active; 'I' for Inactive)
ROOT
ATOM      1  C1  BNZ d   1      -1.312   1.618   0.104  0.00  0.00     0.000 A 
ATOM      2  C2  BNZ d   1      -0.500   0.575  -0.254  0.00  0.00     0.000 A 
ATOM      3  C3  BNZ d   1      -0.333  -0.498   0.576  0.00  0.00     0.000 A 
ATOM      4  C4  BNZ d   1      -0.946  -0.509   1.778  0.00  0.00     0.000 A 
ATOM      5  C5  BNZ d   1      -1.760   0.540   2.157  0.00  0.00     0.000 A 
ATOM      6  C6  BNZ d   1      -1.956   1.600   1.302  0.00  0.00     0.000 A 
ENDROOT
TORSDOF 0
ENDMDL
