MODEL 1
REMARK minimizedAffinity -4.4227128
REMARK minimizedRMSD -1
REMARK  0 active torsions:
REMARK  status: ('A' for Active; 'I' for Inactive)
ROOT
ATOM      1  C1  BNZ d   1      -1.476   3.024   1.147  0.00  0.00     0.000 A 
ATOM      2  C2  BNZ d   1      -1.544   1.722   1.564  0.00  0.00     0.000 A 
ATOM      3  C3  BNZ d   1      -0.806   0.750   0.948  0.00  0.00     0.000 A 
ATOM      4  C4  BNZ d   1      -0.033   1.075  -0.108  0.00  0.00     0.000 A 
ATOM      5  C5  BNZ d   1       0.039   2.383  -0.547  0.00  0.00     0.000 A 
ATOM      6  C6  BNZ d   1      -0.676   3.364   0.101  0.00  0.00     0.000 A 
ENDROOT
TORSDOF 0
ENDMDL
