MODEL 1
REMARK minimizedAffinity -2.08283019
REMARK minimizedRMSD -1
REMARK  0 active torsions:
REMARK  status: ('A' for Active; 'I' for Inactive)
ROOT
ATOM      1  C   UNL d   1       1.181   0.621  -4.157  0.00  0.00     0.124 A 
ATOM      2  C1  UNL d   1       1.487   0.510  -2.808  0.00  0.00     0.062 A 
ATOM      3  C2  UNL d   1       0.769  -0.364  -1.996  0.00  0.00     0.162 A 
ATOM      4  C3  UNL d   1      -0.263  -1.134  -2.532  0.00  0.00    -0.034 A 
ATOM      5  C4  UNL d   1      -0.566  -1.016  -3.890  0.00  0.00     0.162 A 
ATOM      6  C5  UNL d   1       0.155  -0.142  -4.697  0.00  0.00     0.062 A 
ATOM      7  F   UNL d   1      -0.143  -0.035  -6.000  0.00  0.00    -0.097 F 
ATOM      8  F1  UNL d   1      -1.552  -1.742  -4.438  0.00  0.00    -0.096 F 
ATOM      9  I   UNL d   1      -1.340  -2.441  -1.323  0.00  0.00    -0.060 I 
ATOM     10  F2  UNL d   1       1.087  -0.451  -0.696  0.00  0.00    -0.096 F 
ATOM     11  F3  UNL d   1       2.478   1.246  -2.283  0.00  0.00    -0.097 F 
ATOM     12  F4  UNL d   1       1.873   1.463  -4.935  0.00  0.00    -0.092 F 
ENDROOT
TORSDOF 0
ENDMDL
