MODEL 1
REMARK minimizedAffinity -1.00837541
REMARK minimizedRMSD -1
REMARK  0 active torsions:
REMARK  status: ('A' for Active; 'I' for Inactive)
ROOT
ATOM      1  C   UNL d   1       0.352   1.033   1.941  0.00  0.00     0.124 A 
ATOM      2  C1  UNL d   1      -0.957   0.871   1.509  0.00  0.00     0.062 A 
ATOM      3  C2  UNL d   1      -1.251  -0.034   0.493  0.00  0.00     0.162 A 
ATOM      4  C3  UNL d   1      -0.235  -0.784  -0.098  0.00  0.00    -0.034 A 
ATOM      5  C4  UNL d   1       1.079  -0.615   0.342  0.00  0.00     0.162 A 
ATOM      6  C5  UNL d   1       1.369   0.290   1.357  0.00  0.00     0.062 A 
ATOM      7  F   UNL d   1       2.634   0.445   1.774  0.00  0.00    -0.097 F 
ATOM      8  F1  UNL d   1       2.081  -1.321  -0.204  0.00  0.00    -0.096 F 
ATOM      9  I   UNL d   1      -0.671  -2.138  -1.617  0.00  0.00    -0.060 I 
ATOM     10  F2  UNL d   1      -2.525  -0.170   0.095  0.00  0.00    -0.096 F 
ATOM     11  F3  UNL d   1      -1.940   1.588   2.071  0.00  0.00    -0.097 F 
ATOM     12  F4  UNL d   1       0.633   1.905   2.918  0.00  0.00    -0.092 F 
ENDROOT
TORSDOF 0
ENDMDL
