MODEL 1
REMARK minimizedAffinity 1.55446756
REMARK minimizedRMSD -1
REMARK  0 active torsions:
REMARK  status: ('A' for Active; 'I' for Inactive)
ROOT
ATOM      1  C   UNL d   1       0.103   0.224  -0.026  0.00  0.00     0.124 A 
ATOM      2  C1  UNL d   1      -0.821   0.108   1.004  0.00  0.00     0.062 A 
ATOM      3  C2  UNL d   1      -1.881  -0.787   0.896  0.00  0.00     0.162 A 
ATOM      4  C3  UNL d   1      -2.024  -1.574  -0.246  0.00  0.00    -0.034 A 
ATOM      5  C4  UNL d   1      -1.092  -1.452  -1.278  0.00  0.00     0.162 A 
ATOM      6  C5  UNL d   1      -0.033  -0.556  -1.165  0.00  0.00     0.062 A 
ATOM      7  F   UNL d   1       0.858  -0.446  -2.161  0.00  0.00    -0.097 F 
ATOM      8  F1  UNL d   1      -1.199  -2.194  -2.390  0.00  0.00    -0.096 F 
ATOM      9  I   UNL d   1      -3.608  -2.914  -0.412  0.00  0.00    -0.060 I 
ATOM     10  F2  UNL d   1      -2.759  -0.877   1.906  0.00  0.00    -0.096 F 
ATOM     11  F3  UNL d   1      -0.692   0.861   2.106  0.00  0.00    -0.097 F 
ATOM     12  F4  UNL d   1       1.122   1.086   0.081  0.00  0.00    -0.092 F 
ENDROOT
TORSDOF 0
ENDMDL
