MODEL 1
REMARK minimizedAffinity 3.37587714
REMARK minimizedRMSD -1
REMARK  0 active torsions:
REMARK  status: ('A' for Active; 'I' for Inactive)
ROOT
ATOM      1  C   UNL d   1       1.166   0.400   1.452  0.00  0.00     0.124 A 
ATOM      2  C1  UNL d   1      -0.120   0.882   1.244  0.00  0.00     0.062 A 
ATOM      3  C2  UNL d   1      -1.018   0.164   0.460  0.00  0.00     0.162 A 
ATOM      4  C3  UNL d   1      -0.635  -1.045  -0.122  0.00  0.00    -0.034 A 
ATOM      5  C4  UNL d   1       0.659  -1.522   0.091  0.00  0.00     0.162 A 
ATOM      6  C5  UNL d   1       1.554  -0.801   0.875  0.00  0.00     0.062 A 
ATOM      7  F   UNL d   1       2.795  -1.268   1.075  0.00  0.00    -0.097 F 
ATOM      8  F1  UNL d   1       1.061  -2.681  -0.453  0.00  0.00    -0.096 F 
ATOM      9  I   UNL d   1      -1.976  -2.121  -1.294  0.00  0.00    -0.060 I 
ATOM     10  F2  UNL d   1      -2.253   0.653   0.276  0.00  0.00    -0.096 F 
ATOM     11  F3  UNL d   1      -0.497   2.043   1.799  0.00  0.00    -0.097 F 
ATOM     12  F4  UNL d   1       2.028   1.094   2.206  0.00  0.00    -0.092 F 
ENDROOT
TORSDOF 0
ENDMDL
