MODEL 1
REMARK minimizedAffinity 8.14647865
REMARK minimizedRMSD -1
REMARK  0 active torsions:
REMARK  status: ('A' for Active; 'I' for Inactive)
ROOT
ATOM      1  C   UNL d   1       1.591   0.507  -3.778  0.00  0.00     0.124 A 
ATOM      2  C1  UNL d   1       0.508   1.238  -3.308  0.00  0.00     0.062 A 
ATOM      3  C2  UNL d   1       0.109   1.123  -1.979  0.00  0.00     0.162 A 
ATOM      4  C3  UNL d   1       0.795   0.275  -1.110  0.00  0.00    -0.034 A 
ATOM      5  C4  UNL d   1       1.882  -0.458  -1.590  0.00  0.00     0.162 A 
ATOM      6  C5  UNL d   1       2.276  -0.340  -2.918  0.00  0.00     0.062 A 
ATOM      7  F   UNL d   1       3.322  -1.047  -3.370  0.00  0.00    -0.097 F 
ATOM      8  F1  UNL d   1       2.563  -1.283  -0.781  0.00  0.00    -0.096 F 
ATOM      9  I   UNL d   1       0.202   0.101   0.878  0.00  0.00    -0.060 I 
ATOM     10  F2  UNL d   1      -0.940   1.841  -1.553  0.00  0.00    -0.096 F 
ATOM     11  F3  UNL d   1      -0.157   2.056  -4.136  0.00  0.00    -0.097 F 
ATOM     12  F4  UNL d   1       1.971   0.619  -5.057  0.00  0.00    -0.092 F 
ENDROOT
TORSDOF 0
ENDMDL
