MODEL 1
REMARK minimizedAffinity 2.5260818
REMARK minimizedRMSD -1
REMARK  0 active torsions:
REMARK  status: ('A' for Active; 'I' for Inactive)
ROOT
ATOM      1  C   UNL d   1       0.536   1.068   2.160  0.00  0.00     0.124 A 
ATOM      2  C1  UNL d   1      -0.848   1.148   2.095  0.00  0.00     0.062 A 
ATOM      3  C2  UNL d   1      -1.564   0.259   1.299  0.00  0.00     0.162 A 
ATOM      4  C3  UNL d   1      -0.897  -0.719   0.562  0.00  0.00    -0.034 A 
ATOM      5  C4  UNL d   1       0.495  -0.793   0.631  0.00  0.00     0.162 A 
ATOM      6  C5  UNL d   1       1.206   0.098   1.429  0.00  0.00     0.062 A 
ATOM      7  F   UNL d   1       2.544   0.018   1.490  0.00  0.00    -0.097 F 
ATOM      8  F1  UNL d   1       1.168  -1.722  -0.065  0.00  0.00    -0.096 F 
ATOM      9  I   UNL d   1      -1.965  -2.050  -0.630  0.00  0.00    -0.060 I 
ATOM     10  F2  UNL d   1      -2.901   0.360   1.255  0.00  0.00    -0.096 F 
ATOM     11  F3  UNL d   1      -1.497   2.085   2.801  0.00  0.00    -0.097 F 
ATOM     12  F4  UNL d   1       1.223   1.925   2.927  0.00  0.00    -0.092 F 
ENDROOT
TORSDOF 0
ENDMDL
