MODEL 1
REMARK minimizedAffinity 7.4302125
REMARK minimizedRMSD -1
REMARK  0 active torsions:
REMARK  status: ('A' for Active; 'I' for Inactive)
ROOT
ATOM      1  C   UNL d   1      -1.529  -0.048   0.427  0.00  0.00     0.124 A 
ATOM      2  C1  UNL d   1      -0.363  -0.479  -0.189  0.00  0.00     0.062 A 
ATOM      3  C2  UNL d   1       0.844  -0.456   0.503  0.00  0.00     0.162 A 
ATOM      4  C3  UNL d   1       0.891  -0.000   1.820  0.00  0.00    -0.034 A 
ATOM      5  C4  UNL d   1      -0.286   0.433   2.433  0.00  0.00     0.162 A 
ATOM      6  C5  UNL d   1      -1.490   0.408   1.737  0.00  0.00     0.062 A 
ATOM      7  F   UNL d   1      -2.616   0.825   2.334  0.00  0.00    -0.097 F 
ATOM      8  F1  UNL d   1      -0.276   0.877   3.699  0.00  0.00    -0.096 F 
ATOM      9  I   UNL d   1       2.695   0.036   2.859  0.00  0.00    -0.060 I 
ATOM     10  F2  UNL d   1       1.956  -0.879  -0.118  0.00  0.00    -0.096 F 
ATOM     11  F3  UNL d   1      -0.399  -0.919  -1.456  0.00  0.00    -0.097 F 
ATOM     12  F4  UNL d   1      -2.690  -0.070  -0.242  0.00  0.00    -0.092 F 
ENDROOT
TORSDOF 0
ENDMDL
