MODEL 1
REMARK minimizedAffinity 3.14925981
REMARK minimizedRMSD -1
REMARK  0 active torsions:
REMARK  status: ('A' for Active; 'I' for Inactive)
ROOT
ATOM      1  N1  IND d   1       1.876   1.756  -5.479  0.00  0.00    -0.196 N 
ATOM      2  C2  IND d   1       1.655   3.001  -6.000  0.00  0.00     0.054 A 
ATOM      3  C3  IND d   1       0.376   3.382  -5.782  0.00  0.00    -0.031 A 
ATOM      4  C4  IND d   1      -1.497   2.165  -4.502  0.00  0.00     0.051 A 
ATOM      5  C5  IND d   1      -1.784   0.983  -3.879  0.00  0.00    -0.031 A 
ATOM      6  C6  IND d   1      -0.845  -0.020  -3.751  0.00  0.00     0.015 A 
ATOM      7  C7  IND d   1       0.424   0.126  -4.236  0.00  0.00    -0.016 A 
ATOM      8  C8  IND d   1       0.716   1.321  -4.876  0.00  0.00    -0.047 A 
ATOM      9  C9  IND d   1      -0.245   2.327  -5.046  0.00  0.00    -0.096 A 
ATOM     10  HN1 IND d   1       2.615   1.319  -5.522  0.00  0.00     0.298 HD
ENDROOT
TORSDOF 0
ENDMDL
