MODEL 1
REMARK minimizedAffinity 3.91770101
REMARK minimizedRMSD -1
REMARK  0 active torsions:
REMARK  status: ('A' for Active; 'I' for Inactive)
ROOT
ATOM      1  N1  IND d   1       1.529  -3.778   0.035  0.00  0.00    -0.196 N 
ATOM      2  C2  IND d   1       2.564  -2.919  -0.208  0.00  0.00     0.054 A 
ATOM      3  C3  IND d   1       2.312  -1.711   0.345  0.00  0.00    -0.031 A 
ATOM      4  C4  IND d   1       0.312  -0.954   1.779  0.00  0.00     0.051 A 
ATOM      5  C5  IND d   1      -0.902  -1.377   2.243  0.00  0.00    -0.031 A 
ATOM      6  C6  IND d   1      -1.376  -2.648   1.991  0.00  0.00     0.015 A 
ATOM      7  C7  IND d   1      -0.645  -3.552   1.273  0.00  0.00    -0.016 A 
ATOM      8  C8  IND d   1       0.585  -3.124   0.795  0.00  0.00    -0.047 A 
ATOM      9  C9  IND d   1       1.053  -1.821   1.011  0.00  0.00    -0.096 A 
ATOM     10  HN1 IND d   1       1.477  -4.591  -0.241  0.00  0.00     0.298 HD
ENDROOT
TORSDOF 0
ENDMDL
