MODEL 1
REMARK minimizedAffinity -3.02337503
REMARK minimizedRMSD -1
REMARK  0 active torsions:
REMARK  status: ('A' for Active; 'I' for Inactive)
ROOT
ATOM      1  N1  IND d   1      -4.173   3.958  -3.901  0.00  0.00    -0.196 N 
ATOM      2  C2  IND d   1      -4.334   3.079  -2.867  0.00  0.00     0.054 A 
ATOM      3  C3  IND d   1      -3.237   2.300  -2.736  0.00  0.00    -0.031 A 
ATOM      4  C4  IND d   1      -1.020   2.365  -4.043  0.00  0.00     0.051 A 
ATOM      5  C5  IND d   1      -0.413   2.973  -5.106  0.00  0.00    -0.031 A 
ATOM      6  C6  IND d   1      -1.041   3.962  -5.835  0.00  0.00     0.015 A 
ATOM      7  C7  IND d   1      -2.299   4.390  -5.520  0.00  0.00    -0.016 A 
ATOM      8  C8  IND d   1      -2.921   3.770  -4.445  0.00  0.00    -0.047 A 
ATOM      9  C9  IND d   1      -2.306   2.736  -3.728  0.00  0.00    -0.096 A 
ATOM     10  HN1 IND d   1      -4.755   4.532  -4.168  0.00  0.00     0.298 HD
ENDROOT
TORSDOF 0
ENDMDL
