MODEL 1
REMARK minimizedAffinity -1.58682346
REMARK minimizedRMSD -1
REMARK  0 active torsions:
REMARK  status: ('A' for Active; 'I' for Inactive)
ROOT
ATOM      1  N1  IND d   1      -1.745   3.977  -4.520  0.00  0.00    -0.196 N 
ATOM      2  C2  IND d   1      -3.056   3.976  -4.133  0.00  0.00     0.054 A 
ATOM      3  C3  IND d   1      -3.452   2.722  -3.817  0.00  0.00    -0.031 A 
ATOM      4  C4  IND d   1      -2.086   0.540  -3.766  0.00  0.00     0.051 A 
ATOM      5  C5  IND d   1      -0.855   0.033  -4.072  0.00  0.00    -0.031 A 
ATOM      6  C6  IND d   1       0.164   0.831  -4.551  0.00  0.00     0.015 A 
ATOM      7  C7  IND d   1      -0.008   2.174  -4.730  0.00  0.00    -0.016 A 
ATOM      8  C8  IND d   1      -1.259   2.692  -4.427  0.00  0.00    -0.047 A 
ATOM      9  C9  IND d   1      -2.310   1.879  -3.982  0.00  0.00    -0.096 A 
ATOM     10  HN1 IND d   1      -1.299   4.665  -4.778  0.00  0.00     0.298 HD
ENDROOT
TORSDOF 0
ENDMDL
