MODEL 1
REMARK minimizedAffinity 10.8101072
REMARK minimizedRMSD -1
REMARK  0 active torsions:
REMARK  status: ('A' for Active; 'I' for Inactive)
ROOT
ATOM      1  N1  IND d   1      -0.380   4.590  -5.631  0.00  0.00    -0.196 N 
ATOM      2  C2  IND d   1       0.733   3.887  -6.000  0.00  0.00     0.054 A 
ATOM      3  C3  IND d   1       0.695   2.640  -5.478  0.00  0.00    -0.031 A 
ATOM      4  C4  IND d   1      -1.143   1.509  -4.075  0.00  0.00     0.051 A 
ATOM      5  C5  IND d   1      -2.333   1.763  -3.453  0.00  0.00    -0.031 A 
ATOM      6  C6  IND d   1      -2.947   2.997  -3.530  0.00  0.00     0.015 A 
ATOM      7  C7  IND d   1      -2.397   4.023  -4.244  0.00  0.00    -0.016 A 
ATOM      8  C8  IND d   1      -1.184   3.771  -4.870  0.00  0.00    -0.047 A 
ATOM      9  C9  IND d   1      -0.536   2.534  -4.761  0.00  0.00    -0.096 A 
ATOM     10  HN1 IND d   1      -0.549   5.407  -5.840  0.00  0.00     0.298 HD
ENDROOT
TORSDOF 0
ENDMDL
