MODEL 1
REMARK minimizedAffinity 10.7402992
REMARK minimizedRMSD -1
REMARK  0 active torsions:
REMARK  status: ('A' for Active; 'I' for Inactive)
ROOT
ATOM      1  N1  IND d   1       1.980   5.335   3.819  0.00  0.00    -0.196 N 
ATOM      2  C2  IND d   1       1.271   5.676   4.937  0.00  0.00     0.054 A 
ATOM      3  C3  IND d   1       2.111   5.950   5.961  0.00  0.00    -0.031 A 
ATOM      4  C4  IND d   1       4.685   6.000   5.996  0.00  0.00     0.051 A 
ATOM      5  C5  IND d   1       5.778   5.725   5.223  0.00  0.00    -0.031 A 
ATOM      6  C6  IND d   1       5.659   5.300   3.916  0.00  0.00     0.015 A 
ATOM      7  C7  IND d   1       4.436   5.145   3.326  0.00  0.00    -0.016 A 
ATOM      8  C8  IND d   1       3.324   5.416   4.110  0.00  0.00    -0.047 A 
ATOM      9  C9  IND d   1       3.438   5.806   5.450  0.00  0.00    -0.096 A 
ATOM     10  HN1 IND d   1       1.642   5.107   3.061  0.00  0.00     0.298 HD
ENDROOT
TORSDOF 0
ENDMDL
