MODEL 1
REMARK minimizedAffinity 3.31443977
REMARK minimizedRMSD -1
REMARK  0 active torsions:
REMARK  status: ('A' for Active; 'I' for Inactive)
ROOT
ATOM      1  N1  IND d   1      -3.311   4.505  -3.808  0.00  0.00    -0.196 N 
ATOM      2  C2  IND d   1      -3.591   3.500  -2.924  0.00  0.00     0.054 A 
ATOM      3  C3  IND d   1      -2.673   2.513  -3.029  0.00  0.00    -0.031 A 
ATOM      4  C4  IND d   1      -0.571   2.384  -4.509  0.00  0.00     0.051 A 
ATOM      5  C5  IND d   1       0.085   3.047  -5.508  0.00  0.00    -0.031 A 
ATOM      6  C6  IND d   1      -0.365   4.255  -6.000  0.00  0.00     0.015 A 
ATOM      7  C7  IND d   1      -1.487   4.854  -5.500  0.00  0.00    -0.016 A 
ATOM      8  C8  IND d   1      -2.160   4.181  -4.490  0.00  0.00    -0.047 A 
ATOM      9  C9  IND d   1      -1.732   2.933  -4.017  0.00  0.00    -0.096 A 
ATOM     10  HN1 IND d   1      -3.777   5.220  -3.919  0.00  0.00     0.298 HD
ENDROOT
TORSDOF 0
ENDMDL
