MODEL 1
REMARK minimizedAffinity -3.14753437
REMARK minimizedRMSD -1
REMARK  0 active torsions:
REMARK  status: ('A' for Active; 'I' for Inactive)
ROOT
ATOM      1  C   UNL d   1      -5.997   4.875   1.787  0.00  0.00     0.077 C 
ATOM      2  C1  UNL d   1      -5.264   4.345   2.983  0.00  0.00    -0.074 A 
ATOM      3  C2  UNL d   1      -3.924   4.674   3.210  0.00  0.00    -0.005 A 
ATOM      4  C3  UNL d   1      -3.258   4.181   4.332  0.00  0.00     0.006 A 
ATOM      5  C4  UNL d   1      -3.925   3.355   5.237  0.00  0.00    -0.005 A 
ATOM      6  C5  UNL d   1      -5.266   3.015   5.028  0.00  0.00    -0.074 A 
ATOM      7  C6  UNL d   1      -6.000   2.137   5.997  0.00  0.00     0.077 C 
ATOM      8  C7  UNL d   1      -5.929   3.521   3.902  0.00  0.00    -0.001 A 
ENDROOT
TORSDOF 0
ENDMDL
