MODEL 1
REMARK minimizedAffinity -3.13444829
REMARK minimizedRMSD -1
REMARK  0 active torsions:
REMARK  status: ('A' for Active; 'I' for Inactive)
ROOT
ATOM      1  C   UNL d   1      -4.547   5.192   1.477  0.00  0.00     0.077 C 
ATOM      2  C1  UNL d   1      -5.049   4.946   2.869  0.00  0.00    -0.074 A 
ATOM      3  C2  UNL d   1      -5.515   6.000   3.662  0.00  0.00    -0.005 A 
ATOM      4  C3  UNL d   1      -5.988   5.754   4.950  0.00  0.00     0.006 A 
ATOM      5  C4  UNL d   1      -6.000   4.455   5.459  0.00  0.00    -0.005 A 
ATOM      6  C5  UNL d   1      -5.539   3.389   4.681  0.00  0.00    -0.074 A 
ATOM      7  C6  UNL d   1      -5.554   1.985   5.208  0.00  0.00     0.077 C 
ATOM      8  C7  UNL d   1      -5.072   3.642   3.384  0.00  0.00    -0.001 A 
ENDROOT
TORSDOF 0
ENDMDL
