MODEL 1
REMARK minimizedAffinity 5.52677155
REMARK minimizedRMSD -1
REMARK  0 active torsions:
REMARK  status: ('A' for Active; 'I' for Inactive)
ROOT
ATOM      1  C   UNL d   1      -6.000   4.054   5.748  0.00  0.00     0.077 C 
ATOM      2  C1  UNL d   1      -5.733   4.235   4.283  0.00  0.00    -0.074 A 
ATOM      3  C2  UNL d   1      -6.000   5.453   3.649  0.00  0.00    -0.005 A 
ATOM      4  C3  UNL d   1      -5.737   5.609   2.288  0.00  0.00     0.006 A 
ATOM      5  C4  UNL d   1      -5.207   4.551   1.549  0.00  0.00    -0.005 A 
ATOM      6  C5  UNL d   1      -4.933   3.326   2.166  0.00  0.00    -0.074 A 
ATOM      7  C6  UNL d   1      -4.354   2.182   1.388  0.00  0.00     0.077 C 
ATOM      8  C7  UNL d   1      -5.193   3.179   3.535  0.00  0.00    -0.001 A 
ENDROOT
TORSDOF 0
ENDMDL
