MODEL 1
REMARK minimizedAffinity -3.02750826
REMARK minimizedRMSD -1
REMARK  0 active torsions:
REMARK  status: ('A' for Active; 'I' for Inactive)
ROOT
ATOM      1  C   UNL d   1      -5.482   4.373   2.061  0.00  0.00     0.077 C 
ATOM      2  C1  UNL d   1      -4.999   3.923   3.408  0.00  0.00    -0.074 A 
ATOM      3  C2  UNL d   1      -4.086   4.691   4.138  0.00  0.00    -0.005 A 
ATOM      4  C3  UNL d   1      -3.653   4.264   5.393  0.00  0.00     0.006 A 
ATOM      5  C4  UNL d   1      -4.128   3.066   5.930  0.00  0.00    -0.005 A 
ATOM      6  C5  UNL d   1      -5.041   2.285   5.215  0.00  0.00    -0.074 A 
ATOM      7  C6  UNL d   1      -5.569   1.001   5.782  0.00  0.00     0.077 C 
ATOM      8  C7  UNL d   1      -5.477   2.725   3.957  0.00  0.00    -0.001 A 
ENDROOT
TORSDOF 0
ENDMDL
