MODEL 1
REMARK minimizedAffinity -1.72402632
REMARK minimizedRMSD -1
REMARK  0 active torsions:
REMARK  status: ('A' for Active; 'I' for Inactive)
ROOT
ATOM      1  C   UNL d   1      -4.971   1.423   5.683  0.00  0.00     0.077 C 
ATOM      2  C1  UNL d   1      -5.332   2.774   5.142  0.00  0.00    -0.074 A 
ATOM      3  C2  UNL d   1      -5.676   3.824   6.000  0.00  0.00    -0.005 A 
ATOM      4  C3  UNL d   1      -6.000   5.078   5.482  0.00  0.00     0.006 A 
ATOM      5  C4  UNL d   1      -5.984   5.295   4.104  0.00  0.00    -0.005 A 
ATOM      6  C5  UNL d   1      -5.642   4.258   3.231  0.00  0.00    -0.074 A 
ATOM      7  C6  UNL d   1      -5.610   4.476   1.747  0.00  0.00     0.077 C 
ATOM      8  C7  UNL d   1      -5.310   3.002   3.759  0.00  0.00    -0.001 A 
ENDROOT
TORSDOF 0
ENDMDL
