MODEL 1
REMARK minimizedAffinity -1.6620028
REMARK minimizedRMSD -1
REMARK  0 active torsions:
REMARK  status: ('A' for Active; 'I' for Inactive)
ROOT
ATOM      1  C   UNL d   1       2.498   3.094  -0.294  0.00  0.00     0.077 C 
ATOM      2  C1  UNL d   1       2.535   2.634   1.133  0.00  0.00    -0.074 A 
ATOM      3  C2  UNL d   1       2.462   3.551   2.186  0.00  0.00    -0.005 A 
ATOM      4  C3  UNL d   1       2.489   3.107   3.508  0.00  0.00     0.006 A 
ATOM      5  C4  UNL d   1       2.588   1.744   3.790  0.00  0.00    -0.005 A 
ATOM      6  C5  UNL d   1       2.661   0.812   2.750  0.00  0.00    -0.074 A 
ATOM      7  C6  UNL d   1       2.759  -0.657   3.035  0.00  0.00     0.077 C 
ATOM      8  C7  UNL d   1       2.627   1.265   1.424  0.00  0.00    -0.001 A 
ENDROOT
TORSDOF 0
ENDMDL
