MODEL 1
REMARK minimizedAffinity -3.32473969
REMARK minimizedRMSD -1
REMARK  0 active torsions:
REMARK  status: ('A' for Active; 'I' for Inactive)
ROOT
ATOM      1  C   UNL d   1      -5.999   3.580   6.000  0.00  0.00     0.077 C 
ATOM      2  C1  UNL d   1      -5.252   4.235   4.877  0.00  0.00    -0.074 A 
ATOM      3  C2  UNL d   1      -3.876   4.471   4.970  0.00  0.00    -0.005 A 
ATOM      4  C3  UNL d   1      -3.193   5.073   3.914  0.00  0.00     0.006 A 
ATOM      5  C4  UNL d   1      -3.876   5.445   2.756  0.00  0.00    -0.005 A 
ATOM      6  C5  UNL d   1      -5.252   5.216   2.644  0.00  0.00    -0.074 A 
ATOM      7  C6  UNL d   1      -6.000   5.601   1.402  0.00  0.00     0.077 C 
ATOM      8  C7  UNL d   1      -5.930   4.605   3.707  0.00  0.00    -0.001 A 
ENDROOT
TORSDOF 0
ENDMDL
