MODEL 1
REMARK minimizedAffinity -4.17040491
REMARK minimizedRMSD -1
REMARK  0 active torsions:
REMARK  status: ('A' for Active; 'I' for Inactive)
ROOT
ATOM      1  C   UNL d   1      -5.783   5.953   5.941  0.00  0.00     0.077 C 
ATOM      2  C1  UNL d   1      -5.287   5.295   4.688  0.00  0.00    -0.074 A 
ATOM      3  C2  UNL d   1      -5.225   6.000   3.481  0.00  0.00    -0.005 A 
ATOM      4  C3  UNL d   1      -4.753   5.378   2.326  0.00  0.00     0.006 A 
ATOM      5  C4  UNL d   1      -4.338   4.046   2.365  0.00  0.00    -0.005 A 
ATOM      6  C5  UNL d   1      -4.391   3.325   3.562  0.00  0.00    -0.074 A 
ATOM      7  C6  UNL d   1      -3.939   1.896   3.623  0.00  0.00     0.077 C 
ATOM      8  C7  UNL d   1      -4.860   3.960   4.720  0.00  0.00    -0.001 A 
ENDROOT
TORSDOF 0
ENDMDL
