MODEL 1
REMARK minimizedAffinity -3.33930111
REMARK minimizedRMSD -1
REMARK  0 active torsions:
REMARK  status: ('A' for Active; 'I' for Inactive)
ROOT
ATOM      1  C   UNL d   1      -6.000   5.238   1.513  0.00  0.00     0.077 C 
ATOM      2  C1  UNL d   1      -5.430   5.074   2.891  0.00  0.00    -0.074 A 
ATOM      3  C2  UNL d   1      -4.398   5.901   3.345  0.00  0.00    -0.005 A 
ATOM      4  C3  UNL d   1      -3.885   5.743   4.632  0.00  0.00     0.006 A 
ATOM      5  C4  UNL d   1      -4.398   4.758   5.477  0.00  0.00    -0.005 A 
ATOM      6  C5  UNL d   1      -5.430   3.922   5.040  0.00  0.00    -0.074 A 
ATOM      7  C6  UNL d   1      -6.000   2.864   5.939  0.00  0.00     0.077 C 
ATOM      8  C7  UNL d   1      -5.945   4.092   3.748  0.00  0.00    -0.001 A 
ENDROOT
TORSDOF 0
ENDMDL
