MODEL 1
REMARK minimizedAffinity -2.90449095
REMARK minimizedRMSD -1
REMARK  0 active torsions:
REMARK  status: ('A' for Active; 'I' for Inactive)
ROOT
ATOM      1  C   UNL d   1      -5.315   5.997   0.991  0.00  0.00     0.077 C 
ATOM      2  C1  UNL d   1      -5.174   5.291   2.307  0.00  0.00    -0.074 A 
ATOM      3  C2  UNL d   1      -4.634   4.003   2.378  0.00  0.00    -0.005 A 
ATOM      4  C3  UNL d   1      -4.500   3.364   3.610  0.00  0.00     0.006 A 
ATOM      5  C4  UNL d   1      -4.904   4.005   4.782  0.00  0.00    -0.005 A 
ATOM      6  C5  UNL d   1      -5.445   5.293   4.731  0.00  0.00    -0.074 A 
ATOM      7  C6  UNL d   1      -5.875   6.000   5.982  0.00  0.00     0.077 C 
ATOM      8  C7  UNL d   1      -5.570   5.932   3.490  0.00  0.00    -0.001 A 
ENDROOT
TORSDOF 0
ENDMDL
