MODEL 1
REMARK minimizedAffinity -2.52378559
REMARK minimizedRMSD -1
REMARK  0 active torsions:
REMARK  status: ('A' for Active; 'I' for Inactive)
ROOT
ATOM      1  C   UNL d   1      -3.924   2.256   4.109  0.00  0.00     0.077 C 
ATOM      2  C1  UNL d   1      -4.617   3.557   3.835  0.00  0.00    -0.074 A 
ATOM      3  C2  UNL d   1      -5.367   4.195   4.828  0.00  0.00    -0.005 A 
ATOM      4  C3  UNL d   1      -5.998   5.410   4.562  0.00  0.00     0.006 A 
ATOM      5  C4  UNL d   1      -5.887   5.998   3.301  0.00  0.00    -0.005 A 
ATOM      6  C5  UNL d   1      -5.140   5.375   2.296  0.00  0.00    -0.074 A 
ATOM      7  C6  UNL d   1      -5.002   5.999   0.939  0.00  0.00     0.077 C 
ATOM      8  C7  UNL d   1      -4.503   4.158   2.574  0.00  0.00    -0.001 A 
ENDROOT
TORSDOF 0
ENDMDL
