MODEL 1
REMARK minimizedAffinity -3.45217466
REMARK minimizedRMSD -1
REMARK  0 active torsions:
REMARK  status: ('A' for Active; 'I' for Inactive)
ROOT
ATOM      1  C   UNL d   1      -4.484   4.914   1.649  0.00  0.00     0.077 C 
ATOM      2  C1  UNL d   1      -5.007   4.765   3.047  0.00  0.00    -0.074 A 
ATOM      3  C2  UNL d   1      -5.508   5.867   3.748  0.00  0.00    -0.005 A 
ATOM      4  C3  UNL d   1      -6.000   5.711   5.044  0.00  0.00     0.006 A 
ATOM      5  C4  UNL d   1      -5.997   4.455   5.651  0.00  0.00    -0.005 A 
ATOM      6  C5  UNL d   1      -5.501   3.341   4.965  0.00  0.00    -0.074 A 
ATOM      7  C6  UNL d   1      -5.499   1.982   5.599  0.00  0.00     0.077 C 
ATOM      8  C7  UNL d   1      -5.014   3.504   3.660  0.00  0.00    -0.001 A 
ENDROOT
TORSDOF 0
ENDMDL
