MODEL 1
REMARK minimizedAffinity -3.20529032
REMARK minimizedRMSD -1
REMARK  0 active torsions:
REMARK  status: ('A' for Active; 'I' for Inactive)
ROOT
ATOM      1  C   UNL d   1      -5.990   1.887   5.266  0.00  0.00     0.077 C 
ATOM      2  C1  UNL d   1      -5.827   3.324   4.868  0.00  0.00    -0.074 A 
ATOM      3  C2  UNL d   1      -5.952   4.350   5.811  0.00  0.00    -0.005 A 
ATOM      4  C3  UNL d   1      -5.788   5.681   5.429  0.00  0.00     0.006 A 
ATOM      5  C4  UNL d   1      -5.497   6.000   4.102  0.00  0.00    -0.005 A 
ATOM      6  C5  UNL d   1      -5.367   4.988   3.145  0.00  0.00    -0.074 A 
ATOM      7  C6  UNL d   1      -5.046   5.313   1.717  0.00  0.00     0.077 C 
ATOM      8  C7  UNL d   1      -5.527   3.652   3.539  0.00  0.00    -0.001 A 
ENDROOT
TORSDOF 0
ENDMDL
