MODEL 1
REMARK minimizedAffinity -2.2915194
REMARK minimizedRMSD -1
REMARK  0 active torsions:
REMARK  status: ('A' for Active; 'I' for Inactive)
ROOT
ATOM      1  C   UNL d   1      -5.975   0.925   5.307  0.00  0.00     0.077 C 
ATOM      2  C1  UNL d   1      -5.990   2.389   4.981  0.00  0.00    -0.074 A 
ATOM      3  C2  UNL d   1      -5.995   3.351   5.997  0.00  0.00    -0.005 A 
ATOM      4  C3  UNL d   1      -5.999   4.709   5.679  0.00  0.00     0.006 A 
ATOM      5  C4  UNL d   1      -6.000   5.119   4.345  0.00  0.00    -0.005 A 
ATOM      6  C5  UNL d   1      -5.994   4.171   3.316  0.00  0.00    -0.074 A 
ATOM      7  C6  UNL d   1      -5.984   4.594   1.877  0.00  0.00     0.077 C 
ATOM      8  C7  UNL d   1      -5.982   2.808   3.644  0.00  0.00    -0.001 A 
ENDROOT
TORSDOF 0
ENDMDL
