MODEL 1
REMARK minimizedAffinity -3.44800997
REMARK minimizedRMSD -1
REMARK  0 active torsions:
REMARK  status: ('A' for Active; 'I' for Inactive)
ROOT
ATOM      1  C   UNL d   1      -5.250   1.947   5.634  0.00  0.00     0.077 C 
ATOM      2  C1  UNL d   1      -5.274   3.361   5.135  0.00  0.00    -0.074 A 
ATOM      3  C2  UNL d   1      -5.632   4.416   5.981  0.00  0.00    -0.005 A 
ATOM      4  C3  UNL d   1      -5.640   5.727   5.505  0.00  0.00     0.006 A 
ATOM      5  C4  UNL d   1      -5.291   5.997   4.182  0.00  0.00    -0.005 A 
ATOM      6  C5  UNL d   1      -4.929   4.955   3.321  0.00  0.00    -0.074 A 
ATOM      7  C6  UNL d   1      -4.542   5.228   1.898  0.00  0.00     0.077 C 
ATOM      8  C7  UNL d   1      -4.917   3.641   3.808  0.00  0.00    -0.001 A 
ENDROOT
TORSDOF 0
ENDMDL
