MODEL 1
REMARK minimizedAffinity -3.33546519
REMARK minimizedRMSD -1
REMARK  0 active torsions:
REMARK  status: ('A' for Active; 'I' for Inactive)
ROOT
ATOM      1  C   UNL d   1      -5.997   1.982   5.142  0.00  0.00     0.077 C 
ATOM      2  C1  UNL d   1      -5.655   3.382   4.728  0.00  0.00    -0.074 A 
ATOM      3  C2  UNL d   1      -5.636   4.423   5.661  0.00  0.00    -0.005 A 
ATOM      4  C3  UNL d   1      -5.306   5.719   5.263  0.00  0.00     0.006 A 
ATOM      5  C4  UNL d   1      -4.992   5.985   3.930  0.00  0.00    -0.005 A 
ATOM      6  C5  UNL d   1      -5.004   4.957   2.982  0.00  0.00    -0.074 A 
ATOM      7  C6  UNL d   1      -4.660   5.224   1.547  0.00  0.00     0.077 C 
ATOM      8  C7  UNL d   1      -5.330   3.656   3.392  0.00  0.00    -0.001 A 
ENDROOT
TORSDOF 0
ENDMDL
