MODEL 1
REMARK minimizedAffinity 9.83263111
REMARK minimizedRMSD -1
REMARK  1 active torsions:
REMARK  status: ('A' for Active; 'I' for Inactive)
REMARK    1  A    between atoms: C1_2  and  C2_3 
ROOT
ATOM      1  C2  UNL d   1      -0.286   2.039  -0.124  0.00  0.00    -0.077 A 
ATOM      2  C3  UNL d   1       0.881   1.266  -0.207  0.00  0.00     0.002 A 
ATOM      3  C4  UNL d   1       1.523   1.086  -1.434  0.00  0.00     0.002 A 
ATOM      4  C5  UNL d   1       1.008   1.679  -2.585  0.00  0.00    -0.004 A 
ATOM      5  C6  UNL d   1      -0.153   2.447  -2.513  0.00  0.00     0.002 A 
ATOM      6  C7  UNL d   1      -0.797   2.627  -1.288  0.00  0.00     0.002 A 
ENDROOT
BRANCH   1   7
ATOM      7  C1  UNL d   1      -0.952   2.275   1.207  0.00  0.00     0.055 C 
ATOM      8  C   UNL d   1       0.023   2.075   2.357  0.00  0.00     0.019 C 
ENDBRANCH   1   7
TORSDOF 1
ENDMDL
