MODEL 1
REMARK minimizedAffinity 3.2782321
REMARK minimizedRMSD -1
REMARK  1 active torsions:
REMARK  status: ('A' for Active; 'I' for Inactive)
REMARK    1  A    between atoms: C1_2  and  C2_3 
ROOT
ATOM      1  C2  UNL d   1      -3.472   2.849  -5.331  0.00  0.00    -0.077 A 
ATOM      2  C3  UNL d   1      -2.145   2.861  -4.881  0.00  0.00     0.002 A 
ATOM      3  C4  UNL d   1      -1.426   4.057  -4.833  0.00  0.00     0.002 A 
ATOM      4  C5  UNL d   1      -2.027   5.250  -5.228  0.00  0.00    -0.004 A 
ATOM      5  C6  UNL d   1      -3.347   5.248  -5.678  0.00  0.00     0.002 A 
ATOM      6  C7  UNL d   1      -4.067   4.054  -5.729  0.00  0.00     0.002 A 
ENDROOT
BRANCH   1   7
ATOM      7  C1  UNL d   1      -4.265   1.568  -5.338  0.00  0.00     0.055 C 
ATOM      8  C   UNL d   1      -5.622   1.760  -5.999  0.00  0.00     0.019 C 
ENDBRANCH   1   7
TORSDOF 1
ENDMDL
