MODEL 1
REMARK minimizedAffinity 10.2103567
REMARK minimizedRMSD -1
REMARK  1 active torsions:
REMARK  status: ('A' for Active; 'I' for Inactive)
REMARK    1  A    between atoms: C1_2  and  C2_3 
ROOT
ATOM      1  C2  UNL d   1      -1.097  -2.756   5.047  0.00  0.00    -0.077 A 
ATOM      2  C3  UNL d   1      -2.211  -2.544   5.871  0.00  0.00     0.002 A 
ATOM      3  C4  UNL d   1      -2.763  -1.267   5.997  0.00  0.00     0.002 A 
ATOM      4  C5  UNL d   1      -2.211  -0.195   5.300  0.00  0.00    -0.004 A 
ATOM      5  C6  UNL d   1      -1.101  -0.396   4.480  0.00  0.00     0.002 A 
ATOM      6  C7  UNL d   1      -0.547  -1.670   4.353  0.00  0.00     0.002 A 
ENDROOT
BRANCH   1   7
ATOM      7  C1  UNL d   1      -0.530  -4.140   4.871  0.00  0.00     0.055 C 
ATOM      8  C   UNL d   1       0.426  -4.495   6.000  0.00  0.00     0.019 C 
ENDBRANCH   1   7
TORSDOF 1
ENDMDL
