MODEL 1
REMARK minimizedAffinity 0.552237153
REMARK minimizedRMSD -1
REMARK  1 active torsions:
REMARK  status: ('A' for Active; 'I' for Inactive)
REMARK    1  A    between atoms: C1_2  and  C2_3 
ROOT
ATOM      1  C2  UNL d   1      -2.824   3.517  -4.733  0.00  0.00    -0.077 A 
ATOM      2  C3  UNL d   1      -3.588   4.687  -4.839  0.00  0.00     0.002 A 
ATOM      3  C4  UNL d   1      -2.965   5.923  -5.026  0.00  0.00     0.002 A 
ATOM      4  C5  UNL d   1      -1.577   5.999  -5.113  0.00  0.00    -0.004 A 
ATOM      5  C6  UNL d   1      -0.808   4.841  -5.007  0.00  0.00     0.002 A 
ATOM      6  C7  UNL d   1      -1.429   3.605  -4.819  0.00  0.00     0.002 A 
ENDROOT
BRANCH   1   7
ATOM      7  C1  UNL d   1      -3.496   2.177  -4.581  0.00  0.00     0.055 C 
ATOM      8  C   UNL d   1      -4.956   2.239  -5.005  0.00  0.00     0.019 C 
ENDBRANCH   1   7
TORSDOF 1
ENDMDL
