MODEL 1
REMARK minimizedAffinity 15.6005411
REMARK minimizedRMSD -1
REMARK  1 active torsions:
REMARK  status: ('A' for Active; 'I' for Inactive)
REMARK    1  A    between atoms: C1_2  and  C2_3 
ROOT
ATOM      1  C2  UNL d   1      -1.347  -0.831   4.648  0.00  0.00    -0.077 A 
ATOM      2  C3  UNL d   1      -0.468  -1.900   4.425  0.00  0.00     0.002 A 
ATOM      3  C4  UNL d   1      -0.722  -3.153   4.985  0.00  0.00     0.002 A 
ATOM      4  C5  UNL d   1      -1.857  -3.350   5.769  0.00  0.00    -0.004 A 
ATOM      5  C6  UNL d   1      -2.736  -2.292   5.999  0.00  0.00     0.002 A 
ATOM      6  C7  UNL d   1      -2.483  -1.039   5.441  0.00  0.00     0.002 A 
ENDROOT
BRANCH   1   7
ATOM      7  C1  UNL d   1      -1.100   0.508   4.004  0.00  0.00     0.055 C 
ATOM      8  C   UNL d   1       0.223   0.526   3.253  0.00  0.00     0.019 C 
ENDBRANCH   1   7
TORSDOF 1
ENDMDL
