MODEL 1
REMARK minimizedAffinity 10.2951584
REMARK minimizedRMSD -1
REMARK  1 active torsions:
REMARK  status: ('A' for Active; 'I' for Inactive)
REMARK    1  A    between atoms: C1_2  and  C2_3 
ROOT
ATOM      1  C2  UNL d   1      -0.327  -2.495   3.609  0.00  0.00    -0.077 A 
ATOM      2  C3  UNL d   1       0.128  -3.256   2.522  0.00  0.00     0.002 A 
ATOM      3  C4  UNL d   1       1.069  -2.729   1.636  0.00  0.00     0.002 A 
ATOM      4  C5  UNL d   1       1.566  -1.442   1.829  0.00  0.00    -0.004 A 
ATOM      5  C6  UNL d   1       1.119  -0.677   2.905  0.00  0.00     0.002 A 
ATOM      6  C7  UNL d   1       0.178  -1.201   3.792  0.00  0.00     0.002 A 
ENDROOT
BRANCH   1   7
ATOM      7  C1  UNL d   1      -1.305  -3.080   4.594  0.00  0.00     0.055 C 
ATOM      8  C   UNL d   1      -0.720  -3.116   5.999  0.00  0.00     0.019 C 
ENDBRANCH   1   7
TORSDOF 1
ENDMDL
