MODEL 1
REMARK minimizedAffinity 14.7986603
REMARK minimizedRMSD -1
REMARK  1 active torsions:
REMARK  status: ('A' for Active; 'I' for Inactive)
REMARK    1  A    between atoms: C1_2  and  C2_3 
ROOT
ATOM      1  C2  UNL d   1      -3.989   4.359   0.610  0.00  0.00    -0.077 A 
ATOM      2  C3  UNL d   1      -2.853   4.478  -0.203  0.00  0.00     0.002 A 
ATOM      3  C4  UNL d   1      -1.964   3.409  -0.337  0.00  0.00     0.002 A 
ATOM      4  C5  UNL d   1      -2.205   2.213   0.335  0.00  0.00    -0.004 A 
ATOM      5  C6  UNL d   1      -3.331   2.085   1.148  0.00  0.00     0.002 A 
ATOM      6  C7  UNL d   1      -4.219   3.152   1.284  0.00  0.00     0.002 A 
ENDROOT
BRANCH   1   7
ATOM      7  C1  UNL d   1      -4.974   5.493   0.717  0.00  0.00     0.055 C 
ATOM      8  C   UNL d   1      -5.082   5.999   2.148  0.00  0.00     0.019 C 
ENDBRANCH   1   7
TORSDOF 1
ENDMDL
