MODEL 1
REMARK minimizedAffinity 7.83886385
REMARK minimizedRMSD -1
REMARK  1 active torsions:
REMARK  status: ('A' for Active; 'I' for Inactive)
REMARK    1  A    between atoms: C1_2  and  C2_3 
ROOT
ATOM      1  C2  UNL d   1      -3.756   2.755  -5.250  0.00  0.00    -0.077 A 
ATOM      2  C3  UNL d   1      -2.588   2.736  -4.474  0.00  0.00     0.002 A 
ATOM      3  C4  UNL d   1      -1.804   3.885  -4.349  0.00  0.00     0.002 A 
ATOM      4  C5  UNL d   1      -2.182   5.061  -4.993  0.00  0.00    -0.004 A 
ATOM      5  C6  UNL d   1      -3.340   5.090  -5.769  0.00  0.00     0.002 A 
ATOM      6  C7  UNL d   1      -4.124   3.942  -5.896  0.00  0.00     0.002 A 
ENDROOT
BRANCH   1   7
ATOM      7  C1  UNL d   1      -4.628   1.531  -5.346  0.00  0.00     0.055 C 
ATOM      8  C   UNL d   1      -6.000   1.872  -5.910  0.00  0.00     0.019 C 
ENDBRANCH   1   7
TORSDOF 1
ENDMDL
