MODEL 1
REMARK minimizedAffinity 0.728523433
REMARK minimizedRMSD -1
REMARK  1 active torsions:
REMARK  status: ('A' for Active; 'I' for Inactive)
REMARK    1  A    between atoms: C1_2  and  C2_3 
ROOT
ATOM      1  C2  UNL d   1      -4.396   3.764  -5.632  0.00  0.00    -0.077 A 
ATOM      2  C3  UNL d   1      -3.300   3.315  -4.882  0.00  0.00     0.002 A 
ATOM      3  C4  UNL d   1      -2.290   4.203  -4.507  0.00  0.00     0.002 A 
ATOM      4  C5  UNL d   1      -2.368   5.544  -4.874  0.00  0.00    -0.004 A 
ATOM      5  C6  UNL d   1      -3.452   6.000  -5.622  0.00  0.00     0.002 A 
ATOM      6  C7  UNL d   1      -4.463   5.114  -5.999  0.00  0.00     0.002 A 
ENDROOT
BRANCH   1   7
ATOM      7  C1  UNL d   1      -5.511   2.818  -5.995  0.00  0.00     0.055 C 
ATOM      8  C   UNL d   1      -5.163   1.383  -5.627  0.00  0.00     0.019 C 
ENDBRANCH   1   7
TORSDOF 1
ENDMDL
