MODEL 1
REMARK minimizedAffinity 17.0419769
REMARK minimizedRMSD -1
REMARK  1 active torsions:
REMARK  status: ('A' for Active; 'I' for Inactive)
REMARK    1  A    between atoms: C1_2  and  C2_3 
ROOT
ATOM      1  C2  UNL d   1      -2.245   1.864   1.214  0.00  0.00    -0.077 A 
ATOM      2  C3  UNL d   1      -2.610   1.499   2.518  0.00  0.00     0.002 A 
ATOM      3  C4  UNL d   1      -1.664   0.959   3.392  0.00  0.00     0.002 A 
ATOM      4  C5  UNL d   1      -0.347   0.783   2.973  0.00  0.00    -0.004 A 
ATOM      5  C6  UNL d   1       0.025   1.141   1.678  0.00  0.00     0.002 A 
ATOM      6  C7  UNL d   1      -0.919   1.679   0.803  0.00  0.00     0.002 A 
ENDROOT
BRANCH   1   7
ATOM      7  C1  UNL d   1      -3.252   2.492   0.287  0.00  0.00     0.055 C 
ATOM      8  C   UNL d   1      -3.967   3.658   0.954  0.00  0.00     0.019 C 
ENDBRANCH   1   7
TORSDOF 1
ENDMDL
