MODEL 1
REMARK minimizedAffinity 12.4032459
REMARK minimizedRMSD -1
REMARK  1 active torsions:
REMARK  status: ('A' for Active; 'I' for Inactive)
REMARK    1  A    between atoms: C1_2  and  C2_3 
ROOT
ATOM      1  C2  UNL d   1      -0.592   1.008   1.507  0.00  0.00    -0.077 A 
ATOM      2  C3  UNL d   1      -1.964   1.066   1.791  0.00  0.00     0.002 A 
ATOM      3  C4  UNL d   1      -2.824   1.798   0.971  0.00  0.00     0.002 A 
ATOM      4  C5  UNL d   1      -2.324   2.475  -0.140  0.00  0.00    -0.004 A 
ATOM      5  C6  UNL d   1      -0.961   2.425  -0.429  0.00  0.00     0.002 A 
ATOM      6  C7  UNL d   1      -0.099   1.695   0.390  0.00  0.00     0.002 A 
ENDROOT
BRANCH   1   7
ATOM      7  C1  UNL d   1       0.330   0.179   2.362  0.00  0.00     0.055 C 
ATOM      8  C   UNL d   1       1.316   1.053   3.123  0.00  0.00     0.019 C 
ENDBRANCH   1   7
TORSDOF 1
ENDMDL
