MODEL 1
REMARK minimizedAffinity -0.25037697
REMARK minimizedRMSD -1
REMARK  1 active torsions:
REMARK  status: ('A' for Active; 'I' for Inactive)
REMARK    1  A    between atoms: C1_2  and  C2_3 
ROOT
ATOM      1  C2  UNL d   1      -4.348   4.138  -5.359  0.00  0.00    -0.077 A 
ATOM      2  C3  UNL d   1      -3.387   3.251  -4.854  0.00  0.00     0.002 A 
ATOM      3  C4  UNL d   1      -2.224   3.736  -4.253  0.00  0.00     0.002 A 
ATOM      4  C5  UNL d   1      -2.013   5.109  -4.148  0.00  0.00    -0.004 A 
ATOM      5  C6  UNL d   1      -2.961   6.000  -4.650  0.00  0.00     0.002 A 
ATOM      6  C7  UNL d   1      -4.124   5.517  -5.252  0.00  0.00     0.002 A 
ENDROOT
BRANCH   1   7
ATOM      7  C1  UNL d   1      -5.625   3.617  -5.964  0.00  0.00     0.055 C 
ATOM      8  C   UNL d   1      -6.000   2.261  -5.383  0.00  0.00     0.019 C 
ENDBRANCH   1   7
TORSDOF 1
ENDMDL
