MODEL 1
REMARK minimizedAffinity 6.9344182
REMARK minimizedRMSD -1
REMARK  1 active torsions:
REMARK  status: ('A' for Active; 'I' for Inactive)
REMARK    1  A    between atoms: C1_2  and  C2_3 
ROOT
ATOM      1  C2  UNL d   1      -2.880   3.573  -4.806  0.00  0.00    -0.077 A 
ATOM      2  C3  UNL d   1      -1.507   3.584  -4.522  0.00  0.00     0.002 A 
ATOM      3  C4  UNL d   1      -0.817   4.793  -4.413  0.00  0.00     0.002 A 
ATOM      4  C5  UNL d   1      -1.493   6.000  -4.581  0.00  0.00    -0.004 A 
ATOM      5  C6  UNL d   1      -2.858   6.000  -4.866  0.00  0.00     0.002 A 
ATOM      6  C7  UNL d   1      -3.548   4.792  -4.977  0.00  0.00     0.002 A 
ENDROOT
BRANCH   1   7
ATOM      7  C1  UNL d   1      -3.635   2.272  -4.875  0.00  0.00     0.055 C 
ATOM      8  C   UNL d   1      -5.092   2.497  -5.253  0.00  0.00     0.019 C 
ENDBRANCH   1   7
TORSDOF 1
ENDMDL
