MODEL 1
REMARK minimizedAffinity 1.13008904
REMARK minimizedRMSD -1
REMARK  1 active torsions:
REMARK  status: ('A' for Active; 'I' for Inactive)
REMARK    1  A    between atoms: C1_2  and  C2_3 
ROOT
ATOM      1  C2  UNL d   1      -2.644   3.333  -5.019  0.00  0.00    -0.077 A 
ATOM      2  C3  UNL d   1      -1.945   3.667  -3.850  0.00  0.00     0.002 A 
ATOM      3  C4  UNL d   1      -1.599   4.994  -3.589  0.00  0.00     0.002 A 
ATOM      4  C5  UNL d   1      -1.950   5.997  -4.490  0.00  0.00    -0.004 A 
ATOM      5  C6  UNL d   1      -2.643   5.675  -5.656  0.00  0.00     0.002 A 
ATOM      6  C7  UNL d   1      -2.989   4.349  -5.919  0.00  0.00     0.002 A 
ENDROOT
BRANCH   1   7
ATOM      7  C1  UNL d   1      -3.061   1.909  -5.278  0.00  0.00     0.055 C 
ATOM      8  C   UNL d   1      -4.367   1.577  -4.571  0.00  0.00     0.019 C 
ENDBRANCH   1   7
TORSDOF 1
ENDMDL
