MODEL 1
REMARK minimizedAffinity 15.2269793
REMARK minimizedRMSD -1
REMARK  0 active torsions:
REMARK  status: ('A' for Active; 'I' for Inactive)
ROOT
ATOM      1  N1  IND d   1      -3.525   0.226   2.524  0.00  0.00    -0.196 N 
ATOM      2  C2  IND d   1      -2.645  -0.002   3.545  0.00  0.00     0.054 A 
ATOM      3  C3  IND d   1      -1.393  -0.161   3.060  0.00  0.00    -0.031 A 
ATOM      4  C4  IND d   1      -0.544   0.012   0.636  0.00  0.00     0.051 A 
ATOM      5  C5  IND d   1      -0.980   0.169  -0.649  0.00  0.00    -0.031 A 
ATOM      6  C6  IND d   1      -2.314   0.358  -0.949  0.00  0.00     0.015 A 
ATOM      7  C7  IND d   1      -3.264   0.411   0.032  0.00  0.00    -0.016 A 
ATOM      8  C8  IND d   1      -2.825   0.245   1.338  0.00  0.00    -0.047 A 
ATOM      9  C9  IND d   1      -1.479   0.010   1.645  0.00  0.00    -0.096 A 
ATOM     10  HN1 IND d   1      -4.374   0.338   2.609  0.00  0.00     0.298 HD
ENDROOT
TORSDOF 0
ENDMDL
