MODEL 1
REMARK minimizedAffinity 10.3235064
REMARK minimizedRMSD -1
REMARK  0 active torsions:
REMARK  status: ('A' for Active; 'I' for Inactive)
ROOT
ATOM      1  N1  IND d   1       0.026  -0.401   2.842  0.00  0.00    -0.196 N 
ATOM      2  C2  IND d   1      -1.171  -0.176   3.463  0.00  0.00     0.054 A 
ATOM      3  C3  IND d   1      -2.133   0.088   2.550  0.00  0.00    -0.031 A 
ATOM      4  C4  IND d   1      -1.987   0.104  -0.020  0.00  0.00     0.051 A 
ATOM      5  C5  IND d   1      -1.095  -0.008  -1.049  0.00  0.00    -0.031 A 
ATOM      6  C6  IND d   1       0.243  -0.264  -0.830  0.00  0.00     0.015 A 
ATOM      7  C7  IND d   1       0.739  -0.430   0.432  0.00  0.00    -0.016 A 
ATOM      8  C8  IND d   1      -0.163  -0.311   1.480  0.00  0.00    -0.047 A 
ATOM      9  C9  IND d   1      -1.514  -0.009   1.266  0.00  0.00    -0.096 A 
ATOM     10  HN1 IND d   1       0.771  -0.571   3.235  0.00  0.00     0.298 HD
ENDROOT
TORSDOF 0
ENDMDL
