MODEL 1
REMARK minimizedAffinity 8.42223263
REMARK minimizedRMSD -1
REMARK  0 active torsions:
REMARK  status: ('A' for Active; 'I' for Inactive)
ROOT
ATOM      1  N1  IND d   1      -3.192   0.706   1.339  0.00  0.00    -0.196 N 
ATOM      2  C2  IND d   1      -2.141   1.559   1.147  0.00  0.00     0.054 A 
ATOM      3  C3  IND d   1      -1.136   1.267   2.003  0.00  0.00    -0.031 A 
ATOM      4  C4  IND d   1      -0.961  -0.631   3.734  0.00  0.00     0.051 A 
ATOM      5  C5  IND d   1      -1.684  -1.643   4.298  0.00  0.00    -0.031 A 
ATOM      6  C6  IND d   1      -2.972  -1.933   3.895  0.00  0.00     0.015 A 
ATOM      7  C7  IND d   1      -3.583  -1.224   2.900  0.00  0.00    -0.016 A 
ATOM      8  C8  IND d   1      -2.854  -0.190   2.329  0.00  0.00    -0.047 A 
ATOM      9  C9  IND d   1      -1.563   0.136   2.764  0.00  0.00    -0.096 A 
ATOM     10  HN1 IND d   1      -3.938   0.726   0.912  0.00  0.00     0.298 HD
ENDROOT
TORSDOF 0
ENDMDL
