MODEL 1
REMARK minimizedAffinity 2.14627719
REMARK minimizedRMSD -1
REMARK  0 active torsions:
REMARK  status: ('A' for Active; 'I' for Inactive)
ROOT
ATOM      1  N1  IND d   1       0.818   0.062   1.220  0.00  0.00    -0.196 N 
ATOM      2  C2  IND d   1       0.357   0.391  -0.023  0.00  0.00     0.054 A 
ATOM      3  C3  IND d   1      -0.989   0.269  -0.073  0.00  0.00    -0.031 A 
ATOM      4  C4  IND d   1      -2.645  -0.358   1.796  0.00  0.00     0.051 A 
ATOM      5  C5  IND d   1      -2.693  -0.780   3.095  0.00  0.00    -0.031 A 
ATOM      6  C6  IND d   1      -1.551  -0.944   3.852  0.00  0.00     0.015 A 
ATOM      7  C7  IND d   1      -0.313  -0.679   3.339  0.00  0.00    -0.016 A 
ATOM      8  C8  IND d   1      -0.259  -0.258   2.018  0.00  0.00    -0.047 A 
ATOM      9  C9  IND d   1      -1.412  -0.131   1.232  0.00  0.00    -0.096 A 
ATOM     10  HN1 IND d   1       1.643   0.054   1.464  0.00  0.00     0.298 HD
ENDROOT
TORSDOF 0
ENDMDL
