MODEL 1
REMARK minimizedAffinity 3.40238667
REMARK minimizedRMSD -1
REMARK  0 active torsions:
REMARK  status: ('A' for Active; 'I' for Inactive)
ROOT
ATOM      1  N1  IND d   1       0.005  -0.021  -0.930  0.00  0.00    -0.196 N 
ATOM      2  C2  IND d   1       1.188   0.043  -0.247  0.00  0.00     0.054 A 
ATOM      3  C3  IND d   1       0.960   0.246   1.070  0.00  0.00    -0.031 A 
ATOM      4  C4  IND d   1      -1.275   0.401   2.338  0.00  0.00     0.051 A 
ATOM      5  C5  IND d   1      -2.626   0.437   2.139  0.00  0.00    -0.031 A 
ATOM      6  C6  IND d   1      -3.181   0.317   0.881  0.00  0.00     0.015 A 
ATOM      7  C7  IND d   1      -2.402   0.144  -0.228  0.00  0.00    -0.016 A 
ATOM      8  C8  IND d   1      -1.029   0.115  -0.030  0.00  0.00    -0.047 A 
ATOM      9  C9  IND d   1      -0.458   0.279   1.239  0.00  0.00    -0.096 A 
ATOM     10  HN1 IND d   1      -0.079  -0.127  -1.779  0.00  0.00     0.298 HD
ENDROOT
TORSDOF 0
ENDMDL
