MODEL 1
REMARK minimizedAffinity 6.07296658
REMARK minimizedRMSD -1
REMARK  0 active torsions:
REMARK  status: ('A' for Active; 'I' for Inactive)
ROOT
ATOM      1  N1  IND d   1       1.425  -0.621   1.908  0.00  0.00    -0.196 N 
ATOM      2  C2  IND d   1       1.806  -0.293   0.637  0.00  0.00     0.054 A 
ATOM      3  C3  IND d   1       0.766   0.241  -0.042  0.00  0.00    -0.031 A 
ATOM      4  C4  IND d   1      -1.621   0.765   0.770  0.00  0.00     0.051 A 
ATOM      5  C5  IND d   1      -2.451   0.611   1.844  0.00  0.00    -0.031 A 
ATOM      6  C6  IND d   1      -2.023   0.029   3.020  0.00  0.00     0.015 A 
ATOM      7  C7  IND d   1      -0.738  -0.412   3.169  0.00  0.00    -0.016 A 
ATOM      8  C8  IND d   1       0.106  -0.264   2.078  0.00  0.00    -0.047 A 
ATOM      9  C9  IND d   1      -0.335   0.287   0.868  0.00  0.00    -0.096 A 
ATOM     10  HN1 IND d   1       1.926  -0.989   2.503  0.00  0.00     0.298 HD
ENDROOT
TORSDOF 0
ENDMDL
