MODEL 1
REMARK minimizedAffinity 10.1853724
REMARK minimizedRMSD -1
REMARK  0 active torsions:
REMARK  status: ('A' for Active; 'I' for Inactive)
ROOT
ATOM      1  N1  IND d   1       1.051  -0.058   1.564  0.00  0.00    -0.196 N 
ATOM      2  C2  IND d   1       1.699  -0.425   0.417  0.00  0.00     0.054 A 
ATOM      3  C3  IND d   1       0.813  -0.599  -0.589  0.00  0.00    -0.031 A 
ATOM      4  C4  IND d   1      -1.736  -0.239  -0.604  0.00  0.00     0.051 A 
ATOM      5  C5  IND d   1      -2.787   0.060   0.217  0.00  0.00    -0.031 A 
ATOM      6  C6  IND d   1      -2.608   0.343   1.556  0.00  0.00     0.015 A 
ATOM      7  C7  IND d   1      -1.365   0.349   2.123  0.00  0.00    -0.016 A 
ATOM      8  C8  IND d   1      -0.296   0.039   1.293  0.00  0.00    -0.047 A 
ATOM      9  C9  IND d   1      -0.476  -0.291  -0.056  0.00  0.00    -0.096 A 
ATOM     10  HN1 IND d   1       1.422   0.087   2.325  0.00  0.00     0.298 HD
ENDROOT
TORSDOF 0
ENDMDL
