MODEL 1
REMARK minimizedAffinity 11.3303337
REMARK minimizedRMSD -1
REMARK  0 active torsions:
REMARK  status: ('A' for Active; 'I' for Inactive)
ROOT
ATOM      1  N1  IND d   1       1.068  -0.885  -0.002  0.00  0.00    -0.196 N 
ATOM      2  C2  IND d   1       1.589  -0.143   1.021  0.00  0.00     0.054 A 
ATOM      3  C3  IND d   1       0.623   0.603   1.601  0.00  0.00    -0.031 A 
ATOM      4  C4  IND d   1      -1.901   0.687   1.100  0.00  0.00     0.051 A 
ATOM      5  C5  IND d   1      -2.843   0.214   0.230  0.00  0.00    -0.031 A 
ATOM      6  C6  IND d   1      -2.523  -0.669  -0.781  0.00  0.00     0.015 A 
ATOM      7  C7  IND d   1      -1.246  -1.123  -0.953  0.00  0.00    -0.016 A 
ATOM      8  C8  IND d   1      -0.286  -0.640  -0.075  0.00  0.00    -0.047 A 
ATOM      9  C9  IND d   1      -0.596   0.289   0.926  0.00  0.00    -0.096 A 
ATOM     10  HN1 IND d   1       1.511  -1.415  -0.513  0.00  0.00     0.298 HD
ENDROOT
TORSDOF 0
ENDMDL
