MODEL 1
REMARK minimizedAffinity 1.87446332
REMARK minimizedRMSD -1
REMARK  0 active torsions:
REMARK  status: ('A' for Active; 'I' for Inactive)
ROOT
ATOM      1  C   UNL d   1       2.116   0.601   0.045  0.00  0.00    -0.002 A 
ATOM      2  C1  UNL d   1       1.882  -0.646   0.608  0.00  0.00     0.010 A 
ATOM      3  C2  UNL d   1       0.686  -0.908   1.280  0.00  0.00     0.041 A 
ATOM      4  C3  UNL d   1      -0.281   0.112   1.375  0.00  0.00    -0.075 A 
ATOM      5  S   UNL d   1      -1.818   0.019   2.149  0.00  0.00     0.015 SA
ATOM      6  C4  UNL d   1      -2.201   1.631   1.749  0.00  0.00     0.022 A 
ATOM      7  C5  UNL d   1      -1.191   2.240   1.042  0.00  0.00     0.026 A 
ATOM      8  C6  UNL d   1      -0.068   1.375   0.815  0.00  0.00    -0.082 A 
ATOM      9  C7  UNL d   1       1.154   1.610   0.141  0.00  0.00     0.045 A 
ENDROOT
TORSDOF 0
ENDMDL
