MODEL 1
REMARK minimizedAffinity 2.33192968
REMARK minimizedRMSD -1
REMARK  0 active torsions:
REMARK  status: ('A' for Active; 'I' for Inactive)
ROOT
ATOM      1  C   UNL d   1      -3.867   0.271   3.467  0.00  0.00    -0.002 A 
ATOM      2  C1  UNL d   1      -3.252  -0.897   3.040  0.00  0.00     0.010 A 
ATOM      3  C2  UNL d   1      -2.038  -0.850   2.352  0.00  0.00     0.041 A 
ATOM      4  C3  UNL d   1      -1.445   0.402   2.100  0.00  0.00    -0.075 A 
ATOM      5  S   UNL d   1       0.039   0.703   1.276  0.00  0.00     0.015 SA
ATOM      6  C4  UNL d   1      -0.107   2.390   1.472  0.00  0.00     0.022 A 
ATOM      7  C5  UNL d   1      -1.255   2.733   2.147  0.00  0.00     0.026 A 
ATOM      8  C6  UNL d   1      -2.045   1.593   2.520  0.00  0.00    -0.082 A 
ATOM      9  C7  UNL d   1      -3.276   1.512   3.214  0.00  0.00     0.045 A 
ENDROOT
TORSDOF 0
ENDMDL
