MODEL 1
REMARK minimizedAffinity 5.78732538
REMARK minimizedRMSD -1
REMARK  0 active torsions:
REMARK  status: ('A' for Active; 'I' for Inactive)
ROOT
ATOM      1  C   UNL d   1       0.782   1.427   1.024  0.00  0.00    -0.002 A 
ATOM      2  C1  UNL d   1       0.023   2.436   1.599  0.00  0.00     0.010 A 
ATOM      3  C2  UNL d   1      -1.145   2.134   2.302  0.00  0.00     0.041 A 
ATOM      4  C3  UNL d   1      -1.540   0.786   2.420  0.00  0.00    -0.075 A 
ATOM      5  S   UNL d   1      -2.932   0.179   3.235  0.00  0.00     0.015 SA
ATOM      6  C4  UNL d   1      -2.551  -1.435   2.840  0.00  0.00     0.022 A 
ATOM      7  C5  UNL d   1      -1.394  -1.526   2.104  0.00  0.00     0.026 A 
ATOM      8  C6  UNL d   1      -0.791  -0.247   1.850  0.00  0.00    -0.082 A 
ATOM      9  C7  UNL d   1       0.387   0.092   1.143  0.00  0.00     0.045 A 
ENDROOT
TORSDOF 0
ENDMDL
