MODEL 1
REMARK minimizedAffinity 5.95477009
REMARK minimizedRMSD -1
REMARK  0 active torsions:
REMARK  status: ('A' for Active; 'I' for Inactive)
ROOT
ATOM      1  C   UNL d   1      -1.367   0.523   1.743  0.00  0.00    -0.002 A 
ATOM      2  C1  UNL d   1      -1.010  -0.664   2.366  0.00  0.00     0.010 A 
ATOM      3  C2  UNL d   1       0.259  -1.213   2.174  0.00  0.00     0.041 A 
ATOM      4  C3  UNL d   1       1.173  -0.541   1.339  0.00  0.00    -0.075 A 
ATOM      5  S   UNL d   1       2.783  -1.025   0.958  0.00  0.00     0.015 SA
ATOM      6  C4  UNL d   1       3.036   0.334  -0.039  0.00  0.00     0.022 A 
ATOM      7  C5  UNL d   1       1.929   1.148  -0.092  0.00  0.00     0.026 A 
ATOM      8  C6  UNL d   1       0.837   0.657   0.702  0.00  0.00    -0.082 A 
ATOM      9  C7  UNL d   1      -0.458   1.188   0.916  0.00  0.00     0.045 A 
ENDROOT
TORSDOF 0
ENDMDL
