MODEL 1
REMARK minimizedAffinity -5.11833954
REMARK minimizedRMSD -1
REMARK  0 active torsions:
REMARK  status: ('A' for Active; 'I' for Inactive)
ROOT
ATOM      1  C   UNL d   1      -3.098   0.941   3.151  0.00  0.00    -0.002 A 
ATOM      2  C1  UNL d   1      -2.734  -0.276   2.592  0.00  0.00     0.010 A 
ATOM      3  C2  UNL d   1      -1.566  -0.389   1.836  0.00  0.00     0.041 A 
ATOM      4  C3  UNL d   1      -0.761   0.752   1.650  0.00  0.00    -0.075 A 
ATOM      5  S   UNL d   1       0.714   0.850   0.763  0.00  0.00     0.015 SA
ATOM      6  C4  UNL d   1       0.896   2.510   1.105  0.00  0.00     0.022 A 
ATOM      7  C5  UNL d   1      -0.134   2.993   1.877  0.00  0.00     0.026 A 
ATOM      8  C6  UNL d   1      -1.106   1.988   2.204  0.00  0.00    -0.082 A 
ATOM      9  C7  UNL d   1      -2.297   2.070   2.965  0.00  0.00     0.045 A 
ENDROOT
TORSDOF 0
ENDMDL
