MODEL 1
REMARK minimizedAffinity 4.10638905
REMARK minimizedRMSD -1
REMARK  0 active torsions:
REMARK  status: ('A' for Active; 'I' for Inactive)
ROOT
ATOM      1  C   UNL d   1       1.763   0.656   1.276  0.00  0.00    -0.002 A 
ATOM      2  C1  UNL d   1       1.340  -0.233   2.254  0.00  0.00     0.010 A 
ATOM      3  C2  UNL d   1       0.109  -0.057   2.890  0.00  0.00     0.041 A 
ATOM      4  C3  UNL d   1      -0.698   1.037   2.521  0.00  0.00    -0.075 A 
ATOM      5  S   UNL d   1      -2.243   1.452   3.163  0.00  0.00     0.015 SA
ATOM      6  C4  UNL d   1      -2.379   2.818   2.153  0.00  0.00     0.022 A 
ATOM      7  C5  UNL d   1      -1.281   2.970   1.340  0.00  0.00     0.026 A 
ATOM      8  C6  UNL d   1      -0.294   1.945   1.538  0.00  0.00    -0.082 A 
ATOM      9  C7  UNL d   1       0.959   1.740   0.913  0.00  0.00     0.045 A 
ENDROOT
TORSDOF 0
ENDMDL
