MODEL 1
REMARK minimizedAffinity 2.86078382
REMARK minimizedRMSD -1
REMARK  0 active torsions:
REMARK  status: ('A' for Active; 'I' for Inactive)
ROOT
ATOM      1  C   UNL d   1      -2.836   0.686   2.407  0.00  0.00    -0.002 A 
ATOM      2  C1  UNL d   1      -2.480   1.996   2.693  0.00  0.00     0.010 A 
ATOM      3  C2  UNL d   1      -1.236   2.495   2.303  0.00  0.00     0.041 A 
ATOM      4  C3  UNL d   1      -0.347   1.648   1.614  0.00  0.00    -0.075 A 
ATOM      5  S   UNL d   1       1.230   2.042   1.038  0.00  0.00     0.015 SA
ATOM      6  C4  UNL d   1       1.468   0.481   0.398  0.00  0.00     0.022 A 
ATOM      7  C5  UNL d   1       0.382  -0.335   0.610  0.00  0.00     0.026 A 
ATOM      8  C6  UNL d   1      -0.683   0.325   1.313  0.00  0.00    -0.082 A 
ATOM      9  C7  UNL d   1      -1.951  -0.152   1.722  0.00  0.00     0.045 A 
ENDROOT
TORSDOF 0
ENDMDL
