MODEL 1
REMARK minimizedAffinity 4.35257292
REMARK minimizedRMSD -1
REMARK  0 active torsions:
REMARK  status: ('A' for Active; 'I' for Inactive)
ROOT
ATOM      1  C   UNL d   1      -2.827   0.611   2.560  0.00  0.00    -0.002 A 
ATOM      2  C1  UNL d   1      -1.976   1.520   3.172  0.00  0.00     0.010 A 
ATOM      3  C2  UNL d   1      -2.418   2.295   4.246  0.00  0.00     0.041 A 
ATOM      4  C3  UNL d   1      -3.742   2.138   4.700  0.00  0.00    -0.075 A 
ATOM      5  S   UNL d   1      -4.502   2.979   6.000  0.00  0.00     0.015 SA
ATOM      6  C4  UNL d   1      -5.974   2.151   5.773  0.00  0.00     0.022 A 
ATOM      7  C5  UNL d   1      -5.906   1.251   4.736  0.00  0.00     0.026 A 
ATOM      8  C6  UNL d   1      -4.618   1.229   4.101  0.00  0.00    -0.082 A 
ATOM      9  C7  UNL d   1      -4.140   0.458   3.014  0.00  0.00     0.045 A 
ENDROOT
TORSDOF 0
ENDMDL
