MODEL 1
REMARK minimizedAffinity -2.02337766
REMARK minimizedRMSD -1
REMARK  0 active torsions:
REMARK  status: ('A' for Active; 'I' for Inactive)
ROOT
ATOM      1  C   UNL d   1       4.145   5.508   5.994  0.00  0.00     0.172 C 
ATOM      2  N   UNL d   1       3.766   4.115   5.996  0.00  0.00    -0.070 N 
ATOM      3  C1  UNL d   1       4.630   3.053   5.996  0.00  0.00    -0.004 A 
ATOM      4  C2  UNL d   1       3.879   1.897   5.999  0.00  0.00    -0.047 A 
ATOM      5  C3  UNL d   1       2.516   2.279   6.000  0.00  0.00    -0.047 A 
ATOM      6  C4  UNL d   1       2.475   3.657   5.998  0.00  0.00    -0.004 A 
ENDROOT
TORSDOF 0
ENDMDL
