MODEL 1
REMARK minimizedAffinity 1.0680362
REMARK minimizedRMSD -1
REMARK  0 active torsions:
REMARK  status: ('A' for Active; 'I' for Inactive)
ROOT
ATOM      1  C   UNL d   1       0.763   5.985   5.186  0.00  0.00     0.172 C 
ATOM      2  N   UNL d   1       1.717   4.913   5.346  0.00  0.00    -0.070 N 
ATOM      3  C1  UNL d   1       1.487   3.732   6.000  0.00  0.00    -0.004 A 
ATOM      4  C2  UNL d   1       2.640   2.980   5.932  0.00  0.00    -0.047 A 
ATOM      5  C3  UNL d   1       3.596   3.737   5.213  0.00  0.00    -0.047 A 
ATOM      6  C4  UNL d   1       2.998   4.929   4.863  0.00  0.00    -0.004 A 
ENDROOT
TORSDOF 0
ENDMDL
