MODEL 1
REMARK minimizedAffinity 0.663192093
REMARK minimizedRMSD -1
REMARK  0 active torsions:
REMARK  status: ('A' for Active; 'I' for Inactive)
ROOT
ATOM      1  C   UNL d   1       1.847   4.875   5.998  0.00  0.00     0.172 C 
ATOM      2  N   UNL d   1       3.029   4.045   5.990  0.00  0.00    -0.070 N 
ATOM      3  C1  UNL d   1       4.322   4.496   5.971  0.00  0.00    -0.004 A 
ATOM      4  C2  UNL d   1       5.153   3.397   5.969  0.00  0.00    -0.047 A 
ATOM      5  C3  UNL d   1       4.331   2.245   5.987  0.00  0.00    -0.047 A 
ATOM      6  C4  UNL d   1       3.021   2.675   6.000  0.00  0.00    -0.004 A 
ENDROOT
TORSDOF 0
ENDMDL
