MODEL 1
REMARK minimizedAffinity -1.40051699
REMARK minimizedRMSD -1
REMARK  0 active torsions:
REMARK  status: ('A' for Active; 'I' for Inactive)
ROOT
ATOM      1  C   UNL d   1       0.298  -3.102   4.495  0.00  0.00     0.172 C 
ATOM      2  N   UNL d   1      -0.585  -4.211   4.769  0.00  0.00    -0.070 N 
ATOM      3  C1  UNL d   1      -1.073  -4.558   6.000  0.00  0.00    -0.004 A 
ATOM      4  C2  UNL d   1      -1.875  -5.668   5.838  0.00  0.00    -0.047 A 
ATOM      5  C3  UNL d   1      -1.867  -6.000   4.463  0.00  0.00    -0.047 A 
ATOM      6  C4  UNL d   1      -1.060  -5.082   3.824  0.00  0.00    -0.004 A 
ENDROOT
TORSDOF 0
ENDMDL
