MODEL 1
REMARK minimizedAffinity -2.25222421
REMARK minimizedRMSD -1
REMARK  0 active torsions:
REMARK  status: ('A' for Active; 'I' for Inactive)
ROOT
ATOM      1  C   UNL d   1       1.760  -1.821   4.174  0.00  0.00     0.172 C 
ATOM      2  N   UNL d   1       1.155  -3.038   4.664  0.00  0.00    -0.070 N 
ATOM      3  C1  UNL d   1       1.618  -3.796   5.706  0.00  0.00    -0.004 A 
ATOM      4  C2  UNL d   1       0.766  -4.868   5.859  0.00  0.00    -0.047 A 
ATOM      5  C3  UNL d   1      -0.243  -4.751   4.874  0.00  0.00    -0.047 A 
ATOM      6  C4  UNL d   1       0.022  -3.609   4.148  0.00  0.00    -0.004 A 
ENDROOT
TORSDOF 0
ENDMDL
