MODEL 1
REMARK minimizedAffinity -0.940533638
REMARK minimizedRMSD -1
REMARK  0 active torsions:
REMARK  status: ('A' for Active; 'I' for Inactive)
ROOT
ATOM      1  C   UNL d   1       0.793   4.886   5.999  0.00  0.00     0.172 C 
ATOM      2  N   UNL d   1       1.986   4.072   5.999  0.00  0.00    -0.070 N 
ATOM      3  C1  UNL d   1       3.272   4.541   5.997  0.00  0.00    -0.004 A 
ATOM      4  C2  UNL d   1       4.118   3.452   5.998  0.00  0.00    -0.047 A 
ATOM      5  C3  UNL d   1       3.312   2.290   5.999  0.00  0.00    -0.047 A 
ATOM      6  C4  UNL d   1       1.996   2.702   6.000  0.00  0.00    -0.004 A 
ENDROOT
TORSDOF 0
ENDMDL
