MODEL 1
REMARK minimizedAffinity -1.26408732
REMARK minimizedRMSD -1
REMARK  0 active torsions:
REMARK  status: ('A' for Active; 'I' for Inactive)
ROOT
ATOM      1  C   UNL d   1       1.819   4.454   5.989  0.00  0.00     0.172 C 
ATOM      2  N   UNL d   1       2.631   3.412   5.405  0.00  0.00    -0.070 N 
ATOM      3  C1  UNL d   1       3.245   3.470   4.183  0.00  0.00    -0.004 A 
ATOM      4  C2  UNL d   1       3.921   2.284   3.993  0.00  0.00    -0.047 A 
ATOM      5  C3  UNL d   1       3.704   1.485   5.142  0.00  0.00    -0.047 A 
ATOM      6  C4  UNL d   1       2.902   2.208   5.999  0.00  0.00    -0.004 A 
ENDROOT
TORSDOF 0
ENDMDL
