MODEL 1
REMARK minimizedAffinity 1.37041354
REMARK minimizedRMSD -1
REMARK  0 active torsions:
REMARK  status: ('A' for Active; 'I' for Inactive)
ROOT
ATOM      1  C   UNL d   1       0.933   4.859   5.992  0.00  0.00     0.172 C 
ATOM      2  N   UNL d   1       2.261   4.290   5.994  0.00  0.00    -0.070 N 
ATOM      3  C1  UNL d   1       2.557   2.953   5.999  0.00  0.00    -0.004 A 
ATOM      4  C2  UNL d   1       3.929   2.825   6.000  0.00  0.00    -0.047 A 
ATOM      5  C3  UNL d   1       4.477   4.130   5.996  0.00  0.00    -0.047 A 
ATOM      6  C4  UNL d   1       3.422   5.018   5.993  0.00  0.00    -0.004 A 
ENDROOT
TORSDOF 0
ENDMDL
