MODEL 1
REMARK minimizedAffinity 7.39937973
REMARK minimizedRMSD -1
REMARK  0 active torsions:
REMARK  status: ('A' for Active; 'I' for Inactive)
ROOT
ATOM      1  C   UNL d   1      -2.096  -0.061  -3.096  0.00  0.00     0.172 C 
ATOM      2  N   UNL d   1      -3.288   0.110  -3.893  0.00  0.00    -0.070 N 
ATOM      3  C1  UNL d   1      -3.395   0.893  -5.010  0.00  0.00    -0.004 A 
ATOM      4  C2  UNL d   1      -4.687   0.786  -5.478  0.00  0.00    -0.047 A 
ATOM      5  C3  UNL d   1      -5.380  -0.091  -4.611  0.00  0.00    -0.047 A 
ATOM      6  C4  UNL d   1      -4.490  -0.496  -3.639  0.00  0.00    -0.004 A 
ENDROOT
TORSDOF 0
ENDMDL
