MODEL 1
REMARK minimizedAffinity 6.06286383
REMARK minimizedRMSD -1
REMARK  2 active torsions:
REMARK  status: ('A' for Active; 'I' for Inactive)
REMARK    1  A    between atoms: C1_2  and  C2_3 
REMARK    2  A    between atoms: C2_3  and  C3_4 
ROOT
ATOM      1  C3  UNL d   1      -3.562   0.357   3.488  0.00  0.00    -0.075 A 
ATOM      2  C4  UNL d   1      -2.160   0.369   3.486  0.00  0.00     0.002 A 
ATOM      3  C5  UNL d   1      -1.454   0.384   2.283  0.00  0.00     0.002 A 
ATOM      4  C6  UNL d   1      -2.138   0.376   1.069  0.00  0.00    -0.004 A 
ATOM      5  C7  UNL d   1      -3.531   0.347   1.059  0.00  0.00     0.002 A 
ATOM      6  C8  UNL d   1      -4.240   0.337   2.262  0.00  0.00     0.002 A 
ENDROOT
BRANCH   1   7
ATOM      7  C2  UNL d   1      -4.333   0.372   4.786  0.00  0.00     0.056 C 
BRANCH   7   8
ATOM      8  C1  UNL d   1      -5.515   1.347   4.799  0.00  0.00     0.007 C 
ATOM      9  C   UNL d   1      -5.504   2.287   5.997  0.00  0.00     0.009 C 
ENDBRANCH   7   8
ENDBRANCH   1   7
TORSDOF 2
ENDMDL
