MODEL 1
REMARK minimizedAffinity 2.23093271
REMARK minimizedRMSD -1
REMARK  2 active torsions:
REMARK  status: ('A' for Active; 'I' for Inactive)
REMARK    1  A    between atoms: C1_2  and  C2_3 
REMARK    2  A    between atoms: C2_3  and  C3_4 
ROOT
ATOM      1  C3  UNL d   1      -2.654  -0.077   4.072  0.00  0.00    -0.075 A 
ATOM      2  C4  UNL d   1      -2.283  -1.020   5.041  0.00  0.00     0.002 A 
ATOM      3  C5  UNL d   1      -3.204  -1.454   5.996  0.00  0.00     0.002 A 
ATOM      4  C6  UNL d   1      -4.500  -0.944   6.000  0.00  0.00    -0.004 A 
ATOM      5  C7  UNL d   1      -4.875   0.005   5.052  0.00  0.00     0.002 A 
ATOM      6  C8  UNL d   1      -3.957   0.438   4.093  0.00  0.00     0.002 A 
ENDROOT
BRANCH   1   7
ATOM      7  C2  UNL d   1      -1.671   0.375   3.018  0.00  0.00     0.056 C 
BRANCH   7   8
ATOM      8  C1  UNL d   1      -0.493   1.185   3.570  0.00  0.00     0.007 C 
ATOM      9  C   UNL d   1      -0.421   2.598   3.007  0.00  0.00     0.009 C 
ENDBRANCH   7   8
ENDBRANCH   1   7
TORSDOF 2
ENDMDL
