MODEL 1
REMARK minimizedAffinity 5.41159582
REMARK minimizedRMSD -1
REMARK  2 active torsions:
REMARK  status: ('A' for Active; 'I' for Inactive)
REMARK    1  A    between atoms: C1_2  and  C2_3 
REMARK    2  A    between atoms: C2_3  and  C3_4 
ROOT
ATOM      1  C3  UNL d   1      -3.003  -3.416  -5.964  0.00  0.00    -0.075 A 
ATOM      2  C4  UNL d   1      -4.100  -4.289  -5.977  0.00  0.00     0.002 A 
ATOM      3  C5  UNL d   1      -5.403  -3.790  -5.990  0.00  0.00     0.002 A 
ATOM      4  C6  UNL d   1      -5.625  -2.415  -5.981  0.00  0.00    -0.004 A 
ATOM      5  C7  UNL d   1      -4.543  -1.538  -5.952  0.00  0.00     0.002 A 
ATOM      6  C8  UNL d   1      -3.238  -2.035  -5.943  0.00  0.00     0.002 A 
ENDROOT
BRANCH   1   7
ATOM      7  C2  UNL d   1      -1.590  -3.950  -5.979  0.00  0.00     0.056 C 
BRANCH   7   8
ATOM      8  C1  UNL d   1      -1.502  -5.480  -5.999  0.00  0.00     0.007 C 
ATOM      9  C   UNL d   1      -0.073  -5.999  -5.918  0.00  0.00     0.009 C 
ENDBRANCH   7   8
ENDBRANCH   1   7
TORSDOF 2
ENDMDL
