MODEL 1
REMARK minimizedAffinity 19.7825394
REMARK minimizedRMSD -1
REMARK  2 active torsions:
REMARK  status: ('A' for Active; 'I' for Inactive)
REMARK    1  A    between atoms: C1_2  and  C2_3 
REMARK    2  A    between atoms: C2_3  and  C3_4 
ROOT
ATOM      1  C3  UNL d   1       3.894   3.922  -4.061  0.00  0.00    -0.075 A 
ATOM      2  C4  UNL d   1       5.008   4.773  -4.100  0.00  0.00     0.002 A 
ATOM      3  C5  UNL d   1       5.999   4.600  -5.067  0.00  0.00     0.002 A 
ATOM      4  C6  UNL d   1       5.893   3.570  -6.000  0.00  0.00    -0.004 A 
ATOM      5  C7  UNL d   1       4.799   2.709  -5.960  0.00  0.00     0.002 A 
ATOM      6  C8  UNL d   1       3.805   2.882  -4.996  0.00  0.00     0.002 A 
ENDROOT
BRANCH   1   7
ATOM      7  C2  UNL d   1       2.805   4.122  -3.035  0.00  0.00     0.056 C 
BRANCH   7   8
ATOM      8  C1  UNL d   1       2.973   3.270  -1.773  0.00  0.00     0.007 C 
ATOM      9  C   UNL d   1       1.955   2.142  -1.669  0.00  0.00     0.009 C 
ENDBRANCH   7   8
ENDBRANCH   1   7
TORSDOF 2
ENDMDL
