MODEL 1
REMARK minimizedAffinity 10.2701426
REMARK minimizedRMSD -1
REMARK  2 active torsions:
REMARK  status: ('A' for Active; 'I' for Inactive)
REMARK    1  A    between atoms: C1_2  and  C2_3 
REMARK    2  A    between atoms: C2_3  and  C3_4 
ROOT
ATOM      1  C3  UNL d   1      -5.679   2.272   5.195  0.00  0.00    -0.075 A 
ATOM      2  C4  UNL d   1      -5.056   1.305   5.999  0.00  0.00     0.002 A 
ATOM      3  C5  UNL d   1      -4.739   0.050   5.479  0.00  0.00     0.002 A 
ATOM      4  C6  UNL d   1      -5.047  -0.258   4.156  0.00  0.00    -0.004 A 
ATOM      5  C7  UNL d   1      -5.681   0.688   3.354  0.00  0.00     0.002 A 
ATOM      6  C8  UNL d   1      -5.996   1.946   3.869  0.00  0.00     0.002 A 
ENDROOT
BRANCH   1   7
ATOM      7  C2  UNL d   1      -5.999   3.642   5.742  0.00  0.00     0.056 C 
BRANCH   7   8
ATOM      8  C1  UNL d   1      -5.258   4.784   5.038  0.00  0.00     0.007 C 
ATOM      9  C   UNL d   1      -4.765   5.860   5.996  0.00  0.00     0.009 C 
ENDBRANCH   7   8
ENDBRANCH   1   7
TORSDOF 2
ENDMDL
