MODEL 1
REMARK minimizedAffinity -2.79530263
REMARK minimizedRMSD -1
REMARK  2 active torsions:
REMARK  status: ('A' for Active; 'I' for Inactive)
REMARK    1  A    between atoms: C1_2  and  C2_3 
REMARK    2  A    between atoms: C2_3  and  C3_4 
ROOT
ATOM      1  C3  UNL d   1      -2.285   1.180   2.515  0.00  0.00    -0.075 A 
ATOM      2  C4  UNL d   1      -1.913   2.440   3.006  0.00  0.00     0.002 A 
ATOM      3  C5  UNL d   1      -0.712   2.605   3.696  0.00  0.00     0.002 A 
ATOM      4  C6  UNL d   1       0.126   1.513   3.913  0.00  0.00    -0.004 A 
ATOM      5  C7  UNL d   1      -0.241   0.254   3.444  0.00  0.00     0.002 A 
ATOM      6  C8  UNL d   1      -1.441   0.087   2.750  0.00  0.00     0.002 A 
ENDROOT
BRANCH   1   7
ATOM      7  C2  UNL d   1      -3.570   1.001   1.742  0.00  0.00     0.056 C 
BRANCH   7   8
ATOM      8  C1  UNL d   1      -3.456   0.033   0.560  0.00  0.00     0.007 C 
ATOM      9  C   UNL d   1      -4.430  -1.135   0.644  0.00  0.00     0.009 C 
ENDBRANCH   7   8
ENDBRANCH   1   7
TORSDOF 2
ENDMDL
