MODEL 1
REMARK minimizedAffinity 10.4382782
REMARK minimizedRMSD -1
REMARK  2 active torsions:
REMARK  status: ('A' for Active; 'I' for Inactive)
REMARK    1  A    between atoms: C1_2  and  C2_3 
REMARK    2  A    between atoms: C2_3  and  C3_4 
ROOT
ATOM      1  C3  UNL d   1      -0.768   1.978   2.210  0.00  0.00    -0.075 A 
ATOM      2  C4  UNL d   1      -1.934   2.561   1.693  0.00  0.00     0.002 A 
ATOM      3  C5  UNL d   1      -3.156   1.893   1.776  0.00  0.00     0.002 A 
ATOM      4  C6  UNL d   1      -3.226   0.633   2.366  0.00  0.00    -0.004 A 
ATOM      5  C7  UNL d   1      -2.071   0.037   2.868  0.00  0.00     0.002 A 
ATOM      6  C8  UNL d   1      -0.848   0.705   2.791  0.00  0.00     0.002 A 
ENDROOT
BRANCH   1   7
ATOM      7  C2  UNL d   1       0.553   2.708   2.151  0.00  0.00     0.056 C 
BRANCH   7   8
ATOM      8  C1  UNL d   1       1.603   2.178   3.132  0.00  0.00     0.007 C 
ATOM      9  C   UNL d   1       1.562   2.871   4.488  0.00  0.00     0.009 C 
ENDBRANCH   7   8
ENDBRANCH   1   7
TORSDOF 2
ENDMDL
