MODEL 1
REMARK minimizedAffinity 8.99203587
REMARK minimizedRMSD -1
REMARK  2 active torsions:
REMARK  status: ('A' for Active; 'I' for Inactive)
REMARK    1  A    between atoms: C1_2  and  C2_3 
REMARK    2  A    between atoms: C2_3  and  C3_4 
ROOT
ATOM      1  C3  UNL d   1       0.158  -0.875  -5.084  0.00  0.00    -0.075 A 
ATOM      2  C4  UNL d   1      -0.955  -0.023  -5.104  0.00  0.00     0.002 A 
ATOM      3  C5  UNL d   1      -2.192  -0.485  -5.555  0.00  0.00     0.002 A 
ATOM      4  C6  UNL d   1      -2.329  -1.798  -6.000  0.00  0.00    -0.004 A 
ATOM      5  C7  UNL d   1      -1.225  -2.648  -6.000  0.00  0.00     0.002 A 
ATOM      6  C8  UNL d   1       0.013  -2.190  -5.545  0.00  0.00     0.002 A 
ENDROOT
BRANCH   1   7
ATOM      7  C2  UNL d   1       1.493  -0.390  -4.570  0.00  0.00     0.056 C 
BRANCH   7   8
ATOM      8  C1  UNL d   1       1.757  -0.734  -3.100  0.00  0.00     0.007 C 
ATOM      9  C   UNL d   1       2.210   0.464  -2.275  0.00  0.00     0.009 C 
ENDBRANCH   7   8
ENDBRANCH   1   7
TORSDOF 2
ENDMDL
