MODEL 1
REMARK minimizedAffinity 4.40043116
REMARK minimizedRMSD -1
REMARK  2 active torsions:
REMARK  status: ('A' for Active; 'I' for Inactive)
REMARK    1  A    between atoms: C1_2  and  C2_3 
REMARK    2  A    between atoms: C2_3  and  C3_4 
ROOT
ATOM      1  C3  UNL d   1      -2.059   0.678   2.611  0.00  0.00    -0.075 A 
ATOM      2  C4  UNL d   1      -2.550   0.583   1.301  0.00  0.00     0.002 A 
ATOM      3  C5  UNL d   1      -3.889   0.265   1.068  0.00  0.00     0.002 A 
ATOM      4  C6  UNL d   1      -4.749   0.029   2.138  0.00  0.00    -0.004 A 
ATOM      5  C7  UNL d   1      -4.268   0.104   3.443  0.00  0.00     0.002 A 
ATOM      6  C8  UNL d   1      -2.930   0.427   3.680  0.00  0.00     0.002 A 
ENDROOT
BRANCH   1   7
ATOM      7  C2  UNL d   1      -0.619   1.051   2.872  0.00  0.00     0.056 C 
BRANCH   7   8
ATOM      8  C1  UNL d   1       0.267  -0.131   3.277  0.00  0.00     0.007 C 
ATOM      9  C   UNL d   1       1.746   0.225   3.353  0.00  0.00     0.009 C 
ENDBRANCH   7   8
ENDBRANCH   1   7
TORSDOF 2
ENDMDL
