MODEL 1
REMARK minimizedAffinity 9.77887058
REMARK minimizedRMSD -1
REMARK  2 active torsions:
REMARK  status: ('A' for Active; 'I' for Inactive)
REMARK    1  A    between atoms: C1_2  and  C2_3 
REMARK    2  A    between atoms: C2_3  and  C3_4 
ROOT
ATOM      1  C3  UNL d   1      -4.440   0.361   3.334  0.00  0.00    -0.075 A 
ATOM      2  C4  UNL d   1      -3.317   1.002   2.789  0.00  0.00     0.002 A 
ATOM      3  C5  UNL d   1      -2.945   0.775   1.464  0.00  0.00     0.002 A 
ATOM      4  C6  UNL d   1      -3.683  -0.101   0.671  0.00  0.00    -0.004 A 
ATOM      5  C7  UNL d   1      -4.790  -0.755   1.206  0.00  0.00     0.002 A 
ATOM      6  C8  UNL d   1      -5.167  -0.527   2.530  0.00  0.00     0.002 A 
ENDROOT
BRANCH   1   7
ATOM      7  C2  UNL d   1      -4.865   0.625   4.758  0.00  0.00     0.056 C 
BRANCH   7   8
ATOM      8  C1  UNL d   1      -5.998   1.648   4.892  0.00  0.00     0.007 C 
ATOM      9  C   UNL d   1      -5.707   2.736   5.918  0.00  0.00     0.009 C 
ENDBRANCH   7   8
ENDBRANCH   1   7
TORSDOF 2
ENDMDL
