MODEL 1
REMARK minimizedAffinity -4.32544565
REMARK minimizedRMSD -1
REMARK  0 active torsions:
REMARK  status: ('A' for Active; 'I' for Inactive)
ROOT
ATOM      1  C   UNL d   1       1.508   1.307  -2.993  0.00  0.00     0.124 A 
ATOM      2  C1  UNL d   1       0.306   1.650  -2.390  0.00  0.00     0.062 A 
ATOM      3  C2  UNL d   1      -0.249   0.826  -1.416  0.00  0.00     0.162 A 
ATOM      4  C3  UNL d   1       0.399  -0.350  -1.037  0.00  0.00    -0.034 A 
ATOM      5  C4  UNL d   1       1.607  -0.689  -1.648  0.00  0.00     0.162 A 
ATOM      6  C5  UNL d   1       2.157   0.138  -2.622  0.00  0.00     0.062 A 
ATOM      7  F   UNL d   1       3.319  -0.195  -3.203  0.00  0.00    -0.097 F 
ATOM      8  F1  UNL d   1       2.256  -1.812  -1.307  0.00  0.00    -0.096 F 
ATOM      9  I   UNL d   1      -0.427  -1.585   0.421  0.00  0.00    -0.060 I 
ATOM     10  F2  UNL d   1      -1.411   1.183  -0.850  0.00  0.00    -0.096 F 
ATOM     11  F3  UNL d   1      -0.324   2.779  -2.748  0.00  0.00    -0.097 F 
ATOM     12  F4  UNL d   1       2.039   2.102  -3.932  0.00  0.00    -0.092 F 
ENDROOT
TORSDOF 0
ENDMDL
