MODEL 1
REMARK minimizedAffinity -1.41518152
REMARK minimizedRMSD -1
REMARK  0 active torsions:
REMARK  status: ('A' for Active; 'I' for Inactive)
ROOT
ATOM      1  C   UNL d   1      -0.018  -1.315  -0.310  0.00  0.00     0.124 A 
ATOM      2  C1  UNL d   1       0.990  -1.326  -1.264  0.00  0.00     0.062 A 
ATOM      3  C2  UNL d   1       1.330  -0.156  -1.937  0.00  0.00     0.162 A 
ATOM      4  C3  UNL d   1       0.662   1.036  -1.657  0.00  0.00    -0.034 A 
ATOM      5  C4  UNL d   1      -0.352   1.039  -0.697  0.00  0.00     0.162 A 
ATOM      6  C5  UNL d   1      -0.688  -0.133  -0.028  0.00  0.00     0.062 A 
ATOM      7  F   UNL d   1      -1.662  -0.121   0.894  0.00  0.00    -0.097 F 
ATOM      8  F1  UNL d   1      -1.015   2.167  -0.404  0.00  0.00    -0.096 F 
ATOM      9  I   UNL d   1       1.166   2.788  -2.661  0.00  0.00    -0.060 I 
ATOM     10  F2  UNL d   1       2.308  -0.195  -2.854  0.00  0.00    -0.096 F 
ATOM     11  F3  UNL d   1       1.638  -2.467  -1.540  0.00  0.00    -0.097 F 
ATOM     12  F4  UNL d   1      -0.343  -2.443   0.335  0.00  0.00    -0.092 F 
ENDROOT
TORSDOF 0
ENDMDL
