MODEL 1
REMARK minimizedAffinity -4.05708027
REMARK minimizedRMSD -1
REMARK  0 active torsions:
REMARK  status: ('A' for Active; 'I' for Inactive)
ROOT
ATOM      1  C   UNL d   1       2.833   0.872  -2.053  0.00  0.00     0.124 A 
ATOM      2  C1  UNL d   1       2.672  -0.111  -1.086  0.00  0.00     0.062 A 
ATOM      3  C2  UNL d   1       1.460  -0.240  -0.414  0.00  0.00     0.162 A 
ATOM      4  C3  UNL d   1       0.398   0.615  -0.706  0.00  0.00    -0.034 A 
ATOM      5  C4  UNL d   1       0.568   1.602  -1.679  0.00  0.00     0.162 A 
ATOM      6  C5  UNL d   1       1.781   1.727  -2.348  0.00  0.00     0.062 A 
ATOM      7  F   UNL d   1       1.934   2.678  -3.282  0.00  0.00    -0.097 F 
ATOM      8  F1  UNL d   1      -0.433   2.442  -1.985  0.00  0.00    -0.096 F 
ATOM      9  I   UNL d   1      -1.415   0.425   0.297  0.00  0.00    -0.060 I 
ATOM     10  F2  UNL d   1       1.333  -1.199   0.516  0.00  0.00    -0.096 F 
ATOM     11  F3  UNL d   1       3.687  -0.938  -0.798  0.00  0.00    -0.097 F 
ATOM     12  F4  UNL d   1       4.000   0.995  -2.697  0.00  0.00    -0.092 F 
ENDROOT
TORSDOF 0
ENDMDL
