MODEL 1
REMARK minimizedAffinity -1.65802872
REMARK minimizedRMSD -1
REMARK  0 active torsions:
REMARK  status: ('A' for Active; 'I' for Inactive)
ROOT
ATOM      1  C   UNL d   1       1.571   0.404  -2.063  0.00  0.00     0.124 A 
ATOM      2  C1  UNL d   1       1.530  -0.613  -1.120  0.00  0.00     0.062 A 
ATOM      3  C2  UNL d   1       0.469  -0.693  -0.222  0.00  0.00     0.162 A 
ATOM      4  C3  UNL d   1      -0.560   0.247  -0.264  0.00  0.00    -0.034 A 
ATOM      5  C4  UNL d   1      -0.511   1.268  -1.215  0.00  0.00     0.162 A 
ATOM      6  C5  UNL d   1       0.551   1.344  -2.109  0.00  0.00     0.062 A 
ATOM      7  F   UNL d   1       0.590   2.328  -3.020  0.00  0.00    -0.097 F 
ATOM      8  F1  UNL d   1      -1.484   2.189  -1.282  0.00  0.00    -0.096 F 
ATOM      9  I   UNL d   1      -2.148   0.131   1.076  0.00  0.00    -0.060 I 
ATOM     10  F2  UNL d   1       0.455  -1.687   0.678  0.00  0.00    -0.096 F 
ATOM     11  F3  UNL d   1       2.515  -1.522  -1.072  0.00  0.00    -0.097 F 
ATOM     12  F4  UNL d   1       2.594   0.480  -2.925  0.00  0.00    -0.092 F 
ENDROOT
TORSDOF 0
ENDMDL
