MODEL 1
REMARK minimizedAffinity 3.19567227
REMARK minimizedRMSD -1
REMARK  0 active torsions:
REMARK  status: ('A' for Active; 'I' for Inactive)
ROOT
ATOM      1  C   UNL d   1      -2.055   1.677   3.563  0.00  0.00     0.124 A 
ATOM      2  C1  UNL d   1      -2.466   0.384   3.269  0.00  0.00     0.062 A 
ATOM      3  C2  UNL d   1      -1.838  -0.338   2.258  0.00  0.00     0.162 A 
ATOM      4  C3  UNL d   1      -0.792   0.232   1.532  0.00  0.00    -0.034 A 
ATOM      5  C4  UNL d   1      -0.385   1.534   1.832  0.00  0.00     0.162 A 
ATOM      6  C5  UNL d   1      -1.016   2.251   2.844  0.00  0.00     0.062 A 
ATOM      7  F   UNL d   1      -0.618   3.500   3.126  0.00  0.00    -0.097 F 
ATOM      8  F1  UNL d   1       0.617   2.112   1.154  0.00  0.00    -0.096 F 
ATOM      9  I   UNL d   1       0.150  -0.843   0.019  0.00  0.00    -0.060 I 
ATOM     10  F2  UNL d   1      -2.255  -1.585   1.996  0.00  0.00    -0.096 F 
ATOM     11  F3  UNL d   1      -3.470  -0.173   3.962  0.00  0.00    -0.097 F 
ATOM     12  F4  UNL d   1      -2.662   2.369   4.536  0.00  0.00    -0.092 F 
ENDROOT
TORSDOF 0
ENDMDL
