MODEL 1
REMARK minimizedAffinity -4.33818388
REMARK minimizedRMSD -1
REMARK  0 active torsions:
REMARK  status: ('A' for Active; 'I' for Inactive)
ROOT
ATOM      1  C   UNL d   1       2.729   0.170  -2.421  0.00  0.00     0.124 A 
ATOM      2  C1  UNL d   1       2.480  -0.799  -1.459  0.00  0.00     0.062 A 
ATOM      3  C2  UNL d   1       1.399  -0.663  -0.593  0.00  0.00     0.162 A 
ATOM      4  C3  UNL d   1       0.559   0.446  -0.685  0.00  0.00    -0.034 A 
ATOM      5  C4  UNL d   1       0.816   1.417  -1.654  0.00  0.00     0.162 A 
ATOM      6  C5  UNL d   1       1.898   1.277  -2.518  0.00  0.00     0.062 A 
ATOM      7  F   UNL d   1       2.137   2.214  -3.447  0.00  0.00    -0.097 F 
ATOM      8  F1  UNL d   1       0.028   2.496  -1.770  0.00  0.00    -0.096 F 
ATOM      9  I   UNL d   1      -1.058   0.653   0.610  0.00  0.00    -0.060 I 
ATOM     10  F2  UNL d   1       1.182  -1.615   0.327  0.00  0.00    -0.096 F 
ATOM     11  F3  UNL d   1       3.282  -1.869  -1.364  0.00  0.00    -0.097 F 
ATOM     12  F4  UNL d   1       3.770   0.037  -3.253  0.00  0.00    -0.092 F 
ENDROOT
TORSDOF 0
ENDMDL
