MODEL 1
REMARK minimizedAffinity 0.196906552
REMARK minimizedRMSD -1
REMARK  0 active torsions:
REMARK  status: ('A' for Active; 'I' for Inactive)
ROOT
ATOM      1  C   UNL d   1       1.975   0.016  -2.081  0.00  0.00     0.124 A 
ATOM      2  C1  UNL d   1       1.778  -1.034  -1.194  0.00  0.00     0.062 A 
ATOM      3  C2  UNL d   1       0.743  -0.981  -0.265  0.00  0.00     0.162 A 
ATOM      4  C3  UNL d   1      -0.106   0.125  -0.219  0.00  0.00    -0.034 A 
ATOM      5  C4  UNL d   1       0.099   1.177  -1.114  0.00  0.00     0.162 A 
ATOM      6  C5  UNL d   1       1.135   1.120  -2.040  0.00  0.00     0.062 A 
ATOM      7  F   UNL d   1       1.323   2.135  -2.896  0.00  0.00    -0.097 F 
ATOM      8  F1  UNL d   1      -0.699   2.256  -1.097  0.00  0.00    -0.096 F 
ATOM      9  I   UNL d   1      -1.655   0.208   1.168  0.00  0.00    -0.060 I 
ATOM     10  F2  UNL d   1       0.577  -2.009   0.580  0.00  0.00    -0.096 F 
ATOM     11  F3  UNL d   1       2.589  -2.101  -1.230  0.00  0.00    -0.097 F 
ATOM     12  F4  UNL d   1       2.972  -0.037  -2.973  0.00  0.00    -0.092 F 
ENDROOT
TORSDOF 0
ENDMDL
