MODEL 1
REMARK minimizedAffinity -5.53910732
REMARK minimizedRMSD -1
REMARK  0 active torsions:
REMARK  status: ('A' for Active; 'I' for Inactive)
ROOT
ATOM      1  C   UNL d   1       2.403   0.464  -1.945  0.00  0.00     0.124 A 
ATOM      2  C1  UNL d   1       1.511   1.470  -2.290  0.00  0.00     0.062 A 
ATOM      3  C2  UNL d   1       0.279   1.564  -1.649  0.00  0.00     0.162 A 
ATOM      4  C3  UNL d   1      -0.068   0.649  -0.654  0.00  0.00    -0.034 A 
ATOM      5  C4  UNL d   1       0.834  -0.360  -0.313  0.00  0.00     0.162 A 
ATOM      6  C5  UNL d   1       2.064  -0.450  -0.957  0.00  0.00     0.062 A 
ATOM      7  F   UNL d   1       2.924  -1.422  -0.622  0.00  0.00    -0.097 F 
ATOM      8  F1  UNL d   1       0.532  -1.256   0.639  0.00  0.00    -0.096 F 
ATOM      9  I   UNL d   1      -1.909   0.786   0.307  0.00  0.00    -0.060 I 
ATOM     10  F2  UNL d   1      -0.563   2.546  -2.003  0.00  0.00    -0.096 F 
ATOM     11  F3  UNL d   1       1.836   2.353  -3.245  0.00  0.00    -0.097 F 
ATOM     12  F4  UNL d   1       3.587   0.375  -2.564  0.00  0.00    -0.092 F 
ENDROOT
TORSDOF 0
ENDMDL
