MODEL 1
REMARK minimizedAffinity -4.56919861
REMARK minimizedRMSD -1
REMARK  0 active torsions:
REMARK  status: ('A' for Active; 'I' for Inactive)
ROOT
ATOM      1  C   UNL d   1       2.638   0.710  -1.826  0.00  0.00     0.124 A 
ATOM      2  C1  UNL d   1       1.467   1.333  -2.234  0.00  0.00     0.062 A 
ATOM      3  C2  UNL d   1       0.329   1.276  -1.434  0.00  0.00     0.162 A 
ATOM      4  C3  UNL d   1       0.357   0.594  -0.217  0.00  0.00    -0.034 A 
ATOM      5  C4  UNL d   1       1.539  -0.030   0.186  0.00  0.00     0.162 A 
ATOM      6  C5  UNL d   1       2.673   0.030  -0.617  0.00  0.00     0.062 A 
ATOM      7  F   UNL d   1       3.804  -0.573  -0.222  0.00  0.00    -0.097 F 
ATOM      8  F1  UNL d   1       1.601  -0.694   1.349  0.00  0.00    -0.096 F 
ATOM      9  I   UNL d   1      -1.342   0.507   0.981  0.00  0.00    -0.060 I 
ATOM     10  F2  UNL d   1      -0.789   1.887  -1.853  0.00  0.00    -0.096 F 
ATOM     11  F3  UNL d   1       1.430   1.990  -3.402  0.00  0.00    -0.097 F 
ATOM     12  F4  UNL d   1       3.731   0.766  -2.598  0.00  0.00    -0.092 F 
ENDROOT
TORSDOF 0
ENDMDL
