MODEL 1
REMARK minimizedAffinity -2.86525726
REMARK minimizedRMSD -1
REMARK  0 active torsions:
REMARK  status: ('A' for Active; 'I' for Inactive)
ROOT
ATOM      1  C   UNL d   1       1.673   0.113  -2.219  0.00  0.00     0.124 A 
ATOM      2  C1  UNL d   1       0.785   1.179  -2.271  0.00  0.00     0.062 A 
ATOM      3  C2  UNL d   1      -0.265   1.261  -1.362  0.00  0.00     0.162 A 
ATOM      4  C3  UNL d   1      -0.434   0.274  -0.390  0.00  0.00    -0.034 A 
ATOM      5  C4  UNL d   1       0.463  -0.795  -0.344  0.00  0.00     0.162 A 
ATOM      6  C5  UNL d   1       1.511  -0.873  -1.255  0.00  0.00     0.062 A 
ATOM      7  F   UNL d   1       2.367  -1.903  -1.203  0.00  0.00    -0.097 F 
ATOM      8  F1  UNL d   1       0.330  -1.761   0.577  0.00  0.00    -0.096 F 
ATOM      9  I   UNL d   1      -2.003   0.393   0.971  0.00  0.00    -0.060 I 
ATOM     10  F2  UNL d   1      -1.108   2.302  -1.436  0.00  0.00    -0.096 F 
ATOM     11  F3  UNL d   1       0.939   2.132  -3.202  0.00  0.00    -0.097 F 
ATOM     12  F4  UNL d   1       2.682   0.036  -3.095  0.00  0.00    -0.092 F 
ENDROOT
TORSDOF 0
ENDMDL
