MODEL 1
REMARK minimizedAffinity -3.54383445
REMARK minimizedRMSD -1
REMARK  0 active torsions:
REMARK  status: ('A' for Active; 'I' for Inactive)
ROOT
ATOM      1  C   UNL d   1       2.292   0.339  -2.050  0.00  0.00     0.124 A 
ATOM      2  C1  UNL d   1       2.238  -0.526  -0.966  0.00  0.00     0.062 A 
ATOM      3  C2  UNL d   1       1.158  -0.481  -0.089  0.00  0.00     0.162 A 
ATOM      4  C3  UNL d   1       0.122   0.430  -0.294  0.00  0.00    -0.034 A 
ATOM      5  C4  UNL d   1       0.184   1.297  -1.387  0.00  0.00     0.162 A 
ATOM      6  C5  UNL d   1       1.266   1.249  -2.260  0.00  0.00     0.062 A 
ATOM      7  F   UNL d   1       1.317   2.084  -3.307  0.00  0.00    -0.097 F 
ATOM      8  F1  UNL d   1      -0.795   2.185  -1.613  0.00  0.00    -0.096 F 
ATOM      9  I   UNL d   1      -1.495   0.499   1.014  0.00  0.00    -0.060 I 
ATOM     10  F2  UNL d   1       1.131  -1.328   0.951  0.00  0.00    -0.096 F 
ATOM     11  F3  UNL d   1       3.229  -1.405  -0.760  0.00  0.00    -0.097 F 
ATOM     12  F4  UNL d   1       3.333   0.294  -2.892  0.00  0.00    -0.092 F 
ENDROOT
TORSDOF 0
ENDMDL
