MODEL 1
REMARK minimizedAffinity -1.98800039
REMARK minimizedRMSD -1
REMARK  0 active torsions:
REMARK  status: ('A' for Active; 'I' for Inactive)
ROOT
ATOM      1  C   UNL d   1       1.515   0.075  -1.642  0.00  0.00     0.124 A 
ATOM      2  C1  UNL d   1       1.461  -0.953  -0.711  0.00  0.00     0.062 A 
ATOM      3  C2  UNL d   1       0.449  -0.979   0.245  0.00  0.00     0.162 A 
ATOM      4  C3  UNL d   1      -0.518   0.026   0.274  0.00  0.00    -0.034 A 
ATOM      5  C4  UNL d   1      -0.457   1.057  -0.666  0.00  0.00     0.162 A 
ATOM      6  C5  UNL d   1       0.556   1.079  -1.619  0.00  0.00     0.062 A 
ATOM      7  F   UNL d   1       0.607   2.072  -2.518  0.00  0.00    -0.097 F 
ATOM      8  F1  UNL d   1      -1.370   2.039  -0.666  0.00  0.00    -0.096 F 
ATOM      9  I   UNL d   1      -2.033  -0.010   1.701  0.00  0.00    -0.060 I 
ATOM     10  F2  UNL d   1       0.421  -1.984   1.132  0.00  0.00    -0.096 F 
ATOM     11  F3  UNL d   1       2.386  -1.923  -0.731  0.00  0.00    -0.097 F 
ATOM     12  F4  UNL d   1       2.490   0.098  -2.560  0.00  0.00    -0.092 F 
ENDROOT
TORSDOF 0
ENDMDL
