MODEL 1
REMARK minimizedAffinity 0.129165366
REMARK minimizedRMSD -1
REMARK  0 active torsions:
REMARK  status: ('A' for Active; 'I' for Inactive)
ROOT
ATOM      1  C   UNL d   1       1.465   0.235  -1.889  0.00  0.00     0.124 A 
ATOM      2  C1  UNL d   1       1.247  -0.738  -0.923  0.00  0.00     0.062 A 
ATOM      3  C2  UNL d   1       0.257  -0.559   0.039  0.00  0.00     0.162 A 
ATOM      4  C3  UNL d   1      -0.524   0.597   0.040  0.00  0.00    -0.034 A 
ATOM      5  C4  UNL d   1      -0.298   1.571  -0.934  0.00  0.00     0.162 A 
ATOM      6  C5  UNL d   1       0.692   1.388  -1.894  0.00  0.00     0.062 A 
ATOM      7  F   UNL d   1       0.902   2.329  -2.826  0.00  0.00    -0.097 F 
ATOM      8  F1  UNL d   1      -1.030   2.694  -0.963  0.00  0.00    -0.096 F 
ATOM      9  I   UNL d   1      -2.005   0.867   1.477  0.00  0.00    -0.060 I 
ATOM     10  F2  UNL d   1       0.068  -1.516   0.960  0.00  0.00    -0.096 F 
ATOM     11  F3  UNL d   1       1.992  -1.852  -0.916  0.00  0.00    -0.097 F 
ATOM     12  F4  UNL d   1       2.418   0.061  -2.813  0.00  0.00    -0.092 F 
ENDROOT
TORSDOF 0
ENDMDL
