MODEL 1
REMARK minimizedAffinity -2.84423685
REMARK minimizedRMSD -1
REMARK  0 active torsions:
REMARK  status: ('A' for Active; 'I' for Inactive)
ROOT
ATOM      1  C   UNL d   1       0.989  -0.395  -1.712  0.00  0.00     0.124 A 
ATOM      2  C1  UNL d   1       0.717  -1.524  -0.952  0.00  0.00     0.062 A 
ATOM      3  C2  UNL d   1      -0.282  -1.491   0.016  0.00  0.00     0.162 A 
ATOM      4  C3  UNL d   1      -1.019  -0.326   0.229  0.00  0.00    -0.034 A 
ATOM      5  C4  UNL d   1      -0.738   0.806  -0.540  0.00  0.00     0.162 A 
ATOM      6  C5  UNL d   1       0.262   0.768  -1.506  0.00  0.00     0.062 A 
ATOM      7  F   UNL d   1       0.523   1.859  -2.240  0.00  0.00    -0.097 F 
ATOM      8  F1  UNL d   1      -1.427   1.943  -0.362  0.00  0.00    -0.096 F 
ATOM      9  I   UNL d   1      -2.514  -0.272   1.675  0.00  0.00    -0.060 I 
ATOM     10  F2  UNL d   1      -0.524  -2.596   0.737  0.00  0.00    -0.096 F 
ATOM     11  F3  UNL d   1       1.420  -2.649  -1.148  0.00  0.00    -0.097 F 
ATOM     12  F4  UNL d   1       1.953  -0.430  -2.642  0.00  0.00    -0.092 F 
ENDROOT
TORSDOF 0
ENDMDL
