MODEL 1
REMARK minimizedAffinity 1.3001014
REMARK minimizedRMSD -1
REMARK  0 active torsions:
REMARK  status: ('A' for Active; 'I' for Inactive)
ROOT
ATOM      1  C   UNL d   1       0.964   1.433  -2.226  0.00  0.00     0.124 A 
ATOM      2  C1  UNL d   1       1.786   0.319  -2.129  0.00  0.00     0.062 A 
ATOM      3  C2  UNL d   1       1.519  -0.668  -1.184  0.00  0.00     0.162 A 
ATOM      4  C3  UNL d   1       0.424  -0.545  -0.329  0.00  0.00    -0.034 A 
ATOM      5  C4  UNL d   1      -0.397   0.579  -0.431  0.00  0.00     0.162 A 
ATOM      6  C5  UNL d   1      -0.127   1.562  -1.377  0.00  0.00     0.062 A 
ATOM      7  F   UNL d   1      -0.922   2.638  -1.469  0.00  0.00    -0.097 F 
ATOM      8  F1  UNL d   1      -1.458   0.728   0.376  0.00  0.00    -0.096 F 
ATOM      9  I   UNL d   1       0.022  -2.018   1.085  0.00  0.00    -0.060 I 
ATOM     10  F2  UNL d   1       2.330  -1.734  -1.113  0.00  0.00    -0.096 F 
ATOM     11  F3  UNL d   1       2.840   0.192  -2.947  0.00  0.00    -0.097 F 
ATOM     12  F4  UNL d   1       1.223   2.381  -3.135  0.00  0.00    -0.092 F 
ENDROOT
TORSDOF 0
ENDMDL
