MODEL 1
REMARK minimizedAffinity -1.96963477
REMARK minimizedRMSD -1
REMARK  0 active torsions:
REMARK  status: ('A' for Active; 'I' for Inactive)
ROOT
ATOM      1  C   UNL d   1       2.671   0.238  -2.158  0.00  0.00     0.124 A 
ATOM      2  C1  UNL d   1       2.318  -0.835  -1.351  0.00  0.00     0.062 A 
ATOM      3  C2  UNL d   1       1.146  -0.792  -0.603  0.00  0.00     0.162 A 
ATOM      4  C3  UNL d   1       0.316   0.328  -0.659  0.00  0.00    -0.034 A 
ATOM      5  C4  UNL d   1       0.678   1.403  -1.472  0.00  0.00     0.162 A 
ATOM      6  C5  UNL d   1       1.851   1.356  -2.218  0.00  0.00     0.062 A 
ATOM      7  F   UNL d   1       2.190   2.393  -2.996  0.00  0.00    -0.097 F 
ATOM      8  F1  UNL d   1      -0.097   2.496  -1.549  0.00  0.00    -0.096 F 
ATOM      9  I   UNL d   1      -1.439   0.396   0.458  0.00  0.00    -0.060 I 
ATOM     10  F2  UNL d   1       0.829  -1.843   0.168  0.00  0.00    -0.096 F 
ATOM     11  F3  UNL d   1       3.110  -1.916  -1.291  0.00  0.00    -0.097 F 
ATOM     12  F4  UNL d   1       3.801   0.194  -2.876  0.00  0.00    -0.092 F 
ENDROOT
TORSDOF 0
ENDMDL
