MODEL 1
REMARK minimizedAffinity -4.19606447
REMARK minimizedRMSD -1
REMARK  0 active torsions:
REMARK  status: ('A' for Active; 'I' for Inactive)
ROOT
ATOM      1  C   UNL d   1       3.097   0.549  -2.229  0.00  0.00     0.124 A 
ATOM      2  C1  UNL d   1       2.144   1.536  -2.440  0.00  0.00     0.062 A 
ATOM      3  C2  UNL d   1       0.969   1.546  -1.695  0.00  0.00     0.162 A 
ATOM      4  C3  UNL d   1       0.739   0.565  -0.730  0.00  0.00    -0.034 A 
ATOM      5  C4  UNL d   1       1.701  -0.425  -0.524  0.00  0.00     0.162 A 
ATOM      6  C5  UNL d   1       2.874  -0.431  -1.272  0.00  0.00     0.062 A 
ATOM      7  F   UNL d   1       3.793  -1.385  -1.066  0.00  0.00    -0.097 F 
ATOM      8  F1  UNL d   1       1.513  -1.384   0.395  0.00  0.00    -0.096 F 
ATOM      9  I   UNL d   1      -1.017   0.575   0.387  0.00  0.00    -0.060 I 
ATOM     10  F2  UNL d   1       0.066   2.512  -1.920  0.00  0.00    -0.096 F 
ATOM     11  F3  UNL d   1       2.356   2.484  -3.365  0.00  0.00    -0.097 F 
ATOM     12  F4  UNL d   1       4.226   0.542  -2.948  0.00  0.00    -0.092 F 
ENDROOT
TORSDOF 0
ENDMDL
