MODEL 1
REMARK minimizedAffinity -5.45043039
REMARK minimizedRMSD -1
REMARK  0 active torsions:
REMARK  status: ('A' for Active; 'I' for Inactive)
ROOT
ATOM      1  C   UNL d   1       2.395   0.638  -2.305  0.00  0.00     0.124 A 
ATOM      2  C1  UNL d   1       2.632  -0.145  -1.184  0.00  0.00     0.062 A 
ATOM      3  C2  UNL d   1       1.663  -0.257  -0.191  0.00  0.00     0.162 A 
ATOM      4  C3  UNL d   1       0.447   0.416  -0.315  0.00  0.00    -0.034 A 
ATOM      5  C4  UNL d   1       0.217   1.203  -1.445  0.00  0.00     0.162 A 
ATOM      6  C5  UNL d   1       1.189   1.311  -2.434  0.00  0.00     0.062 A 
ATOM      7  F   UNL d   1       0.958   2.069  -3.517  0.00  0.00    -0.097 F 
ATOM      8  F1  UNL d   1      -0.941   1.863  -1.596  0.00  0.00    -0.096 F 
ATOM      9  I   UNL d   1      -1.005   0.251   1.167  0.00  0.00    -0.060 I 
ATOM     10  F2  UNL d   1       1.918  -1.021   0.882  0.00  0.00    -0.096 F 
ATOM     11  F3  UNL d   1       3.797  -0.796  -1.056  0.00  0.00    -0.097 F 
ATOM     12  F4  UNL d   1       3.330   0.745  -3.258  0.00  0.00    -0.092 F 
ENDROOT
TORSDOF 0
ENDMDL
