MODEL 1
REMARK minimizedAffinity 0.737938225
REMARK minimizedRMSD -1
REMARK  0 active torsions:
REMARK  status: ('A' for Active; 'I' for Inactive)
ROOT
ATOM      1  C1  DEN d   1      -1.356  -0.421  -1.021  0.00  0.00     0.130 A 
ATOM      2  C2  DEN d   1      -2.268  -0.467   0.119  0.00  0.00    -0.031 A 
ATOM      3  C3  DEN d   1      -1.466  -0.702   1.336  0.00  0.00     0.027 A 
ATOM      4  C4  DEN d   1       1.086  -0.993   1.566  0.00  0.00     0.027 A 
ATOM      5  C5  DEN d   1       2.277  -1.044   0.876  0.00  0.00    -0.003 A 
ATOM      6  C6  DEN d   1       2.336  -0.925  -0.487  0.00  0.00     0.001 A 
ATOM      7  C7  DEN d   1       1.187  -0.705  -1.200  0.00  0.00     0.017 A 
ATOM      8  C8  DEN d   1      -0.018  -0.660  -0.512  0.00  0.00    -0.094 A 
ATOM      9  C9  DEN d   1      -0.055  -0.770   0.868  0.00  0.00    -0.072 A 
ENDROOT
TORSDOF 0
ENDMDL
