MODEL 1
REMARK minimizedAffinity 2.74487376
REMARK minimizedRMSD -1
REMARK  0 active torsions:
REMARK  status: ('A' for Active; 'I' for Inactive)
ROOT
ATOM      1  C1  DEN d   1       1.537  -1.423   0.385  0.00  0.00     0.130 A 
ATOM      2  C2  DEN d   1       2.083  -2.741   0.699  0.00  0.00    -0.031 A 
ATOM      3  C3  DEN d   1       1.265  -3.330   1.778  0.00  0.00     0.027 A 
ATOM      4  C4  DEN d   1      -0.788  -2.337   2.983  0.00  0.00     0.027 A 
ATOM      5  C5  DEN d   1      -1.618  -1.241   3.070  0.00  0.00    -0.003 A 
ATOM      6  C6  DEN d   1      -1.435  -0.124   2.297  0.00  0.00     0.001 A 
ATOM      7  C7  DEN d   1      -0.425  -0.097   1.372  0.00  0.00     0.017 A 
ATOM      8  C8  DEN d   1       0.420  -1.195   1.285  0.00  0.00    -0.094 A 
ATOM      9  C9  DEN d   1       0.212  -2.319   2.066  0.00  0.00    -0.072 A 
ENDROOT
TORSDOF 0
ENDMDL
