MODEL 1
REMARK minimizedAffinity 3.04796195
REMARK minimizedRMSD -1
REMARK  0 active torsions:
REMARK  status: ('A' for Active; 'I' for Inactive)
ROOT
ATOM      1  C1  DEN d   1       0.876  -0.499   0.040  0.00  0.00     0.130 A 
ATOM      2  C2  DEN d   1      -0.128   0.513   0.356  0.00  0.00    -0.031 A 
ATOM      3  C3  DEN d   1      -0.920   0.028   1.504  0.00  0.00     0.027 A 
ATOM      4  C4  DEN d   1      -0.686  -2.178   2.819  0.00  0.00     0.027 A 
ATOM      5  C5  DEN d   1       0.015  -3.360   2.914  0.00  0.00    -0.003 A 
ATOM      6  C6  DEN d   1       1.022  -3.683   2.043  0.00  0.00     0.001 A 
ATOM      7  C7  DEN d   1       1.386  -2.794   1.067  0.00  0.00     0.017 A 
ATOM      8  C8  DEN d   1       0.679  -1.604   0.960  0.00  0.00    -0.094 A 
ATOM      9  C9  DEN d   1      -0.328  -1.290   1.858  0.00  0.00    -0.072 A 
ENDROOT
TORSDOF 0
ENDMDL
