MODEL 1
REMARK minimizedAffinity 10.2842207
REMARK minimizedRMSD -1
REMARK  0 active torsions:
REMARK  status: ('A' for Active; 'I' for Inactive)
ROOT
ATOM      1  C1  DEN d   1       2.344  -5.119   2.287  0.00  0.00     0.130 A 
ATOM      2  C2  DEN d   1       1.918  -3.782   1.884  0.00  0.00    -0.031 A 
ATOM      3  C3  DEN d   1       2.281  -2.842   2.963  0.00  0.00     0.027 A 
ATOM      4  C4  DEN d   1       3.459  -3.324   5.206  0.00  0.00     0.027 A 
ATOM      5  C5  DEN d   1       4.002  -4.311   6.000  0.00  0.00    -0.003 A 
ATOM      6  C6  DEN d   1       3.999  -5.629   5.630  0.00  0.00     0.001 A 
ATOM      7  C7  DEN d   1       3.484  -5.992   4.414  0.00  0.00     0.017 A 
ATOM      8  C8  DEN d   1       2.928  -5.004   3.611  0.00  0.00    -0.094 A 
ATOM      9  C9  DEN d   1       2.951  -3.675   3.998  0.00  0.00    -0.072 A 
ENDROOT
TORSDOF 0
ENDMDL
