MODEL 1
REMARK minimizedAffinity -0.243917957
REMARK minimizedRMSD -1
REMARK  0 active torsions:
REMARK  status: ('A' for Active; 'I' for Inactive)
ROOT
ATOM      1  C1  DEN d   1       2.573   3.635   3.650  0.00  0.00     0.130 A 
ATOM      2  C2  DEN d   1       1.811   4.855   3.897  0.00  0.00    -0.031 A 
ATOM      3  C3  DEN d   1       2.615   6.000   3.422  0.00  0.00     0.027 A 
ATOM      4  C4  DEN d   1       4.951   5.999   2.330  0.00  0.00     0.027 A 
ATOM      5  C5  DEN d   1       6.000   5.205   1.924  0.00  0.00    -0.003 A 
ATOM      6  C6  DEN d   1       5.995   3.845   2.094  0.00  0.00     0.001 A 
ATOM      7  C7  DEN d   1       4.900   3.234   2.645  0.00  0.00     0.017 A 
ATOM      8  C8  DEN d   1       3.841   4.030   3.064  0.00  0.00    -0.094 A 
ATOM      9  C9  DEN d   1       3.860   5.401   2.872  0.00  0.00    -0.072 A 
ENDROOT
TORSDOF 0
ENDMDL
