MODEL 1
REMARK minimizedAffinity -3.42613959
REMARK minimizedRMSD -1
REMARK  0 active torsions:
REMARK  status: ('A' for Active; 'I' for Inactive)
ROOT
ATOM      1  C1  DEN d   1       3.852   5.238   1.895  0.00  0.00     0.130 A 
ATOM      2  C2  DEN d   1       5.210   5.555   1.460  0.00  0.00    -0.031 A 
ATOM      3  C3  DEN d   1       6.000   5.912   2.656  0.00  0.00     0.027 A 
ATOM      4  C4  DEN d   1       5.258   6.000   5.124  0.00  0.00     0.027 A 
ATOM      5  C5  DEN d   1       4.197   5.825   5.984  0.00  0.00    -0.003 A 
ATOM      6  C6  DEN d   1       2.948   5.479   5.542  0.00  0.00     0.001 A 
ATOM      7  C7  DEN d   1       2.739   5.252   4.207  0.00  0.00     0.017 A 
ATOM      8  C8  DEN d   1       3.803   5.433   3.333  0.00  0.00    -0.094 A 
ATOM      9  C9  DEN d   1       5.061   5.771   3.801  0.00  0.00    -0.072 A 
ENDROOT
TORSDOF 0
ENDMDL
