MODEL 1
REMARK minimizedAffinity -2.18202233
REMARK minimizedRMSD -1
REMARK  0 active torsions:
REMARK  status: ('A' for Active; 'I' for Inactive)
ROOT
ATOM      1  C1  DEN d   1       0.155  -2.365   2.917  0.00  0.00     0.130 A 
ATOM      2  C2  DEN d   1       1.324  -2.986   2.302  0.00  0.00    -0.031 A 
ATOM      3  C3  DEN d   1       1.387  -2.546   0.894  0.00  0.00     0.027 A 
ATOM      4  C4  DEN d   1      -0.203  -0.969  -0.386  0.00  0.00     0.027 A 
ATOM      5  C5  DEN d   1      -1.345  -0.204  -0.287  0.00  0.00    -0.003 A 
ATOM      6  C6  DEN d   1      -2.079  -0.133   0.867  0.00  0.00     0.001 A 
ATOM      7  C7  DEN d   1      -1.655  -0.804   1.983  0.00  0.00     0.017 A 
ATOM      8  C8  DEN d   1      -0.510  -1.583   1.890  0.00  0.00    -0.094 A 
ATOM      9  C9  DEN d   1       0.226  -1.632   0.718  0.00  0.00    -0.072 A 
ENDROOT
TORSDOF 0
ENDMDL
