MODEL 1
REMARK minimizedAffinity -2.61607242
REMARK minimizedRMSD -1
REMARK  0 active torsions:
REMARK  status: ('A' for Active; 'I' for Inactive)
ROOT
ATOM      1  C1  DEN d   1       0.775  -0.262  -0.265  0.00  0.00     0.130 A 
ATOM      2  C2  DEN d   1      -0.193   0.724   0.209  0.00  0.00    -0.031 A 
ATOM      3  C3  DEN d   1      -0.835   0.185   1.425  0.00  0.00     0.027 A 
ATOM      4  C4  DEN d   1      -0.424  -2.065   2.616  0.00  0.00     0.027 A 
ATOM      5  C5  DEN d   1       0.294  -3.240   2.579  0.00  0.00    -0.003 A 
ATOM      6  C6  DEN d   1       1.191  -3.517   1.582  0.00  0.00     0.001 A 
ATOM      7  C7  DEN d   1       1.426  -2.587   0.603  0.00  0.00     0.017 A 
ATOM      8  C8  DEN d   1       0.700  -1.403   0.629  0.00  0.00    -0.094 A 
ATOM      9  C9  DEN d   1      -0.193  -1.137   1.653  0.00  0.00    -0.072 A 
ENDROOT
TORSDOF 0
ENDMDL
