MODEL 1
REMARK minimizedAffinity -1.86998725
REMARK minimizedRMSD -1
REMARK  0 active torsions:
REMARK  status: ('A' for Active; 'I' for Inactive)
ROOT
ATOM      1  C1  DEN d   1       1.320  -2.952   0.707  0.00  0.00     0.130 A 
ATOM      2  C2  DEN d   1       1.949  -3.297   1.979  0.00  0.00    -0.031 A 
ATOM      3  C3  DEN d   1       1.253  -2.555   3.049  0.00  0.00     0.027 A 
ATOM      4  C4  DEN d   1      -0.733  -0.919   2.862  0.00  0.00     0.027 A 
ATOM      5  C5  DEN d   1      -1.600  -0.302   1.987  0.00  0.00    -0.003 A 
ATOM      6  C6  DEN d   1      -1.534  -0.497   0.633  0.00  0.00     0.001 A 
ATOM      7  C7  DEN d   1      -0.608  -1.365   0.117  0.00  0.00     0.017 A 
ATOM      8  C8  DEN d   1       0.275  -1.985   0.991  0.00  0.00    -0.094 A 
ATOM      9  C9  DEN d   1       0.184  -1.784   2.358  0.00  0.00    -0.072 A 
ENDROOT
TORSDOF 0
ENDMDL
