MODEL 1
REMARK minimizedAffinity 2.86204648
REMARK minimizedRMSD -1
REMARK  0 active torsions:
REMARK  status: ('A' for Active; 'I' for Inactive)
ROOT
ATOM      1  C1  DEN d   1       1.874   0.140   1.121  0.00  0.00     0.130 A 
ATOM      2  C2  DEN d   1       1.888   0.743  -0.208  0.00  0.00    -0.031 A 
ATOM      3  C3  DEN d   1       0.501   0.761  -0.716  0.00  0.00     0.027 A 
ATOM      4  C4  DEN d   1      -1.655  -0.077   0.425  0.00  0.00     0.027 A 
ATOM      5  C5  DEN d   1      -2.168  -0.677   1.554  0.00  0.00    -0.003 A 
ATOM      6  C6  DEN d   1      -1.371  -1.075   2.594  0.00  0.00     0.001 A 
ATOM      7  C7  DEN d   1      -0.023  -0.836   2.547  0.00  0.00     0.017 A 
ATOM      8  C8  DEN d   1       0.502  -0.238   1.409  0.00  0.00    -0.094 A 
ATOM      9  C9  DEN d   1      -0.322   0.168   0.373  0.00  0.00    -0.072 A 
ENDROOT
TORSDOF 0
ENDMDL
