MODEL 1
REMARK minimizedAffinity -0.686406851
REMARK minimizedRMSD -1
REMARK  0 active torsions:
REMARK  status: ('A' for Active; 'I' for Inactive)
ROOT
ATOM      1  C1  DEN d   1       1.501  -3.460   0.743  0.00  0.00     0.130 A 
ATOM      2  C2  DEN d   1       1.752  -4.554   1.678  0.00  0.00    -0.031 A 
ATOM      3  C3  DEN d   1       0.902  -4.342   2.867  0.00  0.00     0.027 A 
ATOM      4  C4  DEN d   1      -0.771  -2.439   3.347  0.00  0.00     0.027 A 
ATOM      5  C5  DEN d   1      -1.317  -1.274   2.856  0.00  0.00    -0.003 A 
ATOM      6  C6  DEN d   1      -0.940  -0.742   1.651  0.00  0.00     0.001 A 
ATOM      7  C7  DEN d   1      -0.023  -1.401   0.876  0.00  0.00     0.017 A 
ATOM      8  C8  DEN d   1       0.538  -2.572   1.368  0.00  0.00    -0.094 A 
ATOM      9  C9  DEN d   1       0.135  -3.100   2.583  0.00  0.00    -0.072 A 
ENDROOT
TORSDOF 0
ENDMDL
