MODEL 1
REMARK minimizedAffinity 1.19180202
REMARK minimizedRMSD -1
REMARK  1 active torsions:
REMARK  status: ('A' for Active; 'I' for Inactive)
REMARK    1  A    between atoms: C1_2  and  C2_3 
ROOT
ATOM      1  C2  UNL d   1       0.209   0.150   0.631  0.00  0.00    -0.073 A 
ATOM      2  C3  UNL d   1       1.085  -0.578  -0.182  0.00  0.00    -0.002 A 
ATOM      3  C4  UNL d   1       2.365  -0.091  -0.452  0.00  0.00     0.004 A 
ATOM      4  C5  UNL d   1       2.784   1.122   0.094  0.00  0.00    -0.004 A 
ATOM      5  C6  UNL d   1       1.928   1.858   0.919  0.00  0.00    -0.075 A 
ATOM      6  C7  UNL d   1       2.363   3.166   1.512  0.00  0.00     0.076 C 
ATOM      7  C8  UNL d   1       0.643   1.364   1.183  0.00  0.00     0.001 A 
ENDROOT
BRANCH   1   8
ATOM      8  C1  UNL d   1      -1.171  -0.375   0.931  0.00  0.00     0.053 C 
ATOM      9  C   UNL d   1      -1.129  -1.718   1.642  0.00  0.00     0.018 C 
ENDBRANCH   1   8
TORSDOF 1
ENDMDL
