MODEL 1
REMARK minimizedAffinity -3.71918321
REMARK minimizedRMSD -1
REMARK  1 active torsions:
REMARK  status: ('A' for Active; 'I' for Inactive)
REMARK    1  A    between atoms: C1_2  and  C2_3 
ROOT
ATOM      1  C2  UNL d   1       0.359   0.003  -0.127  0.00  0.00    -0.073 A 
ATOM      2  C3  UNL d   1       0.509   0.266  -1.493  0.00  0.00    -0.002 A 
ATOM      3  C4  UNL d   1      -0.563   0.082  -2.368  0.00  0.00     0.004 A 
ATOM      4  C5  UNL d   1      -1.795  -0.359  -1.886  0.00  0.00    -0.004 A 
ATOM      5  C6  UNL d   1      -1.968  -0.615  -0.522  0.00  0.00    -0.075 A 
ATOM      6  C7  UNL d   1      -3.286  -1.092   0.013  0.00  0.00     0.076 C 
ATOM      7  C8  UNL d   1      -0.886  -0.431   0.350  0.00  0.00     0.001 A 
ENDROOT
BRANCH   1   8
ATOM      8  C1  UNL d   1       1.512   0.206   0.822  0.00  0.00     0.053 C 
ATOM      9  C   UNL d   1       2.289   1.476   0.512  0.00  0.00     0.018 C 
ENDBRANCH   1   8
TORSDOF 1
ENDMDL
