MODEL 1
REMARK minimizedAffinity -1.8267597
REMARK minimizedRMSD -1
REMARK  1 active torsions:
REMARK  status: ('A' for Active; 'I' for Inactive)
REMARK    1  A    between atoms: C1_2  and  C2_3 
ROOT
ATOM      1  C2  UNL d   1       0.307   0.312   0.073  0.00  0.00    -0.073 A 
ATOM      2  C3  UNL d   1       0.471   0.017  -1.285  0.00  0.00    -0.002 A 
ATOM      3  C4  UNL d   1      -0.624  -0.371  -2.059  0.00  0.00     0.004 A 
ATOM      4  C5  UNL d   1      -1.893  -0.460  -1.486  0.00  0.00    -0.004 A 
ATOM      5  C6  UNL d   1      -2.078  -0.157  -0.134  0.00  0.00    -0.075 A 
ATOM      6  C7  UNL d   1      -3.436  -0.250   0.499  0.00  0.00     0.076 C 
ATOM      7  C8  UNL d   1      -0.974   0.229   0.638  0.00  0.00     0.001 A 
ENDROOT
BRANCH   1   8
ATOM      8  C1  UNL d   1       1.485   0.737   0.911  0.00  0.00     0.053 C 
ATOM      9  C   UNL d   1       2.194   1.948   0.325  0.00  0.00     0.018 C 
ENDBRANCH   1   8
TORSDOF 1
ENDMDL
