MODEL 1
REMARK minimizedAffinity -4.56014776
REMARK minimizedRMSD -1
REMARK  1 active torsions:
REMARK  status: ('A' for Active; 'I' for Inactive)
REMARK    1  A    between atoms: C1_2  and  C2_3 
ROOT
ATOM      1  C2  UNL d   1      -0.415   0.247   0.263  0.00  0.00    -0.073 A 
ATOM      2  C3  UNL d   1      -0.204  -1.020   0.819  0.00  0.00    -0.002 A 
ATOM      3  C4  UNL d   1       1.084  -1.436   1.157  0.00  0.00     0.004 A 
ATOM      4  C5  UNL d   1       2.173  -0.588   0.951  0.00  0.00    -0.004 A 
ATOM      5  C6  UNL d   1       1.981   0.686   0.408  0.00  0.00    -0.075 A 
ATOM      6  C7  UNL d   1       3.142   1.609   0.177  0.00  0.00     0.076 C 
ATOM      7  C8  UNL d   1       0.685   1.096   0.068  0.00  0.00     0.001 A 
ENDROOT
BRANCH   1   8
ATOM      8  C1  UNL d   1      -1.805   0.703  -0.098  0.00  0.00     0.053 C 
ATOM      9  C   UNL d   1      -2.791  -0.453  -0.141  0.00  0.00     0.018 C 
ENDBRANCH   1   8
TORSDOF 1
ENDMDL
