MODEL 1
REMARK minimizedAffinity -4.20455313
REMARK minimizedRMSD -1
REMARK  1 active torsions:
REMARK  status: ('A' for Active; 'I' for Inactive)
REMARK    1  A    between atoms: C1_2  and  C2_3 
ROOT
ATOM      1  C2  UNL d   1       1.538  -0.001   0.765  0.00  0.00    -0.073 A 
ATOM      2  C3  UNL d   1       1.745  -1.037   1.682  0.00  0.00    -0.002 A 
ATOM      3  C4  UNL d   1       0.668  -1.790   2.151  0.00  0.00     0.004 A 
ATOM      4  C5  UNL d   1      -0.625  -1.519   1.703  0.00  0.00    -0.004 A 
ATOM      5  C6  UNL d   1      -0.851  -0.496   0.777  0.00  0.00    -0.075 A 
ATOM      6  C7  UNL d   1      -2.237  -0.191   0.287  0.00  0.00     0.076 C 
ATOM      7  C8  UNL d   1       0.235   0.257   0.313  0.00  0.00     0.001 A 
ENDROOT
BRANCH   1   8
ATOM      8  C1  UNL d   1       2.699   0.810   0.251  0.00  0.00     0.053 C 
ATOM      9  C   UNL d   1       3.034   1.973   1.171  0.00  0.00     0.018 C 
ENDBRANCH   1   8
TORSDOF 1
ENDMDL
