MODEL 1
REMARK minimizedAffinity -4.7928462
REMARK minimizedRMSD -1
REMARK  1 active torsions:
REMARK  status: ('A' for Active; 'I' for Inactive)
REMARK    1  A    between atoms: C1_2  and  C2_3 
ROOT
ATOM      1  C2  UNL d   1       0.152   0.146  -0.039  0.00  0.00    -0.073 A 
ATOM      2  C3  UNL d   1       0.396   0.132  -1.417  0.00  0.00    -0.002 A 
ATOM      3  C4  UNL d   1      -0.611  -0.241  -2.308  0.00  0.00     0.004 A 
ATOM      4  C5  UNL d   1      -1.873  -0.597  -1.832  0.00  0.00    -0.004 A 
ATOM      5  C6  UNL d   1      -2.140  -0.578  -0.459  0.00  0.00    -0.075 A 
ATOM      6  C7  UNL d   1      -3.492  -0.960   0.070  0.00  0.00     0.076 C 
ATOM      7  C8  UNL d   1      -1.123  -0.205   0.430  0.00  0.00     0.001 A 
ENDROOT
BRANCH   1   8
ATOM      8  C1  UNL d   1       1.234   0.554   0.926  0.00  0.00     0.053 C 
ATOM      9  C   UNL d   1       1.615   2.018   0.770  0.00  0.00     0.018 C 
ENDBRANCH   1   8
TORSDOF 1
ENDMDL
