MODEL 1
REMARK minimizedAffinity -3.23677063
REMARK minimizedRMSD -1
REMARK  1 active torsions:
REMARK  status: ('A' for Active; 'I' for Inactive)
REMARK    1  A    between atoms: C1_2  and  C2_3 
ROOT
ATOM      1  C2  UNL d   1       0.178   0.195  -0.185  0.00  0.00    -0.073 A 
ATOM      2  C3  UNL d   1       0.491  -0.235  -1.480  0.00  0.00    -0.002 A 
ATOM      3  C4  UNL d   1      -0.499  -0.770  -2.304  0.00  0.00     0.004 A 
ATOM      4  C5  UNL d   1      -1.813  -0.875  -1.846  0.00  0.00    -0.004 A 
ATOM      5  C6  UNL d   1      -2.148  -0.440  -0.559  0.00  0.00    -0.075 A 
ATOM      6  C7  UNL d   1      -3.555  -0.547  -0.051  0.00  0.00     0.076 C 
ATOM      7  C8  UNL d   1      -1.147   0.094   0.263  0.00  0.00     0.001 A 
ENDROOT
BRANCH   1   8
ATOM      8  C1  UNL d   1       1.243   0.780   0.706  0.00  0.00     0.053 C 
ATOM      9  C   UNL d   1       2.278   1.566  -0.083  0.00  0.00     0.018 C 
ENDBRANCH   1   8
TORSDOF 1
ENDMDL
