MODEL 1
REMARK minimizedAffinity 4.07144308
REMARK minimizedRMSD -1
REMARK  0 active torsions:
REMARK  status: ('A' for Active; 'I' for Inactive)
ROOT
ATOM      1  C   UNL d   1       2.638  -3.003  -5.986  0.00  0.00     0.078 C 
ATOM      2  C1  UNL d   1       1.233  -3.528  -5.983  0.00  0.00    -0.077 A 
ATOM      3  C2  UNL d   1       0.978  -4.905  -5.985  0.00  0.00    -0.001 A 
ATOM      4  C3  UNL d   1      -0.334  -5.380  -5.992  0.00  0.00     0.003 A 
ATOM      5  C4  UNL d   1      -1.402  -4.485  -5.997  0.00  0.00    -0.005 A 
ATOM      6  C5  UNL d   1      -1.158  -3.113  -5.998  0.00  0.00     0.003 A 
ATOM      7  C6  UNL d   1       0.153  -2.636  -5.991  0.00  0.00    -0.001 A 
ENDROOT
TORSDOF 0
ENDMDL
