MODEL 1
REMARK minimizedAffinity 8.36795521
REMARK minimizedRMSD -1
REMARK  0 active torsions:
REMARK  status: ('A' for Active; 'I' for Inactive)
ROOT
ATOM      1  C   UNL d   1       3.894   1.092  -3.109  0.00  0.00     0.078 C 
ATOM      2  C1  UNL d   1       3.300   1.073  -1.733  0.00  0.00    -0.077 A 
ATOM      3  C2  UNL d   1       3.375  -0.071  -0.929  0.00  0.00    -0.001 A 
ATOM      4  C3  UNL d   1       2.809  -0.077   0.346  0.00  0.00     0.003 A 
ATOM      5  C4  UNL d   1       2.161   1.058   0.829  0.00  0.00    -0.005 A 
ATOM      6  C5  UNL d   1       2.079   2.201   0.036  0.00  0.00     0.003 A 
ATOM      7  C6  UNL d   1       2.645   2.209  -1.239  0.00  0.00    -0.001 A 
ENDROOT
TORSDOF 0
ENDMDL
