MODEL 1
REMARK minimizedAffinity 3.65167809
REMARK minimizedRMSD -1
REMARK  0 active torsions:
REMARK  status: ('A' for Active; 'I' for Inactive)
ROOT
ATOM      1  C   UNL d   1      -0.844  -2.389   0.955  0.00  0.00     0.078 C 
ATOM      2  C1  UNL d   1      -1.940  -2.588  -0.048  0.00  0.00    -0.077 A 
ATOM      3  C2  UNL d   1      -3.223  -2.979   0.353  0.00  0.00    -0.001 A 
ATOM      4  C3  UNL d   1      -4.231  -3.170  -0.593  0.00  0.00     0.003 A 
ATOM      5  C4  UNL d   1      -3.966  -2.975  -1.947  0.00  0.00    -0.005 A 
ATOM      6  C5  UNL d   1      -2.691  -2.589  -2.356  0.00  0.00     0.003 A 
ATOM      7  C6  UNL d   1      -1.682  -2.397  -1.412  0.00  0.00    -0.001 A 
ENDROOT
TORSDOF 0
ENDMDL
