MODEL 1
REMARK minimizedAffinity 4.07168722
REMARK minimizedRMSD -1
REMARK  0 active torsions:
REMARK  status: ('A' for Active; 'I' for Inactive)
ROOT
ATOM      1  C   UNL d   1      -2.394  -2.379  -1.905  0.00  0.00     0.078 C 
ATOM      2  C1  UNL d   1      -3.406  -3.478  -2.034  0.00  0.00    -0.077 A 
ATOM      3  C2  UNL d   1      -4.700  -3.216  -2.502  0.00  0.00    -0.001 A 
ATOM      4  C3  UNL d   1      -5.635  -4.247  -2.607  0.00  0.00     0.003 A 
ATOM      5  C4  UNL d   1      -5.286  -5.547  -2.246  0.00  0.00    -0.005 A 
ATOM      6  C5  UNL d   1      -4.002  -5.817  -1.778  0.00  0.00     0.003 A 
ATOM      7  C6  UNL d   1      -3.066  -4.787  -1.672  0.00  0.00    -0.001 A 
ENDROOT
TORSDOF 0
ENDMDL
