MODEL 1
REMARK minimizedAffinity -2.11754298
REMARK minimizedRMSD -1
REMARK  0 active torsions:
REMARK  status: ('A' for Active; 'I' for Inactive)
ROOT
ATOM      1  C   UNL d   1       5.916   2.557  -0.238  0.00  0.00     0.078 C 
ATOM      2  C1  UNL d   1       4.691   1.896   0.320  0.00  0.00    -0.077 A 
ATOM      3  C2  UNL d   1       4.745   0.593   0.831  0.00  0.00    -0.001 A 
ATOM      4  C3  UNL d   1       3.595  -0.014   1.338  0.00  0.00     0.003 A 
ATOM      5  C4  UNL d   1       2.383   0.674   1.339  0.00  0.00    -0.005 A 
ATOM      6  C5  UNL d   1       2.320   1.970   0.832  0.00  0.00     0.003 A 
ATOM      7  C6  UNL d   1       3.468   2.578   0.324  0.00  0.00    -0.001 A 
ENDROOT
TORSDOF 0
ENDMDL
