MODEL 1
REMARK minimizedAffinity 12.47966
REMARK minimizedRMSD -1
REMARK  0 active torsions:
REMARK  status: ('A' for Active; 'I' for Inactive)
ROOT
ATOM      1  C   UNL d   1       5.977   0.649  -5.998  0.00  0.00     0.078 C 
ATOM      2  C1  UNL d   1       5.384  -0.663  -5.580  0.00  0.00    -0.077 A 
ATOM      3  C2  UNL d   1       5.994  -1.874  -5.930  0.00  0.00    -0.001 A 
ATOM      4  C3  UNL d   1       5.426  -3.089  -5.543  0.00  0.00     0.003 A 
ATOM      5  C4  UNL d   1       4.244  -3.105  -4.805  0.00  0.00    -0.005 A 
ATOM      6  C5  UNL d   1       3.629  -1.905  -4.454  0.00  0.00     0.003 A 
ATOM      7  C6  UNL d   1       4.195  -0.690  -4.840  0.00  0.00    -0.001 A 
ENDROOT
TORSDOF 0
ENDMDL
