MODEL 1
REMARK minimizedAffinity 9.65487289
REMARK minimizedRMSD -1
REMARK  0 active torsions:
REMARK  status: ('A' for Active; 'I' for Inactive)
ROOT
ATOM      1  C   UNL d   1       3.752   2.524  -3.784  0.00  0.00     0.078 C 
ATOM      2  C1  UNL d   1       3.156   3.737  -4.433  0.00  0.00    -0.077 A 
ATOM      3  C2  UNL d   1       3.933   4.873  -4.689  0.00  0.00    -0.001 A 
ATOM      4  C3  UNL d   1       3.363   5.999  -5.286  0.00  0.00     0.003 A 
ATOM      5  C4  UNL d   1       2.013   6.000  -5.630  0.00  0.00    -0.005 A 
ATOM      6  C5  UNL d   1       1.231   4.875  -5.377  0.00  0.00     0.003 A 
ATOM      7  C6  UNL d   1       1.799   3.748  -4.780  0.00  0.00    -0.001 A 
ENDROOT
TORSDOF 0
ENDMDL
