MODEL 1
REMARK minimizedAffinity 1.16059577
REMARK minimizedRMSD -1
REMARK  0 active torsions:
REMARK  status: ('A' for Active; 'I' for Inactive)
ROOT
ATOM      1  C   UNL d   1       3.747   2.627  -3.333  0.00  0.00     0.078 C 
ATOM      2  C1  UNL d   1       3.212   3.803  -4.095  0.00  0.00    -0.077 A 
ATOM      3  C2  UNL d   1       4.037   4.886  -4.421  0.00  0.00    -0.001 A 
ATOM      4  C3  UNL d   1       3.523   5.979  -5.122  0.00  0.00     0.003 A 
ATOM      5  C4  UNL d   1       2.182   5.999  -5.500  0.00  0.00    -0.005 A 
ATOM      6  C5  UNL d   1       1.353   4.927  -5.177  0.00  0.00     0.003 A 
ATOM      7  C6  UNL d   1       1.865   3.833  -4.477  0.00  0.00    -0.001 A 
ENDROOT
TORSDOF 0
ENDMDL
