MODEL 1
REMARK minimizedAffinity -0.605860054
REMARK minimizedRMSD -1
REMARK  0 active torsions:
REMARK  status: ('A' for Active; 'I' for Inactive)
ROOT
ATOM      1  C   UNL d   1       3.914   5.911   2.198  0.00  0.00     0.078 C 
ATOM      2  C1  UNL d   1       4.536   5.406   3.466  0.00  0.00    -0.077 A 
ATOM      3  C2  UNL d   1       5.437   4.334   3.451  0.00  0.00    -0.001 A 
ATOM      4  C3  UNL d   1       6.000   3.868   4.640  0.00  0.00     0.003 A 
ATOM      5  C4  UNL d   1       5.667   4.467   5.853  0.00  0.00    -0.005 A 
ATOM      6  C5  UNL d   1       4.770   5.533   5.879  0.00  0.00     0.003 A 
ATOM      7  C6  UNL d   1       4.206   6.000   4.691  0.00  0.00    -0.001 A 
ENDROOT
TORSDOF 0
ENDMDL
