MODEL 1
REMARK minimizedAffinity 10.5920639
REMARK minimizedRMSD -1
REMARK  0 active torsions:
REMARK  status: ('A' for Active; 'I' for Inactive)
ROOT
ATOM      1  C   UNL d   1      -3.650   2.408   3.791  0.00  0.00     0.078 C 
ATOM      2  C1  UNL d   1      -4.459   3.665   3.912  0.00  0.00    -0.077 A 
ATOM      3  C2  UNL d   1      -4.464   4.408   5.099  0.00  0.00    -0.001 A 
ATOM      4  C3  UNL d   1      -5.229   5.570   5.201  0.00  0.00     0.003 A 
ATOM      5  C4  UNL d   1      -5.997   6.000   4.120  0.00  0.00    -0.005 A 
ATOM      6  C5  UNL d   1      -6.000   5.266   2.936  0.00  0.00     0.003 A 
ATOM      7  C6  UNL d   1      -5.235   4.103   2.832  0.00  0.00    -0.001 A 
ENDROOT
TORSDOF 0
ENDMDL
