MODEL 1
REMARK minimizedAffinity 9.52089977
REMARK minimizedRMSD -1
REMARK  0 active torsions:
REMARK  status: ('A' for Active; 'I' for Inactive)
ROOT
ATOM      1  C   UNL d   1      -2.741  -2.605  -2.569  0.00  0.00     0.078 C 
ATOM      2  C1  UNL d   1      -3.752  -3.712  -2.533  0.00  0.00    -0.077 A 
ATOM      3  C2  UNL d   1      -3.422  -4.973  -2.021  0.00  0.00    -0.001 A 
ATOM      4  C3  UNL d   1      -4.370  -5.997  -2.002  0.00  0.00     0.003 A 
ATOM      5  C4  UNL d   1      -5.654  -5.771  -2.494  0.00  0.00    -0.005 A 
ATOM      6  C5  UNL d   1      -5.991  -4.520  -3.007  0.00  0.00     0.003 A 
ATOM      7  C6  UNL d   1      -5.044  -3.495  -3.027  0.00  0.00    -0.001 A 
ENDROOT
TORSDOF 0
ENDMDL
