MODEL 1
REMARK minimizedAffinity 7.86179352
REMARK minimizedRMSD -1
REMARK  0 active torsions:
REMARK  status: ('A' for Active; 'I' for Inactive)
ROOT
ATOM      1  C   UNL d   1      -1.037  -3.389  -6.000  0.00  0.00     0.078 C 
ATOM      2  C1  UNL d   1      -0.004  -3.692  -4.956  0.00  0.00    -0.077 A 
ATOM      3  C2  UNL d   1       1.264  -3.100  -5.003  0.00  0.00    -0.001 A 
ATOM      4  C3  UNL d   1       2.219  -3.399  -4.030  0.00  0.00     0.003 A 
ATOM      5  C4  UNL d   1       1.916  -4.292  -3.004  0.00  0.00    -0.005 A 
ATOM      6  C5  UNL d   1       0.658  -4.888  -2.950  0.00  0.00     0.003 A 
ATOM      7  C6  UNL d   1      -0.298  -4.590  -3.922  0.00  0.00    -0.001 A 
ENDROOT
TORSDOF 0
ENDMDL
