MODEL 1
REMARK minimizedAffinity 4.18597412
REMARK minimizedRMSD -1
REMARK  0 active torsions:
REMARK  status: ('A' for Active; 'I' for Inactive)
ROOT
ATOM      1  C   UNL d   1      -5.946  -6.000   0.774  0.00  0.00     0.078 C 
ATOM      2  C1  UNL d   1      -5.120  -4.965   0.071  0.00  0.00    -0.077 A 
ATOM      3  C2  UNL d   1      -3.733  -5.113  -0.058  0.00  0.00    -0.001 A 
ATOM      4  C3  UNL d   1      -2.976  -4.137  -0.706  0.00  0.00     0.003 A 
ATOM      5  C4  UNL d   1      -3.595  -3.004  -1.230  0.00  0.00    -0.005 A 
ATOM      6  C5  UNL d   1      -4.974  -2.846  -1.106  0.00  0.00     0.003 A 
ATOM      7  C6  UNL d   1      -5.733  -3.822  -0.457  0.00  0.00    -0.001 A 
ENDROOT
TORSDOF 0
ENDMDL
