MODEL 1
REMARK minimizedAffinity -2.76720405
REMARK minimizedRMSD -1
REMARK  0 active torsions:
REMARK  status: ('A' for Active; 'I' for Inactive)
ROOT
ATOM      1  C   UNL d   1       1.242   1.264   1.793  0.00  0.00     0.078 C 
ATOM      2  C1  UNL d   1      -0.202   1.018   2.111  0.00  0.00    -0.077 A 
ATOM      3  C2  UNL d   1      -1.009   2.036   2.634  0.00  0.00    -0.001 A 
ATOM      4  C3  UNL d   1      -2.350   1.790   2.935  0.00  0.00     0.003 A 
ATOM      5  C4  UNL d   1      -2.895   0.526   2.717  0.00  0.00    -0.005 A 
ATOM      6  C5  UNL d   1      -2.099  -0.493   2.198  0.00  0.00     0.003 A 
ATOM      7  C6  UNL d   1      -0.759  -0.249   1.897  0.00  0.00    -0.001 A 
ENDROOT
TORSDOF 0
ENDMDL
