MODEL 1
REMARK minimizedAffinity 5.72623253
REMARK minimizedRMSD -1
REMARK  0 active torsions:
REMARK  status: ('A' for Active; 'I' for Inactive)
ROOT
ATOM      1  C   UNL d   1      -5.247   5.215   5.997  0.00  0.00     0.078 C 
ATOM      2  C1  UNL d   1      -5.134   3.798   5.521  0.00  0.00    -0.077 A 
ATOM      3  C2  UNL d   1      -5.998   2.805   6.000  0.00  0.00    -0.001 A 
ATOM      4  C3  UNL d   1      -5.875   1.488   5.555  0.00  0.00     0.003 A 
ATOM      5  C4  UNL d   1      -4.888   1.151   4.630  0.00  0.00    -0.005 A 
ATOM      6  C5  UNL d   1      -4.023   2.131   4.149  0.00  0.00     0.003 A 
ATOM      7  C6  UNL d   1      -4.145   3.449   4.593  0.00  0.00    -0.001 A 
ENDROOT
TORSDOF 0
ENDMDL
