MODEL 1
REMARK minimizedAffinity 4.91167212
REMARK minimizedRMSD -1
REMARK  0 active torsions:
REMARK  status: ('A' for Active; 'I' for Inactive)
ROOT
ATOM      1  C   UNL d   1      -2.591  -5.476   0.247  0.00  0.00     0.078 C 
ATOM      2  C1  UNL d   1      -3.168  -4.220  -0.333  0.00  0.00    -0.077 A 
ATOM      3  C2  UNL d   1      -4.160  -3.501   0.345  0.00  0.00    -0.001 A 
ATOM      4  C3  UNL d   1      -4.694  -2.338  -0.212  0.00  0.00     0.003 A 
ATOM      5  C4  UNL d   1      -4.245  -1.884  -1.450  0.00  0.00    -0.005 A 
ATOM      6  C5  UNL d   1      -3.260  -2.594  -2.134  0.00  0.00     0.003 A 
ATOM      7  C6  UNL d   1      -2.724  -3.757  -1.578  0.00  0.00    -0.001 A 
ENDROOT
TORSDOF 0
ENDMDL
