MODEL 1
REMARK minimizedAffinity -1.22526729
REMARK minimizedRMSD -1
REMARK  0 active torsions:
REMARK  status: ('A' for Active; 'I' for Inactive)
ROOT
ATOM      1  C   UNL d   1      -4.058  -2.586  -1.490  0.00  0.00     0.078 C 
ATOM      2  C1  UNL d   1      -4.137  -2.941  -2.945  0.00  0.00    -0.077 A 
ATOM      3  C2  UNL d   1      -3.004  -2.879  -3.766  0.00  0.00    -0.001 A 
ATOM      4  C3  UNL d   1      -3.095  -3.203  -5.120  0.00  0.00     0.003 A 
ATOM      5  C4  UNL d   1      -4.318  -3.589  -5.667  0.00  0.00    -0.005 A 
ATOM      6  C5  UNL d   1      -5.451  -3.651  -4.859  0.00  0.00     0.003 A 
ATOM      7  C6  UNL d   1      -5.362  -3.328  -3.504  0.00  0.00    -0.001 A 
ENDROOT
TORSDOF 0
ENDMDL
