MODEL 1
REMARK minimizedAffinity 0.342989147
REMARK minimizedRMSD -1
REMARK  0 active torsions:
REMARK  status: ('A' for Active; 'I' for Inactive)
ROOT
ATOM      1  C   UNL d   1      -2.714   0.377   2.523  0.00  0.00     0.078 C 
ATOM      2  C1  UNL d   1      -1.265   0.739   2.395  0.00  0.00    -0.077 A 
ATOM      3  C2  UNL d   1      -0.266  -0.237   2.499  0.00  0.00    -0.001 A 
ATOM      4  C3  UNL d   1       1.080   0.116   2.388  0.00  0.00     0.003 A 
ATOM      5  C4  UNL d   1       1.440   1.445   2.173  0.00  0.00    -0.005 A 
ATOM      6  C5  UNL d   1       0.453   2.424   2.070  0.00  0.00     0.003 A 
ATOM      7  C6  UNL d   1      -0.894   2.073   2.181  0.00  0.00    -0.001 A 
ENDROOT
TORSDOF 0
ENDMDL
