MODEL 1
REMARK minimizedAffinity -0.196159273
REMARK minimizedRMSD -1
REMARK  1 active torsions:
REMARK  status: ('A' for Active; 'I' for Inactive)
REMARK    1  A    between atoms: C1_2  and  C2_3 
ROOT
ATOM      1  C2  UNL d   1       0.372   0.297  -0.255  0.00  0.00    -0.073 A 
ATOM      2  C3  UNL d   1       1.162   1.177  -1.004  0.00  0.00    -0.002 A 
ATOM      3  C4  UNL d   1       1.336   0.975  -2.374  0.00  0.00     0.004 A 
ATOM      4  C5  UNL d   1       0.718  -0.103  -3.009  0.00  0.00    -0.004 A 
ATOM      5  C6  UNL d   1      -0.084  -0.986  -2.279  0.00  0.00    -0.075 A 
ATOM      6  C7  UNL d   1      -0.753  -2.151  -2.947  0.00  0.00     0.076 C 
ATOM      7  C8  UNL d   1      -0.252  -0.778  -0.904  0.00  0.00     0.001 A 
ENDROOT
BRANCH   1   8
ATOM      8  C1  UNL d   1       0.176   0.515   1.223  0.00  0.00     0.053 C 
ATOM      9  C   UNL d   1      -0.649  -0.594   1.858  0.00  0.00     0.018 C 
ENDBRANCH   1   8
TORSDOF 1
ENDMDL
