MODEL 1
REMARK minimizedAffinity 4.24874973
REMARK minimizedRMSD -1
REMARK  1 active torsions:
REMARK  status: ('A' for Active; 'I' for Inactive)
REMARK    1  A    between atoms: C1_2  and  C2_3 
ROOT
ATOM      1  C2  UNL d   1       1.216   2.198  -0.956  0.00  0.00    -0.073 A 
ATOM      2  C3  UNL d   1       1.115   2.030   0.430  0.00  0.00    -0.002 A 
ATOM      3  C4  UNL d   1       1.086   3.141   1.274  0.00  0.00     0.004 A 
ATOM      4  C5  UNL d   1       1.152   4.429   0.742  0.00  0.00    -0.004 A 
ATOM      5  C6  UNL d   1       1.242   4.617  -0.641  0.00  0.00    -0.075 A 
ATOM      6  C7  UNL d   1       1.316   5.996  -1.229  0.00  0.00     0.076 C 
ATOM      7  C8  UNL d   1       1.273   3.496  -1.482  0.00  0.00     0.001 A 
ENDROOT
BRANCH   1   8
ATOM      8  C1  UNL d   1       1.241   1.001  -1.872  0.00  0.00     0.053 C 
ATOM      9  C   UNL d   1      -0.035   0.885  -2.692  0.00  0.00     0.018 C 
ENDBRANCH   1   8
TORSDOF 1
ENDMDL
