MODEL 1
REMARK minimizedAffinity 0.268313974
REMARK minimizedRMSD -1
REMARK  1 active torsions:
REMARK  status: ('A' for Active; 'I' for Inactive)
REMARK    1  A    between atoms: C1_2  and  C2_3 
ROOT
ATOM      1  C2  UNL d   1       0.685   0.539   0.740  0.00  0.00    -0.073 A 
ATOM      2  C3  UNL d   1       1.080   1.520   1.657  0.00  0.00    -0.002 A 
ATOM      3  C4  UNL d   1       1.848   2.607   1.239  0.00  0.00     0.004 A 
ATOM      4  C5  UNL d   1       2.224   2.729  -0.099  0.00  0.00    -0.004 A 
ATOM      5  C6  UNL d   1       1.830   1.765  -1.032  0.00  0.00    -0.075 A 
ATOM      6  C7  UNL d   1       2.227   1.880  -2.475  0.00  0.00     0.076 C 
ATOM      7  C8  UNL d   1       1.060   0.675  -0.605  0.00  0.00     0.001 A 
ENDROOT
BRANCH   1   8
ATOM      8  C1  UNL d   1      -0.150  -0.633   1.185  0.00  0.00     0.053 C 
ATOM      9  C   UNL d   1      -0.138  -1.761   0.165  0.00  0.00     0.018 C 
ENDBRANCH   1   8
TORSDOF 1
ENDMDL
