MODEL 1
REMARK minimizedAffinity 5.1972084
REMARK minimizedRMSD -1
REMARK  1 active torsions:
REMARK  status: ('A' for Active; 'I' for Inactive)
REMARK    1  A    between atoms: C1_2  and  C2_3 
ROOT
ATOM      1  C2  UNL d   1      -3.204   1.325  -3.950  0.00  0.00    -0.073 A 
ATOM      2  C3  UNL d   1      -4.021   2.240  -4.625  0.00  0.00    -0.002 A 
ATOM      3  C4  UNL d   1      -4.868   1.808  -5.647  0.00  0.00     0.004 A 
ATOM      4  C5  UNL d   1      -4.911   0.459  -6.000  0.00  0.00    -0.004 A 
ATOM      5  C6  UNL d   1      -4.111  -0.471  -5.330  0.00  0.00    -0.075 A 
ATOM      6  C7  UNL d   1      -4.144  -1.925  -5.699  0.00  0.00     0.076 C 
ATOM      7  C8  UNL d   1      -3.261  -0.030  -4.306  0.00  0.00     0.001 A 
ENDROOT
BRANCH   1   8
ATOM      8  C1  UNL d   1      -2.293   1.786  -2.842  0.00  0.00     0.053 C 
ATOM      9  C   UNL d   1      -1.067   0.897  -2.705  0.00  0.00     0.018 C 
ENDBRANCH   1   8
TORSDOF 1
ENDMDL
