MODEL 1
REMARK minimizedAffinity 6.55062342
REMARK minimizedRMSD -1
REMARK  1 active torsions:
REMARK  status: ('A' for Active; 'I' for Inactive)
REMARK    1  A    between atoms: C1_2  and  C2_3 
ROOT
ATOM      1  C2  UNL d   1       2.055   1.049  -0.258  0.00  0.00    -0.073 A 
ATOM      2  C3  UNL d   1       1.462  -0.167  -0.616  0.00  0.00    -0.002 A 
ATOM      3  C4  UNL d   1       0.399  -0.679   0.129  0.00  0.00     0.004 A 
ATOM      4  C5  UNL d   1      -0.086   0.022   1.233  0.00  0.00    -0.004 A 
ATOM      5  C6  UNL d   1       0.485   1.244   1.600  0.00  0.00    -0.075 A 
ATOM      6  C7  UNL d   1      -0.023   2.009   2.786  0.00  0.00     0.076 C 
ATOM      7  C8  UNL d   1       1.554   1.751   0.848  0.00  0.00     0.001 A 
ENDROOT
BRANCH   1   8
ATOM      8  C1  UNL d   1       3.199   1.609  -1.064  0.00  0.00     0.053 C 
ATOM      9  C   UNL d   1       4.506   1.590  -0.287  0.00  0.00     0.018 C 
ENDBRANCH   1   8
TORSDOF 1
ENDMDL
