MODEL 1
REMARK minimizedAffinity 9.44271278
REMARK minimizedRMSD -1
REMARK  1 active torsions:
REMARK  status: ('A' for Active; 'I' for Inactive)
REMARK    1  A    between atoms: C1_2  and  C2_3 
ROOT
ATOM      1  C2  UNL d   1       0.661  -4.380  -2.844  0.00  0.00    -0.073 A 
ATOM      2  C3  UNL d   1       1.715  -5.291  -2.712  0.00  0.00    -0.002 A 
ATOM      3  C4  UNL d   1       2.698  -5.096  -1.741  0.00  0.00     0.004 A 
ATOM      4  C5  UNL d   1       2.635  -3.993  -0.889  0.00  0.00    -0.004 A 
ATOM      5  C6  UNL d   1       1.583  -3.078  -0.998  0.00  0.00    -0.075 A 
ATOM      6  C7  UNL d   1       1.501  -1.885  -0.091  0.00  0.00     0.076 C 
ATOM      7  C8  UNL d   1       0.601  -3.279  -1.977  0.00  0.00     0.001 A 
ENDROOT
BRANCH   1   8
ATOM      8  C1  UNL d   1      -0.406  -4.590  -3.886  0.00  0.00     0.053 C 
ATOM      9  C   UNL d   1      -0.369  -5.995  -4.465  0.00  0.00     0.018 C 
ENDBRANCH   1   8
TORSDOF 1
ENDMDL
