MODEL 1
REMARK minimizedAffinity 9.4061985
REMARK minimizedRMSD -1
REMARK  1 active torsions:
REMARK  status: ('A' for Active; 'I' for Inactive)
REMARK    1  A    between atoms: C1_2  and  C2_3 
ROOT
ATOM      1  C2  UNL d   1       2.439  -0.768  -0.447  0.00  0.00    -0.073 A 
ATOM      2  C3  UNL d   1       1.067  -0.493  -0.471  0.00  0.00    -0.002 A 
ATOM      3  C4  UNL d   1       0.160  -1.467  -0.890  0.00  0.00     0.004 A 
ATOM      4  C5  UNL d   1       0.614  -2.727  -1.282  0.00  0.00    -0.004 A 
ATOM      5  C6  UNL d   1       1.980  -3.025  -1.254  0.00  0.00    -0.075 A 
ATOM      6  C7  UNL d   1       2.484  -4.374  -1.674  0.00  0.00     0.076 C 
ATOM      7  C8  UNL d   1       2.885  -2.040  -0.835  0.00  0.00     0.001 A 
ENDROOT
BRANCH   1   8
ATOM      8  C1  UNL d   1       3.422   0.278   0.010  0.00  0.00     0.053 C 
ATOM      9  C   UNL d   1       4.429   0.628  -1.074  0.00  0.00     0.018 C 
ENDBRANCH   1   8
TORSDOF 1
ENDMDL
