MODEL 1
REMARK minimizedAffinity 6.20429277
REMARK minimizedRMSD -1
REMARK  1 active torsions:
REMARK  status: ('A' for Active; 'I' for Inactive)
REMARK    1  A    between atoms: C1_2  and  C2_3 
ROOT
ATOM      1  C2  UNL d   1      -3.937  -3.381  -3.913  0.00  0.00    -0.073 A 
ATOM      2  C3  UNL d   1      -4.234  -4.304  -4.922  0.00  0.00    -0.002 A 
ATOM      3  C4  UNL d   1      -5.105  -3.961  -5.958  0.00  0.00     0.004 A 
ATOM      4  C5  UNL d   1      -5.680  -2.691  -5.999  0.00  0.00    -0.004 A 
ATOM      5  C6  UNL d   1      -5.386  -1.751  -5.006  0.00  0.00    -0.075 A 
ATOM      6  C7  UNL d   1      -5.999  -0.381  -5.034  0.00  0.00     0.076 C 
ATOM      7  C8  UNL d   1      -4.513  -2.104  -3.968  0.00  0.00     0.001 A 
ENDROOT
BRANCH   1   8
ATOM      8  C1  UNL d   1      -2.993  -3.746  -2.797  0.00  0.00     0.053 C 
ATOM      9  C   UNL d   1      -1.858  -4.636  -3.277  0.00  0.00     0.018 C 
ENDBRANCH   1   8
TORSDOF 1
ENDMDL
