MODEL 1
REMARK minimizedAffinity 9.96216202
REMARK minimizedRMSD -1
REMARK  1 active torsions:
REMARK  status: ('A' for Active; 'I' for Inactive)
REMARK    1  A    between atoms: C1_2  and  C2_3 
ROOT
ATOM      1  C2  UNL d   1       1.087  -1.863  -1.128  0.00  0.00    -0.073 A 
ATOM      2  C3  UNL d   1       0.178  -1.113  -1.883  0.00  0.00    -0.002 A 
ATOM      3  C4  UNL d   1       0.368   0.259  -2.055  0.00  0.00     0.004 A 
ATOM      4  C5  UNL d   1       1.469   0.892  -1.481  0.00  0.00    -0.004 A 
ATOM      5  C6  UNL d   1       2.395   0.158  -0.733  0.00  0.00    -0.075 A 
ATOM      6  C7  UNL d   1       3.584   0.825  -0.107  0.00  0.00     0.076 C 
ATOM      7  C8  UNL d   1       2.197  -1.219  -0.562  0.00  0.00     0.001 A 
ENDROOT
BRANCH   1   8
ATOM      8  C1  UNL d   1       0.890  -3.346  -0.945  0.00  0.00     0.053 C 
ATOM      9  C   UNL d   1       2.093  -4.144  -1.423  0.00  0.00     0.018 C 
ENDBRANCH   1   8
TORSDOF 1
ENDMDL
