MODEL 1
REMARK minimizedAffinity -3.70289373
REMARK minimizedRMSD -1
REMARK  0 active torsions:
REMARK  status: ('A' for Active; 'I' for Inactive)
ROOT
ATOM      1  C2' OXE d   1       1.300  -0.614   2.134  0.00  0.00     0.078 C 
ATOM      2  C1' OXE d   1       0.519  -0.891  -0.548  0.00  0.00     0.078 C 
ATOM      3  C1  OXE d   1      -0.073   0.249   0.243  0.00  0.00    -0.078 A 
ATOM      4  C2  OXE d   1       0.279   0.348   1.568  0.00  0.00    -0.078 A 
ATOM      5  C3  OXE d   1      -0.196   1.413   2.329  0.00  0.00     0.003 A 
ATOM      6  C4  OXE d   1      -1.148   2.293   1.800  0.00  0.00    -0.002 A 
ATOM      7  C5  OXE d   1      -1.551   2.185   0.465  0.00  0.00    -0.002 A 
ATOM      8  C6  OXE d   1      -0.992   1.197  -0.338  0.00  0.00     0.003 A 
ENDROOT
TORSDOF 0
ENDMDL
