MODEL 1
REMARK minimizedAffinity -4.2403841
REMARK minimizedRMSD -1
REMARK  0 active torsions:
REMARK  status: ('A' for Active; 'I' for Inactive)
ROOT
ATOM      1  C2' OXE d   1      -1.443   2.403  -1.293  0.00  0.00     0.078 C 
ATOM      2  C1' OXE d   1      -1.517   2.693   1.498  0.00  0.00     0.078 C 
ATOM      3  C1  OXE d   1      -0.823   1.478   0.935  0.00  0.00    -0.078 A 
ATOM      4  C2  OXE d   1      -0.833   1.320  -0.430  0.00  0.00    -0.078 A 
ATOM      5  C3  OXE d   1      -0.160   0.245  -1.005  0.00  0.00     0.003 A 
ATOM      6  C4  OXE d   1       0.393  -0.757  -0.199  0.00  0.00    -0.002 A 
ATOM      7  C5  OXE d   1       0.379  -0.637   1.195  0.00  0.00    -0.002 A 
ATOM      8  C6  OXE d   1      -0.187   0.493   1.775  0.00  0.00     0.003 A 
ENDROOT
TORSDOF 0
ENDMDL
