MODEL 1
REMARK minimizedAffinity -5.24787283
REMARK minimizedRMSD -1
REMARK  0 active torsions:
REMARK  status: ('A' for Active; 'I' for Inactive)
ROOT
ATOM      1  C2' OXE d   1       0.469  -0.095   1.679  0.00  0.00     0.078 C 
ATOM      2  C1' OXE d   1       0.299  -0.126  -1.123  0.00  0.00     0.078 C 
ATOM      3  C1  OXE d   1      -0.311   1.045  -0.394  0.00  0.00    -0.078 A 
ATOM      4  C2  OXE d   1      -0.264   1.029   0.979  0.00  0.00    -0.078 A 
ATOM      5  C3  OXE d   1      -0.764   2.111   1.698  0.00  0.00     0.003 A 
ATOM      6  C4  OXE d   1      -1.449   3.141   1.044  0.00  0.00    -0.002 A 
ATOM      7  C5  OXE d   1      -1.543   3.157  -0.351  0.00  0.00    -0.002 A 
ATOM      8  C6  OXE d   1      -0.944   2.141  -1.086  0.00  0.00     0.003 A 
ENDROOT
TORSDOF 0
ENDMDL
