MODEL 1
REMARK minimizedAffinity -2.3000617
REMARK minimizedRMSD -1
REMARK  0 active torsions:
REMARK  status: ('A' for Active; 'I' for Inactive)
ROOT
ATOM      1  C2' OXE d   1       1.843  -1.595   2.849  0.00  0.00     0.078 C 
ATOM      2  C1' OXE d   1       0.127  -0.559   4.814  0.00  0.00     0.078 C 
ATOM      3  C1  OXE d   1       0.190   0.156   3.488  0.00  0.00    -0.078 A 
ATOM      4  C2  OXE d   1       1.068  -0.331   2.549  0.00  0.00    -0.078 A 
ATOM      5  C3  OXE d   1       1.126   0.258   1.289  0.00  0.00     0.003 A 
ATOM      6  C4  OXE d   1       0.412   1.433   1.022  0.00  0.00    -0.002 A 
ATOM      7  C5  OXE d   1      -0.457   1.968   1.978  0.00  0.00    -0.002 A 
ATOM      8  C6  OXE d   1      -0.611   1.319   3.198  0.00  0.00     0.003 A 
ENDROOT
TORSDOF 0
ENDMDL
