MODEL 1
REMARK minimizedAffinity 5.42364264
REMARK minimizedRMSD -1
REMARK  0 active torsions:
REMARK  status: ('A' for Active; 'I' for Inactive)
ROOT
ATOM      1  C2' OXE d   1      -1.507  -2.643  -2.068  0.00  0.00     0.078 C 
ATOM      2  C1' OXE d   1      -3.345  -0.958  -0.779  0.00  0.00     0.078 C 
ATOM      3  C1  OXE d   1      -2.070  -0.342  -1.297  0.00  0.00    -0.078 A 
ATOM      4  C2  OXE d   1      -1.155  -1.182  -1.885  0.00  0.00    -0.078 A 
ATOM      5  C3  OXE d   1       0.013  -0.657  -2.429  0.00  0.00     0.003 A 
ATOM      6  C4  OXE d   1       0.336   0.693  -2.247  0.00  0.00    -0.002 A 
ATOM      7  C5  OXE d   1      -0.564   1.559  -1.616  0.00  0.00    -0.002 A 
ATOM      8  C6  OXE d   1      -1.787   1.067  -1.174  0.00  0.00     0.003 A 
ENDROOT
TORSDOF 0
ENDMDL
