MODEL 1
REMARK minimizedAffinity -5.09223127
REMARK minimizedRMSD -1
REMARK  0 active torsions:
REMARK  status: ('A' for Active; 'I' for Inactive)
ROOT
ATOM      1  C2' OXE d   1       1.546  -0.325   1.542  0.00  0.00     0.078 C 
ATOM      2  C1' OXE d   1       0.181  -1.010  -0.814  0.00  0.00     0.078 C 
ATOM      3  C1  OXE d   1      -0.406   0.080   0.048  0.00  0.00    -0.078 A 
ATOM      4  C2  OXE d   1       0.243   0.376   1.222  0.00  0.00    -0.078 A 
ATOM      5  C3  OXE d   1      -0.225   1.411   2.027  0.00  0.00     0.003 A 
ATOM      6  C4  OXE d   1      -1.436   2.047   1.729  0.00  0.00    -0.002 A 
ATOM      7  C5  OXE d   1      -2.135   1.733   0.558  0.00  0.00    -0.002 A 
ATOM      8  C6  OXE d   1      -1.612   0.784  -0.313  0.00  0.00     0.003 A 
ENDROOT
TORSDOF 0
ENDMDL
