MODEL 1
REMARK minimizedAffinity -5.70440006
REMARK minimizedRMSD -1
REMARK  0 active torsions:
REMARK  status: ('A' for Active; 'I' for Inactive)
ROOT
ATOM      1  C2' OXE d   1       1.295  -0.859   1.973  0.00  0.00     0.078 C 
ATOM      2  C1' OXE d   1       0.163  -1.078  -0.586  0.00  0.00     0.078 C 
ATOM      3  C1  OXE d   1      -0.225   0.112   0.255  0.00  0.00    -0.078 A 
ATOM      4  C2  OXE d   1       0.298   0.187   1.523  0.00  0.00    -0.078 A 
ATOM      5  C3  OXE d   1       0.017   1.293   2.321  0.00  0.00     0.003 A 
ATOM      6  C4  OXE d   1      -0.915   2.251   1.901  0.00  0.00    -0.002 A 
ATOM      7  C5  OXE d   1      -1.489   2.172   0.628  0.00  0.00    -0.002 A 
ATOM      8  C6  OXE d   1      -1.123   1.135  -0.222  0.00  0.00     0.003 A 
ENDROOT
TORSDOF 0
ENDMDL
