MODEL 1
REMARK minimizedAffinity -4.97585678
REMARK minimizedRMSD -1
REMARK  0 active torsions:
REMARK  status: ('A' for Active; 'I' for Inactive)
ROOT
ATOM      1  C2' OXE d   1      -1.434   2.149  -1.290  0.00  0.00     0.078 C 
ATOM      2  C1' OXE d   1      -1.286   2.848   1.425  0.00  0.00     0.078 C 
ATOM      3  C1  OXE d   1      -0.621   1.565   0.992  0.00  0.00    -0.078 A 
ATOM      4  C2  OXE d   1      -0.738   1.208  -0.330  0.00  0.00    -0.078 A 
ATOM      5  C3  OXE d   1      -0.098   0.062  -0.794  0.00  0.00     0.003 A 
ATOM      6  C4  OXE d   1       0.535  -0.808   0.102  0.00  0.00    -0.002 A 
ATOM      7  C5  OXE d   1       0.632  -0.483   1.459  0.00  0.00    -0.002 A 
ATOM      8  C6  OXE d   1       0.097   0.719   1.912  0.00  0.00     0.003 A 
ENDROOT
TORSDOF 0
ENDMDL
