MODEL 1
REMARK minimizedAffinity -4.61573362
REMARK minimizedRMSD -1
REMARK  0 active torsions:
REMARK  status: ('A' for Active; 'I' for Inactive)
ROOT
ATOM      1  C2' OXE d   1       0.483  -0.075   2.309  0.00  0.00     0.078 C 
ATOM      2  C1' OXE d   1      -1.297   1.976   1.597  0.00  0.00     0.078 C 
ATOM      3  C1  OXE d   1      -0.612   1.221   0.485  0.00  0.00    -0.078 A 
ATOM      4  C2  OXE d   1       0.292   0.251   0.843  0.00  0.00    -0.078 A 
ATOM      5  C3  OXE d   1       0.911  -0.513  -0.143  0.00  0.00     0.003 A 
ATOM      6  C4  OXE d   1       0.737  -0.198  -1.496  0.00  0.00    -0.002 A 
ATOM      7  C5  OXE d   1      -0.149   0.813  -1.882  0.00  0.00    -0.002 A 
ATOM      8  C6  OXE d   1      -0.862   1.502  -0.907  0.00  0.00     0.003 A 
ENDROOT
TORSDOF 0
ENDMDL
