MODEL 1
REMARK minimizedAffinity -3.29375124
REMARK minimizedRMSD -1
REMARK  0 active torsions:
REMARK  status: ('A' for Active; 'I' for Inactive)
ROOT
ATOM      1  C2' OXE d   1      -0.240   2.046  -1.331  0.00  0.00     0.078 C 
ATOM      2  C1' OXE d   1      -0.593   1.805   1.443  0.00  0.00     0.078 C 
ATOM      3  C1  OXE d   1      -0.237   0.561   0.668  0.00  0.00    -0.078 A 
ATOM      4  C2  OXE d   1      -0.112   0.679  -0.695  0.00  0.00    -0.078 A 
ATOM      5  C3  OXE d   1       0.269  -0.426  -1.451  0.00  0.00     0.003 A 
ATOM      6  C4  OXE d   1       0.376  -1.689  -0.857  0.00  0.00    -0.002 A 
ATOM      7  C5  OXE d   1       0.214  -1.839   0.525  0.00  0.00    -0.002 A 
ATOM      8  C6  OXE d   1      -0.050  -0.719   1.306  0.00  0.00     0.003 A 
ENDROOT
TORSDOF 0
ENDMDL
