MODEL 1
REMARK minimizedAffinity -0.79471159
REMARK minimizedRMSD -1
REMARK  0 active torsions:
REMARK  status: ('A' for Active; 'I' for Inactive)
ROOT
ATOM      1  C   UNL d   1      -3.391  -1.111   4.580  0.00  0.00     0.077 C 
ATOM      2  C1  UNL d   1      -2.798   0.037   3.818  0.00  0.00    -0.074 A 
ATOM      3  C2  UNL d   1      -2.519   1.253   4.451  0.00  0.00    -0.005 A 
ATOM      4  C3  UNL d   1      -1.959   2.308   3.732  0.00  0.00     0.006 A 
ATOM      5  C4  UNL d   1      -1.671   2.160   2.375  0.00  0.00    -0.005 A 
ATOM      6  C5  UNL d   1      -1.942   0.951   1.725  0.00  0.00    -0.074 A 
ATOM      7  C6  UNL d   1      -1.631   0.771   0.269  0.00  0.00     0.077 C 
ATOM      8  C7  UNL d   1      -2.499  -0.107   2.456  0.00  0.00    -0.001 A 
ENDROOT
TORSDOF 0
ENDMDL
