MODEL 1
REMARK minimizedAffinity -4.31040335
REMARK minimizedRMSD -1
REMARK  0 active torsions:
REMARK  status: ('A' for Active; 'I' for Inactive)
ROOT
ATOM      1  C   UNL d   1       1.964  -2.006  -2.761  0.00  0.00     0.077 C 
ATOM      2  C1  UNL d   1       1.750  -1.267  -1.474  0.00  0.00    -0.074 A 
ATOM      3  C2  UNL d   1       2.808  -1.046  -0.586  0.00  0.00    -0.005 A 
ATOM      4  C3  UNL d   1       2.595  -0.349   0.603  0.00  0.00     0.006 A 
ATOM      5  C4  UNL d   1       1.324   0.135   0.916  0.00  0.00    -0.005 A 
ATOM      6  C5  UNL d   1       0.254  -0.075   0.040  0.00  0.00    -0.074 A 
ATOM      7  C6  UNL d   1      -1.116   0.446   0.357  0.00  0.00     0.077 C 
ATOM      8  C7  UNL d   1       0.477  -0.771  -1.156  0.00  0.00    -0.001 A 
ENDROOT
TORSDOF 0
ENDMDL
