MODEL 1
REMARK minimizedAffinity -2.15930271
REMARK minimizedRMSD -1
REMARK  0 active torsions:
REMARK  status: ('A' for Active; 'I' for Inactive)
ROOT
ATOM      1  C   UNL d   1      -1.327  -3.893   0.522  0.00  0.00     0.077 C 
ATOM      2  C1  UNL d   1      -0.794  -2.515   0.266  0.00  0.00    -0.074 A 
ATOM      3  C2  UNL d   1      -1.261  -1.417   0.996  0.00  0.00    -0.005 A 
ATOM      4  C3  UNL d   1      -0.749  -0.142   0.752  0.00  0.00     0.006 A 
ATOM      5  C4  UNL d   1       0.232   0.047  -0.222  0.00  0.00    -0.005 A 
ATOM      6  C5  UNL d   1       0.711  -1.039  -0.961  0.00  0.00    -0.074 A 
ATOM      7  C6  UNL d   1       1.772  -0.854  -2.005  0.00  0.00     0.077 C 
ATOM      8  C7  UNL d   1       0.197  -2.318  -0.706  0.00  0.00    -0.001 A 
ENDROOT
TORSDOF 0
ENDMDL
