MODEL 1
REMARK minimizedAffinity -3.14800692
REMARK minimizedRMSD -1
REMARK  0 active torsions:
REMARK  status: ('A' for Active; 'I' for Inactive)
ROOT
ATOM      1  C   UNL d   1       1.828   2.235  -2.399  0.00  0.00     0.077 C 
ATOM      2  C1  UNL d   1       1.414   1.075  -1.544  0.00  0.00    -0.074 A 
ATOM      3  C2  UNL d   1       2.095  -0.145  -1.608  0.00  0.00    -0.005 A 
ATOM      4  C3  UNL d   1       1.703  -1.212  -0.800  0.00  0.00     0.006 A 
ATOM      5  C4  UNL d   1       0.629  -1.071   0.079  0.00  0.00    -0.005 A 
ATOM      6  C5  UNL d   1      -0.063   0.141   0.158  0.00  0.00    -0.074 A 
ATOM      7  C6  UNL d   1      -1.214   0.313   1.104  0.00  0.00     0.077 C 
ATOM      8  C7  UNL d   1       0.340   1.211  -0.653  0.00  0.00    -0.001 A 
ENDROOT
TORSDOF 0
ENDMDL
