MODEL 1
REMARK minimizedAffinity -1.88384998
REMARK minimizedRMSD -1
REMARK  0 active torsions:
REMARK  status: ('A' for Active; 'I' for Inactive)
ROOT
ATOM      1  C   UNL d   1       2.939  -1.156  -2.289  0.00  0.00     0.077 C 
ATOM      2  C1  UNL d   1       1.950  -0.110  -1.870  0.00  0.00    -0.074 A 
ATOM      3  C2  UNL d   1       1.861   1.109  -2.549  0.00  0.00    -0.005 A 
ATOM      4  C3  UNL d   1       0.929   2.069  -2.154  0.00  0.00     0.006 A 
ATOM      5  C4  UNL d   1       0.079   1.819  -1.076  0.00  0.00    -0.005 A 
ATOM      6  C5  UNL d   1       0.152   0.606  -0.385  0.00  0.00    -0.074 A 
ATOM      7  C6  UNL d   1      -0.761   0.318   0.769  0.00  0.00     0.077 C 
ATOM      8  C7  UNL d   1       1.086  -0.356  -0.793  0.00  0.00    -0.001 A 
ENDROOT
TORSDOF 0
ENDMDL
