MODEL 1
REMARK minimizedAffinity -4.0935092
REMARK minimizedRMSD -1
REMARK  0 active torsions:
REMARK  status: ('A' for Active; 'I' for Inactive)
ROOT
ATOM      1  C   UNL d   1      -0.854   0.679   1.187  0.00  0.00     0.077 C 
ATOM      2  C1  UNL d   1       0.056  -0.217   0.400  0.00  0.00    -0.074 A 
ATOM      3  C2  UNL d   1      -0.142  -1.602   0.377  0.00  0.00    -0.005 A 
ATOM      4  C3  UNL d   1       0.706  -2.422  -0.367  0.00  0.00     0.006 A 
ATOM      5  C4  UNL d   1       1.759  -1.867  -1.095  0.00  0.00    -0.005 A 
ATOM      6  C5  UNL d   1       1.972  -0.484  -1.085  0.00  0.00    -0.074 A 
ATOM      7  C6  UNL d   1       3.093   0.129  -1.870  0.00  0.00     0.077 C 
ATOM      8  C7  UNL d   1       1.111   0.333  -0.340  0.00  0.00    -0.001 A 
ENDROOT
TORSDOF 0
ENDMDL
