MODEL 1
REMARK minimizedAffinity -5.35857534
REMARK minimizedRMSD -1
REMARK  0 active torsions:
REMARK  status: ('A' for Active; 'I' for Inactive)
ROOT
ATOM      1  C   UNL d   1      -2.849   1.585   3.336  0.00  0.00     0.077 C 
ATOM      2  C1  UNL d   1      -1.563   1.021   2.811  0.00  0.00    -0.074 A 
ATOM      3  C2  UNL d   1      -0.442   0.895   3.638  0.00  0.00    -0.005 A 
ATOM      4  C3  UNL d   1       0.744   0.359   3.138  0.00  0.00     0.006 A 
ATOM      5  C4  UNL d   1       0.822  -0.056   1.808  0.00  0.00    -0.005 A 
ATOM      6  C5  UNL d   1      -0.289   0.061   0.966  0.00  0.00    -0.074 A 
ATOM      7  C6  UNL d   1      -0.225  -0.389  -0.463  0.00  0.00     0.077 C 
ATOM      8  C7  UNL d   1      -1.480   0.594   1.478  0.00  0.00    -0.001 A 
ENDROOT
TORSDOF 0
ENDMDL
