MODEL 1
REMARK minimizedAffinity -3.8992691
REMARK minimizedRMSD -1
REMARK  0 active torsions:
REMARK  status: ('A' for Active; 'I' for Inactive)
ROOT
ATOM      1  C   UNL d   1       1.924  -1.924  -3.006  0.00  0.00     0.077 C 
ATOM      2  C1  UNL d   1       1.728  -0.944  -1.888  0.00  0.00    -0.074 A 
ATOM      3  C2  UNL d   1       2.556   0.177  -1.760  0.00  0.00    -0.005 A 
ATOM      4  C3  UNL d   1       2.355   1.085  -0.721  0.00  0.00     0.006 A 
ATOM      5  C4  UNL d   1       1.327   0.882   0.201  0.00  0.00    -0.005 A 
ATOM      6  C5  UNL d   1       0.489  -0.232   0.089  0.00  0.00    -0.074 A 
ATOM      7  C6  UNL d   1      -0.627  -0.459   1.065  0.00  0.00     0.077 C 
ATOM      8  C7  UNL d   1       0.693  -1.136  -0.962  0.00  0.00    -0.001 A 
ENDROOT
TORSDOF 0
ENDMDL
