MODEL 1
REMARK minimizedAffinity -3.31675744
REMARK minimizedRMSD -1
REMARK  0 active torsions:
REMARK  status: ('A' for Active; 'I' for Inactive)
ROOT
ATOM      1  C   UNL d   1      -1.292   0.985   3.508  0.00  0.00     0.077 C 
ATOM      2  C1  UNL d   1      -1.085   0.719   2.046  0.00  0.00    -0.074 A 
ATOM      3  C2  UNL d   1      -2.067   1.055   1.108  0.00  0.00    -0.005 A 
ATOM      4  C3  UNL d   1      -1.856   0.811  -0.249  0.00  0.00     0.006 A 
ATOM      5  C4  UNL d   1      -0.664   0.229  -0.681  0.00  0.00    -0.005 A 
ATOM      6  C5  UNL d   1       0.330  -0.113   0.242  0.00  0.00    -0.074 A 
ATOM      7  C6  UNL d   1       1.621  -0.730  -0.207  0.00  0.00     0.077 C 
ATOM      8  C7  UNL d   1       0.113   0.142   1.603  0.00  0.00    -0.001 A 
ENDROOT
TORSDOF 0
ENDMDL
