MODEL 1
REMARK minimizedAffinity -4.7567153
REMARK minimizedRMSD -1
REMARK  0 active torsions:
REMARK  status: ('A' for Active; 'I' for Inactive)
ROOT
ATOM      1  C   UNL d   1       3.726   0.168  -2.234  0.00  0.00     0.077 C 
ATOM      2  C1  UNL d   1       2.306   0.435  -1.832  0.00  0.00    -0.074 A 
ATOM      3  C2  UNL d   1       1.569   1.458  -2.436  0.00  0.00    -0.005 A 
ATOM      4  C3  UNL d   1       0.246   1.689  -2.058  0.00  0.00     0.006 A 
ATOM      5  C4  UNL d   1      -0.352   0.900  -1.075  0.00  0.00    -0.005 A 
ATOM      6  C5  UNL d   1       0.370  -0.129  -0.461  0.00  0.00    -0.074 A 
ATOM      7  C6  UNL d   1      -0.261  -0.993   0.591  0.00  0.00     0.077 C 
ATOM      8  C7  UNL d   1       1.696  -0.359  -0.851  0.00  0.00    -0.001 A 
ENDROOT
TORSDOF 0
ENDMDL
