MODEL 1
REMARK minimizedAffinity -6.15736771
REMARK minimizedRMSD -1
REMARK  0 active torsions:
REMARK  status: ('A' for Active; 'I' for Inactive)
ROOT
ATOM      1  C   UNL d   1       1.902   0.813  -3.030  0.00  0.00     0.077 C 
ATOM      2  C1  UNL d   1       1.482   0.002  -1.840  0.00  0.00    -0.074 A 
ATOM      3  C2  UNL d   1       2.078  -1.233  -1.565  0.00  0.00    -0.005 A 
ATOM      4  C3  UNL d   1       1.684  -1.971  -0.449  0.00  0.00     0.006 A 
ATOM      5  C4  UNL d   1       0.691  -1.483   0.401  0.00  0.00    -0.005 A 
ATOM      6  C5  UNL d   1       0.084  -0.250   0.143  0.00  0.00    -0.074 A 
ATOM      7  C6  UNL d   1      -0.978   0.293   1.052  0.00  0.00     0.077 C 
ATOM      8  C7  UNL d   1       0.491   0.489  -0.977  0.00  0.00    -0.001 A 
ENDROOT
TORSDOF 0
ENDMDL
