MODEL 1
REMARK minimizedAffinity -1.70694458
REMARK minimizedRMSD -1
REMARK  0 active torsions:
REMARK  status: ('A' for Active; 'I' for Inactive)
ROOT
ATOM      1  C   UNL d   1       1.066   2.051  -2.765  0.00  0.00     0.077 C 
ATOM      2  C1  UNL d   1       0.671   0.953  -1.823  0.00  0.00    -0.074 A 
ATOM      3  C2  UNL d   1       1.444  -0.207  -1.706  0.00  0.00    -0.005 A 
ATOM      4  C3  UNL d   1       1.069  -1.215  -0.819  0.00  0.00     0.006 A 
ATOM      5  C4  UNL d   1      -0.081  -1.075  -0.040  0.00  0.00    -0.005 A 
ATOM      6  C5  UNL d   1      -0.865   0.079  -0.143  0.00  0.00    -0.074 A 
ATOM      7  C6  UNL d   1      -2.098   0.250   0.694  0.00  0.00     0.077 C 
ATOM      8  C7  UNL d   1      -0.478   1.091  -1.032  0.00  0.00    -0.001 A 
ENDROOT
TORSDOF 0
ENDMDL
