MODEL 1
REMARK minimizedAffinity -1.87700343
REMARK minimizedRMSD -1
REMARK  0 active torsions:
REMARK  status: ('A' for Active; 'I' for Inactive)
ROOT
ATOM      1  C   UNL d   1      -0.890   0.751  -1.072  0.00  0.00     0.077 C 
ATOM      2  C1  UNL d   1      -0.628   0.382   0.358  0.00  0.00    -0.074 A 
ATOM      3  C2  UNL d   1       0.481  -0.394   0.708  0.00  0.00    -0.005 A 
ATOM      4  C3  UNL d   1       0.717  -0.722   2.044  0.00  0.00     0.006 A 
ATOM      5  C4  UNL d   1      -0.152  -0.277   3.040  0.00  0.00    -0.005 A 
ATOM      6  C5  UNL d   1      -1.266   0.501   2.709  0.00  0.00    -0.074 A 
ATOM      7  C6  UNL d   1      -2.205   0.996   3.769  0.00  0.00     0.077 C 
ATOM      8  C7  UNL d   1      -1.492   0.832   1.366  0.00  0.00    -0.001 A 
ENDROOT
TORSDOF 0
ENDMDL
