MODEL 1
REMARK minimizedAffinity -3.16501212
REMARK minimizedRMSD -1
REMARK  0 active torsions:
REMARK  status: ('A' for Active; 'I' for Inactive)
ROOT
ATOM      1  C   UNL d   1      -1.125  -2.129  -0.278  0.00  0.00     0.077 C 
ATOM      2  C1  UNL d   1      -0.034  -1.117  -0.098  0.00  0.00    -0.074 A 
ATOM      3  C2  UNL d   1      -0.256   0.060   0.624  0.00  0.00    -0.005 A 
ATOM      4  C3  UNL d   1       0.771   0.988   0.791  0.00  0.00     0.006 A 
ATOM      5  C4  UNL d   1       2.030   0.749   0.238  0.00  0.00    -0.005 A 
ATOM      6  C5  UNL d   1       2.272  -0.422  -0.486  0.00  0.00    -0.074 A 
ATOM      7  C6  UNL d   1       3.622  -0.699  -1.078  0.00  0.00     0.077 C 
ATOM      8  C7  UNL d   1       1.236  -1.353  -0.644  0.00  0.00    -0.001 A 
ENDROOT
TORSDOF 0
ENDMDL
