MODEL 1
REMARK minimizedAffinity -4.14012432
REMARK minimizedRMSD -1
REMARK  0 active torsions:
REMARK  status: ('A' for Active; 'I' for Inactive)
ROOT
ATOM      1  C   UNL d   1      -1.141   0.542   1.365  0.00  0.00     0.077 C 
ATOM      2  C1  UNL d   1      -0.299  -0.404   0.561  0.00  0.00    -0.074 A 
ATOM      3  C2  UNL d   1      -0.682  -1.738   0.390  0.00  0.00    -0.005 A 
ATOM      4  C3  UNL d   1       0.107  -2.604  -0.368  0.00  0.00     0.006 A 
ATOM      5  C4  UNL d   1       1.284  -2.146  -0.961  0.00  0.00    -0.005 A 
ATOM      6  C5  UNL d   1       1.682  -0.815  -0.801  0.00  0.00    -0.074 A 
ATOM      7  C6  UNL d   1       2.939  -0.303  -1.440  0.00  0.00     0.077 C 
ATOM      8  C7  UNL d   1       0.881   0.051  -0.044  0.00  0.00    -0.001 A 
ENDROOT
TORSDOF 0
ENDMDL
