MODEL 1
REMARK minimizedAffinity -4.96772337
REMARK minimizedRMSD -1
REMARK  0 active torsions:
REMARK  status: ('A' for Active; 'I' for Inactive)
ROOT
ATOM      1  C   UNL d   1       2.679   1.095  -2.663  0.00  0.00     0.077 C 
ATOM      2  C1  UNL d   1       2.012   0.145  -1.713  0.00  0.00    -0.074 A 
ATOM      3  C2  UNL d   1       2.600  -1.083  -1.393  0.00  0.00    -0.005 A 
ATOM      4  C3  UNL d   1       1.972  -1.952  -0.501  0.00  0.00     0.006 A 
ATOM      5  C4  UNL d   1       0.752  -1.602   0.080  0.00  0.00    -0.005 A 
ATOM      6  C5  UNL d   1       0.150  -0.377  -0.227  0.00  0.00    -0.074 A 
ATOM      7  C6  UNL d   1      -1.155   0.019   0.396  0.00  0.00     0.077 C 
ATOM      8  C7  UNL d   1       0.791   0.493  -1.119  0.00  0.00    -0.001 A 
ENDROOT
TORSDOF 0
ENDMDL
