MODEL 1
REMARK minimizedAffinity 0.946656883
REMARK minimizedRMSD -1
REMARK  0 active torsions:
REMARK  status: ('A' for Active; 'I' for Inactive)
ROOT
ATOM      1  C   UNL d   1       1.153   1.951  -0.966  0.00  0.00     0.077 C 
ATOM      2  C1  UNL d   1       0.369   1.087  -0.023  0.00  0.00    -0.074 A 
ATOM      3  C2  UNL d   1      -0.138  -0.150  -0.434  0.00  0.00    -0.005 A 
ATOM      4  C3  UNL d   1      -0.857  -0.946   0.457  0.00  0.00     0.006 A 
ATOM      5  C4  UNL d   1      -1.077  -0.515   1.765  0.00  0.00    -0.005 A 
ATOM      6  C5  UNL d   1      -0.577   0.719   2.195  0.00  0.00    -0.074 A 
ATOM      7  C6  UNL d   1      -0.795   1.193   3.601  0.00  0.00     0.077 C 
ATOM      8  C7  UNL d   1       0.151   1.510   1.296  0.00  0.00    -0.001 A 
ENDROOT
TORSDOF 0
ENDMDL
