MODEL 1
REMARK minimizedAffinity -4.38505459
REMARK minimizedRMSD -1
REMARK  0 active torsions:
REMARK  status: ('A' for Active; 'I' for Inactive)
ROOT
ATOM      1  C   UNL d   1       3.184  -0.244  -0.891  0.00  0.00     0.077 C 
ATOM      2  C1  UNL d   1       1.805  -0.684  -0.499  0.00  0.00    -0.074 A 
ATOM      3  C2  UNL d   1       1.430  -2.029  -0.579  0.00  0.00    -0.005 A 
ATOM      4  C3  UNL d   1       0.147  -2.425  -0.202  0.00  0.00     0.006 A 
ATOM      5  C4  UNL d   1      -0.773  -1.482   0.258  0.00  0.00    -0.005 A 
ATOM      6  C5  UNL d   1      -0.415  -0.133   0.346  0.00  0.00    -0.074 A 
ATOM      7  C6  UNL d   1      -1.388   0.893   0.848  0.00  0.00     0.077 C 
ATOM      8  C7  UNL d   1       0.878   0.256  -0.028  0.00  0.00    -0.001 A 
ENDROOT
TORSDOF 0
ENDMDL
