MODEL 1
REMARK minimizedAffinity 4.83341122
REMARK minimizedRMSD -1
REMARK  3 active torsions:
REMARK  status: ('A' for Active; 'I' for Inactive)
REMARK    1  A    between atoms: C3'_2  and  C2'_3 
REMARK    2  A    between atoms: C2'_3  and  C1'_4 
REMARK    3  A    between atoms: C1'_4  and  C1_5 
ROOT
ATOM      1  C1  N4B d   1       0.135   1.740   0.030  0.00  0.00    -0.075 A 
ATOM      2  C2  N4B d   1      -0.348   0.818   0.984  0.00  0.00     0.002 A 
ATOM      3  C3  N4B d   1      -0.362  -0.525   0.695  0.00  0.00     0.002 A 
ATOM      4  C4  N4B d   1       0.082  -0.965  -0.543  0.00  0.00    -0.004 A 
ATOM      5  C5  N4B d   1       0.570  -0.070  -1.450  0.00  0.00     0.002 A 
ATOM      6  C6  N4B d   1       0.594   1.282  -1.171  0.00  0.00     0.002 A 
ENDROOT
BRANCH   1   7
ATOM      7  C1' N4B d   1       0.091   3.225   0.267  0.00  0.00     0.057 C 
BRANCH   7   8
ATOM      8  C2' N4B d   1       1.346   3.649   1.024  0.00  0.00     0.009 C 
BRANCH   8   9
ATOM      9  C3' N4B d   1       1.093   3.780   2.516  0.00  0.00     0.004 C 
ATOM     10  C4' N4B d   1      -0.134   4.584   2.829  0.00  0.00     0.003 C 
ENDBRANCH   8   9
ENDBRANCH   7   8
ENDBRANCH   1   7
TORSDOF 3
ENDMDL
