MODEL 1
REMARK minimizedAffinity 5.01093721
REMARK minimizedRMSD -1
REMARK  3 active torsions:
REMARK  status: ('A' for Active; 'I' for Inactive)
REMARK    1  A    between atoms: C3'_2  and  C2'_3 
REMARK    2  A    between atoms: C2'_3  and  C1'_4 
REMARK    3  A    between atoms: C1'_4  and  C1_5 
ROOT
ATOM      1  C1  N4B d   1      -0.921   0.120   0.491  0.00  0.00    -0.075 A 
ATOM      2  C2  N4B d   1      -1.315  -1.227   0.339  0.00  0.00     0.002 A 
ATOM      3  C3  N4B d   1      -1.783  -1.932   1.421  0.00  0.00     0.002 A 
ATOM      4  C4  N4B d   1      -1.848  -1.319   2.663  0.00  0.00    -0.004 A 
ATOM      5  C5  N4B d   1      -1.489  -0.009   2.796  0.00  0.00     0.002 A 
ATOM      6  C6  N4B d   1      -1.020   0.712   1.717  0.00  0.00     0.002 A 
ENDROOT
BRANCH   1   7
ATOM      7  C1' N4B d   1      -0.322   0.906  -0.644  0.00  0.00     0.057 C 
BRANCH   7   8
ATOM      8  C2' N4B d   1       0.889   0.154  -1.189  0.00  0.00     0.009 C 
BRANCH   8   9
ATOM      9  C3' N4B d   1       0.673  -0.312  -2.618  0.00  0.00     0.004 C 
ATOM     10  C4' N4B d   1       1.658   0.285  -3.579  0.00  0.00     0.003 C 
ENDBRANCH   8   9
ENDBRANCH   7   8
ENDBRANCH   1   7
TORSDOF 3
ENDMDL
