MODEL 1
REMARK minimizedAffinity 3.81395411
REMARK minimizedRMSD -1
REMARK  3 active torsions:
REMARK  status: ('A' for Active; 'I' for Inactive)
REMARK    1  A    between atoms: C3'_2  and  C2'_3 
REMARK    2  A    between atoms: C2'_3  and  C1'_4 
REMARK    3  A    between atoms: C1'_4  and  C1_5 
ROOT
ATOM      1  C1  N4B d   1      -0.354   0.628  -0.207  0.00  0.00    -0.075 A 
ATOM      2  C2  N4B d   1       0.827   1.279   0.212  0.00  0.00     0.002 A 
ATOM      3  C3  N4B d   1       1.912   1.341  -0.627  0.00  0.00     0.002 A 
ATOM      4  C4  N4B d   1       1.847   0.746  -1.878  0.00  0.00    -0.004 A 
ATOM      5  C5  N4B d   1       0.694   0.142  -2.286  0.00  0.00     0.002 A 
ATOM      6  C6  N4B d   1      -0.406   0.075  -1.454  0.00  0.00     0.002 A 
ENDROOT
BRANCH   1   7
ATOM      7  C1' N4B d   1      -1.536   0.460   0.708  0.00  0.00     0.057 C 
BRANCH   7   8
ATOM      8  C2' N4B d   1      -1.158  -0.485   1.845  0.00  0.00     0.009 C 
BRANCH   8   9
ATOM      9  C3' N4B d   1      -1.352  -1.942   1.461  0.00  0.00     0.004 C 
ATOM     10  C4' N4B d   1      -2.603  -2.172   0.668  0.00  0.00     0.003 C 
ENDBRANCH   8   9
ENDBRANCH   7   8
ENDBRANCH   1   7
TORSDOF 3
ENDMDL
