MODEL 1
REMARK minimizedAffinity -4.41626406
REMARK minimizedRMSD -1
REMARK  3 active torsions:
REMARK  status: ('A' for Active; 'I' for Inactive)
REMARK    1  A    between atoms: C3'_2  and  C2'_3 
REMARK    2  A    between atoms: C2'_3  and  C1'_4 
REMARK    3  A    between atoms: C1'_4  and  C1_5 
ROOT
ATOM      1  C1  N4B d   1      -0.408   0.200   0.276  0.00  0.00    -0.075 A 
ATOM      2  C2  N4B d   1       0.352  -0.535  -0.660  0.00  0.00     0.002 A 
ATOM      3  C3  N4B d   1       0.324  -1.907  -0.641  0.00  0.00     0.002 A 
ATOM      4  C4  N4B d   1      -0.439  -2.565   0.312  0.00  0.00    -0.004 A 
ATOM      5  C5  N4B d   1      -1.191  -1.848   1.196  0.00  0.00     0.002 A 
ATOM      6  C6  N4B d   1      -1.175  -0.467   1.186  0.00  0.00     0.002 A 
ENDROOT
BRANCH   1   7
ATOM      7  C1' N4B d   1      -0.342   1.701   0.349  0.00  0.00     0.057 C 
BRANCH   7   8
ATOM      8  C2' N4B d   1       1.119   2.136   0.410  0.00  0.00     0.009 C 
BRANCH   8   9
ATOM      9  C3' N4B d   1       1.261   3.602   0.783  0.00  0.00     0.004 C 
ATOM     10  C4' N4B d   1       2.470   3.872   1.628  0.00  0.00     0.003 C 
ENDBRANCH   8   9
ENDBRANCH   7   8
ENDBRANCH   1   7
TORSDOF 3
ENDMDL
