MODEL 1
REMARK minimizedAffinity 2.38032746
REMARK minimizedRMSD -1
REMARK  3 active torsions:
REMARK  status: ('A' for Active; 'I' for Inactive)
REMARK    1  A    between atoms: C3'_2  and  C2'_3 
REMARK    2  A    between atoms: C2'_3  and  C1'_4 
REMARK    3  A    between atoms: C1'_4  and  C1_5 
ROOT
ATOM      1  C1  N4B d   1      -0.238  -1.408  -0.529  0.00  0.00    -0.075 A 
ATOM      2  C2  N4B d   1      -0.092  -0.171  -1.196  0.00  0.00     0.002 A 
ATOM      3  C3  N4B d   1       1.065   0.107  -1.882  0.00  0.00     0.002 A 
ATOM      4  C4  N4B d   1       2.092  -0.824  -1.899  0.00  0.00    -0.004 A 
ATOM      5  C5  N4B d   1       1.934  -2.026  -1.273  0.00  0.00     0.002 A 
ATOM      6  C6  N4B d   1       0.775  -2.321  -0.584  0.00  0.00     0.002 A 
ENDROOT
BRANCH   1   7
ATOM      7  C1' N4B d   1      -1.450  -1.722   0.305  0.00  0.00     0.057 C 
BRANCH   7   8
ATOM      8  C2' N4B d   1      -1.657  -3.233   0.337  0.00  0.00     0.009 C 
BRANCH   8   9
ATOM      9  C3' N4B d   1      -3.123  -3.602   0.490  0.00  0.00     0.004 C 
ATOM     10  C4' N4B d   1      -3.857  -3.623  -0.817  0.00  0.00     0.003 C 
ENDBRANCH   8   9
ENDBRANCH   7   8
ENDBRANCH   1   7
TORSDOF 3
ENDMDL
