MODEL 1
REMARK minimizedAffinity -6.88251972
REMARK minimizedRMSD -1
REMARK  3 active torsions:
REMARK  status: ('A' for Active; 'I' for Inactive)
REMARK    1  A    between atoms: C3'_2  and  C2'_3 
REMARK    2  A    between atoms: C2'_3  and  C1'_4 
REMARK    3  A    between atoms: C1'_4  and  C1_5 
ROOT
ATOM      1  C1  N4B d   1       0.281  -0.896  -1.100  0.00  0.00    -0.075 A 
ATOM      2  C2  N4B d   1       0.020  -1.455   0.170  0.00  0.00     0.002 A 
ATOM      3  C3  N4B d   1      -0.143  -2.812   0.303  0.00  0.00     0.002 A 
ATOM      4  C4  N4B d   1      -0.070  -3.625  -0.819  0.00  0.00    -0.004 A 
ATOM      5  C5  N4B d   1       0.208  -3.079  -2.038  0.00  0.00     0.002 A 
ATOM      6  C6  N4B d   1       0.378  -1.717  -2.185  0.00  0.00     0.002 A 
ENDROOT
BRANCH   1   7
ATOM      7  C1' N4B d   1       0.382   0.590  -1.308  0.00  0.00     0.057 C 
BRANCH   7   8
ATOM      8  C2' N4B d   1       0.516   1.278   0.048  0.00  0.00     0.009 C 
BRANCH   8   9
ATOM      9  C3' N4B d   1       1.093   2.677  -0.079  0.00  0.00     0.004 C 
ATOM     10  C4' N4B d   1       2.348   2.862   0.720  0.00  0.00     0.003 C 
ENDBRANCH   8   9
ENDBRANCH   7   8
ENDBRANCH   1   7
TORSDOF 3
ENDMDL
