MODEL 1
REMARK minimizedAffinity 1.09734702
REMARK minimizedRMSD -1
REMARK  3 active torsions:
REMARK  status: ('A' for Active; 'I' for Inactive)
REMARK    1  A    between atoms: C3'_2  and  C2'_3 
REMARK    2  A    between atoms: C2'_3  and  C1'_4 
REMARK    3  A    between atoms: C1'_4  and  C1_5 
ROOT
ATOM      1  C1  N4B d   1      -0.484  -0.931   0.003  0.00  0.00    -0.075 A 
ATOM      2  C2  N4B d   1       0.792  -1.473  -0.263  0.00  0.00     0.002 A 
ATOM      3  C3  N4B d   1       1.007  -2.823  -0.125  0.00  0.00     0.002 A 
ATOM      4  C4  N4B d   1      -0.030  -3.643   0.293  0.00  0.00    -0.004 A 
ATOM      5  C5  N4B d   1      -1.267  -3.115   0.523  0.00  0.00     0.002 A 
ATOM      6  C6  N4B d   1      -1.498  -1.761   0.385  0.00  0.00     0.002 A 
ENDROOT
BRANCH   1   7
ATOM      7  C1' N4B d   1      -0.745   0.550  -0.050  0.00  0.00     0.057 C 
BRANCH   7   8
ATOM      8  C2' N4B d   1       0.107   1.246   1.007  0.00  0.00     0.009 C 
BRANCH   8   9
ATOM      9  C3' N4B d   1      -0.274   2.708   1.171  0.00  0.00     0.004 C 
ATOM     10  C4' N4B d   1       0.899   3.580   1.505  0.00  0.00     0.003 C 
ENDBRANCH   8   9
ENDBRANCH   7   8
ENDBRANCH   1   7
TORSDOF 3
ENDMDL
