MODEL 1
REMARK minimizedAffinity -5.50172091
REMARK minimizedRMSD -1
REMARK  3 active torsions:
REMARK  status: ('A' for Active; 'I' for Inactive)
REMARK    1  A    between atoms: C3'_2  and  C2'_3 
REMARK    2  A    between atoms: C2'_3  and  C1'_4 
REMARK    3  A    between atoms: C1'_4  and  C1_5 
ROOT
ATOM      1  C1  N4B d   1       0.030   0.065  -0.255  0.00  0.00    -0.075 A 
ATOM      2  C2  N4B d   1       0.475  -0.308  -1.542  0.00  0.00     0.002 A 
ATOM      3  C3  N4B d   1       0.143  -1.539  -2.052  0.00  0.00     0.002 A 
ATOM      4  C4  N4B d   1      -0.613  -2.417  -1.290  0.00  0.00    -0.004 A 
ATOM      5  C5  N4B d   1      -1.060  -2.038  -0.058  0.00  0.00     0.002 A 
ATOM      6  C6  N4B d   1      -0.738  -0.802   0.466  0.00  0.00     0.002 A 
ENDROOT
BRANCH   1   7
ATOM      7  C1' N4B d   1       0.439   1.366   0.380  0.00  0.00     0.057 C 
BRANCH   7   8
ATOM      8  C2' N4B d   1       0.074   2.516  -0.554  0.00  0.00     0.009 C 
BRANCH   8   9
ATOM      9  C3' N4B d   1       0.860   3.777  -0.237  0.00  0.00     0.004 C 
ATOM     10  C4' N4B d   1       2.071   3.510   0.605  0.00  0.00     0.003 C 
ENDBRANCH   8   9
ENDBRANCH   7   8
ENDBRANCH   1   7
TORSDOF 3
ENDMDL
