MODEL 1
REMARK minimizedAffinity 7.39183092
REMARK minimizedRMSD -1
REMARK  1 active torsions:
REMARK  status: ('A' for Active; 'I' for Inactive)
REMARK    1  A    between atoms: C1_2  and  C2_3 
ROOT
ATOM      1  C2  UNL d   1       3.621  -0.654  -1.309  0.00  0.00    -0.073 A 
ATOM      2  C3  UNL d   1       4.224  -0.916  -2.544  0.00  0.00    -0.002 A 
ATOM      3  C4  UNL d   1       3.946  -2.101  -3.227  0.00  0.00     0.004 A 
ATOM      4  C5  UNL d   1       3.059  -3.031  -2.686  0.00  0.00    -0.004 A 
ATOM      5  C6  UNL d   1       2.436  -2.782  -1.458  0.00  0.00    -0.075 A 
ATOM      6  C7  UNL d   1       1.481  -3.773  -0.862  0.00  0.00     0.076 C 
ATOM      7  C8  UNL d   1       2.723  -1.591  -0.777  0.00  0.00     0.001 A 
ENDROOT
BRANCH   1   8
ATOM      8  C1  UNL d   1       3.913   0.627  -0.570  0.00  0.00     0.053 C 
ATOM      9  C   UNL d   1       5.395   0.787  -0.272  0.00  0.00     0.018 C 
ENDBRANCH   1   8
TORSDOF 1
ENDMDL
