MODEL 1
REMARK minimizedAffinity 9.00890923
REMARK minimizedRMSD -1
REMARK  1 active torsions:
REMARK  status: ('A' for Active; 'I' for Inactive)
REMARK    1  A    between atoms: C1_2  and  C2_3 
ROOT
ATOM      1  C2  UNL d   1       3.189   0.662   0.226  0.00  0.00    -0.073 A 
ATOM      2  C3  UNL d   1       2.992   0.556   1.607  0.00  0.00    -0.002 A 
ATOM      3  C4  UNL d   1       1.707   0.645   2.145  0.00  0.00     0.004 A 
ATOM      4  C5  UNL d   1       0.607   0.833   1.307  0.00  0.00    -0.004 A 
ATOM      5  C6  UNL d   1       0.783   0.930  -0.077  0.00  0.00    -0.075 A 
ATOM      6  C7  UNL d   1      -0.389   1.135  -0.991  0.00  0.00     0.076 C 
ATOM      7  C8  UNL d   1       2.076   0.842  -0.609  0.00  0.00     0.001 A 
ENDROOT
BRANCH   1   8
ATOM      8  C1  UNL d   1       4.574   0.560  -0.360  0.00  0.00     0.053 C 
ATOM      9  C   UNL d   1       4.812   1.600  -1.443  0.00  0.00     0.018 C 
ENDBRANCH   1   8
TORSDOF 1
ENDMDL
