MODEL 1
REMARK minimizedAffinity 15.1514139
REMARK minimizedRMSD -1
REMARK  1 active torsions:
REMARK  status: ('A' for Active; 'I' for Inactive)
REMARK    1  A    between atoms: C1_2  and  C2_3 
ROOT
ATOM      1  C2  UNL d   1      -1.072  -4.834  -2.697  0.00  0.00    -0.073 A 
ATOM      2  C3  UNL d   1      -1.135  -5.682  -1.586  0.00  0.00    -0.002 A 
ATOM      3  C4  UNL d   1      -0.144  -5.632  -0.604  0.00  0.00     0.004 A 
ATOM      4  C5  UNL d   1       0.914  -4.731  -0.720  0.00  0.00    -0.004 A 
ATOM      5  C6  UNL d   1       0.988  -3.867  -1.817  0.00  0.00    -0.075 A 
ATOM      6  C7  UNL d   1       2.121  -2.893  -1.957  0.00  0.00     0.076 C 
ATOM      7  C8  UNL d   1      -0.009  -3.925  -2.800  0.00  0.00     0.001 A 
ENDROOT
BRANCH   1   8
ATOM      8  C1  UNL d   1      -2.142  -4.880  -3.757  0.00  0.00     0.053 C 
ATOM      9  C   UNL d   1      -1.906  -5.999  -4.758  0.00  0.00     0.018 C 
ENDBRANCH   1   8
TORSDOF 1
ENDMDL
