MODEL 1
REMARK minimizedAffinity 6.38735723
REMARK minimizedRMSD -1
REMARK  1 active torsions:
REMARK  status: ('A' for Active; 'I' for Inactive)
REMARK    1  A    between atoms: C1_2  and  C2_3 
ROOT
ATOM      1  C2  UNL d   1       5.252   0.628  -0.924  0.00  0.00    -0.073 A 
ATOM      2  C3  UNL d   1       3.930   0.348  -1.290  0.00  0.00    -0.002 A 
ATOM      3  C4  UNL d   1       3.285  -0.783  -0.790  0.00  0.00     0.004 A 
ATOM      4  C5  UNL d   1       3.950  -1.642   0.085  0.00  0.00    -0.004 A 
ATOM      5  C6  UNL d   1       5.267  -1.373   0.472  0.00  0.00    -0.075 A 
ATOM      6  C7  UNL d   1       5.997  -2.288   1.410  0.00  0.00     0.076 C 
ATOM      7  C8  UNL d   1       5.909  -0.236  -0.037  0.00  0.00     0.001 A 
ENDROOT
BRANCH   1   8
ATOM      8  C1  UNL d   1       5.951   1.852  -1.456  0.00  0.00     0.053 C 
ATOM      9  C   UNL d   1       5.143   3.118  -1.218  0.00  0.00     0.018 C 
ENDBRANCH   1   8
TORSDOF 1
ENDMDL
