MODEL 1
REMARK minimizedAffinity 18.4311275
REMARK minimizedRMSD -1
REMARK  1 active torsions:
REMARK  status: ('A' for Active; 'I' for Inactive)
REMARK    1  A    between atoms: C1_2  and  C2_3 
ROOT
ATOM      1  C2  UNL d   1       5.124   1.919  -1.114  0.00  0.00    -0.073 A 
ATOM      2  C3  UNL d   1       5.608   1.490   0.127  0.00  0.00    -0.002 A 
ATOM      3  C4  UNL d   1       4.972   0.454   0.812  0.00  0.00     0.004 A 
ATOM      4  C5  UNL d   1       3.852  -0.169   0.260  0.00  0.00    -0.004 A 
ATOM      5  C6  UNL d   1       3.361   0.238  -0.985  0.00  0.00    -0.075 A 
ATOM      6  C7  UNL d   1       2.156  -0.420  -1.591  0.00  0.00     0.076 C 
ATOM      7  C8  UNL d   1       4.004   1.281  -1.665  0.00  0.00     0.001 A 
ENDROOT
BRANCH   1   8
ATOM      8  C1  UNL d   1       5.811   3.034  -1.859  0.00  0.00     0.053 C 
ATOM      9  C   UNL d   1       5.418   4.403  -1.327  0.00  0.00     0.018 C 
ENDBRANCH   1   8
TORSDOF 1
ENDMDL
