MODEL 1
REMARK minimizedAffinity 9.75973988
REMARK minimizedRMSD -1
REMARK  1 active torsions:
REMARK  status: ('A' for Active; 'I' for Inactive)
REMARK    1  A    between atoms: C1_2  and  C2_3 
ROOT
ATOM      1  C2  UNL d   1      -0.258   3.560   1.930  0.00  0.00    -0.073 A 
ATOM      2  C3  UNL d   1      -1.245   3.306   0.971  0.00  0.00    -0.002 A 
ATOM      3  C4  UNL d   1      -1.553   1.994   0.607  0.00  0.00     0.004 A 
ATOM      4  C5  UNL d   1      -0.884   0.925   1.202  0.00  0.00    -0.004 A 
ATOM      5  C6  UNL d   1       0.096   1.158   2.172  0.00  0.00    -0.075 A 
ATOM      6  C7  UNL d   1       0.827   0.019   2.820  0.00  0.00     0.076 C 
ATOM      7  C8  UNL d   1       0.402   2.478   2.530  0.00  0.00     0.001 A 
ENDROOT
BRANCH   1   8
ATOM      8  C1  UNL d   1       0.074   4.974   2.331  0.00  0.00     0.053 C 
ATOM      9  C   UNL d   1       1.349   5.048   3.156  0.00  0.00     0.018 C 
ENDBRANCH   1   8
TORSDOF 1
ENDMDL
