MODEL 1
REMARK minimizedAffinity 1.92216063
REMARK minimizedRMSD -1
REMARK  1 active torsions:
REMARK  status: ('A' for Active; 'I' for Inactive)
REMARK    1  A    between atoms: C1_2  and  C2_3 
ROOT
ATOM      1  C2  UNL d   1       2.167  -1.012  -0.414  0.00  0.00    -0.073 A 
ATOM      2  C3  UNL d   1       2.864  -1.914   0.399  0.00  0.00    -0.002 A 
ATOM      3  C4  UNL d   1       2.437  -3.238   0.509  0.00  0.00     0.004 A 
ATOM      4  C5  UNL d   1       1.317  -3.676  -0.196  0.00  0.00    -0.004 A 
ATOM      5  C6  UNL d   1       0.615  -2.793  -1.023  0.00  0.00    -0.075 A 
ATOM      6  C7  UNL d   1      -0.594  -3.247  -1.787  0.00  0.00     0.076 C 
ATOM      7  C8  UNL d   1       1.047  -1.464  -1.126  0.00  0.00     0.001 A 
ENDROOT
BRANCH   1   8
ATOM      8  C1  UNL d   1       2.628   0.417  -0.541  0.00  0.00     0.053 C 
ATOM      9  C   UNL d   1       4.140   0.521  -0.656  0.00  0.00     0.018 C 
ENDBRANCH   1   8
TORSDOF 1
ENDMDL
