MODEL 1
REMARK minimizedAffinity 8.75818253
REMARK minimizedRMSD -1
REMARK  0 active torsions:
REMARK  status: ('A' for Active; 'I' for Inactive)
ROOT
ATOM      1  C   UNL d   1       3.391  -3.581   4.530  0.00  0.00    -0.002 A 
ATOM      2  C1  UNL d   1       2.123  -4.030   4.189  0.00  0.00     0.010 A 
ATOM      3  C2  UNL d   1       1.323  -3.298   3.309  0.00  0.00     0.041 A 
ATOM      4  C3  UNL d   1       1.825  -2.096   2.771  0.00  0.00    -0.075 A 
ATOM      5  S   UNL d   1       1.024  -1.035   1.674  0.00  0.00     0.015 SA
ATOM      6  C4  UNL d   1       2.347   0.039   1.631  0.00  0.00     0.022 A 
ATOM      7  C5  UNL d   1       3.382  -0.386   2.430  0.00  0.00     0.026 A 
ATOM      8  C6  UNL d   1       3.099  -1.624   3.099  0.00  0.00    -0.082 A 
ATOM      9  C7  UNL d   1       3.885  -2.388   3.995  0.00  0.00     0.045 A 
ENDROOT
TORSDOF 0
ENDMDL
