MODEL 1
REMARK minimizedAffinity 3.68064976
REMARK minimizedRMSD -1
REMARK  0 active torsions:
REMARK  status: ('A' for Active; 'I' for Inactive)
ROOT
ATOM      1  C   UNL d   1       2.496   1.777   1.017  0.00  0.00    -0.002 A 
ATOM      2  C1  UNL d   1       1.690   1.370  -0.037  0.00  0.00     0.010 A 
ATOM      3  C2  UNL d   1       0.982   0.169   0.033  0.00  0.00     0.041 A 
ATOM      4  C3  UNL d   1       1.096  -0.623   1.192  0.00  0.00    -0.075 A 
ATOM      5  S   UNL d   1       0.321  -2.132   1.501  0.00  0.00     0.015 SA
ATOM      6  C4  UNL d   1       1.039  -2.271   3.040  0.00  0.00     0.022 A 
ATOM      7  C5  UNL d   1       1.854  -1.201   3.327  0.00  0.00     0.026 A 
ATOM      8  C6  UNL d   1       1.900  -0.234   2.267  0.00  0.00    -0.082 A 
ATOM      9  C7  UNL d   1       2.606   0.989   2.166  0.00  0.00     0.045 A 
ENDROOT
TORSDOF 0
ENDMDL
