MODEL 1
REMARK minimizedAffinity 8.62598038
REMARK minimizedRMSD -1
REMARK  0 active torsions:
REMARK  status: ('A' for Active; 'I' for Inactive)
ROOT
ATOM      1  C   UNL d   1      -0.564  -3.752  -1.622  0.00  0.00    -0.002 A 
ATOM      2  C1  UNL d   1       0.474  -4.028  -0.743  0.00  0.00     0.010 A 
ATOM      3  C2  UNL d   1       0.936  -3.051   0.140  0.00  0.00     0.041 A 
ATOM      4  C3  UNL d   1       0.331  -1.778   0.125  0.00  0.00    -0.075 A 
ATOM      5  S   UNL d   1       0.731  -0.426   1.117  0.00  0.00     0.015 SA
ATOM      6  C4  UNL d   1      -0.466   0.550   0.398  0.00  0.00     0.022 A 
ATOM      7  C5  UNL d   1      -1.164  -0.123  -0.577  0.00  0.00     0.026 A 
ATOM      8  C6  UNL d   1      -0.716  -1.476  -0.750  0.00  0.00    -0.082 A 
ATOM      9  C7  UNL d   1      -1.162  -2.489  -1.633  0.00  0.00     0.045 A 
ENDROOT
TORSDOF 0
ENDMDL
