MODEL 1
REMARK minimizedAffinity 5.84663773
REMARK minimizedRMSD -1
REMARK  0 active torsions:
REMARK  status: ('A' for Active; 'I' for Inactive)
ROOT
ATOM      1  C   UNL d   1      -0.409  -4.164  -1.535  0.00  0.00    -0.002 A 
ATOM      2  C1  UNL d   1       0.791  -4.345  -0.861  0.00  0.00     0.010 A 
ATOM      3  C2  UNL d   1       1.240  -3.393   0.056  0.00  0.00     0.041 A 
ATOM      4  C3  UNL d   1       0.456  -2.246   0.288  0.00  0.00    -0.075 A 
ATOM      5  S   UNL d   1       0.807  -0.948   1.367  0.00  0.00     0.015 SA
ATOM      6  C4  UNL d   1      -0.627  -0.122   0.958  0.00  0.00     0.022 A 
ATOM      7  C5  UNL d   1      -1.367  -0.806   0.023  0.00  0.00     0.026 A 
ATOM      8  C6  UNL d   1      -0.755  -2.042  -0.379  0.00  0.00    -0.082 A 
ATOM      9  C7  UNL d   1      -1.184  -3.025  -1.303  0.00  0.00     0.045 A 
ENDROOT
TORSDOF 0
ENDMDL
