MODEL 1
REMARK minimizedAffinity -5.07753325
REMARK minimizedRMSD -1
REMARK  1 active torsions:
REMARK  status: ('A' for Active; 'I' for Inactive)
REMARK    1  A    between atoms: C1_2  and  C2_3 
ROOT
ATOM      1  C2  UNL d   1       0.074  -0.322  -0.781  0.00  0.00    -0.077 A 
ATOM      2  C3  UNL d   1       0.314   0.907  -1.410  0.00  0.00     0.002 A 
ATOM      3  C4  UNL d   1      -0.347   2.061  -0.983  0.00  0.00     0.002 A 
ATOM      4  C5  UNL d   1      -1.248   1.997   0.078  0.00  0.00    -0.004 A 
ATOM      5  C6  UNL d   1      -1.495   0.778   0.709  0.00  0.00     0.002 A 
ATOM      6  C7  UNL d   1      -0.837  -0.376   0.282  0.00  0.00     0.002 A 
ENDROOT
BRANCH   1   7
ATOM      7  C1  UNL d   1       0.822  -1.558  -1.208  0.00  0.00     0.055 C 
ATOM      8  C   UNL d   1       0.141  -2.237  -2.388  0.00  0.00     0.019 C 
ENDBRANCH   1   7
TORSDOF 1
ENDMDL
