MODEL 1
REMARK minimizedAffinity -5.11935616
REMARK minimizedRMSD -1
REMARK  1 active torsions:
REMARK  status: ('A' for Active; 'I' for Inactive)
REMARK    1  A    between atoms: C1_2  and  C2_3 
ROOT
ATOM      1  C2  UNL d   1       0.211  -0.054  -0.078  0.00  0.00    -0.077 A 
ATOM      2  C3  UNL d   1       0.010  -0.658   1.171  0.00  0.00     0.002 A 
ATOM      3  C4  UNL d   1      -0.877  -0.099   2.092  0.00  0.00     0.002 A 
ATOM      4  C5  UNL d   1      -1.574   1.065   1.773  0.00  0.00    -0.004 A 
ATOM      5  C6  UNL d   1      -1.380   1.675   0.535  0.00  0.00     0.002 A 
ATOM      6  C7  UNL d   1      -0.492   1.118  -0.387  0.00  0.00     0.002 A 
ENDROOT
BRANCH   1   7
ATOM      7  C1  UNL d   1       1.130  -0.683  -1.092  0.00  0.00     0.055 C 
ATOM      8  C   UNL d   1       0.643  -2.066  -1.498  0.00  0.00     0.019 C 
ENDBRANCH   1   7
TORSDOF 1
ENDMDL
