MODEL 1
REMARK minimizedAffinity -2.87095833
REMARK minimizedRMSD -1
REMARK  1 active torsions:
REMARK  status: ('A' for Active; 'I' for Inactive)
REMARK    1  A    between atoms: C1_2  and  C2_3 
ROOT
ATOM      1  C2  UNL d   1       0.608  -1.441  -1.338  0.00  0.00    -0.077 A 
ATOM      2  C3  UNL d   1       0.308  -1.368  -2.705  0.00  0.00     0.002 A 
ATOM      3  C4  UNL d   1       0.100  -2.532  -3.446  0.00  0.00     0.002 A 
ATOM      4  C5  UNL d   1       0.186  -3.778  -2.828  0.00  0.00    -0.004 A 
ATOM      5  C6  UNL d   1       0.487  -3.862  -1.469  0.00  0.00     0.002 A 
ATOM      6  C7  UNL d   1       0.696  -2.699  -0.727  0.00  0.00     0.002 A 
ENDROOT
BRANCH   1   7
ATOM      7  C1  UNL d   1       0.784  -0.184  -0.526  0.00  0.00     0.055 C 
ATOM      8  C   UNL d   1      -0.197  -0.134   0.636  0.00  0.00     0.019 C 
ENDBRANCH   1   7
TORSDOF 1
ENDMDL
