MODEL 1
REMARK minimizedAffinity -5.19868135
REMARK minimizedRMSD -1
REMARK  1 active torsions:
REMARK  status: ('A' for Active; 'I' for Inactive)
REMARK    1  A    between atoms: C1_2  and  C2_3 
ROOT
ATOM      1  C2  UNL d   1      -0.256  -0.374   0.257  0.00  0.00    -0.077 A 
ATOM      2  C3  UNL d   1      -0.188  -0.170   1.642  0.00  0.00     0.002 A 
ATOM      3  C4  UNL d   1      -0.858   0.903   2.232  0.00  0.00     0.002 A 
ATOM      4  C5  UNL d   1      -1.604   1.778   1.445  0.00  0.00    -0.004 A 
ATOM      5  C6  UNL d   1      -1.677   1.585   0.066  0.00  0.00     0.002 A 
ATOM      6  C7  UNL d   1      -1.006   0.514  -0.525  0.00  0.00     0.002 A 
ENDROOT
BRANCH   1   7
ATOM      7  C1  UNL d   1       0.426  -1.559  -0.375  0.00  0.00     0.055 C 
ATOM      8  C   UNL d   1      -0.120  -1.833  -1.769  0.00  0.00     0.019 C 
ENDBRANCH   1   7
TORSDOF 1
ENDMDL
