MODEL 1
REMARK minimizedAffinity -5.0965724
REMARK minimizedRMSD -1
REMARK  1 active torsions:
REMARK  status: ('A' for Active; 'I' for Inactive)
REMARK    1  A    between atoms: C1_2  and  C2_3 
ROOT
ATOM      1  C2  UNL d   1       0.267  -0.710  -0.994  0.00  0.00    -0.077 A 
ATOM      2  C3  UNL d   1       0.879  -1.074   0.214  0.00  0.00     0.002 A 
ATOM      3  C4  UNL d   1       0.442  -0.524   1.421  0.00  0.00     0.002 A 
ATOM      4  C5  UNL d   1      -0.610   0.389   1.432  0.00  0.00    -0.004 A 
ATOM      5  C6  UNL d   1      -1.224   0.759   0.236  0.00  0.00     0.002 A 
ATOM      6  C7  UNL d   1      -0.788   0.211  -0.971  0.00  0.00     0.002 A 
ENDROOT
BRANCH   1   7
ATOM      7  C1  UNL d   1       0.704  -1.339  -2.291  0.00  0.00     0.055 C 
ATOM      8  C   UNL d   1       0.511  -2.848  -2.267  0.00  0.00     0.019 C 
ENDBRANCH   1   7
TORSDOF 1
ENDMDL
