MODEL 1
REMARK minimizedAffinity -5.17248869
REMARK minimizedRMSD -1
REMARK  1 active torsions:
REMARK  status: ('A' for Active; 'I' for Inactive)
REMARK    1  A    between atoms: C1_2  and  C2_3 
ROOT
ATOM      1  C2  UNL d   1       0.293   0.241  -0.008  0.00  0.00    -0.077 A 
ATOM      2  C3  UNL d   1      -0.101   1.515  -0.440  0.00  0.00     0.002 A 
ATOM      3  C4  UNL d   1      -1.097   2.216   0.242  0.00  0.00     0.002 A 
ATOM      4  C5  UNL d   1      -1.704   1.654   1.363  0.00  0.00    -0.004 A 
ATOM      5  C6  UNL d   1      -1.320   0.386   1.800  0.00  0.00     0.002 A 
ATOM      6  C7  UNL d   1      -0.326  -0.316   1.118  0.00  0.00     0.002 A 
ENDROOT
BRANCH   1   7
ATOM      7  C1  UNL d   1       1.402  -0.495  -0.713  0.00  0.00     0.055 C 
ATOM      8  C   UNL d   1       0.964  -1.894  -1.122  0.00  0.00     0.019 C 
ENDBRANCH   1   7
TORSDOF 1
ENDMDL
