MODEL 1
REMARK minimizedAffinity -4.91472864
REMARK minimizedRMSD -1
REMARK  1 active torsions:
REMARK  status: ('A' for Active; 'I' for Inactive)
REMARK    1  A    between atoms: C1_2  and  C2_3 
ROOT
ATOM      1  C2  UNL d   1      -0.405   1.451   0.038  0.00  0.00    -0.077 A 
ATOM      2  C3  UNL d   1      -1.395   1.665   1.008  0.00  0.00     0.002 A 
ATOM      3  C4  UNL d   1      -1.798   0.624   1.847  0.00  0.00     0.002 A 
ATOM      4  C5  UNL d   1      -1.214  -0.635   1.727  0.00  0.00    -0.004 A 
ATOM      5  C6  UNL d   1      -0.230  -0.858   0.765  0.00  0.00     0.002 A 
ATOM      6  C7  UNL d   1       0.173   0.181  -0.076  0.00  0.00     0.002 A 
ENDROOT
BRANCH   1   7
ATOM      7  C1  UNL d   1       0.066   2.585  -0.835  0.00  0.00     0.055 C 
ATOM      8  C   UNL d   1      -0.061   3.923  -0.121  0.00  0.00     0.019 C 
ENDBRANCH   1   7
TORSDOF 1
ENDMDL
