MODEL 1
REMARK minimizedAffinity -4.69798183
REMARK minimizedRMSD -1
REMARK  1 active torsions:
REMARK  status: ('A' for Active; 'I' for Inactive)
REMARK    1  A    between atoms: C1_2  and  C2_3 
ROOT
ATOM      1  C2  UNL d   1       0.087  -0.044   0.039  0.00  0.00    -0.077 A 
ATOM      2  C3  UNL d   1      -0.739   0.874  -0.624  0.00  0.00     0.002 A 
ATOM      3  C4  UNL d   1      -1.598   1.703   0.100  0.00  0.00     0.002 A 
ATOM      4  C5  UNL d   1      -1.636   1.625   1.491  0.00  0.00    -0.004 A 
ATOM      5  C6  UNL d   1      -0.820   0.714   2.160  0.00  0.00     0.002 A 
ATOM      6  C7  UNL d   1       0.039  -0.116   1.437  0.00  0.00     0.002 A 
ENDROOT
BRANCH   1   7
ATOM      7  C1  UNL d   1       1.050  -0.904  -0.737  0.00  0.00     0.055 C 
ATOM      8  C   UNL d   1       0.319  -1.791  -1.735  0.00  0.00     0.019 C 
ENDBRANCH   1   7
TORSDOF 1
ENDMDL
