MODEL 1
REMARK minimizedAffinity -4.62758207
REMARK minimizedRMSD -1
REMARK  1 active torsions:
REMARK  status: ('A' for Active; 'I' for Inactive)
REMARK    1  A    between atoms: C1_2  and  C2_3 
ROOT
ATOM      1  C2  UNL d   1      -0.013   0.159   0.347  0.00  0.00    -0.077 A 
ATOM      2  C3  UNL d   1      -0.630  -0.108   1.578  0.00  0.00     0.002 A 
ATOM      3  C4  UNL d   1      -1.649   0.720   2.052  0.00  0.00     0.002 A 
ATOM      4  C5  UNL d   1      -2.063   1.818   1.300  0.00  0.00    -0.004 A 
ATOM      5  C6  UNL d   1      -1.455   2.093   0.076  0.00  0.00     0.002 A 
ATOM      6  C7  UNL d   1      -0.435   1.267  -0.399  0.00  0.00     0.002 A 
ENDROOT
BRANCH   1   7
ATOM      7  C1  UNL d   1       1.052  -0.762  -0.188  0.00  0.00     0.055 C 
ATOM      8  C   UNL d   1       0.523  -1.613  -1.333  0.00  0.00     0.019 C 
ENDBRANCH   1   7
TORSDOF 1
ENDMDL
