MODEL 1
REMARK minimizedAffinity -5.33148193
REMARK minimizedRMSD -1
REMARK  1 active torsions:
REMARK  status: ('A' for Active; 'I' for Inactive)
REMARK    1  A    between atoms: C1_2  and  C2_3 
ROOT
ATOM      1  C2  UNL d   1      -0.077   0.051   0.239  0.00  0.00    -0.077 A 
ATOM      2  C3  UNL d   1      -0.905   0.886  -0.525  0.00  0.00     0.002 A 
ATOM      3  C4  UNL d   1      -1.837   1.717   0.098  0.00  0.00     0.002 A 
ATOM      4  C5  UNL d   1      -1.947   1.726   1.487  0.00  0.00    -0.004 A 
ATOM      5  C6  UNL d   1      -1.130   0.898   2.255  0.00  0.00     0.002 A 
ATOM      6  C7  UNL d   1      -0.198   0.065   1.634  0.00  0.00     0.002 A 
ENDROOT
BRANCH   1   7
ATOM      7  C1  UNL d   1       0.963  -0.810  -0.429  0.00  0.00     0.055 C 
ATOM      8  C   UNL d   1       0.330  -1.768  -1.428  0.00  0.00     0.019 C 
ENDBRANCH   1   7
TORSDOF 1
ENDMDL
