MODEL 1
REMARK minimizedAffinity -3.55173016
REMARK minimizedRMSD -1
REMARK  1 active torsions:
REMARK  status: ('A' for Active; 'I' for Inactive)
REMARK    1  A    between atoms: C1_2  and  C2_3 
ROOT
ATOM      1  C2  UNL d   1       0.620  -1.028  -1.577  0.00  0.00    -0.077 A 
ATOM      2  C3  UNL d   1       1.185  -1.978  -0.714  0.00  0.00     0.002 A 
ATOM      3  C4  UNL d   1       1.163  -3.334  -1.045  0.00  0.00     0.002 A 
ATOM      4  C5  UNL d   1       0.582  -3.752  -2.241  0.00  0.00    -0.004 A 
ATOM      5  C6  UNL d   1       0.016  -2.815  -3.104  0.00  0.00     0.002 A 
ATOM      6  C7  UNL d   1       0.036  -1.459  -2.775  0.00  0.00     0.002 A 
ENDROOT
BRANCH   1   7
ATOM      7  C1  UNL d   1       0.686   0.440  -1.245  0.00  0.00     0.055 C 
ATOM      8  C   UNL d   1      -0.572   0.902  -0.524  0.00  0.00     0.019 C 
ENDBRANCH   1   7
TORSDOF 1
ENDMDL
