MODEL 1
REMARK minimizedAffinity 6.53582335
REMARK minimizedRMSD -1
REMARK  3 active torsions:
REMARK  status: ('A' for Active; 'I' for Inactive)
REMARK    1  A    between atoms: C3'_2  and  C2'_3 
REMARK    2  A    between atoms: C2'_3  and  C1'_4 
REMARK    3  A    between atoms: C1'_4  and  C1_5 
ROOT
ATOM      1  C1  N4B d   1       2.300  -0.402   1.068  0.00  0.00    -0.075 A 
ATOM      2  C2  N4B d   1       3.129  -0.567  -0.062  0.00  0.00     0.002 A 
ATOM      3  C3  N4B d   1       4.495  -0.590   0.085  0.00  0.00     0.002 A 
ATOM      4  C4  N4B d   1       5.051  -0.433   1.346  0.00  0.00    -0.004 A 
ATOM      5  C5  N4B d   1       4.242  -0.300   2.436  0.00  0.00     0.002 A 
ATOM      6  C6  N4B d   1       2.868  -0.279   2.303  0.00  0.00     0.002 A 
ENDROOT
BRANCH   1   7
ATOM      7  C1' N4B d   1       0.805  -0.285   0.946  0.00  0.00     0.057 C 
BRANCH   7   8
ATOM      8  C2' N4B d   1       0.469   0.864  -0.000  0.00  0.00     0.009 C 
BRANCH   8   9
ATOM      9  C3' N4B d   1      -0.942   1.383   0.215  0.00  0.00     0.004 C 
ATOM     10  C4' N4B d   1      -0.984   2.613   1.072  0.00  0.00     0.003 C 
ENDBRANCH   8   9
ENDBRANCH   7   8
ENDBRANCH   1   7
TORSDOF 3
ENDMDL
