MODEL 1
REMARK minimizedAffinity -3.55382442
REMARK minimizedRMSD -1
REMARK  3 active torsions:
REMARK  status: ('A' for Active; 'I' for Inactive)
REMARK    1  A    between atoms: C3'_2  and  C2'_3 
REMARK    2  A    between atoms: C2'_3  and  C1'_4 
REMARK    3  A    between atoms: C1'_4  and  C1_5 
ROOT
ATOM      1  C1  N4B d   1      -0.022   0.294   0.076  0.00  0.00    -0.075 A 
ATOM      2  C2  N4B d   1      -0.866   1.193  -0.612  0.00  0.00     0.002 A 
ATOM      3  C3  N4B d   1      -1.407   2.268   0.049  0.00  0.00     0.002 A 
ATOM      4  C4  N4B d   1      -1.135   2.454   1.396  0.00  0.00    -0.004 A 
ATOM      5  C5  N4B d   1      -0.298   1.595   2.046  0.00  0.00     0.002 A 
ATOM      6  C6  N4B d   1       0.256   0.512   1.394  0.00  0.00     0.002 A 
ENDROOT
BRANCH   1   7
ATOM      7  C1' N4B d   1       0.524  -0.944  -0.582  0.00  0.00     0.057 C 
BRANCH   7   8
ATOM      8  C2' N4B d   1      -0.637  -1.812  -1.058  0.00  0.00     0.009 C 
BRANCH   8   9
ATOM      9  C3' N4B d   1      -0.288  -3.290  -1.035  0.00  0.00     0.004 C 
ATOM     10  C4' N4B d   1      -1.493  -4.173  -1.169  0.00  0.00     0.003 C 
ENDBRANCH   8   9
ENDBRANCH   7   8
ENDBRANCH   1   7
TORSDOF 3
ENDMDL
