MODEL 1
REMARK minimizedAffinity -4.04219866
REMARK minimizedRMSD -1
REMARK  3 active torsions:
REMARK  status: ('A' for Active; 'I' for Inactive)
REMARK    1  A    between atoms: C3'_2  and  C2'_3 
REMARK    2  A    between atoms: C2'_3  and  C1'_4 
REMARK    3  A    between atoms: C1'_4  and  C1_5 
ROOT
ATOM      1  C1  N4B d   1      -0.497   0.563  -0.000  0.00  0.00    -0.075 A 
ATOM      2  C2  N4B d   1       0.100   0.639   1.277  0.00  0.00     0.002 A 
ATOM      3  C3  N4B d   1      -0.350   1.560   2.192  0.00  0.00     0.002 A 
ATOM      4  C4  N4B d   1      -1.379   2.423   1.846  0.00  0.00    -0.004 A 
ATOM      5  C5  N4B d   1      -1.967   2.326   0.619  0.00  0.00     0.002 A 
ATOM      6  C6  N4B d   1      -1.528   1.403  -0.308  0.00  0.00     0.002 A 
ENDROOT
BRANCH   1   7
ATOM      7  C1' N4B d   1       0.018  -0.369  -1.063  0.00  0.00     0.057 C 
BRANCH   7   8
ATOM      8  C2' N4B d   1      -0.098  -1.807  -0.567  0.00  0.00     0.009 C 
BRANCH   8   9
ATOM      9  C3' N4B d   1      -1.003  -2.644  -1.454  0.00  0.00     0.004 C 
ATOM     10  C4' N4B d   1      -0.943  -4.107  -1.131  0.00  0.00     0.003 C 
ENDBRANCH   8   9
ENDBRANCH   7   8
ENDBRANCH   1   7
TORSDOF 3
ENDMDL
