MODEL 1
REMARK minimizedAffinity -4.46866083
REMARK minimizedRMSD -1
REMARK  3 active torsions:
REMARK  status: ('A' for Active; 'I' for Inactive)
REMARK    1  A    between atoms: C3'_2  and  C2'_3 
REMARK    2  A    between atoms: C2'_3  and  C1'_4 
REMARK    3  A    between atoms: C1'_4  and  C1_5 
ROOT
ATOM      1  C1  N4B d   1       0.112   0.462   1.116  0.00  0.00    -0.075 A 
ATOM      2  C2  N4B d   1      -0.511   1.626   1.617  0.00  0.00     0.002 A 
ATOM      3  C3  N4B d   1      -1.425   2.302   0.846  0.00  0.00     0.002 A 
ATOM      4  C4  N4B d   1      -1.717   1.845  -0.430  0.00  0.00    -0.004 A 
ATOM      5  C5  N4B d   1      -1.130   0.705  -0.897  0.00  0.00     0.002 A 
ATOM      6  C6  N4B d   1      -0.212   0.014  -0.132  0.00  0.00     0.002 A 
ENDROOT
BRANCH   1   7
ATOM      7  C1' N4B d   1       1.181  -0.262   1.888  0.00  0.00     0.057 C 
BRANCH   7   8
ATOM      8  C2' N4B d   1       2.287  -0.692   0.928  0.00  0.00     0.009 C 
BRANCH   8   9
ATOM      9  C3' N4B d   1       3.652  -0.683   1.594  0.00  0.00     0.004 C 
ATOM     10  C4' N4B d   1       4.778  -0.819   0.613  0.00  0.00     0.003 C 
ENDBRANCH   8   9
ENDBRANCH   7   8
ENDBRANCH   1   7
TORSDOF 3
ENDMDL
