MODEL 1
REMARK minimizedAffinity -2.99928975
REMARK minimizedRMSD -1
REMARK  3 active torsions:
REMARK  status: ('A' for Active; 'I' for Inactive)
REMARK    1  A    between atoms: C3'_2  and  C2'_3 
REMARK    2  A    between atoms: C2'_3  and  C1'_4 
REMARK    3  A    between atoms: C1'_4  and  C1_5 
ROOT
ATOM      1  C1  N4B d   1       0.667   0.407   0.569  0.00  0.00    -0.075 A 
ATOM      2  C2  N4B d   1      -0.353   1.151   1.202  0.00  0.00     0.002 A 
ATOM      3  C3  N4B d   1      -1.210   1.917   0.451  0.00  0.00     0.002 A 
ATOM      4  C4  N4B d   1      -1.056   1.969  -0.926  0.00  0.00    -0.004 A 
ATOM      5  C5  N4B d   1      -0.085   1.227  -1.532  0.00  0.00     0.002 A 
ATOM      6  C6  N4B d   1       0.782   0.450  -0.790  0.00  0.00     0.002 A 
ENDROOT
BRANCH   1   7
ATOM      7  C1' N4B d   1       1.682  -0.378   1.355  0.00  0.00     0.057 C 
BRANCH   7   8
ATOM      8  C2' N4B d   1       2.693  -0.994   0.393  0.00  0.00     0.009 C 
BRANCH   8   9
ATOM      9  C3' N4B d   1       4.092  -1.030   0.985  0.00  0.00     0.004 C 
ATOM     10  C4' N4B d   1       4.119  -1.592   2.375  0.00  0.00     0.003 C 
ENDBRANCH   8   9
ENDBRANCH   7   8
ENDBRANCH   1   7
TORSDOF 3
ENDMDL
