MODEL 1
REMARK minimizedAffinity -5.23418951
REMARK minimizedRMSD -1
REMARK  3 active torsions:
REMARK  status: ('A' for Active; 'I' for Inactive)
REMARK    1  A    between atoms: C3'_2  and  C2'_3 
REMARK    2  A    between atoms: C2'_3  and  C1'_4 
REMARK    3  A    between atoms: C1'_4  and  C1_5 
ROOT
ATOM      1  C1  N4B d   1       0.342   0.276   0.929  0.00  0.00    -0.075 A 
ATOM      2  C2  N4B d   1       0.208   0.572   2.304  0.00  0.00     0.002 A 
ATOM      3  C3  N4B d   1      -0.703   1.512   2.717  0.00  0.00     0.002 A 
ATOM      4  C4  N4B d   1      -1.474   2.180   1.778  0.00  0.00    -0.004 A 
ATOM      5  C5  N4B d   1      -1.356   1.870   0.454  0.00  0.00     0.002 A 
ATOM      6  C6  N4B d   1      -0.447   0.924   0.025  0.00  0.00     0.002 A 
ENDROOT
BRANCH   1   7
ATOM      7  C1' N4B d   1       1.385  -0.683   0.422  0.00  0.00     0.057 C 
BRANCH   7   8
ATOM      8  C2' N4B d   1       2.770  -0.156   0.788  0.00  0.00     0.009 C 
BRANCH   8   9
ATOM      9  C3' N4B d   1       3.715  -1.275   1.190  0.00  0.00     0.004 C 
ATOM     10  C4' N4B d   1       4.421  -1.002   2.484  0.00  0.00     0.003 C 
ENDBRANCH   8   9
ENDBRANCH   7   8
ENDBRANCH   1   7
TORSDOF 3
ENDMDL
