MODEL 1
REMARK minimizedAffinity -1.99293768
REMARK minimizedRMSD -1
REMARK  0 active torsions:
REMARK  status: ('A' for Active; 'I' for Inactive)
ROOT
ATOM      1  C2' OXE d   1      -5.223   3.436   5.999  0.00  0.00     0.078 C 
ATOM      2  C1' OXE d   1      -2.651   3.374   4.875  0.00  0.00     0.078 C 
ATOM      3  C1  OXE d   1      -3.722   4.141   4.140  0.00  0.00    -0.078 A 
ATOM      4  C2  OXE d   1      -4.988   4.127   4.673  0.00  0.00    -0.078 A 
ATOM      5  C3  OXE d   1      -6.000   4.864   4.065  0.00  0.00     0.003 A 
ATOM      6  C4  OXE d   1      -5.777   5.493   2.833  0.00  0.00    -0.002 A 
ATOM      7  C5  OXE d   1      -4.504   5.485   2.253  0.00  0.00    -0.002 A 
ATOM      8  C6  OXE d   1      -3.458   4.852   2.913  0.00  0.00     0.003 A 
ENDROOT
TORSDOF 0
ENDMDL
