MODEL 1
REMARK minimizedAffinity -2.5081501
REMARK minimizedRMSD -1
REMARK  0 active torsions:
REMARK  status: ('A' for Active; 'I' for Inactive)
ROOT
ATOM      1  C2' OXE d   1      -5.996   4.599   5.987  0.00  0.00     0.078 C 
ATOM      2  C1' OXE d   1      -4.184   2.756   4.892  0.00  0.00     0.078 C 
ATOM      3  C1  OXE d   1      -4.649   3.891   4.015  0.00  0.00    -0.078 A 
ATOM      4  C2  OXE d   1      -5.572   4.762   4.544  0.00  0.00    -0.078 A 
ATOM      5  C3  OXE d   1      -5.993   5.858   3.796  0.00  0.00     0.003 A 
ATOM      6  C4  OXE d   1      -5.603   5.995   2.459  0.00  0.00    -0.002 A 
ATOM      7  C5  OXE d   1      -4.695   5.097   1.888  0.00  0.00    -0.002 A 
ATOM      8  C6  OXE d   1      -4.177   4.066   2.664  0.00  0.00     0.003 A 
ENDROOT
TORSDOF 0
ENDMDL
