MODEL 1
REMARK minimizedAffinity 5.37127066
REMARK minimizedRMSD -1
REMARK  0 active torsions:
REMARK  status: ('A' for Active; 'I' for Inactive)
ROOT
ATOM      1  C2' OXE d   1      -4.455   2.059   1.879  0.00  0.00     0.078 C 
ATOM      2  C1' OXE d   1      -4.205   4.293   0.199  0.00  0.00     0.078 C 
ATOM      3  C1  OXE d   1      -4.824   4.501   1.558  0.00  0.00    -0.078 A 
ATOM      4  C2  OXE d   1      -4.985   3.394   2.356  0.00  0.00    -0.078 A 
ATOM      5  C3  OXE d   1      -5.500   3.539   3.641  0.00  0.00     0.003 A 
ATOM      6  C4  OXE d   1      -5.997   4.776   4.070  0.00  0.00    -0.002 A 
ATOM      7  C5  OXE d   1      -5.879   5.909   3.258  0.00  0.00    -0.002 A 
ATOM      8  C6  OXE d   1      -5.257   5.797   2.019  0.00  0.00     0.003 A 
ENDROOT
TORSDOF 0
ENDMDL
