MODEL 1
REMARK minimizedAffinity -3.11429906
REMARK minimizedRMSD -1
REMARK  0 active torsions:
REMARK  status: ('A' for Active; 'I' for Inactive)
ROOT
ATOM      1  C2' OXE d   1      -3.636   3.933   5.999  0.00  0.00     0.078 C 
ATOM      2  C1' OXE d   1      -5.198   1.820   5.012  0.00  0.00     0.078 C 
ATOM      3  C1  OXE d   1      -5.019   3.033   4.134  0.00  0.00    -0.078 A 
ATOM      4  C2  OXE d   1      -4.292   4.081   4.644  0.00  0.00    -0.078 A 
ATOM      5  C3  OXE d   1      -4.051   5.201   3.854  0.00  0.00     0.003 A 
ATOM      6  C4  OXE d   1      -4.670   5.335   2.605  0.00  0.00    -0.002 A 
ATOM      7  C5  OXE d   1      -5.447   4.295   2.083  0.00  0.00    -0.002 A 
ATOM      8  C6  OXE d   1      -5.596   3.123   2.815  0.00  0.00     0.003 A 
ENDROOT
TORSDOF 0
ENDMDL
