MODEL 1
REMARK minimizedAffinity -1.44854009
REMARK minimizedRMSD -1
REMARK  0 active torsions:
REMARK  status: ('A' for Active; 'I' for Inactive)
ROOT
ATOM      1  C2' OXE d   1      -5.567   5.334   2.320  0.00  0.00     0.078 C 
ATOM      2  C1' OXE d   1      -4.895   2.609   2.258  0.00  0.00     0.078 C 
ATOM      3  C1  OXE d   1      -5.293   3.206   3.585  0.00  0.00    -0.078 A 
ATOM      4  C2  OXE d   1      -5.575   4.551   3.615  0.00  0.00    -0.078 A 
ATOM      5  C3  OXE d   1      -6.000   5.140   4.802  0.00  0.00     0.003 A 
ATOM      6  C4  OXE d   1      -5.994   4.411   5.997  0.00  0.00    -0.002 A 
ATOM      7  C5  OXE d   1      -5.672   3.050   5.997  0.00  0.00    -0.002 A 
ATOM      8  C6  OXE d   1      -5.361   2.423   4.795  0.00  0.00     0.003 A 
ENDROOT
TORSDOF 0
ENDMDL
