MODEL 1
REMARK minimizedAffinity -0.969641268
REMARK minimizedRMSD -1
REMARK  0 active torsions:
REMARK  status: ('A' for Active; 'I' for Inactive)
ROOT
ATOM      1  C2' OXE d   1       1.960   0.133   0.321  0.00  0.00     0.078 C 
ATOM      2  C1' OXE d   1       2.236   2.895  -0.103  0.00  0.00     0.078 C 
ATOM      3  C1  OXE d   1       2.338   2.387   1.314  0.00  0.00    -0.078 A 
ATOM      4  C2  OXE d   1       2.156   1.040   1.517  0.00  0.00    -0.078 A 
ATOM      5  C3  OXE d   1       2.294   0.511   2.797  0.00  0.00     0.003 A 
ATOM      6  C4  OXE d   1       2.464   1.358   3.900  0.00  0.00    -0.002 A 
ATOM      7  C5  OXE d   1       2.613   2.737   3.719  0.00  0.00    -0.002 A 
ATOM      8  C6  OXE d   1       2.595   3.262   2.431  0.00  0.00     0.003 A 
ENDROOT
TORSDOF 0
ENDMDL
