MODEL 1
REMARK minimizedAffinity -3.99500632
REMARK minimizedRMSD -1
REMARK  0 active torsions:
REMARK  status: ('A' for Active; 'I' for Inactive)
ROOT
ATOM      1  C2' OXE d   1      -4.139   2.398   3.350  0.00  0.00     0.078 C 
ATOM      2  C1' OXE d   1      -4.477   4.721   1.811  0.00  0.00     0.078 C 
ATOM      3  C1  OXE d   1      -4.834   4.790   3.274  0.00  0.00    -0.078 A 
ATOM      4  C2  OXE d   1      -4.709   3.635   4.010  0.00  0.00    -0.078 A 
ATOM      5  C3  OXE d   1      -4.973   3.657   5.376  0.00  0.00     0.003 A 
ATOM      6  C4  OXE d   1      -5.510   4.802   5.977  0.00  0.00    -0.002 A 
ATOM      7  C5  OXE d   1      -5.682   5.977   5.237  0.00  0.00    -0.002 A 
ATOM      8  C6  OXE d   1      -5.309   6.000   3.898  0.00  0.00     0.003 A 
ENDROOT
TORSDOF 0
ENDMDL
