MODEL 1
REMARK minimizedAffinity -2.92449212
REMARK minimizedRMSD -1
REMARK  0 active torsions:
REMARK  status: ('A' for Active; 'I' for Inactive)
ROOT
ATOM      1  C2' OXE d   1      -5.587   5.523   5.227  0.00  0.00     0.078 C 
ATOM      2  C1' OXE d   1      -3.046   4.494   4.621  0.00  0.00     0.078 C 
ATOM      3  C1  OXE d   1      -3.917   4.941   3.473  0.00  0.00    -0.078 A 
ATOM      4  C2  OXE d   1      -5.176   5.399   3.776  0.00  0.00    -0.078 A 
ATOM      5  C3  OXE d   1      -6.000   5.875   2.759  0.00  0.00     0.003 A 
ATOM      6  C4  OXE d   1      -5.617   5.747   1.419  0.00  0.00    -0.002 A 
ATOM      7  C5  OXE d   1      -4.354   5.246   1.086  0.00  0.00    -0.002 A 
ATOM      8  C6  OXE d   1      -3.477   4.879   2.101  0.00  0.00     0.003 A 
ENDROOT
TORSDOF 0
ENDMDL
