MODEL 1
REMARK minimizedAffinity -3.30793142
REMARK minimizedRMSD -1
REMARK  0 active torsions:
REMARK  status: ('A' for Active; 'I' for Inactive)
ROOT
ATOM      1  C2' OXE d   1      -5.994   2.996   5.126  0.00  0.00     0.078 C 
ATOM      2  C1' OXE d   1      -4.108   4.885   5.994  0.00  0.00     0.078 C 
ATOM      3  C1  OXE d   1      -4.586   4.974   4.567  0.00  0.00    -0.078 A 
ATOM      4  C2  OXE d   1      -5.474   4.017   4.137  0.00  0.00    -0.078 A 
ATOM      5  C3  OXE d   1      -5.989   4.086   2.846  0.00  0.00     0.003 A 
ATOM      6  C4  OXE d   1      -5.496   5.027   1.934  0.00  0.00    -0.002 A 
ATOM      7  C5  OXE d   1      -4.562   5.986   2.340  0.00  0.00    -0.002 A 
ATOM      8  C6  OXE d   1      -4.130   6.000   3.662  0.00  0.00     0.003 A 
ENDROOT
TORSDOF 0
ENDMDL
