MODEL 1
REMARK minimizedAffinity -2.99404502
REMARK minimizedRMSD -1
REMARK  0 active torsions:
REMARK  status: ('A' for Active; 'I' for Inactive)
ROOT
ATOM      1  C2' OXE d   1      -4.845   3.360   6.000  0.00  0.00     0.078 C 
ATOM      2  C1' OXE d   1      -5.836   5.983   5.882  0.00  0.00     0.078 C 
ATOM      3  C1  OXE d   1      -5.413   5.333   4.589  0.00  0.00    -0.078 A 
ATOM      4  C2  OXE d   1      -4.885   4.066   4.662  0.00  0.00    -0.078 A 
ATOM      5  C3  OXE d   1      -4.530   3.399   3.493  0.00  0.00     0.003 A 
ATOM      6  C4  OXE d   1      -4.562   4.062   2.261  0.00  0.00    -0.002 A 
ATOM      7  C5  OXE d   1      -5.058   5.367   2.169  0.00  0.00    -0.002 A 
ATOM      8  C6  OXE d   1      -5.526   6.000   3.316  0.00  0.00     0.003 A 
ENDROOT
TORSDOF 0
ENDMDL
