MODEL 1
REMARK minimizedAffinity -2.11416006
REMARK minimizedRMSD -1
REMARK  0 active torsions:
REMARK  status: ('A' for Active; 'I' for Inactive)
ROOT
ATOM      1  C2' OXE d   1      -3.777   2.247   3.746  0.00  0.00     0.078 C 
ATOM      2  C1' OXE d   1      -5.248   3.193   5.942  0.00  0.00     0.078 C 
ATOM      3  C1  OXE d   1      -5.253   4.022   4.682  0.00  0.00    -0.078 A 
ATOM      4  C2  OXE d   1      -4.492   3.575   3.628  0.00  0.00    -0.078 A 
ATOM      5  C3  OXE d   1      -4.505   4.273   2.424  0.00  0.00     0.003 A 
ATOM      6  C4  OXE d   1      -5.161   5.506   2.326  0.00  0.00    -0.002 A 
ATOM      7  C5  OXE d   1      -5.909   6.000   3.401  0.00  0.00    -0.002 A 
ATOM      8  C6  OXE d   1      -5.999   5.251   4.569  0.00  0.00     0.003 A 
ENDROOT
TORSDOF 0
ENDMDL
