MODEL 1
REMARK minimizedAffinity -3.2714262
REMARK minimizedRMSD -1
REMARK  0 active torsions:
REMARK  status: ('A' for Active; 'I' for Inactive)
ROOT
ATOM      1  C2' OXE d   1      -5.999   4.440   5.922  0.00  0.00     0.078 C 
ATOM      2  C1' OXE d   1      -4.159   2.650   4.785  0.00  0.00     0.078 C 
ATOM      3  C1  OXE d   1      -4.622   3.813   3.943  0.00  0.00    -0.078 A 
ATOM      4  C2  OXE d   1      -5.557   4.657   4.491  0.00  0.00    -0.078 A 
ATOM      5  C3  OXE d   1      -5.977   5.777   3.778  0.00  0.00     0.003 A 
ATOM      6  C4  OXE d   1      -5.571   5.965   2.451  0.00  0.00    -0.002 A 
ATOM      7  C5  OXE d   1      -4.649   5.094   1.860  0.00  0.00    -0.002 A 
ATOM      8  C6  OXE d   1      -4.133   4.040   2.605  0.00  0.00     0.003 A 
ENDROOT
TORSDOF 0
ENDMDL
