MODEL 1
REMARK minimizedAffinity -3.09605241
REMARK minimizedRMSD -1
REMARK  0 active torsions:
REMARK  status: ('A' for Active; 'I' for Inactive)
ROOT
ATOM      1  C2' OXE d   1      -6.000   2.967   4.987  0.00  0.00     0.078 C 
ATOM      2  C1' OXE d   1      -4.119   4.840   5.899  0.00  0.00     0.078 C 
ATOM      3  C1  OXE d   1      -4.587   4.952   4.470  0.00  0.00    -0.078 A 
ATOM      4  C2  OXE d   1      -5.472   4.003   4.018  0.00  0.00    -0.078 A 
ATOM      5  C3  OXE d   1      -5.978   4.093   2.724  0.00  0.00     0.003 A 
ATOM      6  C4  OXE d   1      -5.478   5.048   1.832  0.00  0.00    -0.002 A 
ATOM      7  C5  OXE d   1      -4.546   6.000   2.260  0.00  0.00    -0.002 A 
ATOM      8  C6  OXE d   1      -4.123   5.992   3.585  0.00  0.00     0.003 A 
ENDROOT
TORSDOF 0
ENDMDL
