MODEL 1
REMARK minimizedAffinity -1.98404551
REMARK minimizedRMSD -1
REMARK  0 active torsions:
REMARK  status: ('A' for Active; 'I' for Inactive)
ROOT
ATOM      1  C2' OXE d   1      -5.945   4.500   5.994  0.00  0.00     0.078 C 
ATOM      2  C1' OXE d   1      -5.690   1.983   4.777  0.00  0.00     0.078 C 
ATOM      3  C1  OXE d   1      -5.779   3.192   3.880  0.00  0.00    -0.078 A 
ATOM      4  C2  OXE d   1      -5.951   4.415   4.483  0.00  0.00    -0.078 A 
ATOM      5  C3  OXE d   1      -5.984   5.569   3.704  0.00  0.00     0.003 A 
ATOM      6  C4  OXE d   1      -5.999   5.481   2.307  0.00  0.00    -0.002 A 
ATOM      7  C5  OXE d   1      -5.865   4.241   1.672  0.00  0.00    -0.002 A 
ATOM      8  C6  OXE d   1      -5.711   3.094   2.443  0.00  0.00     0.003 A 
ENDROOT
TORSDOF 0
ENDMDL
