MODEL 1
REMARK minimizedAffinity -1.45002902
REMARK minimizedRMSD -1
REMARK  0 active torsions:
REMARK  status: ('A' for Active; 'I' for Inactive)
ROOT
ATOM      1  C2' OXE d   1      -5.999   2.620   4.878  0.00  0.00     0.078 C 
ATOM      2  C1' OXE d   1      -3.970   4.304   5.841  0.00  0.00     0.078 C 
ATOM      3  C1  OXE d   1      -4.488   4.553   4.447  0.00  0.00    -0.078 A 
ATOM      4  C2  OXE d   1      -5.448   3.695   3.966  0.00  0.00    -0.078 A 
ATOM      5  C3  OXE d   1      -6.000   3.913   2.707  0.00  0.00     0.003 A 
ATOM      6  C4  OXE d   1      -5.478   4.904   1.866  0.00  0.00    -0.002 A 
ATOM      7  C5  OXE d   1      -4.472   5.764   2.321  0.00  0.00    -0.002 A 
ATOM      8  C6  OXE d   1      -3.997   5.629   3.621  0.00  0.00     0.003 A 
ENDROOT
TORSDOF 0
ENDMDL
