MODEL 1
REMARK minimizedAffinity -2.24156094
REMARK minimizedRMSD -1
REMARK  0 active torsions:
REMARK  status: ('A' for Active; 'I' for Inactive)
ROOT
ATOM      1  C2' OXE d   1      -6.000   4.630   5.967  0.00  0.00     0.078 C 
ATOM      2  C1' OXE d   1      -4.156   2.801   4.903  0.00  0.00     0.078 C 
ATOM      3  C1  OXE d   1      -4.629   3.922   4.012  0.00  0.00    -0.078 A 
ATOM      4  C2  OXE d   1      -5.567   4.785   4.525  0.00  0.00    -0.078 A 
ATOM      5  C3  OXE d   1      -5.996   5.869   3.765  0.00  0.00     0.003 A 
ATOM      6  C4  OXE d   1      -5.598   5.999   2.429  0.00  0.00    -0.002 A 
ATOM      7  C5  OXE d   1      -4.675   5.108   1.873  0.00  0.00    -0.002 A 
ATOM      8  C6  OXE d   1      -4.149   4.091   2.662  0.00  0.00     0.003 A 
ENDROOT
TORSDOF 0
ENDMDL
