MODEL 1
REMARK minimizedAffinity -3.07111335
REMARK minimizedRMSD -1
REMARK  0 active torsions:
REMARK  status: ('A' for Active; 'I' for Inactive)
ROOT
ATOM      1  C2' OXE d   1      -5.145   2.969   5.817  0.00  0.00     0.078 C 
ATOM      2  C1' OXE d   1      -5.945   5.653   5.998  0.00  0.00     0.078 C 
ATOM      3  C1  OXE d   1      -5.448   5.156   4.663  0.00  0.00    -0.078 A 
ATOM      4  C2  OXE d   1      -5.015   3.854   4.596  0.00  0.00    -0.078 A 
ATOM      5  C3  OXE d   1      -4.598   3.329   3.376  0.00  0.00     0.003 A 
ATOM      6  C4  OXE d   1      -4.471   4.157   2.254  0.00  0.00    -0.002 A 
ATOM      7  C5  OXE d   1      -4.869   5.496   2.312  0.00  0.00    -0.002 A 
ATOM      8  C6  OXE d   1      -5.399   6.000   3.495  0.00  0.00     0.003 A 
ENDROOT
TORSDOF 0
ENDMDL
