MODEL 1
REMARK minimizedAffinity -3.88749933
REMARK minimizedRMSD -1
REMARK  0 active torsions:
REMARK  status: ('A' for Active; 'I' for Inactive)
ROOT
ATOM      1  C2' OXE d   1      -5.065   5.994   1.518  0.00  0.00     0.078 C 
ATOM      2  C1' OXE d   1      -5.906   3.355   1.974  0.00  0.00     0.078 C 
ATOM      3  C1  OXE d   1      -5.097   4.031   3.052  0.00  0.00    -0.078 A 
ATOM      4  C2  OXE d   1      -4.650   5.306   2.801  0.00  0.00    -0.078 A 
ATOM      5  C3  OXE d   1      -3.946   5.996   3.784  0.00  0.00     0.003 A 
ATOM      6  C4  OXE d   1      -3.557   5.349   4.963  0.00  0.00    -0.002 A 
ATOM      7  C5  OXE d   1      -3.968   4.037   5.222  0.00  0.00    -0.002 A 
ATOM      8  C6  OXE d   1      -4.772   3.380   4.297  0.00  0.00     0.003 A 
ENDROOT
TORSDOF 0
ENDMDL
