MODEL 1
REMARK minimizedAffinity -3.41804338
REMARK minimizedRMSD -1
REMARK  0 active torsions:
REMARK  status: ('A' for Active; 'I' for Inactive)
ROOT
ATOM      1  C2' OXE d   1      -6.000   2.279   4.608  0.00  0.00     0.078 C 
ATOM      2  C1' OXE d   1      -4.080   3.926   5.824  0.00  0.00     0.078 C 
ATOM      3  C1  OXE d   1      -4.538   4.288   4.434  0.00  0.00    -0.078 A 
ATOM      4  C2  OXE d   1      -5.444   3.450   3.828  0.00  0.00    -0.078 A 
ATOM      5  C3  OXE d   1      -5.941   3.768   2.567  0.00  0.00     0.003 A 
ATOM      6  C4  OXE d   1      -5.414   4.848   1.849  0.00  0.00    -0.002 A 
ATOM      7  C5  OXE d   1      -4.462   5.691   2.431  0.00  0.00    -0.002 A 
ATOM      8  C6  OXE d   1      -4.046   5.451   3.736  0.00  0.00     0.003 A 
ENDROOT
TORSDOF 0
ENDMDL
