MODEL 1
REMARK minimizedAffinity 3.07781363
REMARK minimizedRMSD -1
REMARK  2 active torsions:
REMARK  status: ('A' for Active; 'I' for Inactive)
REMARK    1  A    between atoms: C1_2  and  C2_3 
REMARK    2  A    between atoms: C2_3  and  C3_4 
ROOT
ATOM      1  C3  UNL d   1      -2.578   1.503   0.458  0.00  0.00    -0.075 A 
ATOM      2  C4  UNL d   1      -1.532   1.300   1.369  0.00  0.00     0.002 A 
ATOM      3  C5  UNL d   1      -0.262   1.821   1.117  0.00  0.00     0.002 A 
ATOM      4  C6  UNL d   1      -0.020   2.540  -0.051  0.00  0.00    -0.004 A 
ATOM      5  C7  UNL d   1      -1.048   2.734  -0.971  0.00  0.00     0.002 A 
ATOM      6  C8  UNL d   1      -2.321   2.218  -0.719  0.00  0.00     0.002 A 
ENDROOT
BRANCH   1   7
ATOM      7  C2  UNL d   1      -3.962   0.968   0.739  0.00  0.00     0.056 C 
BRANCH   7   8
ATOM      8  C1  UNL d   1      -5.094   1.895   0.283  0.00  0.00     0.007 C 
ATOM      9  C   UNL d   1      -5.998   2.344   1.424  0.00  0.00     0.009 C 
ENDBRANCH   7   8
ENDBRANCH   1   7
TORSDOF 2
ENDMDL
