MODEL 1
REMARK minimizedAffinity -4.98953581
REMARK minimizedRMSD -1
REMARK  2 active torsions:
REMARK  status: ('A' for Active; 'I' for Inactive)
REMARK    1  A    between atoms: C1_2  and  C2_3 
REMARK    2  A    between atoms: C2_3  and  C3_4 
ROOT
ATOM      1  C3  UNL d   1      -0.679   1.349   0.522  0.00  0.00    -0.075 A 
ATOM      2  C4  UNL d   1      -1.851   2.050   0.204  0.00  0.00     0.002 A 
ATOM      3  C5  UNL d   1      -3.101   1.532   0.544  0.00  0.00     0.002 A 
ATOM      4  C6  UNL d   1      -3.196   0.305   1.197  0.00  0.00    -0.004 A 
ATOM      5  C7  UNL d   1      -2.039  -0.408   1.503  0.00  0.00     0.002 A 
ATOM      6  C8  UNL d   1      -0.787   0.110   1.168  0.00  0.00     0.002 A 
ENDROOT
BRANCH   1   7
ATOM      7  C2  UNL d   1       0.678   1.918   0.183  0.00  0.00     0.056 C 
BRANCH   7   8
ATOM      8  C1  UNL d   1       1.841   1.232   0.908  0.00  0.00     0.007 C 
ATOM      9  C   UNL d   1       2.957   0.792  -0.030  0.00  0.00     0.009 C 
ENDBRANCH   7   8
ENDBRANCH   1   7
TORSDOF 2
ENDMDL
