MODEL 1
REMARK minimizedAffinity 0.584414363
REMARK minimizedRMSD -1
REMARK  2 active torsions:
REMARK  status: ('A' for Active; 'I' for Inactive)
REMARK    1  A    between atoms: C1_2  and  C2_3 
REMARK    2  A    between atoms: C2_3  and  C3_4 
ROOT
ATOM      1  C3  UNL d   1      -2.394   1.513  -0.009  0.00  0.00    -0.075 A 
ATOM      2  C4  UNL d   1      -2.341   0.324   0.733  0.00  0.00     0.002 A 
ATOM      3  C5  UNL d   1      -1.133  -0.121   1.271  0.00  0.00     0.002 A 
ATOM      4  C6  UNL d   1       0.036   0.610   1.066  0.00  0.00    -0.004 A 
ATOM      5  C7  UNL d   1      -0.003   1.783   0.316  0.00  0.00     0.002 A 
ATOM      6  C8  UNL d   1      -1.211   2.233  -0.220  0.00  0.00     0.002 A 
ENDROOT
BRANCH   1   7
ATOM      7  C2  UNL d   1      -3.704   2.015  -0.570  0.00  0.00     0.056 C 
BRANCH   7   8
ATOM      8  C1  UNL d   1      -3.551   2.918  -1.798  0.00  0.00     0.007 C 
ATOM      9  C   UNL d   1      -3.781   2.187  -3.114  0.00  0.00     0.009 C 
ENDBRANCH   7   8
ENDBRANCH   1   7
TORSDOF 2
ENDMDL
