MODEL 1
REMARK minimizedAffinity -1.08055842
REMARK minimizedRMSD -1
REMARK  2 active torsions:
REMARK  status: ('A' for Active; 'I' for Inactive)
REMARK    1  A    between atoms: C1_2  and  C2_3 
REMARK    2  A    between atoms: C2_3  and  C3_4 
ROOT
ATOM      1  C3  UNL d   1      -0.789   1.196   0.761  0.00  0.00    -0.075 A 
ATOM      2  C4  UNL d   1      -1.689   0.120   0.757  0.00  0.00     0.002 A 
ATOM      3  C5  UNL d   1      -2.936   0.242   0.144  0.00  0.00     0.002 A 
ATOM      4  C6  UNL d   1      -3.303   1.441  -0.463  0.00  0.00    -0.004 A 
ATOM      5  C7  UNL d   1      -2.424   2.522  -0.451  0.00  0.00     0.002 A 
ATOM      6  C8  UNL d   1      -1.173   2.401   0.158  0.00  0.00     0.002 A 
ENDROOT
BRANCH   1   7
ATOM      7  C2  UNL d   1       0.574   1.061   1.397  0.00  0.00     0.056 C 
BRANCH   7   8
ATOM      8  C1  UNL d   1       1.739   1.279   0.427  0.00  0.00     0.007 C 
ATOM      9  C   UNL d   1       2.917   0.349   0.685  0.00  0.00     0.009 C 
ENDBRANCH   7   8
ENDBRANCH   1   7
TORSDOF 2
ENDMDL
