MODEL 1
REMARK minimizedAffinity -0.405592352
REMARK minimizedRMSD -1
REMARK  2 active torsions:
REMARK  status: ('A' for Active; 'I' for Inactive)
REMARK    1  A    between atoms: C1_2  and  C2_3 
REMARK    2  A    between atoms: C2_3  and  C3_4 
ROOT
ATOM      1  C3  UNL d   1      -2.197   1.783   0.139  0.00  0.00    -0.075 A 
ATOM      2  C4  UNL d   1      -2.316   0.526   0.750  0.00  0.00     0.002 A 
ATOM      3  C5  UNL d   1      -1.182  -0.165   1.176  0.00  0.00     0.002 A 
ATOM      4  C6  UNL d   1       0.084   0.384   0.988  0.00  0.00    -0.004 A 
ATOM      5  C7  UNL d   1       0.216   1.625   0.367  0.00  0.00     0.002 A 
ATOM      6  C8  UNL d   1      -0.918   2.321  -0.056  0.00  0.00     0.002 A 
ENDROOT
BRANCH   1   7
ATOM      7  C2  UNL d   1      -3.422   2.549  -0.297  0.00  0.00     0.056 C 
BRANCH   7   8
ATOM      8  C1  UNL d   1      -4.746   1.902   0.124  0.00  0.00     0.007 C 
ATOM      9  C   UNL d   1      -5.855   2.914   0.380  0.00  0.00     0.009 C 
ENDBRANCH   7   8
ENDBRANCH   1   7
TORSDOF 2
ENDMDL
