MODEL 1
REMARK minimizedAffinity 6.57300949
REMARK minimizedRMSD -1
REMARK  2 active torsions:
REMARK  status: ('A' for Active; 'I' for Inactive)
REMARK    1  A    between atoms: C1_2  and  C2_3 
REMARK    2  A    between atoms: C2_3  and  C3_4 
ROOT
ATOM      1  C3  UNL d   1       1.775   0.808   0.333  0.00  0.00    -0.075 A 
ATOM      2  C4  UNL d   1       2.166   1.263  -0.935  0.00  0.00     0.002 A 
ATOM      3  C5  UNL d   1       3.210   0.641  -1.620  0.00  0.00     0.002 A 
ATOM      4  C6  UNL d   1       3.882  -0.435  -1.044  0.00  0.00    -0.004 A 
ATOM      5  C7  UNL d   1       3.513  -0.885   0.221  0.00  0.00     0.002 A 
ATOM      6  C8  UNL d   1       2.466  -0.267   0.908  0.00  0.00     0.002 A 
ENDROOT
BRANCH   1   7
ATOM      7  C2  UNL d   1       0.627   1.457   1.067  0.00  0.00     0.056 C 
BRANCH   7   8
ATOM      8  C1  UNL d   1      -0.364   2.187   0.154  0.00  0.00     0.007 C 
ATOM      9  C   UNL d   1      -1.731   1.516   0.095  0.00  0.00     0.009 C 
ENDBRANCH   7   8
ENDBRANCH   1   7
TORSDOF 2
ENDMDL
