MODEL 1
REMARK minimizedAffinity -0.370995432
REMARK minimizedRMSD -1
REMARK  2 active torsions:
REMARK  status: ('A' for Active; 'I' for Inactive)
REMARK    1  A    between atoms: C1_2  and  C2_3 
REMARK    2  A    between atoms: C2_3  and  C3_4 
ROOT
ATOM      1  C3  UNL d   1      -2.066   0.472   0.692  0.00  0.00    -0.075 A 
ATOM      2  C4  UNL d   1      -0.739   0.199   1.054  0.00  0.00     0.002 A 
ATOM      3  C5  UNL d   1       0.259   1.154   0.859  0.00  0.00     0.002 A 
ATOM      4  C6  UNL d   1      -0.054   2.386   0.290  0.00  0.00    -0.004 A 
ATOM      5  C7  UNL d   1      -1.366   2.662  -0.089  0.00  0.00     0.002 A 
ATOM      6  C8  UNL d   1      -2.367   1.710   0.110  0.00  0.00     0.002 A 
ENDROOT
BRANCH   1   7
ATOM      7  C2  UNL d   1      -3.156  -0.546   0.929  0.00  0.00     0.056 C 
BRANCH   7   8
ATOM      8  C1  UNL d   1      -4.196  -0.116   1.970  0.00  0.00     0.007 C 
ATOM      9  C   UNL d   1      -3.912  -0.662   3.362  0.00  0.00     0.009 C 
ENDBRANCH   7   8
ENDBRANCH   1   7
TORSDOF 2
ENDMDL
