MODEL 1
REMARK minimizedAffinity 1.22636628
REMARK minimizedRMSD -1
REMARK  2 active torsions:
REMARK  status: ('A' for Active; 'I' for Inactive)
REMARK    1  A    between atoms: C1_2  and  C2_3 
REMARK    2  A    between atoms: C2_3  and  C3_4 
ROOT
ATOM      1  C3  UNL d   1      -2.032   0.325   0.988  0.00  0.00    -0.075 A 
ATOM      2  C4  UNL d   1      -0.635   0.298   1.108  0.00  0.00     0.002 A 
ATOM      3  C5  UNL d   1       0.148   1.273   0.490  0.00  0.00     0.002 A 
ATOM      4  C6  UNL d   1      -0.453   2.279  -0.263  0.00  0.00    -0.004 A 
ATOM      5  C7  UNL d   1      -1.839   2.307  -0.402  0.00  0.00     0.002 A 
ATOM      6  C8  UNL d   1      -2.625   1.335   0.219  0.00  0.00     0.002 A 
ENDROOT
BRANCH   1   7
ATOM      7  C2  UNL d   1      -2.887  -0.710   1.680  0.00  0.00     0.056 C 
BRANCH   7   8
ATOM      8  C1  UNL d   1      -2.736  -0.726   3.204  0.00  0.00     0.007 C 
ATOM      9  C   UNL d   1      -4.069  -0.774   3.939  0.00  0.00     0.009 C 
ENDBRANCH   7   8
ENDBRANCH   1   7
TORSDOF 2
ENDMDL
