MODEL 1
REMARK minimizedAffinity 3.32142973
REMARK minimizedRMSD -1
REMARK  2 active torsions:
REMARK  status: ('A' for Active; 'I' for Inactive)
REMARK    1  A    between atoms: C1_2  and  C2_3 
REMARK    2  A    between atoms: C2_3  and  C3_4 
ROOT
ATOM      1  C3  UNL d   1      -2.263   1.792   0.327  0.00  0.00    -0.075 A 
ATOM      2  C4  UNL d   1      -1.870   0.941   1.370  0.00  0.00     0.002 A 
ATOM      3  C5  UNL d   1      -0.555   0.954   1.837  0.00  0.00     0.002 A 
ATOM      4  C6  UNL d   1       0.383   1.807   1.261  0.00  0.00    -0.004 A 
ATOM      5  C7  UNL d   1       0.008   2.645   0.213  0.00  0.00     0.002 A 
ATOM      6  C8  UNL d   1      -1.308   2.637  -0.253  0.00  0.00     0.002 A 
ENDROOT
BRANCH   1   7
ATOM      7  C2  UNL d   1      -3.692   1.804  -0.163  0.00  0.00     0.056 C 
BRANCH   7   8
ATOM      8  C1  UNL d   1      -4.708   1.296   0.865  0.00  0.00     0.007 C 
ATOM      9  C   UNL d   1      -5.836   2.283   1.133  0.00  0.00     0.009 C 
ENDBRANCH   7   8
ENDBRANCH   1   7
TORSDOF 2
ENDMDL
