MODEL 1
REMARK minimizedAffinity 0.909305394
REMARK minimizedRMSD -1
REMARK  2 active torsions:
REMARK  status: ('A' for Active; 'I' for Inactive)
REMARK    1  A    between atoms: C1_2  and  C2_3 
REMARK    2  A    between atoms: C2_3  and  C3_4 
ROOT
ATOM      1  C3  UNL d   1      -1.091   0.972   0.853  0.00  0.00    -0.075 A 
ATOM      2  C4  UNL d   1      -1.123   2.319   0.466  0.00  0.00     0.002 A 
ATOM      3  C5  UNL d   1      -2.318   2.911   0.056  0.00  0.00     0.002 A 
ATOM      4  C6  UNL d   1      -3.492   2.162   0.019  0.00  0.00    -0.004 A 
ATOM      5  C7  UNL d   1      -3.469   0.819   0.385  0.00  0.00     0.002 A 
ATOM      6  C8  UNL d   1      -2.276   0.225   0.800  0.00  0.00     0.002 A 
ENDROOT
BRANCH   1   7
ATOM      7  C2  UNL d   1       0.193   0.334   1.325  0.00  0.00     0.056 C 
BRANCH   7   8
ATOM      8  C1  UNL d   1       1.426   0.735   0.509  0.00  0.00     0.007 C 
ATOM      9  C   UNL d   1       2.706   0.057   0.981  0.00  0.00     0.009 C 
ENDBRANCH   7   8
ENDBRANCH   1   7
TORSDOF 2
ENDMDL
