MODEL 1
REMARK minimizedAffinity -4.41661024
REMARK minimizedRMSD -1
REMARK  2 active torsions:
REMARK  status: ('A' for Active; 'I' for Inactive)
REMARK    1  A    between atoms: C1_2  and  C2_3 
REMARK    2  A    between atoms: C2_3  and  C3_4 
ROOT
ATOM      1  C3  UNL d   1      -0.544   1.064   0.870  0.00  0.00    -0.075 A 
ATOM      2  C4  UNL d   1      -1.516   0.124   1.241  0.00  0.00     0.002 A 
ATOM      3  C5  UNL d   1      -2.851   0.304   0.875  0.00  0.00     0.002 A 
ATOM      4  C6  UNL d   1      -3.231   1.427   0.145  0.00  0.00    -0.004 A 
ATOM      5  C7  UNL d   1      -2.276   2.376  -0.214  0.00  0.00     0.002 A 
ATOM      6  C8  UNL d   1      -0.939   2.196   0.146  0.00  0.00     0.002 A 
ENDROOT
BRANCH   1   7
ATOM      7  C2  UNL d   1       0.907   0.860   1.237  0.00  0.00     0.056 C 
BRANCH   7   8
ATOM      8  C1  UNL d   1       1.895   1.475   0.240  0.00  0.00     0.007 C 
ATOM      9  C   UNL d   1       3.072   0.563  -0.079  0.00  0.00     0.009 C 
ENDBRANCH   7   8
ENDBRANCH   1   7
TORSDOF 2
ENDMDL
