MODEL 1
REMARK minimizedAffinity 6.45024204
REMARK minimizedRMSD -1
REMARK  2 active torsions:
REMARK  status: ('A' for Active; 'I' for Inactive)
REMARK    1  A    between atoms: C1_2  and  C2_3 
REMARK    2  A    between atoms: C2_3  and  C3_4 
ROOT
ATOM      1  C3  UNL d   1      -3.074   0.253   1.448  0.00  0.00    -0.075 A 
ATOM      2  C4  UNL d   1      -4.409   0.519   1.113  0.00  0.00     0.002 A 
ATOM      3  C5  UNL d   1      -4.726   1.548   0.226  0.00  0.00     0.002 A 
ATOM      4  C6  UNL d   1      -3.714   2.330  -0.329  0.00  0.00    -0.004 A 
ATOM      5  C7  UNL d   1      -2.385   2.085   0.010  0.00  0.00     0.002 A 
ATOM      6  C8  UNL d   1      -2.065   1.053   0.894  0.00  0.00     0.002 A 
ENDROOT
BRANCH   1   7
ATOM      7  C2  UNL d   1      -2.723  -0.879   2.384  0.00  0.00     0.056 C 
BRANCH   7   8
ATOM      8  C1  UNL d   1      -2.881  -0.532   3.868  0.00  0.00     0.007 C 
ATOM      9  C   UNL d   1      -4.313  -0.668   4.368  0.00  0.00     0.009 C 
ENDBRANCH   7   8
ENDBRANCH   1   7
TORSDOF 2
ENDMDL
