MODEL 1
REMARK minimizedAffinity 6.66892385
REMARK minimizedRMSD -1
REMARK  2 active torsions:
REMARK  status: ('A' for Active; 'I' for Inactive)
REMARK    1  A    between atoms: C1_2  and  C2_3 
REMARK    2  A    between atoms: C2_3  and  C3_4 
ROOT
ATOM      1  C3  UNL d   1       0.748  -0.041   0.391  0.00  0.00    -0.075 A 
ATOM      2  C4  UNL d   1       0.994   0.263  -0.956  0.00  0.00     0.002 A 
ATOM      3  C5  UNL d   1       1.309   1.566  -1.342  0.00  0.00     0.002 A 
ATOM      4  C6  UNL d   1       1.372   2.582  -0.390  0.00  0.00    -0.004 A 
ATOM      5  C7  UNL d   1       1.113   2.295   0.948  0.00  0.00     0.002 A 
ATOM      6  C8  UNL d   1       0.802   0.991   1.338  0.00  0.00     0.002 A 
ENDROOT
BRANCH   1   7
ATOM      7  C2  UNL d   1       0.435  -1.455   0.820  0.00  0.00     0.056 C 
BRANCH   7   8
ATOM      8  C1  UNL d   1      -0.958  -1.627   1.435  0.00  0.00     0.007 C 
ATOM      9  C   UNL d   1      -2.055  -1.806   0.395  0.00  0.00     0.009 C 
ENDBRANCH   7   8
ENDBRANCH   1   7
TORSDOF 2
ENDMDL
