MODEL 1
REMARK minimizedAffinity -4.02948332
REMARK minimizedRMSD -1
REMARK  0 active torsions:
REMARK  status: ('A' for Active; 'I' for Inactive)
ROOT
ATOM      1  C   UNL d   1      -0.833   2.019  -0.745  0.00  0.00     0.020 A 
ATOM      2  C1  UNL d   1      -1.670   1.173  -0.019  0.00  0.00     0.020 A 
ATOM      3  C2  UNL d   1      -1.205  -0.074   0.405  0.00  0.00     0.034 A 
ATOM      4  C3  UNL d   1       0.100  -0.478   0.103  0.00  0.00     0.017 A 
ATOM      5  C4  UNL d   1       0.940   0.372  -0.626  0.00  0.00     0.017 A 
ATOM      6  C5  UNL d   1       0.469   1.619  -1.048  0.00  0.00     0.034 A 
ATOM      7 Cl   UNL d   1       2.563  -0.058  -1.037  0.00  0.00    -0.070 Cl
ATOM      8 Cl1  UNL d   1       0.609  -2.033   0.659  0.00  0.00    -0.070 Cl
ENDROOT
TORSDOF 0
ENDMDL
