MODEL 1
REMARK minimizedAffinity -4.13128757
REMARK minimizedRMSD -1
REMARK  0 active torsions:
REMARK  status: ('A' for Active; 'I' for Inactive)
ROOT
ATOM      1  C   UNL d   1      -0.032   1.950  -1.342  0.00  0.00     0.020 A 
ATOM      2  C1  UNL d   1      -1.117   1.405  -0.655  0.00  0.00     0.020 A 
ATOM      3  C2  UNL d   1      -0.902   0.468   0.357  0.00  0.00     0.034 A 
ATOM      4  C3  UNL d   1       0.400   0.072   0.686  0.00  0.00     0.017 A 
ATOM      5  C4  UNL d   1       1.487   0.619  -0.005  0.00  0.00     0.017 A 
ATOM      6  C5  UNL d   1       1.267   1.558  -1.017  0.00  0.00     0.034 A 
ATOM      7 Cl   UNL d   1       3.122   0.180   0.344  0.00  0.00    -0.070 Cl
ATOM      8 Cl1  UNL d   1       0.591  -1.092   1.949  0.00  0.00    -0.070 Cl
ENDROOT
TORSDOF 0
ENDMDL
