MODEL 1
REMARK minimizedAffinity -1.73803258
REMARK minimizedRMSD -1
REMARK  0 active torsions:
REMARK  status: ('A' for Active; 'I' for Inactive)
ROOT
ATOM      1  C   UNL d   1      -0.745   1.411  -0.535  0.00  0.00     0.020 A 
ATOM      2  C1  UNL d   1      -1.371   0.802   0.551  0.00  0.00     0.020 A 
ATOM      3  C2  UNL d   1      -0.825  -0.355   1.112  0.00  0.00     0.034 A 
ATOM      4  C3  UNL d   1       0.349  -0.906   0.587  0.00  0.00     0.017 A 
ATOM      5  C4  UNL d   1       0.977  -0.293  -0.504  0.00  0.00     0.017 A 
ATOM      6  C5  UNL d   1       0.427   0.865  -1.062  0.00  0.00     0.034 A 
ATOM      7 Cl   UNL d   1       2.428  -0.914  -1.207  0.00  0.00    -0.070 Cl
ATOM      8 Cl1  UNL d   1       0.967  -2.338   1.330  0.00  0.00    -0.070 Cl
ENDROOT
TORSDOF 0
ENDMDL
