MODEL 1
REMARK minimizedAffinity -5.03997421
REMARK minimizedRMSD -1
REMARK  0 active torsions:
REMARK  status: ('A' for Active; 'I' for Inactive)
ROOT
ATOM      1  C   UNL d   1       2.634  -0.316  -1.342  0.00  0.00     0.020 A 
ATOM      2  C1  UNL d   1       2.176   0.943  -0.954  0.00  0.00     0.020 A 
ATOM      3  C2  UNL d   1       0.993   1.060  -0.220  0.00  0.00     0.034 A 
ATOM      4  C3  UNL d   1       0.265  -0.084   0.127  0.00  0.00     0.017 A 
ATOM      5  C4  UNL d   1       0.725  -1.347  -0.264  0.00  0.00     0.017 A 
ATOM      6  C5  UNL d   1       1.910  -1.458  -0.998  0.00  0.00     0.034 A 
ATOM      7 Cl   UNL d   1      -0.120  -2.803   0.127  0.00  0.00    -0.070 Cl
ATOM      8 Cl1  UNL d   1      -1.189   0.135   1.035  0.00  0.00    -0.070 Cl
ENDROOT
TORSDOF 0
ENDMDL
