MODEL 1
REMARK minimizedAffinity -4.43858814
REMARK minimizedRMSD -1
REMARK  0 active torsions:
REMARK  status: ('A' for Active; 'I' for Inactive)
ROOT
ATOM      1  C   UNL d   1       1.306   1.712  -2.775  0.00  0.00     0.020 A 
ATOM      2  C1  UNL d   1       2.238   0.694  -2.972  0.00  0.00     0.020 A 
ATOM      3  C2  UNL d   1       2.206  -0.447  -2.168  0.00  0.00     0.034 A 
ATOM      4  C3  UNL d   1       1.240  -0.573  -1.163  0.00  0.00     0.017 A 
ATOM      5  C4  UNL d   1       0.304   0.449  -0.966  0.00  0.00     0.017 A 
ATOM      6  C5  UNL d   1       0.341   1.590  -1.774  0.00  0.00     0.034 A 
ATOM      7 Cl   UNL d   1      -0.917   0.366   0.254  0.00  0.00    -0.070 Cl
ATOM      8 Cl1  UNL d   1       1.258  -2.012  -0.206  0.00  0.00    -0.070 Cl
ENDROOT
TORSDOF 0
ENDMDL
