MODEL 1
REMARK minimizedAffinity -3.69927859
REMARK minimizedRMSD -1
REMARK  0 active torsions:
REMARK  status: ('A' for Active; 'I' for Inactive)
ROOT
ATOM      1  C   UNL d   1      -1.127   1.615  -0.562  0.00  0.00     0.020 A 
ATOM      2  C1  UNL d   1      -0.029   2.183  -1.206  0.00  0.00     0.020 A 
ATOM      3  C2  UNL d   1       1.134   1.434  -1.396  0.00  0.00     0.034 A 
ATOM      4  C3  UNL d   1       1.201   0.112  -0.942  0.00  0.00     0.017 A 
ATOM      5  C4  UNL d   1       0.098  -0.458  -0.295  0.00  0.00     0.017 A 
ATOM      6  C5  UNL d   1      -1.064   0.297  -0.108  0.00  0.00     0.034 A 
ATOM      7 Cl   UNL d   1       0.107  -2.083   0.293  0.00  0.00    -0.070 Cl
ATOM      8 Cl1  UNL d   1       2.671  -0.756  -1.211  0.00  0.00    -0.070 Cl
ENDROOT
TORSDOF 0
ENDMDL
