MODEL 1
REMARK minimizedAffinity -2.69293928
REMARK minimizedRMSD -1
REMARK  0 active torsions:
REMARK  status: ('A' for Active; 'I' for Inactive)
ROOT
ATOM      1  C   UNL d   1       2.366   0.676  -0.905  0.00  0.00     0.020 A 
ATOM      2  C1  UNL d   1       1.382   0.819   0.073  0.00  0.00     0.020 A 
ATOM      3  C2  UNL d   1       0.439  -0.191   0.267  0.00  0.00     0.034 A 
ATOM      4  C3  UNL d   1       0.477  -1.350  -0.517  0.00  0.00     0.017 A 
ATOM      5  C4  UNL d   1       1.465  -1.493  -1.498  0.00  0.00     0.017 A 
ATOM      6  C5  UNL d   1       2.407  -0.478  -1.689  0.00  0.00     0.034 A 
ATOM      7 Cl   UNL d   1       1.575  -2.894  -2.505  0.00  0.00    -0.070 Cl
ATOM      8 Cl1  UNL d   1      -0.721  -2.560  -0.222  0.00  0.00    -0.070 Cl
ENDROOT
TORSDOF 0
ENDMDL
