MODEL 1
REMARK minimizedAffinity -3.78236508
REMARK minimizedRMSD -1
REMARK  0 active torsions:
REMARK  status: ('A' for Active; 'I' for Inactive)
ROOT
ATOM      1  C   UNL d   1       1.584   0.153  -0.999  0.00  0.00     0.020 A 
ATOM      2  C1  UNL d   1       1.358  -0.717   0.067  0.00  0.00     0.020 A 
ATOM      3  C2  UNL d   1       0.150  -0.664   0.766  0.00  0.00     0.034 A 
ATOM      4  C3  UNL d   1      -0.835   0.261   0.401  0.00  0.00     0.017 A 
ATOM      5  C4  UNL d   1      -0.606   1.134  -0.669  0.00  0.00     0.017 A 
ATOM      6  C5  UNL d   1       0.605   1.076  -1.366  0.00  0.00     0.034 A 
ATOM      7 Cl   UNL d   1      -1.774   2.302  -1.178  0.00  0.00    -0.070 Cl
ATOM      8 Cl1  UNL d   1      -2.304   0.271   1.310  0.00  0.00    -0.070 Cl
ENDROOT
TORSDOF 0
ENDMDL
