MODEL 1
REMARK minimizedAffinity -5.14088535
REMARK minimizedRMSD -1
REMARK  0 active torsions:
REMARK  status: ('A' for Active; 'I' for Inactive)
ROOT
ATOM      1  C   UNL d   1       2.465  -1.527  -0.732  0.00  0.00     0.020 A 
ATOM      2  C1  UNL d   1       3.096  -0.823  -1.756  0.00  0.00     0.020 A 
ATOM      3  C2  UNL d   1       2.519   0.344  -2.260  0.00  0.00     0.034 A 
ATOM      4  C3  UNL d   1       1.306   0.811  -1.739  0.00  0.00     0.017 A 
ATOM      5  C4  UNL d   1       0.674   0.104  -0.711  0.00  0.00     0.017 A 
ATOM      6  C5  UNL d   1       1.256  -1.065  -0.210  0.00  0.00     0.034 A 
ATOM      7 Cl   UNL d   1      -0.824   0.618  -0.017  0.00  0.00    -0.070 Cl
ATOM      8 Cl1  UNL d   1       0.650   2.262  -2.409  0.00  0.00    -0.070 Cl
ENDROOT
TORSDOF 0
ENDMDL
