MODEL 1
REMARK minimizedAffinity -3.58785248
REMARK minimizedRMSD -1
REMARK  0 active torsions:
REMARK  status: ('A' for Active; 'I' for Inactive)
ROOT
ATOM      1  C   UNL d   1      -0.173  -1.368   0.284  0.00  0.00     0.020 A 
ATOM      2  C1  UNL d   1      -0.963  -0.227   0.153  0.00  0.00     0.020 A 
ATOM      3  C2  UNL d   1      -0.443   0.916  -0.458  0.00  0.00     0.034 A 
ATOM      4  C3  UNL d   1       0.871   0.922  -0.938  0.00  0.00     0.017 A 
ATOM      5  C4  UNL d   1       1.664  -0.224  -0.806  0.00  0.00     0.017 A 
ATOM      6  C5  UNL d   1       1.138  -1.366  -0.194  0.00  0.00     0.034 A 
ATOM      7 Cl   UNL d   1       3.295  -0.294  -1.374  0.00  0.00    -0.070 Cl
ATOM      8 Cl1  UNL d   1       1.449   2.370  -1.682  0.00  0.00    -0.070 Cl
ENDROOT
TORSDOF 0
ENDMDL
