MODEL 1
REMARK minimizedAffinity -5.70655727
REMARK minimizedRMSD -1
REMARK  0 active torsions:
REMARK  status: ('A' for Active; 'I' for Inactive)
ROOT
ATOM      1  C   UNL d   1       2.428   0.495  -2.403  0.00  0.00     0.020 A 
ATOM      2  C1  UNL d   1       1.686   1.674  -2.368  0.00  0.00     0.020 A 
ATOM      3  C2  UNL d   1       0.569   1.772  -1.536  0.00  0.00     0.034 A 
ATOM      4  C3  UNL d   1       0.191   0.689  -0.734  0.00  0.00     0.017 A 
ATOM      5  C4  UNL d   1       0.937  -0.495  -0.770  0.00  0.00     0.017 A 
ATOM      6  C5  UNL d   1       2.054  -0.588  -1.605  0.00  0.00     0.034 A 
ATOM      7 Cl   UNL d   1       0.533  -1.874   0.190  0.00  0.00    -0.070 Cl
ATOM      8 Cl1  UNL d   1      -1.201   0.880   0.271  0.00  0.00    -0.070 Cl
ENDROOT
TORSDOF 0
ENDMDL
