MODEL 1
REMARK minimizedAffinity -1.93826807
REMARK minimizedRMSD -1
REMARK  0 active torsions:
REMARK  status: ('A' for Active; 'I' for Inactive)
ROOT
ATOM      1  C   UNL d   1      -2.381   0.745   2.758  0.00  0.00     0.020 A 
ATOM      2  C1  UNL d   1      -1.494   1.814   2.633  0.00  0.00     0.020 A 
ATOM      3  C2  UNL d   1      -0.474   1.767   1.680  0.00  0.00     0.034 A 
ATOM      4  C3  UNL d   1      -0.338   0.650   0.848  0.00  0.00     0.017 A 
ATOM      5  C4  UNL d   1      -1.229  -0.422   0.974  0.00  0.00     0.017 A 
ATOM      6  C5  UNL d   1      -2.248  -0.370   1.930  0.00  0.00     0.034 A 
ATOM      7 Cl   UNL d   1      -1.125  -1.835  -0.016  0.00  0.00    -0.070 Cl
ATOM      8 Cl1  UNL d   1       0.945   0.660  -0.308  0.00  0.00    -0.070 Cl
ENDROOT
TORSDOF 0
ENDMDL
