MODEL 1
REMARK minimizedAffinity -5.09800482
REMARK minimizedRMSD -1
REMARK  0 active torsions:
REMARK  status: ('A' for Active; 'I' for Inactive)
ROOT
ATOM      1  C   UNL d   1      -1.117  -1.223  -0.220  0.00  0.00     0.020 A 
ATOM      2  C1  UNL d   1      -0.089  -2.164  -0.184  0.00  0.00     0.020 A 
ATOM      3  C2  UNL d   1       1.207  -1.797  -0.554  0.00  0.00     0.034 A 
ATOM      4  C3  UNL d   1       1.478  -0.487  -0.963  0.00  0.00     0.017 A 
ATOM      5  C4  UNL d   1       0.446   0.458  -0.999  0.00  0.00     0.017 A 
ATOM      6  C5  UNL d   1      -0.850   0.085  -0.627  0.00  0.00     0.034 A 
ATOM      7 Cl   UNL d   1       0.703   2.094  -1.492  0.00  0.00    -0.070 Cl
ATOM      8 Cl1  UNL d   1       3.103  -0.103  -1.407  0.00  0.00    -0.070 Cl
ENDROOT
TORSDOF 0
ENDMDL
