MODEL 1
REMARK minimizedAffinity -3.96452355
REMARK minimizedRMSD -1
REMARK  0 active torsions:
REMARK  status: ('A' for Active; 'I' for Inactive)
ROOT
ATOM      1  C   UNL d   1       2.306   0.611  -0.781  0.00  0.00     0.020 A 
ATOM      2  C1  UNL d   1       2.421  -0.571  -1.511  0.00  0.00     0.020 A 
ATOM      3  C2  UNL d   1       1.476  -1.586  -1.350  0.00  0.00     0.034 A 
ATOM      4  C3  UNL d   1       0.412  -1.421  -0.455  0.00  0.00     0.017 A 
ATOM      5  C4  UNL d   1       0.297  -0.235   0.277  0.00  0.00     0.017 A 
ATOM      6  C5  UNL d   1       1.246   0.779   0.112  0.00  0.00     0.034 A 
ATOM      7 Cl   UNL d   1      -0.988   0.042   1.400  0.00  0.00    -0.070 Cl
ATOM      8 Cl1  UNL d   1      -0.720  -2.718  -0.306  0.00  0.00    -0.070 Cl
ENDROOT
TORSDOF 0
ENDMDL
