MODEL 1
REMARK minimizedAffinity 9.93582726
REMARK minimizedRMSD -1
REMARK  0 active torsions:
REMARK  status: ('A' for Active; 'I' for Inactive)
ROOT
ATOM      1  C   UNL d   1       4.519  -1.111   0.026  0.00  0.00     0.023 A 
ATOM      2  C1  UNL d   1       5.757  -0.503   0.232  0.00  0.00     0.003 A 
ATOM      3  C2  UNL d   1       6.000   0.778  -0.269  0.00  0.00     0.048 A 
ATOM      4  C3  UNL d   1       4.999   1.446  -0.974  0.00  0.00     0.023 A 
ATOM      5  C4  UNL d   1       3.757   0.842  -1.181  0.00  0.00     0.048 A 
ATOM      6  C5  UNL d   1       3.520  -0.440  -0.679  0.00  0.00     0.003 A 
ATOM      7  I   UNL d   1       5.357   3.352  -1.720  0.00  0.00    -0.146 I 
ENDROOT
TORSDOF 0
ENDMDL
