MODEL 1
REMARK minimizedAffinity 7.93389034
REMARK minimizedRMSD -1
REMARK  0 active torsions:
REMARK  status: ('A' for Active; 'I' for Inactive)
ROOT
ATOM      1  C   UNL d   1       6.000   0.426  -0.640  0.00  0.00     0.023 A 
ATOM      2  C1  UNL d   1       5.296  -0.561   0.051  0.00  0.00     0.003 A 
ATOM      3  C2  UNL d   1       3.901  -0.520   0.102  0.00  0.00     0.048 A 
ATOM      4  C3  UNL d   1       3.216   0.511  -0.540  0.00  0.00     0.023 A 
ATOM      5  C4  UNL d   1       3.916   1.500  -1.233  0.00  0.00     0.048 A 
ATOM      6  C5  UNL d   1       5.310   1.455  -1.281  0.00  0.00     0.003 A 
ATOM      7  I   UNL d   1       1.140   0.574  -0.466  0.00  0.00    -0.146 I 
ENDROOT
TORSDOF 0
ENDMDL
