MODEL 1
REMARK minimizedAffinity 12.8456984
REMARK minimizedRMSD -1
REMARK  0 active torsions:
REMARK  status: ('A' for Active; 'I' for Inactive)
ROOT
ATOM      1  C   UNL d   1       4.986  -0.057   0.387  0.00  0.00     0.023 A 
ATOM      2  C1  UNL d   1       4.377   0.330  -0.807  0.00  0.00     0.003 A 
ATOM      3  C2  UNL d   1       3.597  -0.582  -1.521  0.00  0.00     0.048 A 
ATOM      4  C3  UNL d   1       3.429  -1.878  -1.035  0.00  0.00     0.023 A 
ATOM      5  C4  UNL d   1       4.035  -2.268   0.160  0.00  0.00     0.048 A 
ATOM      6  C5  UNL d   1       4.815  -1.354   0.870  0.00  0.00     0.003 A 
ATOM      7  I   UNL d   1       2.268  -3.236  -2.096  0.00  0.00    -0.146 I 
ENDROOT
TORSDOF 0
ENDMDL
