MODEL 1
REMARK minimizedAffinity 5.66194057
REMARK minimizedRMSD -1
REMARK  0 active torsions:
REMARK  status: ('A' for Active; 'I' for Inactive)
ROOT
ATOM      1  C   UNL d   1       4.426   0.793   0.013  0.00  0.00     0.023 A 
ATOM      2  C1  UNL d   1       5.127   1.593   0.915  0.00  0.00     0.003 A 
ATOM      3  C2  UNL d   1       5.578   2.856   0.527  0.00  0.00     0.048 A 
ATOM      4  C3  UNL d   1       5.324   3.314  -0.766  0.00  0.00     0.023 A 
ATOM      5  C4  UNL d   1       4.622   2.517  -1.672  0.00  0.00     0.048 A 
ATOM      6  C5  UNL d   1       4.174   1.254  -1.280  0.00  0.00     0.003 A 
ATOM      7  I   UNL d   1       5.994   5.193  -1.347  0.00  0.00    -0.146 I 
ENDROOT
TORSDOF 0
ENDMDL
