MODEL 1
REMARK minimizedAffinity 2.61989427
REMARK minimizedRMSD -1
REMARK  0 active torsions:
REMARK  status: ('A' for Active; 'I' for Inactive)
ROOT
ATOM      1  C   UNL d   1       5.675   1.133  -0.155  0.00  0.00     0.023 A 
ATOM      2  C1  UNL d   1       5.993  -0.080   0.456  0.00  0.00     0.003 A 
ATOM      3  C2  UNL d   1       5.121  -1.165   0.353  0.00  0.00     0.048 A 
ATOM      4  C3  UNL d   1       3.933  -1.032  -0.364  0.00  0.00     0.023 A 
ATOM      5  C4  UNL d   1       3.611   0.179  -0.979  0.00  0.00     0.048 A 
ATOM      6  C5  UNL d   1       4.486   1.262  -0.872  0.00  0.00     0.003 A 
ATOM      7  I   UNL d   1       2.633  -2.646  -0.520  0.00  0.00    -0.146 I 
ENDROOT
TORSDOF 0
ENDMDL
