MODEL 1
REMARK minimizedAffinity 7.10640717
REMARK minimizedRMSD -1
REMARK  0 active torsions:
REMARK  status: ('A' for Active; 'I' for Inactive)
ROOT
ATOM      1  C   UNL d   1       4.698   0.710  -0.156  0.00  0.00     0.023 A 
ATOM      2  C1  UNL d   1       4.518   1.121  -1.476  0.00  0.00     0.003 A 
ATOM      3  C2  UNL d   1       4.890   2.410  -1.866  0.00  0.00     0.048 A 
ATOM      4  C3  UNL d   1       5.444   3.282  -0.929  0.00  0.00     0.023 A 
ATOM      5  C4  UNL d   1       5.628   2.874   0.394  0.00  0.00     0.048 A 
ATOM      6  C5  UNL d   1       5.252   1.586   0.778  0.00  0.00     0.003 A 
ATOM      7  I   UNL d   1       6.000   5.199  -1.505  0.00  0.00    -0.146 I 
ENDROOT
TORSDOF 0
ENDMDL
