MODEL 1
REMARK minimizedAffinity 8.00504398
REMARK minimizedRMSD -1
REMARK  0 active torsions:
REMARK  status: ('A' for Active; 'I' for Inactive)
ROOT
ATOM      1  C   UNL d   1       4.078   0.547  -0.009  0.00  0.00     0.023 A 
ATOM      2  C1  UNL d   1       3.187  -0.527  -0.003  0.00  0.00     0.003 A 
ATOM      3  C2  UNL d   1       3.100  -1.370  -1.113  0.00  0.00     0.048 A 
ATOM      4  C3  UNL d   1       3.908  -1.135  -2.225  0.00  0.00     0.023 A 
ATOM      5  C4  UNL d   1       4.801  -0.062  -2.235  0.00  0.00     0.048 A 
ATOM      6  C5  UNL d   1       4.884   0.779  -1.124  0.00  0.00     0.003 A 
ATOM      7  I   UNL d   1       3.780  -2.389  -3.877  0.00  0.00    -0.146 I 
ENDROOT
TORSDOF 0
ENDMDL
