MODEL 1
REMARK minimizedAffinity 2.96614861
REMARK minimizedRMSD -1
REMARK  0 active torsions:
REMARK  status: ('A' for Active; 'I' for Inactive)
ROOT
ATOM      1  C   UNL d   1      -1.771   3.009   1.261  0.00  0.00    -0.002 A 
ATOM      2  C1  UNL d   1      -1.850   2.516  -0.034  0.00  0.00     0.010 A 
ATOM      3  C2  UNL d   1      -1.297   1.276  -0.357  0.00  0.00     0.041 A 
ATOM      4  C3  UNL d   1      -0.658   0.531   0.654  0.00  0.00    -0.075 A 
ATOM      5  S   UNL d   1       0.091  -1.014   0.491  0.00  0.00     0.015 SA
ATOM      6  C4  UNL d   1       0.533  -1.056   2.137  0.00  0.00     0.022 A 
ATOM      7  C5  UNL d   1       0.127   0.072   2.809  0.00  0.00     0.026 A 
ATOM      8  C6  UNL d   1      -0.566   1.005   1.966  0.00  0.00    -0.082 A 
ATOM      9  C7  UNL d   1      -1.136   2.267   2.261  0.00  0.00     0.045 A 
ENDROOT
TORSDOF 0
ENDMDL
