MODEL 1
REMARK minimizedAffinity 2.45162654
REMARK minimizedRMSD -1
REMARK  0 active torsions:
REMARK  status: ('A' for Active; 'I' for Inactive)
ROOT
ATOM      1  C   UNL d   1      -1.995   2.786   1.594  0.00  0.00    -0.002 A 
ATOM      2  C1  UNL d   1      -1.174   2.773   2.714  0.00  0.00     0.010 A 
ATOM      3  C2  UNL d   1      -0.318   1.696   2.954  0.00  0.00     0.041 A 
ATOM      4  C3  UNL d   1      -0.299   0.623   2.041  0.00  0.00    -0.075 A 
ATOM      5  S   UNL d   1       0.669  -0.800   2.131  0.00  0.00     0.015 SA
ATOM      6  C4  UNL d   1       0.017  -1.425   0.685  0.00  0.00     0.022 A 
ATOM      7  C5  UNL d   1      -0.918  -0.580   0.134  0.00  0.00     0.026 A 
ATOM      8  C6  UNL d   1      -1.115   0.614   0.906  0.00  0.00    -0.082 A 
ATOM      9  C7  UNL d   1      -1.973   1.720   0.691  0.00  0.00     0.045 A 
ENDROOT
TORSDOF 0
ENDMDL
