MODEL 1
REMARK minimizedAffinity -2.28304577
REMARK minimizedRMSD -1
REMARK  0 active torsions:
REMARK  status: ('A' for Active; 'I' for Inactive)
ROOT
ATOM      1  C   UNL d   1      -1.951   2.593   0.721  0.00  0.00    -0.002 A 
ATOM      2  C1  UNL d   1      -1.771   2.330   2.071  0.00  0.00     0.010 A 
ATOM      3  C2  UNL d   1      -1.008   1.237   2.486  0.00  0.00     0.041 A 
ATOM      4  C3  UNL d   1      -0.421   0.406   1.512  0.00  0.00    -0.075 A 
ATOM      5  S   UNL d   1       0.555  -0.989   1.786  0.00  0.00     0.015 SA
ATOM      6  C4  UNL d   1       0.757  -1.267   0.117  0.00  0.00     0.022 A 
ATOM      7  C5  UNL d   1       0.103  -0.328  -0.646  0.00  0.00     0.026 A 
ATOM      8  C6  UNL d   1      -0.587   0.651   0.146  0.00  0.00    -0.082 A 
ATOM      9  C7  UNL d   1      -1.367   1.767  -0.243  0.00  0.00     0.045 A 
ENDROOT
TORSDOF 0
ENDMDL
