MODEL 1
REMARK minimizedAffinity -2.9137671
REMARK minimizedRMSD -1
REMARK  0 active torsions:
REMARK  status: ('A' for Active; 'I' for Inactive)
ROOT
ATOM      1  C   UNL d   1       0.777  -0.639  -1.492  0.00  0.00    -0.002 A 
ATOM      2  C1  UNL d   1       1.227  -1.312  -0.365  0.00  0.00     0.010 A 
ATOM      3  C2  UNL d   1       0.838  -0.900   0.911  0.00  0.00     0.041 A 
ATOM      4  C3  UNL d   1      -0.022   0.209   1.036  0.00  0.00    -0.075 A 
ATOM      5  S   UNL d   1      -0.631   0.892   2.497  0.00  0.00     0.015 SA
ATOM      6  C4  UNL d   1      -1.504   2.093   1.659  0.00  0.00     0.022 A 
ATOM      7  C5  UNL d   1      -1.345   1.990   0.298  0.00  0.00     0.026 A 
ATOM      8  C6  UNL d   1      -0.489   0.903  -0.084  0.00  0.00    -0.082 A 
ATOM      9  C7  UNL d   1      -0.075   0.461  -1.364  0.00  0.00     0.045 A 
ENDROOT
TORSDOF 0
ENDMDL
