MODEL 1
REMARK minimizedAffinity -3.9480269
REMARK minimizedRMSD -1
REMARK  0 active torsions:
REMARK  status: ('A' for Active; 'I' for Inactive)
ROOT
ATOM      1  C   UNL d   1       0.272  -0.846  -1.007  0.00  0.00    -0.002 A 
ATOM      2  C1  UNL d   1       0.673  -1.397   0.202  0.00  0.00     0.010 A 
ATOM      3  C2  UNL d   1       0.196  -0.883   1.410  0.00  0.00     0.041 A 
ATOM      4  C3  UNL d   1      -0.701   0.204   1.381  0.00  0.00    -0.075 A 
ATOM      5  S   UNL d   1      -1.416   0.997   2.735  0.00  0.00     0.015 SA
ATOM      6  C4  UNL d   1      -2.271   2.085   1.740  0.00  0.00     0.022 A 
ATOM      7  C5  UNL d   1      -2.028   1.863   0.405  0.00  0.00     0.026 A 
ATOM      8  C6  UNL d   1      -1.120   0.775   0.176  0.00  0.00    -0.082 A 
ATOM      9  C7  UNL d   1      -0.617   0.232  -1.031  0.00  0.00     0.045 A 
ENDROOT
TORSDOF 0
ENDMDL
