MODEL 1
REMARK minimizedAffinity -4.17631817
REMARK minimizedRMSD -1
REMARK  0 active torsions:
REMARK  status: ('A' for Active; 'I' for Inactive)
ROOT
ATOM      1  C   UNL d   1      -0.729   0.952   3.128  0.00  0.00    -0.002 A 
ATOM      2  C1  UNL d   1      -1.384   1.742   2.194  0.00  0.00     0.010 A 
ATOM      3  C2  UNL d   1      -1.224   1.507   0.827  0.00  0.00     0.041 A 
ATOM      4  C3  UNL d   1      -0.387   0.453   0.410  0.00  0.00    -0.075 A 
ATOM      5  S   UNL d   1      -0.041  -0.020  -1.211  0.00  0.00     0.015 SA
ATOM      6  C4  UNL d   1       0.983  -1.284  -0.702  0.00  0.00     0.022 A 
ATOM      7  C5  UNL d   1       1.071  -1.357   0.668  0.00  0.00     0.026 A 
ATOM      8  C6  UNL d   1       0.282  -0.357   1.331  0.00  0.00    -0.082 A 
ATOM      9  C7  UNL d   1       0.100  -0.093   2.710  0.00  0.00     0.045 A 
ENDROOT
TORSDOF 0
ENDMDL
