MODEL 1
REMARK minimizedAffinity -3.09499097
REMARK minimizedRMSD -1
REMARK  0 active torsions:
REMARK  status: ('A' for Active; 'I' for Inactive)
ROOT
ATOM      1  C   UNL d   1      -1.860   1.352   1.833  0.00  0.00    -0.002 A 
ATOM      2  C1  UNL d   1      -1.458   0.129   2.349  0.00  0.00     0.010 A 
ATOM      3  C2  UNL d   1      -0.490  -0.635   1.694  0.00  0.00     0.041 A 
ATOM      4  C3  UNL d   1       0.074  -0.142   0.500  0.00  0.00    -0.075 A 
ATOM      5  S   UNL d   1       1.276  -0.903  -0.474  0.00  0.00     0.015 SA
ATOM      6  C4  UNL d   1       1.284   0.379  -1.597  0.00  0.00     0.022 A 
ATOM      7  C5  UNL d   1       0.397   1.371  -1.253  0.00  0.00     0.026 A 
ATOM      8  C6  UNL d   1      -0.314   1.088  -0.039  0.00  0.00    -0.082 A 
ATOM      9  C7  UNL d   1      -1.299   1.838   0.649  0.00  0.00     0.045 A 
ENDROOT
TORSDOF 0
ENDMDL
