MODEL 1
REMARK minimizedAffinity -3.33737516
REMARK minimizedRMSD -1
REMARK  0 active torsions:
REMARK  status: ('A' for Active; 'I' for Inactive)
ROOT
ATOM      1  C   UNL d   1      -1.171   0.729   2.630  0.00  0.00    -0.002 A 
ATOM      2  C1  UNL d   1      -1.610   1.630   1.670  0.00  0.00     0.010 A 
ATOM      3  C2  UNL d   1      -1.238   1.481   0.333  0.00  0.00     0.041 A 
ATOM      4  C3  UNL d   1      -0.412   0.399  -0.029  0.00  0.00    -0.075 A 
ATOM      5  S   UNL d   1       0.170   0.017  -1.606  0.00  0.00     0.015 SA
ATOM      6  C4  UNL d   1       1.014  -1.353  -1.044  0.00  0.00     0.022 A 
ATOM      7  C5  UNL d   1       0.867  -1.529   0.311  0.00  0.00     0.026 A 
ATOM      8  C6  UNL d   1       0.043  -0.522   0.919  0.00  0.00    -0.082 A 
ATOM      9  C7  UNL d   1      -0.351  -0.343   2.267  0.00  0.00     0.045 A 
ENDROOT
TORSDOF 0
ENDMDL
