MODEL 1
REMARK minimizedAffinity -3.45226884
REMARK minimizedRMSD -1
REMARK  0 active torsions:
REMARK  status: ('A' for Active; 'I' for Inactive)
ROOT
ATOM      1  C   UNL d   1      -1.801   1.151   2.226  0.00  0.00    -0.002 A 
ATOM      2  C1  UNL d   1      -1.886   1.993   1.127  0.00  0.00     0.010 A 
ATOM      3  C2  UNL d   1      -1.120   1.749  -0.015  0.00  0.00     0.041 A 
ATOM      4  C3  UNL d   1      -0.262   0.632  -0.035  0.00  0.00    -0.075 A 
ATOM      5  S   UNL d   1       0.769   0.135  -1.324  0.00  0.00     0.015 SA
ATOM      6  C4  UNL d   1       1.345  -1.207  -0.446  0.00  0.00     0.022 A 
ATOM      7  C5  UNL d   1       0.775  -1.289   0.802  0.00  0.00     0.026 A 
ATOM      8  C6  UNL d   1      -0.161  -0.231   1.060  0.00  0.00    -0.082 A 
ATOM      9  C7  UNL d   1      -0.949   0.044   2.203  0.00  0.00     0.045 A 
ENDROOT
TORSDOF 0
ENDMDL
