MODEL 1
REMARK minimizedAffinity -3.72656202
REMARK minimizedRMSD -1
REMARK  0 active torsions:
REMARK  status: ('A' for Active; 'I' for Inactive)
ROOT
ATOM      1  C   UNL d   1      -1.743   1.634   2.148  0.00  0.00    -0.002 A 
ATOM      2  C1  UNL d   1      -1.704   2.320   0.942  0.00  0.00     0.010 A 
ATOM      3  C2  UNL d   1      -0.987   1.810  -0.142  0.00  0.00     0.041 A 
ATOM      4  C3  UNL d   1      -0.305   0.586   0.007  0.00  0.00    -0.075 A 
ATOM      5  S   UNL d   1       0.636  -0.231  -1.185  0.00  0.00     0.015 SA
ATOM      6  C4  UNL d   1       1.007  -1.510  -0.122  0.00  0.00     0.022 A 
ATOM      7  C5  UNL d   1       0.436  -1.335   1.116  0.00  0.00     0.026 A 
ATOM      8  C6  UNL d   1      -0.330  -0.124   1.210  0.00  0.00    -0.082 A 
ATOM      9  C7  UNL d   1      -1.065   0.420   2.292  0.00  0.00     0.045 A 
ENDROOT
TORSDOF 0
ENDMDL
