MODEL 1
REMARK minimizedAffinity -3.93784118
REMARK minimizedRMSD -1
REMARK  0 active torsions:
REMARK  status: ('A' for Active; 'I' for Inactive)
ROOT
ATOM      1  C   UNL d   1      -1.537   0.875   2.344  0.00  0.00    -0.002 A 
ATOM      2  C1  UNL d   1      -0.938  -0.369   2.482  0.00  0.00     0.010 A 
ATOM      3  C2  UNL d   1      -0.065  -0.850   1.503  0.00  0.00     0.041 A 
ATOM      4  C3  UNL d   1       0.199  -0.051   0.373  0.00  0.00    -0.075 A 
ATOM      5  S   UNL d   1       1.234  -0.433  -0.952  0.00  0.00     0.015 SA
ATOM      6  C4  UNL d   1       0.906   1.046  -1.732  0.00  0.00     0.022 A 
ATOM      7  C5  UNL d   1       0.030   1.825  -1.013  0.00  0.00     0.026 A 
ATOM      8  C6  UNL d   1      -0.392   1.206   0.212  0.00  0.00    -0.082 A 
ATOM      9  C7  UNL d   1      -1.272   1.665   1.221  0.00  0.00     0.045 A 
ENDROOT
TORSDOF 0
ENDMDL
