MODEL 1
REMARK minimizedAffinity -4.03200626
REMARK minimizedRMSD -1
REMARK  0 active torsions:
REMARK  status: ('A' for Active; 'I' for Inactive)
ROOT
ATOM      1  C   UNL d   1      -1.925   2.830   0.519  0.00  0.00    -0.002 A 
ATOM      2  C1  UNL d   1      -2.035   2.483   1.858  0.00  0.00     0.010 A 
ATOM      3  C2  UNL d   1      -1.453   1.308   2.337  0.00  0.00     0.041 A 
ATOM      4  C3  UNL d   1      -0.751   0.479   1.439  0.00  0.00    -0.075 A 
ATOM      5  S   UNL d   1       0.043  -1.008   1.801  0.00  0.00     0.015 SA
ATOM      6  C4  UNL d   1       0.547  -1.217   0.186  0.00  0.00     0.022 A 
ATOM      7  C5  UNL d   1       0.127  -0.187  -0.623  0.00  0.00     0.026 A 
ATOM      8  C6  UNL d   1      -0.627   0.808   0.086  0.00  0.00    -0.082 A 
ATOM      9  C7  UNL d   1      -1.229   2.006  -0.369  0.00  0.00     0.045 A 
ENDROOT
TORSDOF 0
ENDMDL
