MODEL 1
REMARK minimizedAffinity 9.36737156
REMARK minimizedRMSD -1
REMARK  1 active torsions:
REMARK  status: ('A' for Active; 'I' for Inactive)
REMARK    1  A    between atoms: C1_2  and  C2_3 
ROOT
ATOM      1  C2  UNL d   1       1.432   4.747  -0.242  0.00  0.00    -0.076 A 
ATOM      2  C3  UNL d   1       2.145   3.741   0.432  0.00  0.00     0.004 A 
ATOM      3  C4  UNL d   1       1.510   2.579   0.865  0.00  0.00    -0.003 A 
ATOM      4  C5  UNL d   1       0.151   2.403   0.630  0.00  0.00     0.000 A 
ATOM      5  C6  UNL d   1      -0.569   3.383  -0.053  0.00  0.00     0.000 A 
ATOM      6  C7  UNL d   1       0.060   4.553  -0.511  0.00  0.00    -0.073 A 
ATOM      7  C8  UNL d   1      -0.766   5.580  -1.237  0.00  0.00     0.078 C 
ENDROOT
BRANCH   1   8
ATOM      8  C1  UNL d   1       2.168   5.999  -0.664  0.00  0.00     0.053 C 
ATOM      9  C   UNL d   1       2.518   5.998  -2.145  0.00  0.00     0.018 C 
ENDBRANCH   1   8
TORSDOF 1
ENDMDL
