MODEL 1
REMARK minimizedAffinity 9.20245266
REMARK minimizedRMSD -1
REMARK  1 active torsions:
REMARK  status: ('A' for Active; 'I' for Inactive)
REMARK    1  A    between atoms: C1_2  and  C2_3 
ROOT
ATOM      1  C2  UNL d   1       1.444   5.036  -0.621  0.00  0.00    -0.076 A 
ATOM      2  C3  UNL d   1       0.147   4.877  -1.139  0.00  0.00     0.004 A 
ATOM      3  C4  UNL d   1      -0.752   3.984  -0.560  0.00  0.00    -0.003 A 
ATOM      4  C5  UNL d   1      -0.370   3.234   0.547  0.00  0.00     0.000 A 
ATOM      5  C6  UNL d   1       0.907   3.391   1.085  0.00  0.00     0.000 A 
ATOM      6  C7  UNL d   1       1.821   4.300   0.523  0.00  0.00    -0.073 A 
ATOM      7  C8  UNL d   1       3.187   4.425   1.140  0.00  0.00     0.078 C 
ENDROOT
BRANCH   1   8
ATOM      8  C1  UNL d   1       2.385   6.000  -1.307  0.00  0.00     0.053 C 
ATOM      9  C   UNL d   1       2.220   5.999  -2.819  0.00  0.00     0.018 C 
ENDBRANCH   1   8
TORSDOF 1
ENDMDL
