MODEL 1
REMARK minimizedAffinity 10.6060505
REMARK minimizedRMSD -1
REMARK  1 active torsions:
REMARK  status: ('A' for Active; 'I' for Inactive)
REMARK    1  A    between atoms: C1_2  and  C2_3 
ROOT
ATOM      1  C2  UNL d   1       0.485   0.735  -0.079  0.00  0.00    -0.076 A 
ATOM      2  C3  UNL d   1       0.464   0.231   1.233  0.00  0.00     0.004 A 
ATOM      3  C4  UNL d   1       1.131  -0.949   1.560  0.00  0.00    -0.003 A 
ATOM      4  C5  UNL d   1       1.830  -1.643   0.579  0.00  0.00     0.000 A 
ATOM      5  C6  UNL d   1       1.877  -1.149  -0.724  0.00  0.00     0.000 A 
ATOM      6  C7  UNL d   1       1.223   0.047  -1.066  0.00  0.00    -0.073 A 
ATOM      7  C8  UNL d   1       1.301   0.531  -2.488  0.00  0.00     0.078 C 
ENDROOT
BRANCH   1   8
ATOM      8  C1  UNL d   1      -0.280   2.004  -0.380  0.00  0.00     0.053 C 
ATOM      9  C   UNL d   1       0.531   3.256  -0.086  0.00  0.00     0.018 C 
ENDBRANCH   1   8
TORSDOF 1
ENDMDL
