MODEL 1
REMARK minimizedAffinity 6.87245464
REMARK minimizedRMSD -1
REMARK  1 active torsions:
REMARK  status: ('A' for Active; 'I' for Inactive)
REMARK    1  A    between atoms: C1_2  and  C2_3 
ROOT
ATOM      1  C2  UNL d   1       4.890  -2.890  -0.141  0.00  0.00    -0.076 A 
ATOM      2  C3  UNL d   1       4.196  -2.405   0.982  0.00  0.00     0.004 A 
ATOM      3  C4  UNL d   1       3.282  -1.359   0.864  0.00  0.00    -0.003 A 
ATOM      4  C5  UNL d   1       3.046  -0.782  -0.379  0.00  0.00     0.000 A 
ATOM      5  C6  UNL d   1       3.712  -1.263  -1.506  0.00  0.00     0.000 A 
ATOM      6  C7  UNL d   1       4.625  -2.327  -1.407  0.00  0.00    -0.073 A 
ATOM      7  C8  UNL d   1       5.319  -2.801  -2.654  0.00  0.00     0.078 C 
ENDROOT
BRANCH   1   8
ATOM      8  C1  UNL d   1       5.890  -4.007   0.053  0.00  0.00     0.053 C 
ATOM      9  C   UNL d   1       5.269  -5.240   0.693  0.00  0.00     0.018 C 
ENDBRANCH   1   8
TORSDOF 1
ENDMDL
