MODEL 1
REMARK minimizedAffinity 5.1931386
REMARK minimizedRMSD -1
REMARK  1 active torsions:
REMARK  status: ('A' for Active; 'I' for Inactive)
REMARK    1  A    between atoms: C1_2  and  C2_3 
ROOT
ATOM      1  C2  UNL d   1       0.751   1.037  -1.285  0.00  0.00    -0.076 A 
ATOM      2  C3  UNL d   1       0.996   1.730  -0.087  0.00  0.00     0.004 A 
ATOM      3  C4  UNL d   1       0.257   2.862   0.251  0.00  0.00    -0.003 A 
ATOM      4  C5  UNL d   1      -0.741   3.319  -0.603  0.00  0.00     0.000 A 
ATOM      5  C6  UNL d   1      -1.009   2.634  -1.787  0.00  0.00     0.000 A 
ATOM      6  C7  UNL d   1      -0.284   1.481  -2.135  0.00  0.00    -0.073 A 
ATOM      7  C8  UNL d   1      -0.612   0.785  -3.427  0.00  0.00     0.078 C 
ENDROOT
BRANCH   1   8
ATOM      8  C1  UNL d   1       1.603  -0.169  -1.612  0.00  0.00     0.053 C 
ATOM      9  C   UNL d   1       2.111  -0.878  -0.367  0.00  0.00     0.018 C 
ENDBRANCH   1   8
TORSDOF 1
ENDMDL
