MODEL 1
REMARK minimizedAffinity -5.90486002
REMARK minimizedRMSD -1
REMARK  2 active torsions:
REMARK  status: ('A' for Active; 'I' for Inactive)
REMARK    1  A    between atoms: C1_2  and  C2_3 
REMARK    2  A    between atoms: C2_3  and  C3_4 
ROOT
ATOM      1  C3  UNL d   1      -0.401   0.560  -1.035  0.00  0.00    -0.075 A 
ATOM      2  C4  UNL d   1      -0.431  -0.053   0.225  0.00  0.00     0.002 A 
ATOM      3  C5  UNL d   1      -1.221   0.470   1.249  0.00  0.00     0.002 A 
ATOM      4  C6  UNL d   1      -1.980   1.617   1.030  0.00  0.00    -0.004 A 
ATOM      5  C7  UNL d   1      -1.945   2.245  -0.213  0.00  0.00     0.002 A 
ATOM      6  C8  UNL d   1      -1.159   1.721  -1.241  0.00  0.00     0.002 A 
ENDROOT
BRANCH   1   7
ATOM      7  C2  UNL d   1       0.429  -0.018  -2.157  0.00  0.00     0.056 C 
BRANCH   7   8
ATOM      8  C1  UNL d   1      -0.321  -1.031  -3.029  0.00  0.00     0.007 C 
ATOM      9  C   UNL d   1       0.200  -2.454  -2.879  0.00  0.00     0.009 C 
ENDBRANCH   7   8
ENDBRANCH   1   7
TORSDOF 2
ENDMDL
