MODEL 1
REMARK minimizedAffinity -4.25985527
REMARK minimizedRMSD -1
REMARK  2 active torsions:
REMARK  status: ('A' for Active; 'I' for Inactive)
REMARK    1  A    between atoms: C1_2  and  C2_3 
REMARK    2  A    between atoms: C2_3  and  C3_4 
ROOT
ATOM      1  C3  UNL d   1      -1.226   0.914   0.194  0.00  0.00    -0.075 A 
ATOM      2  C4  UNL d   1      -0.592  -0.325   0.367  0.00  0.00     0.002 A 
ATOM      3  C5  UNL d   1       0.604  -0.606  -0.293  0.00  0.00     0.002 A 
ATOM      4  C6  UNL d   1       1.176   0.341  -1.140  0.00  0.00    -0.004 A 
ATOM      5  C7  UNL d   1       0.546   1.569  -1.332  0.00  0.00     0.002 A 
ATOM      6  C8  UNL d   1      -0.649   1.855  -0.670  0.00  0.00     0.002 A 
ENDROOT
BRANCH   1   7
ATOM      7  C2  UNL d   1      -2.505   1.237   0.928  0.00  0.00     0.056 C 
BRANCH   7   8
ATOM      8  C1  UNL d   1      -2.344   2.289   2.030  0.00  0.00     0.007 C 
ATOM      9  C   UNL d   1      -1.021   2.179   2.776  0.00  0.00     0.009 C 
ENDBRANCH   7   8
ENDBRANCH   1   7
TORSDOF 2
ENDMDL
