MODEL 1
REMARK minimizedAffinity -3.80135751
REMARK minimizedRMSD -1
REMARK  2 active torsions:
REMARK  status: ('A' for Active; 'I' for Inactive)
REMARK    1  A    between atoms: C1_2  and  C2_3 
REMARK    2  A    between atoms: C2_3  and  C3_4 
ROOT
ATOM      1  C3  UNL d   1       0.573  -0.504  -0.312  0.00  0.00    -0.075 A 
ATOM      2  C4  UNL d   1      -0.090  -0.534   0.924  0.00  0.00     0.002 A 
ATOM      3  C5  UNL d   1      -0.581   0.642   1.492  0.00  0.00     0.002 A 
ATOM      4  C6  UNL d   1      -0.408   1.860   0.840  0.00  0.00    -0.004 A 
ATOM      5  C7  UNL d   1       0.263   1.904  -0.381  0.00  0.00     0.002 A 
ATOM      6  C8  UNL d   1       0.752   0.728  -0.954  0.00  0.00     0.002 A 
ENDROOT
BRANCH   1   7
ATOM      7  C2  UNL d   1       1.081  -1.777  -0.947  0.00  0.00     0.056 C 
BRANCH   7   8
ATOM      8  C1  UNL d   1       0.435  -2.101  -2.298  0.00  0.00     0.007 C 
ATOM      9  C   UNL d   1       0.488  -3.582  -2.648  0.00  0.00     0.009 C 
ENDBRANCH   7   8
ENDBRANCH   1   7
TORSDOF 2
ENDMDL
