MODEL 1
REMARK minimizedAffinity -0.356627107
REMARK minimizedRMSD -1
REMARK  2 active torsions:
REMARK  status: ('A' for Active; 'I' for Inactive)
REMARK    1  A    between atoms: C1_2  and  C2_3 
REMARK    2  A    between atoms: C2_3  and  C3_4 
ROOT
ATOM      1  C3  UNL d   1       0.482   0.138   0.568  0.00  0.00    -0.075 A 
ATOM      2  C4  UNL d   1       1.107   1.344   0.221  0.00  0.00     0.002 A 
ATOM      3  C5  UNL d   1       0.813   1.971  -0.990  0.00  0.00     0.002 A 
ATOM      4  C6  UNL d   1      -0.100   1.397  -1.872  0.00  0.00    -0.004 A 
ATOM      5  C7  UNL d   1      -0.713   0.189  -1.545  0.00  0.00     0.002 A 
ATOM      6  C8  UNL d   1      -0.424  -0.438  -0.332  0.00  0.00     0.002 A 
ENDROOT
BRANCH   1   7
ATOM      7  C2  UNL d   1       0.774  -0.531   1.890  0.00  0.00     0.056 C 
BRANCH   7   8
ATOM      8  C1  UNL d   1      -0.340  -0.369   2.930  0.00  0.00     0.007 C 
ATOM      9  C   UNL d   1      -1.083   0.954   2.812  0.00  0.00     0.009 C 
ENDBRANCH   7   8
ENDBRANCH   1   7
TORSDOF 2
ENDMDL
