MODEL 1
REMARK minimizedAffinity 1.05986607
REMARK minimizedRMSD -1
REMARK  2 active torsions:
REMARK  status: ('A' for Active; 'I' for Inactive)
REMARK    1  A    between atoms: C1_2  and  C2_3 
REMARK    2  A    between atoms: C2_3  and  C3_4 
ROOT
ATOM      1  C3  UNL d   1       3.623  -2.985  -3.677  0.00  0.00    -0.075 A 
ATOM      2  C4  UNL d   1       4.585  -3.002  -2.657  0.00  0.00     0.002 A 
ATOM      3  C5  UNL d   1       5.763  -2.266  -2.781  0.00  0.00     0.002 A 
ATOM      4  C6  UNL d   1       6.000  -1.513  -3.929  0.00  0.00    -0.004 A 
ATOM      5  C7  UNL d   1       5.059  -1.502  -4.957  0.00  0.00     0.002 A 
ATOM      6  C8  UNL d   1       3.877  -2.234  -4.833  0.00  0.00     0.002 A 
ENDROOT
BRANCH   1   7
ATOM      7  C2  UNL d   1       2.333  -3.756  -3.536  0.00  0.00     0.056 C 
BRANCH   7   8
ATOM      8  C1  UNL d   1       1.501  -3.361  -2.312  0.00  0.00     0.007 C 
ATOM      9  C   UNL d   1       0.028  -3.725  -2.443  0.00  0.00     0.009 C 
ENDBRANCH   7   8
ENDBRANCH   1   7
TORSDOF 2
ENDMDL
