MODEL 1
REMARK minimizedAffinity -4.72208166
REMARK minimizedRMSD -1
REMARK  2 active torsions:
REMARK  status: ('A' for Active; 'I' for Inactive)
REMARK    1  A    between atoms: C1_2  and  C2_3 
REMARK    2  A    between atoms: C2_3  and  C3_4 
ROOT
ATOM      1  C3  UNL d   1       0.344  -1.067  -1.117  0.00  0.00    -0.075 A 
ATOM      2  C4  UNL d   1      -0.105  -0.765  -2.411  0.00  0.00     0.002 A 
ATOM      3  C5  UNL d   1      -0.329  -1.783  -3.338  0.00  0.00     0.002 A 
ATOM      4  C6  UNL d   1      -0.099  -3.111  -2.988  0.00  0.00    -0.004 A 
ATOM      5  C7  UNL d   1       0.363  -3.421  -1.711  0.00  0.00     0.002 A 
ATOM      6  C8  UNL d   1       0.584  -2.405  -0.780  0.00  0.00     0.002 A 
ENDROOT
BRANCH   1   7
ATOM      7  C2  UNL d   1       0.560   0.028  -0.099  0.00  0.00     0.056 C 
BRANCH   7   8
ATOM      8  C1  UNL d   1       0.107  -0.340   1.318  0.00  0.00     0.007 C 
ATOM      9  C   UNL d   1      -0.881   0.657   1.909  0.00  0.00     0.009 C 
ENDBRANCH   7   8
ENDBRANCH   1   7
TORSDOF 2
ENDMDL
