MODEL 1
REMARK minimizedAffinity -6.0490427
REMARK minimizedRMSD -1
REMARK  2 active torsions:
REMARK  status: ('A' for Active; 'I' for Inactive)
REMARK    1  A    between atoms: C1_2  and  C2_3 
REMARK    2  A    between atoms: C2_3  and  C3_4 
ROOT
ATOM      1  C3  UNL d   1      -0.045   1.052  -0.562  0.00  0.00    -0.075 A 
ATOM      2  C4  UNL d   1      -0.783   0.344   0.397  0.00  0.00     0.002 A 
ATOM      3  C5  UNL d   1      -1.702   1.004   1.213  0.00  0.00     0.002 A 
ATOM      4  C6  UNL d   1      -1.886   2.379   1.089  0.00  0.00    -0.004 A 
ATOM      5  C7  UNL d   1      -1.146   3.096   0.151  0.00  0.00     0.002 A 
ATOM      6  C8  UNL d   1      -0.229   2.437  -0.670  0.00  0.00     0.002 A 
ENDROOT
BRANCH   1   7
ATOM      7  C2  UNL d   1       0.929   0.338  -1.469  0.00  0.00     0.056 C 
BRANCH   7   8
ATOM      8  C1  UNL d   1       0.736  -1.181  -1.520  0.00  0.00     0.007 C 
ATOM      9  C   UNL d   1      -0.099  -1.640  -2.708  0.00  0.00     0.009 C 
ENDBRANCH   7   8
ENDBRANCH   1   7
TORSDOF 2
ENDMDL
