MODEL 1
REMARK minimizedAffinity -5.18893862
REMARK minimizedRMSD -1
REMARK  2 active torsions:
REMARK  status: ('A' for Active; 'I' for Inactive)
REMARK    1  A    between atoms: C1_2  and  C2_3 
REMARK    2  A    between atoms: C2_3  and  C3_4 
ROOT
ATOM      1  C3  UNL d   1      -0.063   0.179   0.040  0.00  0.00    -0.075 A 
ATOM      2  C4  UNL d   1      -1.006   1.211  -0.070  0.00  0.00     0.002 A 
ATOM      3  C5  UNL d   1      -1.691   1.667   1.057  0.00  0.00     0.002 A 
ATOM      4  C6  UNL d   1      -1.451   1.092   2.303  0.00  0.00    -0.004 A 
ATOM      5  C7  UNL d   1      -0.529   0.054   2.420  0.00  0.00     0.002 A 
ATOM      6  C8  UNL d   1       0.162  -0.401   1.296  0.00  0.00     0.002 A 
ENDROOT
BRANCH   1   7
ATOM      7  C2  UNL d   1       0.703  -0.299  -1.170  0.00  0.00     0.056 C 
BRANCH   7   8
ATOM      8  C1  UNL d   1       0.630  -1.813  -1.397  0.00  0.00     0.007 C 
ATOM      9  C   UNL d   1       0.289  -2.190  -2.832  0.00  0.00     0.009 C 
ENDBRANCH   7   8
ENDBRANCH   1   7
TORSDOF 2
ENDMDL
