MODEL 1
REMARK minimizedAffinity -4.921381
REMARK minimizedRMSD -1
REMARK  2 active torsions:
REMARK  status: ('A' for Active; 'I' for Inactive)
REMARK    1  A    between atoms: C1_2  and  C2_3 
REMARK    2  A    between atoms: C2_3  and  C3_4 
ROOT
ATOM      1  C3  UNL d   1       0.101  -0.316   0.289  0.00  0.00    -0.075 A 
ATOM      2  C4  UNL d   1       0.218   1.071   0.121  0.00  0.00     0.002 A 
ATOM      3  C5  UNL d   1      -0.456   1.948   0.973  0.00  0.00     0.002 A 
ATOM      4  C6  UNL d   1      -1.261   1.449   1.994  0.00  0.00    -0.004 A 
ATOM      5  C7  UNL d   1      -1.398   0.073   2.160  0.00  0.00     0.002 A 
ATOM      6  C8  UNL d   1      -0.722  -0.806   1.312  0.00  0.00     0.002 A 
ENDROOT
BRANCH   1   7
ATOM      7  C2  UNL d   1       0.850  -1.269  -0.611  0.00  0.00     0.056 C 
BRANCH   7   8
ATOM      8  C1  UNL d   1       0.002  -1.852  -1.746  0.00  0.00     0.007 C 
ATOM      9  C   UNL d   1       0.494  -3.212  -2.225  0.00  0.00     0.009 C 
ENDBRANCH   7   8
ENDBRANCH   1   7
TORSDOF 2
ENDMDL
