MODEL 1
REMARK minimizedAffinity -3.9733007
REMARK minimizedRMSD -1
REMARK  2 active torsions:
REMARK  status: ('A' for Active; 'I' for Inactive)
REMARK    1  A    between atoms: C1_2  and  C2_3 
REMARK    2  A    between atoms: C2_3  and  C3_4 
ROOT
ATOM      1  C3  UNL d   1       0.343  -1.197  -0.926  0.00  0.00    -0.075 A 
ATOM      2  C4  UNL d   1      -0.427  -0.918  -2.065  0.00  0.00     0.002 A 
ATOM      3  C5  UNL d   1      -0.756  -1.934  -2.963  0.00  0.00     0.002 A 
ATOM      4  C6  UNL d   1      -0.313  -3.236  -2.740  0.00  0.00    -0.004 A 
ATOM      5  C7  UNL d   1       0.466  -3.521  -1.621  0.00  0.00     0.002 A 
ATOM      6  C8  UNL d   1       0.794  -2.508  -0.719  0.00  0.00     0.002 A 
ENDROOT
BRANCH   1   7
ATOM      7  C2  UNL d   1       0.679  -0.108   0.065  0.00  0.00     0.056 C 
BRANCH   7   8
ATOM      8  C1  UNL d   1       0.324  -0.454   1.515  0.00  0.00     0.007 C 
ATOM      9  C   UNL d   1      -0.464   0.643   2.218  0.00  0.00     0.009 C 
ENDBRANCH   7   8
ENDBRANCH   1   7
TORSDOF 2
ENDMDL
