MODEL 1
REMARK minimizedAffinity -0.511963308
REMARK minimizedRMSD -1
REMARK  2 active torsions:
REMARK  status: ('A' for Active; 'I' for Inactive)
REMARK    1  A    between atoms: C1_2  and  C2_3 
REMARK    2  A    between atoms: C2_3  and  C3_4 
ROOT
ATOM      1  C3  UNL d   1      -2.312   1.942  -1.936  0.00  0.00    -0.075 A 
ATOM      2  C4  UNL d   1      -3.394   1.140  -2.325  0.00  0.00     0.002 A 
ATOM      3  C5  UNL d   1      -4.361   1.631  -3.203  0.00  0.00     0.002 A 
ATOM      4  C6  UNL d   1      -4.265   2.931  -3.693  0.00  0.00    -0.004 A 
ATOM      5  C7  UNL d   1      -3.203   3.743  -3.300  0.00  0.00     0.002 A 
ATOM      6  C8  UNL d   1      -2.232   3.253  -2.426  0.00  0.00     0.002 A 
ENDROOT
BRANCH   1   7
ATOM      7  C2  UNL d   1      -1.247   1.407  -1.010  0.00  0.00     0.056 C 
BRANCH   7   8
ATOM      8  C1  UNL d   1      -1.778   0.455   0.068  0.00  0.00     0.007 C 
ATOM      9  C   UNL d   1      -0.681  -0.118   0.956  0.00  0.00     0.009 C 
ENDBRANCH   7   8
ENDBRANCH   1   7
TORSDOF 2
ENDMDL
