MODEL 1
REMARK minimizedAffinity 12.7769728
REMARK minimizedRMSD -1
REMARK  0 active torsions:
REMARK  status: ('A' for Active; 'I' for Inactive)
ROOT
ATOM      1  C   UNL d   1      -3.756   0.140  -2.488  0.00  0.00    -0.002 A 
ATOM      2  C1  UNL d   1      -5.140   0.054  -2.525  0.00  0.00     0.010 A 
ATOM      3  C2  UNL d   1      -5.908   1.137  -2.959  0.00  0.00     0.041 A 
ATOM      4  C3  UNL d   1      -5.254   2.319  -3.359  0.00  0.00    -0.075 A 
ATOM      5  S   UNL d   1      -5.988   3.772  -3.927  0.00  0.00     0.015 SA
ATOM      6  C4  UNL d   1      -4.481   4.540  -4.135  0.00  0.00     0.022 A 
ATOM      7  C5  UNL d   1      -3.432   3.723  -3.784  0.00  0.00     0.026 A 
ATOM      8  C6  UNL d   1      -3.860   2.429  -3.332  0.00  0.00    -0.082 A 
ATOM      9  C7  UNL d   1      -3.111   1.314  -2.886  0.00  0.00     0.045 A 
ENDROOT
TORSDOF 0
ENDMDL
