MODEL 1
REMARK minimizedAffinity 6.08674097
REMARK minimizedRMSD -1
REMARK  0 active torsions:
REMARK  status: ('A' for Active; 'I' for Inactive)
ROOT
ATOM      1  C   UNL d   1      -3.928   0.955  -2.741  0.00  0.00    -0.002 A 
ATOM      2  C1  UNL d   1      -5.254   0.773  -3.108  0.00  0.00     0.010 A 
ATOM      3  C2  UNL d   1      -5.969   1.805  -3.719  0.00  0.00     0.041 A 
ATOM      4  C3  UNL d   1      -5.323   3.033  -3.960  0.00  0.00    -0.075 A 
ATOM      5  S   UNL d   1      -5.999   4.438  -4.696  0.00  0.00     0.015 SA
ATOM      6  C4  UNL d   1      -4.544   5.311  -4.542  0.00  0.00     0.022 A 
ATOM      7  C5  UNL d   1      -3.556   4.565  -3.945  0.00  0.00     0.026 A 
ATOM      8  C6  UNL d   1      -3.988   3.240  -3.600  0.00  0.00    -0.082 A 
ATOM      9  C7  UNL d   1      -3.290   2.175  -2.981  0.00  0.00     0.045 A 
ENDROOT
TORSDOF 0
ENDMDL
