MODEL 1
REMARK minimizedAffinity 3.19926763
REMARK minimizedRMSD -1
REMARK  0 active torsions:
REMARK  status: ('A' for Active; 'I' for Inactive)
ROOT
ATOM      1  C   UNL d   1      -3.377   1.543  -3.378  0.00  0.00    -0.002 A 
ATOM      2  C1  UNL d   1      -4.219   0.880  -4.260  0.00  0.00     0.010 A 
ATOM      3  C2  UNL d   1      -5.065   1.597  -5.108  0.00  0.00     0.041 A 
ATOM      4  C3  UNL d   1      -5.050   3.005  -5.055  0.00  0.00    -0.075 A 
ATOM      5  S   UNL d   1      -6.000   4.091  -6.000  0.00  0.00     0.015 SA
ATOM      6  C4  UNL d   1      -5.310   5.460  -5.255  0.00  0.00     0.022 A 
ATOM      7  C5  UNL d   1      -4.377   5.115  -4.306  0.00  0.00     0.026 A 
ATOM      8  C6  UNL d   1      -4.211   3.694  -4.176  0.00  0.00    -0.082 A 
ATOM      9  C7  UNL d   1      -3.365   2.939  -3.328  0.00  0.00     0.045 A 
ENDROOT
TORSDOF 0
ENDMDL
