MODEL 1
REMARK minimizedAffinity 13.5497084
REMARK minimizedRMSD -1
REMARK  0 active torsions:
REMARK  status: ('A' for Active; 'I' for Inactive)
ROOT
ATOM      1  C   UNL d   1      -3.904   1.019  -2.411  0.00  0.00    -0.002 A 
ATOM      2  C1  UNL d   1      -5.274   0.874  -2.578  0.00  0.00     0.010 A 
ATOM      3  C2  UNL d   1      -6.000   1.800  -3.330  0.00  0.00     0.041 A 
ATOM      4  C3  UNL d   1      -5.319   2.883  -3.919  0.00  0.00    -0.075 A 
ATOM      5  S   UNL d   1      -6.000   4.139  -4.884  0.00  0.00     0.015 SA
ATOM      6  C4  UNL d   1      -4.488   4.897  -5.098  0.00  0.00     0.022 A 
ATOM      7  C5  UNL d   1      -3.478   4.222  -4.456  0.00  0.00     0.026 A 
ATOM      8  C6  UNL d   1      -3.939   3.050  -3.767  0.00  0.00    -0.082 A 
ATOM      9  C7  UNL d   1      -3.232   2.095  -2.997  0.00  0.00     0.045 A 
ENDROOT
TORSDOF 0
ENDMDL
