MODEL 1
REMARK minimizedAffinity 3.54150486
REMARK minimizedRMSD -1
REMARK  0 active torsions:
REMARK  status: ('A' for Active; 'I' for Inactive)
ROOT
ATOM      1  C   UNL d   1       2.119  -0.684   0.508  0.00  0.00    -0.002 A 
ATOM      2  C1  UNL d   1       1.700  -1.939   0.926  0.00  0.00     0.010 A 
ATOM      3  C2  UNL d   1       2.494  -3.065   0.699  0.00  0.00     0.041 A 
ATOM      4  C3  UNL d   1       3.729  -2.907   0.039  0.00  0.00    -0.075 A 
ATOM      5  S   UNL d   1       4.867  -4.143  -0.348  0.00  0.00     0.015 SA
ATOM      6  C4  UNL d   1       5.936  -3.034  -1.076  0.00  0.00     0.022 A 
ATOM      7  C5  UNL d   1       5.453  -1.748  -1.035  0.00  0.00     0.026 A 
ATOM      8  C6  UNL d   1       4.172  -1.653  -0.391  0.00  0.00    -0.082 A 
ATOM      9  C7  UNL d   1       3.345  -0.531  -0.146  0.00  0.00     0.045 A 
ENDROOT
TORSDOF 0
ENDMDL
