MODEL 1
REMARK minimizedAffinity 3.40625024
REMARK minimizedRMSD -1
REMARK  0 active torsions:
REMARK  status: ('A' for Active; 'I' for Inactive)
ROOT
ATOM      1  C   UNL d   1      -5.994  -3.503  -5.838  0.00  0.00     0.172 C 
ATOM      2  N   UNL d   1      -5.986  -3.070  -4.460  0.00  0.00    -0.070 N 
ATOM      3  C1  UNL d   1      -5.997  -1.770  -4.032  0.00  0.00    -0.004 A 
ATOM      4  C2  UNL d   1      -5.984  -1.779  -2.654  0.00  0.00    -0.047 A 
ATOM      5  C3  UNL d   1      -5.964  -3.132  -2.240  0.00  0.00    -0.047 A 
ATOM      6  C4  UNL d   1      -5.966  -3.910  -3.378  0.00  0.00    -0.004 A 
ENDROOT
TORSDOF 0
ENDMDL
