MODEL 1
REMARK minimizedAffinity 10.9685593
REMARK minimizedRMSD -1
REMARK  0 active torsions:
REMARK  status: ('A' for Active; 'I' for Inactive)
ROOT
ATOM      1  C   UNL d   1      -1.391  -4.510  -5.992  0.00  0.00     0.172 C 
ATOM      2  N   UNL d   1      -2.811  -4.761  -5.912  0.00  0.00    -0.070 N 
ATOM      3  C1  UNL d   1      -3.781  -3.811  -5.737  0.00  0.00    -0.004 A 
ATOM      4  C2  UNL d   1      -5.001  -4.453  -5.713  0.00  0.00    -0.047 A 
ATOM      5  C3  UNL d   1      -4.754  -5.837  -5.879  0.00  0.00    -0.047 A 
ATOM      6  C4  UNL d   1      -3.391  -5.999  -5.999  0.00  0.00    -0.004 A 
ENDROOT
TORSDOF 0
ENDMDL
