MODEL 1
REMARK minimizedAffinity 0.769805431
REMARK minimizedRMSD -1
REMARK  0 active torsions:
REMARK  status: ('A' for Active; 'I' for Inactive)
ROOT
ATOM      1  C   UNL d   1      -1.927   0.571   2.083  0.00  0.00     0.172 C 
ATOM      2  N   UNL d   1      -2.958   1.571   1.939  0.00  0.00    -0.070 N 
ATOM      3  C1  UNL d   1      -2.861   2.880   2.327  0.00  0.00    -0.004 A 
ATOM      4  C2  UNL d   1      -4.051   3.502   2.018  0.00  0.00    -0.047 A 
ATOM      5  C3  UNL d   1      -4.894   2.532   1.424  0.00  0.00    -0.047 A 
ATOM      6  C4  UNL d   1      -4.192   1.345   1.388  0.00  0.00    -0.004 A 
ENDROOT
TORSDOF 0
ENDMDL
