MODEL 1
REMARK minimizedAffinity 1.0976423
REMARK minimizedRMSD -1
REMARK  0 active torsions:
REMARK  status: ('A' for Active; 'I' for Inactive)
ROOT
ATOM      1  C   UNL d   1      -5.999  -1.860  -3.411  0.00  0.00     0.172 C 
ATOM      2  N   UNL d   1      -5.518  -2.828  -4.368  0.00  0.00    -0.070 N 
ATOM      3  C1  UNL d   1      -6.000  -4.100  -4.528  0.00  0.00    -0.004 A 
ATOM      4  C2  UNL d   1      -5.280  -4.700  -5.538  0.00  0.00    -0.047 A 
ATOM      5  C3  UNL d   1      -4.331  -3.757  -6.000  0.00  0.00    -0.047 A 
ATOM      6  C4  UNL d   1      -4.500  -2.607  -5.258  0.00  0.00    -0.004 A 
ENDROOT
TORSDOF 0
ENDMDL
