MODEL 1
REMARK minimizedAffinity 7.08754396
REMARK minimizedRMSD -1
REMARK  0 active torsions:
REMARK  status: ('A' for Active; 'I' for Inactive)
ROOT
ATOM      1  C   UNL d   1      -2.251  -0.988   4.108  0.00  0.00     0.172 C 
ATOM      2  N   UNL d   1      -1.943  -0.266   2.895  0.00  0.00    -0.070 N 
ATOM      3  C1  UNL d   1      -2.744  -0.188   1.787  0.00  0.00    -0.004 A 
ATOM      4  C2  UNL d   1      -2.096   0.590   0.852  0.00  0.00    -0.047 A 
ATOM      5  C3  UNL d   1      -0.862   0.993   1.418  0.00  0.00    -0.047 A 
ATOM      6  C4  UNL d   1      -0.794   0.449   2.683  0.00  0.00    -0.004 A 
ENDROOT
TORSDOF 0
ENDMDL
