MODEL 1
REMARK minimizedAffinity 4.97784615
REMARK minimizedRMSD -1
REMARK  0 active torsions:
REMARK  status: ('A' for Active; 'I' for Inactive)
ROOT
ATOM      1  C   UNL d   1      -5.864  -3.000  -2.347  0.00  0.00     0.172 C 
ATOM      2  N   UNL d   1      -5.818  -2.513  -0.988  0.00  0.00    -0.070 N 
ATOM      3  C1  UNL d   1      -5.591  -3.277   0.126  0.00  0.00    -0.004 A 
ATOM      4  C2  UNL d   1      -5.626  -2.443   1.223  0.00  0.00    -0.047 A 
ATOM      5  C3  UNL d   1      -5.884  -1.134   0.752  0.00  0.00    -0.047 A 
ATOM      6  C4  UNL d   1      -5.999  -1.206  -0.620  0.00  0.00    -0.004 A 
ENDROOT
TORSDOF 0
ENDMDL
