MODEL 1
REMARK minimizedAffinity 0.888480186
REMARK minimizedRMSD -1
REMARK  0 active torsions:
REMARK  status: ('A' for Active; 'I' for Inactive)
ROOT
ATOM      1  C   UNL d   1      -5.827  -3.592  -5.751  0.00  0.00     0.172 C 
ATOM      2  N   UNL d   1      -5.828  -3.053  -4.411  0.00  0.00    -0.070 N 
ATOM      3  C1  UNL d   1      -5.877  -3.788  -3.256  0.00  0.00    -0.004 A 
ATOM      4  C2  UNL d   1      -5.859  -2.907  -2.195  0.00  0.00    -0.047 A 
ATOM      5  C3  UNL d   1      -5.799  -1.599  -2.732  0.00  0.00    -0.047 A 
ATOM      6  C4  UNL d   1      -5.780  -1.719  -4.105  0.00  0.00    -0.004 A 
ENDROOT
TORSDOF 0
ENDMDL
