MODEL 1
REMARK minimizedAffinity 7.42711306
REMARK minimizedRMSD -1
REMARK  0 active torsions:
REMARK  status: ('A' for Active; 'I' for Inactive)
ROOT
ATOM      1  C   UNL d   1      -1.918  -3.064  -5.998  0.00  0.00     0.172 C 
ATOM      2  N   UNL d   1      -2.079  -1.629  -5.989  0.00  0.00    -0.070 N 
ATOM      3  C1  UNL d   1      -3.273  -0.960  -5.999  0.00  0.00    -0.004 A 
ATOM      4  C2  UNL d   1      -3.000   0.391  -5.984  0.00  0.00    -0.047 A 
ATOM      5  C3  UNL d   1      -1.593   0.538  -5.966  0.00  0.00    -0.047 A 
ATOM      6  C4  UNL d   1      -1.047  -0.728  -5.969  0.00  0.00    -0.004 A 
ENDROOT
TORSDOF 0
ENDMDL
