MODEL 1
REMARK minimizedAffinity -0.884002864
REMARK minimizedRMSD -1
REMARK  0 active torsions:
REMARK  status: ('A' for Active; 'I' for Inactive)
ROOT
ATOM      1  C   UNL d   1      -2.989  -0.873  -6.000  0.00  0.00     0.172 C 
ATOM      2  N   UNL d   1      -4.161  -1.570  -5.525  0.00  0.00    -0.070 N 
ATOM      3  C1  UNL d   1      -5.006  -1.132  -4.541  0.00  0.00    -0.004 A 
ATOM      4  C2  UNL d   1      -5.997  -2.077  -4.384  0.00  0.00    -0.047 A 
ATOM      5  C3  UNL d   1      -5.737  -3.119  -5.306  0.00  0.00    -0.047 A 
ATOM      6  C4  UNL d   1      -4.595  -2.780  -5.999  0.00  0.00    -0.004 A 
ENDROOT
TORSDOF 0
ENDMDL
