MODEL 1
REMARK minimizedAffinity 5.16512108
REMARK minimizedRMSD -1
REMARK  0 active torsions:
REMARK  status: ('A' for Active; 'I' for Inactive)
ROOT
ATOM      1  C   UNL d   1      -5.801  -1.976  -3.534  0.00  0.00     0.172 C 
ATOM      2  N   UNL d   1      -5.299  -2.897  -4.526  0.00  0.00    -0.070 N 
ATOM      3  C1  UNL d   1      -4.063  -2.842  -5.114  0.00  0.00    -0.004 A 
ATOM      4  C2  UNL d   1      -3.970  -3.894  -6.000  0.00  0.00    -0.047 A 
ATOM      5  C3  UNL d   1      -5.192  -4.605  -5.944  0.00  0.00    -0.047 A 
ATOM      6  C4  UNL d   1      -5.996  -3.966  -5.024  0.00  0.00    -0.004 A 
ENDROOT
TORSDOF 0
ENDMDL
