MODEL 1
REMARK minimizedAffinity 5.42227697
REMARK minimizedRMSD -1
REMARK  0 active torsions:
REMARK  status: ('A' for Active; 'I' for Inactive)
ROOT
ATOM      1  C   UNL d   1      -5.826  -2.238  -2.258  0.00  0.00     0.172 C 
ATOM      2  N   UNL d   1      -5.465  -2.417  -0.871  0.00  0.00    -0.070 N 
ATOM      3  C1  UNL d   1      -4.545  -3.313  -0.395  0.00  0.00    -0.004 A 
ATOM      4  C2  UNL d   1      -4.490  -3.173   0.975  0.00  0.00    -0.047 A 
ATOM      5  C3  UNL d   1      -5.409  -2.159   1.335  0.00  0.00    -0.047 A 
ATOM      6  C4  UNL d   1      -5.999  -1.708   0.172  0.00  0.00    -0.004 A 
ENDROOT
TORSDOF 0
ENDMDL
