MODEL 1
REMARK minimizedAffinity -1.82901871
REMARK minimizedRMSD -1
REMARK  0 active torsions:
REMARK  status: ('A' for Active; 'I' for Inactive)
ROOT
ATOM      1  C   UNL d   1      -5.423  -0.167   1.858  0.00  0.00     0.172 C 
ATOM      2  N   UNL d   1      -4.095   0.230   1.451  0.00  0.00    -0.070 N 
ATOM      3  C1  UNL d   1      -3.330   1.192   2.054  0.00  0.00    -0.004 A 
ATOM      4  C2  UNL d   1      -2.136   1.271   1.372  0.00  0.00    -0.047 A 
ATOM      5  C3  UNL d   1      -2.185   0.323   0.322  0.00  0.00    -0.047 A 
ATOM      6  C4  UNL d   1      -3.409  -0.307   0.394  0.00  0.00    -0.004 A 
ENDROOT
TORSDOF 0
ENDMDL
