MODEL 1
REMARK minimizedAffinity 3.66352487
REMARK minimizedRMSD -1
REMARK  0 active torsions:
REMARK  status: ('A' for Active; 'I' for Inactive)
ROOT
ATOM      1  C   UNL d   1      -1.916   0.633  -3.940  0.00  0.00     0.172 C 
ATOM      2  N   UNL d   1      -0.689   0.987  -3.266  0.00  0.00    -0.070 N 
ATOM      3  C1  UNL d   1      -0.558   1.948  -2.299  0.00  0.00    -0.004 A 
ATOM      4  C2  UNL d   1       0.765   1.980  -1.912  0.00  0.00    -0.047 A 
ATOM      5  C3  UNL d   1       1.452   1.005  -2.674  0.00  0.00    -0.047 A 
ATOM      6  C4  UNL d   1       0.529   0.406  -3.504  0.00  0.00    -0.004 A 
ENDROOT
TORSDOF 0
ENDMDL
