MODEL 1
REMARK minimizedAffinity 7.35129118
REMARK minimizedRMSD -1
REMARK  0 active torsions:
REMARK  status: ('A' for Active; 'I' for Inactive)
ROOT
ATOM      1  C   UNL d   1       4.468   0.536  -4.578  0.00  0.00     0.172 C 
ATOM      2  N   UNL d   1       4.881   1.867  -4.958  0.00  0.00    -0.070 N 
ATOM      3  C1  UNL d   1       4.316   2.626  -5.948  0.00  0.00    -0.004 A 
ATOM      4  C2  UNL d   1       4.992   3.826  -5.997  0.00  0.00    -0.047 A 
ATOM      5  C3  UNL d   1       6.000   3.785  -5.004  0.00  0.00    -0.047 A 
ATOM      6  C4  UNL d   1       5.909   2.561  -4.376  0.00  0.00    -0.004 A 
ENDROOT
TORSDOF 0
ENDMDL
