MODEL 1
REMARK minimizedAffinity -1.09426427
REMARK minimizedRMSD -1
REMARK  0 active torsions:
REMARK  status: ('A' for Active; 'I' for Inactive)
ROOT
ATOM      1  C   UNL d   1       0.232   0.026   2.508  0.00  0.00     0.172 C 
ATOM      2  N   UNL d   1      -1.076   0.426   2.047  0.00  0.00    -0.070 N 
ATOM      3  C1  UNL d   1      -2.194   0.549   2.828  0.00  0.00    -0.004 A 
ATOM      4  C2  UNL d   1      -3.234   0.950   2.017  0.00  0.00    -0.047 A 
ATOM      5  C3  UNL d   1      -2.723   1.072   0.703  0.00  0.00    -0.047 A 
ATOM      6  C4  UNL d   1      -1.385   0.741   0.750  0.00  0.00    -0.004 A 
ENDROOT
TORSDOF 0
ENDMDL
