MODEL 1
REMARK minimizedAffinity 4.73651934
REMARK minimizedRMSD -1
REMARK  0 active torsions:
REMARK  status: ('A' for Active; 'I' for Inactive)
ROOT
ATOM      1  C   UNL d   1      -4.075   0.884   3.736  0.00  0.00     0.172 C 
ATOM      2  N   UNL d   1      -3.183   0.885   2.601  0.00  0.00    -0.070 N 
ATOM      3  C1  UNL d   1      -1.938   1.454   2.564  0.00  0.00    -0.004 A 
ATOM      4  C2  UNL d   1      -1.412   1.239   1.309  0.00  0.00    -0.047 A 
ATOM      5  C3  UNL d   1      -2.375   0.515   0.565  0.00  0.00    -0.047 A 
ATOM      6  C4  UNL d   1      -3.461   0.310   1.389  0.00  0.00    -0.004 A 
ENDROOT
TORSDOF 0
ENDMDL
