MODEL 1
REMARK minimizedAffinity -0.00999748148
REMARK minimizedRMSD -1
REMARK  0 active torsions:
REMARK  status: ('A' for Active; 'I' for Inactive)
ROOT
ATOM      1  C   UNL d   1       1.243  -2.041  -5.996  0.00  0.00     0.172 C 
ATOM      2  N   UNL d   1       2.022  -1.170  -5.146  0.00  0.00    -0.070 N 
ATOM      3  C1  UNL d   1       2.807  -1.571  -4.098  0.00  0.00    -0.004 A 
ATOM      4  C2  UNL d   1       3.380  -0.446  -3.545  0.00  0.00    -0.047 A 
ATOM      5  C3  UNL d   1       2.922   0.669  -4.286  0.00  0.00    -0.047 A 
ATOM      6  C4  UNL d   1       2.083   0.192  -5.271  0.00  0.00    -0.004 A 
ENDROOT
TORSDOF 0
ENDMDL
