MODEL 1
REMARK minimizedAffinity -4.54047012
REMARK minimizedRMSD -1
REMARK  1 active torsions:
REMARK  status: ('A' for Active; 'I' for Inactive)
REMARK    1  A    between atoms: C1_2  and  C2_3 
ROOT
ATOM      1  C2  UNL d   1       0.373   0.045   0.273  0.00  0.00    -0.077 A 
ATOM      2  C3  UNL d   1       1.724  -0.119   0.606  0.00  0.00     0.002 A 
ATOM      3  C4  UNL d   1       2.087  -0.626   1.856  0.00  0.00     0.002 A 
ATOM      4  C5  UNL d   1       1.105  -0.976   2.779  0.00  0.00    -0.004 A 
ATOM      5  C6  UNL d   1      -0.243  -0.815   2.458  0.00  0.00     0.002 A 
ATOM      6  C7  UNL d   1      -0.607  -0.308   1.210  0.00  0.00     0.002 A 
ENDROOT
BRANCH   1   7
ATOM      7  C1  UNL d   1      -0.022   0.545  -1.092  0.00  0.00     0.055 C 
ATOM      8  C   UNL d   1       0.354   2.008  -1.276  0.00  0.00     0.019 C 
ENDBRANCH   1   7
TORSDOF 1
ENDMDL
