MODEL 1
REMARK minimizedAffinity -3.81845474
REMARK minimizedRMSD -1
REMARK  1 active torsions:
REMARK  status: ('A' for Active; 'I' for Inactive)
REMARK    1  A    between atoms: C1_2  and  C2_3 
ROOT
ATOM      1  C2  UNL d   1      -0.353  -1.442   2.451  0.00  0.00    -0.077 A 
ATOM      2  C3  UNL d   1       1.047  -1.388   2.419  0.00  0.00     0.002 A 
ATOM      3  C4  UNL d   1       1.702  -0.600   1.471  0.00  0.00     0.002 A 
ATOM      4  C5  UNL d   1       0.965   0.141   0.550  0.00  0.00    -0.004 A 
ATOM      5  C6  UNL d   1      -0.428   0.093   0.572  0.00  0.00     0.002 A 
ATOM      6  C7  UNL d   1      -1.084  -0.695   1.519  0.00  0.00     0.002 A 
ENDROOT
BRANCH   1   7
ATOM      7  C1  UNL d   1      -1.062  -2.252   3.505  0.00  0.00     0.055 C 
ATOM      8  C   UNL d   1      -1.070  -3.733   3.153  0.00  0.00     0.019 C 
ENDBRANCH   1   7
TORSDOF 1
ENDMDL
