MODEL 1
REMARK minimizedAffinity -2.32980251
REMARK minimizedRMSD -1
REMARK  1 active torsions:
REMARK  status: ('A' for Active; 'I' for Inactive)
REMARK    1  A    between atoms: C1_2  and  C2_3 
ROOT
ATOM      1  C2  UNL d   1       0.096  -1.002   1.867  0.00  0.00    -0.077 A 
ATOM      2  C3  UNL d   1      -1.116  -0.310   1.732  0.00  0.00     0.002 A 
ATOM      3  C4  UNL d   1      -1.445   0.309   0.524  0.00  0.00     0.002 A 
ATOM      4  C5  UNL d   1      -0.570   0.237  -0.558  0.00  0.00    -0.004 A 
ATOM      5  C6  UNL d   1       0.638  -0.447  -0.433  0.00  0.00     0.002 A 
ATOM      6  C7  UNL d   1       0.969  -1.065   0.774  0.00  0.00     0.002 A 
ENDROOT
BRANCH   1   7
ATOM      7  C1  UNL d   1       0.430  -1.711   3.154  0.00  0.00     0.055 C 
ATOM      8  C   UNL d   1      -0.404  -2.972   3.323  0.00  0.00     0.019 C 
ENDBRANCH   1   7
TORSDOF 1
ENDMDL
