MODEL 1
REMARK minimizedAffinity -1.29486692
REMARK minimizedRMSD -1
REMARK  1 active torsions:
REMARK  status: ('A' for Active; 'I' for Inactive)
REMARK    1  A    between atoms: C3_4  and  O_7 
ROOT
ATOM      1  C   UNL d   1      -1.032  -2.485   5.036  0.00  0.00    -0.033 A 
ATOM      2  C1  UNL d   1       0.031  -1.716   4.557  0.00  0.00     0.039 A 
ATOM      3  C2  UNL d   1      -0.215  -0.626   3.720  0.00  0.00    -0.080 A 
ATOM      4  C3  UNL d   1      -1.527  -0.315   3.371  0.00  0.00     0.150 A 
ATOM      5  C4  UNL d   1      -2.590  -1.074   3.847  0.00  0.00    -0.007 A 
ATOM      6  C5  UNL d   1      -2.343  -2.163   4.682  0.00  0.00     0.039 A 
ENDROOT
BRANCH   4   7
ATOM      7  O   UNL d   1      -1.816   0.736   2.553  0.00  0.00    -0.526 OA
ATOM      8  H5  UNL d   1      -0.981   1.151   2.278  0.00  0.00     0.418 HD
ENDBRANCH   4   7
TORSDOF 1
ENDMDL
