MODEL 1
REMARK minimizedAffinity -1.78581977
REMARK minimizedRMSD -1
REMARK  1 active torsions:
REMARK  status: ('A' for Active; 'I' for Inactive)
REMARK    1  A    between atoms: C3_4  and  O_7 
ROOT
ATOM      1  C   UNL d   1      -2.854  -0.559   2.950  0.00  0.00    -0.033 A 
ATOM      2  C1  UNL d   1      -2.452  -1.496   3.904  0.00  0.00     0.039 A 
ATOM      3  C2  UNL d   1      -1.094  -1.704   4.153  0.00  0.00    -0.080 A 
ATOM      4  C3  UNL d   1      -0.149  -0.969   3.442  0.00  0.00     0.150 A 
ATOM      5  C4  UNL d   1      -0.542  -0.032   2.493  0.00  0.00    -0.007 A 
ATOM      6  C5  UNL d   1      -1.898   0.174   2.245  0.00  0.00     0.039 A 
ENDROOT
BRANCH   4   7
ATOM      7  O   UNL d   1       1.188  -1.141   3.647  0.00  0.00    -0.526 OA
ATOM      8  H5  UNL d   1       1.310  -1.841   4.310  0.00  0.00     0.418 HD
ENDBRANCH   4   7
TORSDOF 1
ENDMDL
