MODEL 1
REMARK minimizedAffinity 7.00558519
REMARK minimizedRMSD -1
REMARK  1 active torsions:
REMARK  status: ('A' for Active; 'I' for Inactive)
REMARK    1  A    between atoms: C3_4  and  O_7 
ROOT
ATOM      1  C   UNL d   1      -2.556   0.433  -0.302  0.00  0.00    -0.033 A 
ATOM      2  C1  UNL d   1      -2.358   1.289   0.783  0.00  0.00     0.039 A 
ATOM      3  C2  UNL d   1      -2.589   0.836   2.083  0.00  0.00    -0.080 A 
ATOM      4  C3  UNL d   1      -3.016  -0.473   2.285  0.00  0.00     0.150 A 
ATOM      5  C4  UNL d   1      -3.212  -1.333   1.210  0.00  0.00    -0.007 A 
ATOM      6  C5  UNL d   1      -2.982  -0.879  -0.088  0.00  0.00     0.039 A 
ENDROOT
BRANCH   4   7
ATOM      7  O   UNL d   1      -3.259  -0.958   3.536  0.00  0.00    -0.526 OA
ATOM      8  H5  UNL d   1      -3.109  -0.244   4.178  0.00  0.00     0.418 HD
ENDBRANCH   4   7
TORSDOF 1
ENDMDL
