MODEL 1
REMARK minimizedAffinity -2.67000937
REMARK minimizedRMSD -1
REMARK  1 active torsions:
REMARK  status: ('A' for Active; 'I' for Inactive)
REMARK    1  A    between atoms: C3_4  and  O_7 
ROOT
ATOM      1  C   UNL d   1      -1.846  -0.022   2.983  0.00  0.00    -0.033 A 
ATOM      2  C1  UNL d   1      -1.786   0.374   1.646  0.00  0.00     0.039 A 
ATOM      3  C2  UNL d   1      -0.586   0.272   0.939  0.00  0.00    -0.080 A 
ATOM      4  C3  UNL d   1       0.544  -0.228   1.580  0.00  0.00     0.150 A 
ATOM      5  C4  UNL d   1       0.491  -0.628   2.911  0.00  0.00    -0.007 A 
ATOM      6  C5  UNL d   1      -0.708  -0.525   3.615  0.00  0.00     0.039 A 
ENDROOT
BRANCH   4   7
ATOM      7  O   UNL d   1       1.739  -0.341   0.933  0.00  0.00    -0.526 OA
ATOM      8  H5  UNL d   1       1.633  -0.000   0.029  0.00  0.00     0.418 HD
ENDBRANCH   4   7
TORSDOF 1
ENDMDL
