MODEL 1
REMARK minimizedAffinity -1.46767533
REMARK minimizedRMSD -1
REMARK  1 active torsions:
REMARK  status: ('A' for Active; 'I' for Inactive)
REMARK    1  A    between atoms: C3_4  and  O_7 
ROOT
ATOM      1  C   UNL d   1      -1.859   0.039   0.913  0.00  0.00    -0.033 A 
ATOM      2  C1  UNL d   1      -0.582  -0.093   0.363  0.00  0.00     0.039 A 
ATOM      3  C2  UNL d   1       0.494  -0.463   1.172  0.00  0.00    -0.080 A 
ATOM      4  C3  UNL d   1       0.280  -0.698   2.528  0.00  0.00     0.150 A 
ATOM      5  C4  UNL d   1      -0.990  -0.572   3.081  0.00  0.00    -0.007 A 
ATOM      6  C5  UNL d   1      -2.063  -0.201   2.272  0.00  0.00     0.039 A 
ENDROOT
BRANCH   4   7
ATOM      7  O   UNL d   1       1.300  -1.056   3.358  0.00  0.00    -0.526 OA
ATOM      8  H5  UNL d   1       2.124  -1.077   2.843  0.00  0.00     0.418 HD
ENDBRANCH   4   7
TORSDOF 1
ENDMDL
