MODEL 1
REMARK minimizedAffinity -2.09977627
REMARK minimizedRMSD -1
REMARK  1 active torsions:
REMARK  status: ('A' for Active; 'I' for Inactive)
REMARK    1  A    between atoms: C3_4  and  O_7 
ROOT
ATOM      1  C   UNL d   1      -1.825  -0.625   4.126  0.00  0.00    -0.033 A 
ATOM      2  C1  UNL d   1      -1.922   0.083   2.927  0.00  0.00     0.039 A 
ATOM      3  C2  UNL d   1      -0.820   0.172   2.074  0.00  0.00    -0.080 A 
ATOM      4  C3  UNL d   1       0.372  -0.452   2.432  0.00  0.00     0.150 A 
ATOM      5  C4  UNL d   1       0.475  -1.162   3.624  0.00  0.00    -0.007 A 
ATOM      6  C5  UNL d   1      -0.626  -1.249   4.474  0.00  0.00     0.039 A 
ENDROOT
BRANCH   4   7
ATOM      7  O   UNL d   1       1.476  -0.389   1.635  0.00  0.00    -0.526 OA
ATOM      8  H5  UNL d   1       1.266   0.159   0.860  0.00  0.00     0.418 HD
ENDBRANCH   4   7
TORSDOF 1
ENDMDL
