MODEL 1
REMARK minimizedAffinity 5.43842697
REMARK minimizedRMSD -1
REMARK  1 active torsions:
REMARK  status: ('A' for Active; 'I' for Inactive)
REMARK    1  A    between atoms: C1_2  and  C2_3 
ROOT
ATOM      1  C2  UNL d   1       0.110   1.194   0.097  0.00  0.00    -0.076 A 
ATOM      2  C3  UNL d   1       0.676   1.473  -1.159  0.00  0.00     0.004 A 
ATOM      3  C4  UNL d   1       0.834   0.469  -2.114  0.00  0.00    -0.003 A 
ATOM      4  C5  UNL d   1       0.427  -0.829  -1.828  0.00  0.00     0.000 A 
ATOM      5  C6  UNL d   1      -0.153  -1.120  -0.593  0.00  0.00     0.000 A 
ATOM      6  C7  UNL d   1      -0.334  -0.116   0.374  0.00  0.00    -0.073 A 
ATOM      7  C8  UNL d   1      -0.960  -0.487   1.690  0.00  0.00     0.078 C 
ENDROOT
BRANCH   1   8
ATOM      8  C1  UNL d   1      -0.012   2.318   1.102  0.00  0.00     0.053 C 
ATOM      9  C   UNL d   1       0.802   3.541   0.709  0.00  0.00     0.018 C 
ENDBRANCH   1   8
TORSDOF 1
ENDMDL
