MODEL 1
REMARK minimizedAffinity -2.60731339
REMARK minimizedRMSD -1
REMARK  1 active torsions:
REMARK  status: ('A' for Active; 'I' for Inactive)
REMARK    1  A    between atoms: C1_2  and  C2_3 
ROOT
ATOM      1  C2  UNL d   1      -0.613  -1.034   0.166  0.00  0.00    -0.076 A 
ATOM      2  C3  UNL d   1       0.247  -1.113  -0.943  0.00  0.00     0.004 A 
ATOM      3  C4  UNL d   1       0.615   0.030  -1.650  0.00  0.00    -0.003 A 
ATOM      4  C5  UNL d   1       0.127   1.273  -1.259  0.00  0.00     0.000 A 
ATOM      5  C6  UNL d   1      -0.714   1.373  -0.151  0.00  0.00     0.000 A 
ATOM      6  C7  UNL d   1      -1.080   0.232   0.582  0.00  0.00    -0.073 A 
ATOM      7  C8  UNL d   1      -1.995   0.397   1.765  0.00  0.00     0.078 C 
ENDROOT
BRANCH   1   8
ATOM      8  C1  UNL d   1      -0.998  -2.311   0.877  0.00  0.00     0.053 C 
ATOM      9  C   UNL d   1       0.001  -3.433   0.642  0.00  0.00     0.018 C 
ENDBRANCH   1   8
TORSDOF 1
ENDMDL
