MODEL 1
REMARK minimizedAffinity 1.13119507
REMARK minimizedRMSD -1
REMARK  1 active torsions:
REMARK  status: ('A' for Active; 'I' for Inactive)
REMARK    1  A    between atoms: C1_2  and  C2_3 
ROOT
ATOM      1  C2  UNL d   1       0.544   1.212  -0.501  0.00  0.00    -0.076 A 
ATOM      2  C3  UNL d   1       0.943   2.174   0.443  0.00  0.00     0.004 A 
ATOM      3  C4  UNL d   1       2.192   2.786   0.360  0.00  0.00    -0.003 A 
ATOM      4  C5  UNL d   1       3.063   2.446  -0.669  0.00  0.00     0.000 A 
ATOM      5  C6  UNL d   1       2.677   1.506  -1.624  0.00  0.00     0.000 A 
ATOM      6  C7  UNL d   1       1.415   0.892  -1.564  0.00  0.00    -0.073 A 
ATOM      7  C8  UNL d   1       1.053  -0.119  -2.617  0.00  0.00     0.078 C 
ENDROOT
BRANCH   1   8
ATOM      8  C1  UNL d   1      -0.812   0.562  -0.344  0.00  0.00     0.053 C 
ATOM      9  C   UNL d   1      -0.955  -0.178   0.977  0.00  0.00     0.018 C 
ENDBRANCH   1   8
TORSDOF 1
ENDMDL
