MODEL 1
REMARK minimizedAffinity 5.17580032
REMARK minimizedRMSD -1
REMARK  1 active torsions:
REMARK  status: ('A' for Active; 'I' for Inactive)
REMARK    1  A    between atoms: C1_2  and  C2_3 
ROOT
ATOM      1  C2  UNL d   1      -1.391  -0.960   1.029  0.00  0.00    -0.076 A 
ATOM      2  C3  UNL d   1      -0.740  -0.625  -0.171  0.00  0.00     0.004 A 
ATOM      3  C4  UNL d   1      -0.159   0.630  -0.346  0.00  0.00    -0.003 A 
ATOM      4  C5  UNL d   1      -0.220   1.570   0.677  0.00  0.00     0.000 A 
ATOM      5  C6  UNL d   1      -0.847   1.249   1.880  0.00  0.00     0.000 A 
ATOM      6  C7  UNL d   1      -1.423  -0.018   2.079  0.00  0.00    -0.073 A 
ATOM      7  C8  UNL d   1      -2.092  -0.308   3.394  0.00  0.00     0.078 C 
ENDROOT
BRANCH   1   8
ATOM      8  C1  UNL d   1      -2.026  -2.327   1.151  0.00  0.00     0.053 C 
ATOM      9  C   UNL d   1      -3.362  -2.416   0.429  0.00  0.00     0.018 C 
ENDBRANCH   1   8
TORSDOF 1
ENDMDL
