MODEL 1
REMARK minimizedAffinity -0.262308985
REMARK minimizedRMSD -1
REMARK  1 active torsions:
REMARK  status: ('A' for Active; 'I' for Inactive)
REMARK    1  A    between atoms: C1_2  and  C2_3 
ROOT
ATOM      1  C2  UNL d   1       0.028  -0.855  -0.800  0.00  0.00    -0.076 A 
ATOM      2  C3  UNL d   1      -0.340  -2.202  -0.965  0.00  0.00     0.004 A 
ATOM      3  C4  UNL d   1      -0.953  -2.910   0.068  0.00  0.00    -0.003 A 
ATOM      4  C5  UNL d   1      -1.209  -2.282   1.282  0.00  0.00     0.000 A 
ATOM      5  C6  UNL d   1      -0.866  -0.942   1.457  0.00  0.00     0.000 A 
ATOM      6  C7  UNL d   1      -0.262  -0.209   0.421  0.00  0.00    -0.073 A 
ATOM      7  C8  UNL d   1       0.092   1.232   0.667  0.00  0.00     0.078 C 
ENDROOT
BRANCH   1   8
ATOM      8  C1  UNL d   1       0.715  -0.147  -1.945  0.00  0.00     0.053 C 
ATOM      9  C   UNL d   1       1.029  -1.081  -3.104  0.00  0.00     0.018 C 
ENDBRANCH   1   8
TORSDOF 1
ENDMDL
