MODEL 1
REMARK minimizedAffinity 3.34941077
REMARK minimizedRMSD -1
REMARK  1 active torsions:
REMARK  status: ('A' for Active; 'I' for Inactive)
REMARK    1  A    between atoms: C1_2  and  C2_3 
ROOT
ATOM      1  C2  UNL d   1       1.363   2.145   0.261  0.00  0.00    -0.076 A 
ATOM      2  C3  UNL d   1       0.025   1.811   0.530  0.00  0.00     0.004 A 
ATOM      3  C4  UNL d   1      -0.625   0.812  -0.193  0.00  0.00    -0.003 A 
ATOM      4  C5  UNL d   1       0.054   0.131  -1.198  0.00  0.00     0.000 A 
ATOM      5  C6  UNL d   1       1.387   0.438  -1.467  0.00  0.00     0.000 A 
ATOM      6  C7  UNL d   1       2.062   1.431  -0.736  0.00  0.00    -0.073 A 
ATOM      7  C8  UNL d   1       3.498   1.725  -1.073  0.00  0.00     0.078 C 
ENDROOT
BRANCH   1   8
ATOM      8  C1  UNL d   1       2.007   3.256   1.060  0.00  0.00     0.053 C 
ATOM      9  C   UNL d   1       1.171   3.670   2.261  0.00  0.00     0.018 C 
ENDBRANCH   1   8
TORSDOF 1
ENDMDL
