MODEL 1
REMARK minimizedAffinity 2.3060112
REMARK minimizedRMSD -1
REMARK  1 active torsions:
REMARK  status: ('A' for Active; 'I' for Inactive)
REMARK    1  A    between atoms: C1_2  and  C2_3 
ROOT
ATOM      1  C2  UNL d   1      -0.783  -1.897   0.137  0.00  0.00    -0.076 A 
ATOM      2  C3  UNL d   1      -0.195  -1.599  -1.105  0.00  0.00     0.004 A 
ATOM      3  C4  UNL d   1       0.286  -0.320  -1.383  0.00  0.00    -0.003 A 
ATOM      4  C5  UNL d   1       0.187   0.681  -0.423  0.00  0.00     0.000 A 
ATOM      5  C6  UNL d   1      -0.378   0.399   0.820  0.00  0.00     0.000 A 
ATOM      6  C7  UNL d   1      -0.852  -0.889   1.123  0.00  0.00    -0.073 A 
ATOM      7  C8  UNL d   1      -1.457  -1.136   2.477  0.00  0.00     0.078 C 
ENDROOT
BRANCH   1   8
ATOM      8  C1  UNL d   1      -1.311  -3.294   0.372  0.00  0.00     0.053 C 
ATOM      9  C   UNL d   1      -0.198  -4.322   0.508  0.00  0.00     0.018 C 
ENDBRANCH   1   8
TORSDOF 1
ENDMDL
