MODEL 1
REMARK minimizedAffinity 0.748032749
REMARK minimizedRMSD -1
REMARK  1 active torsions:
REMARK  status: ('A' for Active; 'I' for Inactive)
REMARK    1  A    between atoms: C1_2  and  C2_3 
ROOT
ATOM      1  C2  UNL d   1       0.277  -0.849  -0.447  0.00  0.00    -0.076 A 
ATOM      2  C3  UNL d   1      -0.103  -2.169  -0.745  0.00  0.00     0.004 A 
ATOM      3  C4  UNL d   1      -0.756  -2.958   0.201  0.00  0.00    -0.003 A 
ATOM      4  C5  UNL d   1      -1.040  -2.440   1.459  0.00  0.00     0.000 A 
ATOM      5  C6  UNL d   1      -0.686  -1.127   1.766  0.00  0.00     0.000 A 
ATOM      6  C7  UNL d   1      -0.042  -0.312   0.819  0.00  0.00    -0.073 A 
ATOM      7  C8  UNL d   1       0.322   1.095   1.206  0.00  0.00     0.078 C 
ENDROOT
BRANCH   1   8
ATOM      8  C1  UNL d   1       1.007  -0.049  -1.502  0.00  0.00     0.053 C 
ATOM      9  C   UNL d   1       2.435   0.282  -1.099  0.00  0.00     0.018 C 
ENDBRANCH   1   8
TORSDOF 1
ENDMDL
