MODEL 1
REMARK minimizedAffinity -1.52032375
REMARK minimizedRMSD -1
REMARK  1 active torsions:
REMARK  status: ('A' for Active; 'I' for Inactive)
REMARK    1  A    between atoms: C1_2  and  C2_3 
ROOT
ATOM      1  C2  UNL d   1      -0.128  -0.093  -0.180  0.00  0.00    -0.076 A 
ATOM      2  C3  UNL d   1       1.170  -0.586  -0.403  0.00  0.00     0.004 A 
ATOM      3  C4  UNL d   1       1.517  -1.884  -0.031  0.00  0.00    -0.003 A 
ATOM      4  C5  UNL d   1       0.573  -2.709   0.569  0.00  0.00     0.000 A 
ATOM      5  C6  UNL d   1      -0.724  -2.242   0.781  0.00  0.00     0.000 A 
ATOM      6  C7  UNL d   1      -1.095  -0.942   0.398  0.00  0.00    -0.073 A 
ATOM      7  C8  UNL d   1      -2.506  -0.489   0.656  0.00  0.00     0.078 C 
ENDROOT
BRANCH   1   8
ATOM      8  C1  UNL d   1      -0.439   1.332  -0.580  0.00  0.00     0.053 C 
ATOM      9  C   UNL d   1       0.081   2.346   0.427  0.00  0.00     0.018 C 
ENDBRANCH   1   8
TORSDOF 1
ENDMDL
