MODEL 1
REMARK minimizedAffinity -6.49770689
REMARK minimizedRMSD -1
REMARK  1 active torsions:
REMARK  status: ('A' for Active; 'I' for Inactive)
REMARK    1  A    between atoms: C1_2  and  C2_3 
ROOT
ATOM      1  C2  UNL d   1       0.264  -0.903  -0.716  0.00  0.00    -0.076 A 
ATOM      2  C3  UNL d   1       0.613  -1.595  -1.889  0.00  0.00     0.004 A 
ATOM      3  C4  UNL d   1       0.308  -2.946  -2.043  0.00  0.00    -0.003 A 
ATOM      4  C5  UNL d   1      -0.353  -3.627  -1.027  0.00  0.00     0.000 A 
ATOM      5  C6  UNL d   1      -0.723  -2.953   0.136  0.00  0.00     0.000 A 
ATOM      6  C7  UNL d   1      -0.436  -1.586   0.301  0.00  0.00    -0.073 A 
ATOM      7  C8  UNL d   1      -0.853  -0.910   1.578  0.00  0.00     0.078 C 
ENDROOT
BRANCH   1   8
ATOM      8  C1  UNL d   1       0.646   0.555  -0.595  0.00  0.00     0.053 C 
ATOM      9  C   UNL d   1       0.084   1.401  -1.727  0.00  0.00     0.018 C 
ENDBRANCH   1   8
TORSDOF 1
ENDMDL
