MODEL 1
REMARK minimizedAffinity 0.129703611
REMARK minimizedRMSD -1
REMARK  1 active torsions:
REMARK  status: ('A' for Active; 'I' for Inactive)
REMARK    1  A    between atoms: C1_2  and  C2_3 
ROOT
ATOM      1  C2  UNL d   1      -0.635  -1.453  -0.468  0.00  0.00    -0.076 A 
ATOM      2  C3  UNL d   1      -0.885  -0.721   0.706  0.00  0.00     0.004 A 
ATOM      3  C4  UNL d   1      -0.400   0.577   0.859  0.00  0.00    -0.003 A 
ATOM      4  C5  UNL d   1       0.343   1.164  -0.159  0.00  0.00     0.000 A 
ATOM      5  C6  UNL d   1       0.586   0.459  -1.337  0.00  0.00     0.000 A 
ATOM      6  C7  UNL d   1       0.090  -0.844  -1.515  0.00  0.00    -0.073 A 
ATOM      7  C8  UNL d   1       0.388  -1.560  -2.803  0.00  0.00     0.078 C 
ENDROOT
BRANCH   1   8
ATOM      8  C1  UNL d   1      -1.163  -2.866  -0.567  0.00  0.00     0.053 C 
ATOM      9  C   UNL d   1      -1.164  -3.583   0.775  0.00  0.00     0.018 C 
ENDBRANCH   1   8
TORSDOF 1
ENDMDL
