MODEL 1
REMARK minimizedAffinity 0.544800401
REMARK minimizedRMSD -1
REMARK  1 active torsions:
REMARK  status: ('A' for Active; 'I' for Inactive)
REMARK    1  A    between atoms: C1_2  and  C2_3 
ROOT
ATOM      1  C2  UNL d   1       0.731  -1.563  -0.312  0.00  0.00    -0.076 A 
ATOM      2  C3  UNL d   1       0.993  -2.919  -0.051  0.00  0.00     0.004 A 
ATOM      3  C4  UNL d   1      -0.022  -3.779   0.366  0.00  0.00    -0.003 A 
ATOM      4  C5  UNL d   1      -1.316  -3.297   0.528  0.00  0.00     0.000 A 
ATOM      5  C6  UNL d   1      -1.598  -1.958   0.256  0.00  0.00     0.000 A 
ATOM      6  C7  UNL d   1      -0.589  -1.082  -0.181  0.00  0.00    -0.073 A 
ATOM      7  C8  UNL d   1      -0.948   0.353  -0.453  0.00  0.00     0.078 C 
ENDROOT
BRANCH   1   8
ATOM      8  C1  UNL d   1       1.877  -0.672  -0.735  0.00  0.00     0.053 C 
ATOM      9  C   UNL d   1       2.555  -1.159  -2.007  0.00  0.00     0.018 C 
ENDBRANCH   1   8
TORSDOF 1
ENDMDL
