MODEL 1
REMARK minimizedAffinity -4.55115938
REMARK minimizedRMSD -1
REMARK  1 active torsions:
REMARK  status: ('A' for Active; 'I' for Inactive)
REMARK    1  A    between atoms: C1_2  and  C2_3 
ROOT
ATOM      1  C2  UNL d   1      -0.138  -1.971  -0.586  0.00  0.00    -0.076 A 
ATOM      2  C3  UNL d   1       0.471  -1.235  -1.617  0.00  0.00     0.004 A 
ATOM      3  C4  UNL d   1       0.386   0.156  -1.652  0.00  0.00    -0.003 A 
ATOM      4  C5  UNL d   1      -0.309   0.833  -0.657  0.00  0.00     0.000 A 
ATOM      5  C6  UNL d   1      -0.904   0.120   0.383  0.00  0.00     0.000 A 
ATOM      6  C7  UNL d   1      -0.814  -1.281   0.443  0.00  0.00    -0.073 A 
ATOM      7  C8  UNL d   1      -1.480  -2.000   1.584  0.00  0.00     0.078 C 
ENDROOT
BRANCH   1   8
ATOM      8  C1  UNL d   1      -0.035  -3.480  -0.615  0.00  0.00     0.053 C 
ATOM      9  C   UNL d   1      -0.204  -4.048  -2.015  0.00  0.00     0.018 C 
ENDBRANCH   1   8
TORSDOF 1
ENDMDL
