MODEL 1
REMARK minimizedAffinity -6.56993151
REMARK minimizedRMSD -1
REMARK  1 active torsions:
REMARK  status: ('A' for Active; 'I' for Inactive)
REMARK    1  A    between atoms: C1_2  and  C2_3 
ROOT
ATOM      1  C2  UNL d   1       0.497  -0.681  -1.264  0.00  0.00    -0.076 A 
ATOM      2  C3  UNL d   1       1.111  -1.411  -2.297  0.00  0.00     0.004 A 
ATOM      3  C4  UNL d   1       1.284  -2.790  -2.195  0.00  0.00    -0.003 A 
ATOM      4  C5  UNL d   1       0.845  -3.462  -1.060  0.00  0.00     0.000 A 
ATOM      5  C6  UNL d   1       0.217  -2.756  -0.034  0.00  0.00     0.000 A 
ATOM      6  C7  UNL d   1       0.021  -1.368  -0.127  0.00  0.00    -0.073 A 
ATOM      7  C8  UNL d   1      -0.657  -0.656   1.011  0.00  0.00     0.078 C 
ENDROOT
BRANCH   1   8
ATOM      8  C1  UNL d   1       0.361   0.817  -1.419  0.00  0.00     0.053 C 
ATOM      9  C   UNL d   1       1.593   1.567  -0.935  0.00  0.00     0.018 C 
ENDBRANCH   1   8
TORSDOF 1
ENDMDL
