MODEL 1
REMARK minimizedAffinity -1.64610422
REMARK minimizedRMSD -1
REMARK  0 active torsions:
REMARK  status: ('A' for Active; 'I' for Inactive)
ROOT
ATOM      1  C   UNL d   1       3.032   5.635   1.505  0.00  0.00     0.172 C 
ATOM      2  N   UNL d   1       1.756   5.198   0.990  0.00  0.00    -0.070 N 
ATOM      3  C1  UNL d   1       0.827   5.996   0.376  0.00  0.00    -0.004 A 
ATOM      4  C2  UNL d   1      -0.248   5.204   0.033  0.00  0.00    -0.047 A 
ATOM      5  C3  UNL d   1       0.045   3.886   0.456  0.00  0.00    -0.047 A 
ATOM      6  C4  UNL d   1       1.291   3.911   1.045  0.00  0.00    -0.004 A 
ENDROOT
TORSDOF 0
ENDMDL
