MODEL 1
REMARK minimizedAffinity 7.81381607
REMARK minimizedRMSD -1
REMARK  0 active torsions:
REMARK  status: ('A' for Active; 'I' for Inactive)
ROOT
ATOM      1  C   UNL d   1      -0.251  -5.237  -5.115  0.00  0.00     0.172 C 
ATOM      2  N   UNL d   1       0.765  -5.265  -4.089  0.00  0.00    -0.070 N 
ATOM      3  C1  UNL d   1       1.945  -4.571  -4.114  0.00  0.00    -0.004 A 
ATOM      4  C2  UNL d   1       2.633  -4.865  -2.957  0.00  0.00    -0.047 A 
ATOM      5  C3  UNL d   1       1.839  -5.768  -2.210  0.00  0.00    -0.047 A 
ATOM      6  C4  UNL d   1       0.688  -5.999  -2.934  0.00  0.00    -0.004 A 
ENDROOT
TORSDOF 0
ENDMDL
