MODEL 1
REMARK minimizedAffinity 8.94259453
REMARK minimizedRMSD -1
REMARK  0 active torsions:
REMARK  status: ('A' for Active; 'I' for Inactive)
ROOT
ATOM      1  C   UNL d   1       0.658   2.504   1.568  0.00  0.00     0.172 C 
ATOM      2  N   UNL d   1       0.211   3.577   0.711  0.00  0.00    -0.070 N 
ATOM      3  C1  UNL d   1      -1.054   3.723   0.208  0.00  0.00    -0.004 A 
ATOM      4  C2  UNL d   1      -1.075   4.868  -0.559  0.00  0.00    -0.047 A 
ATOM      5  C3  UNL d   1       0.224   5.430  -0.515  0.00  0.00    -0.047 A 
ATOM      6  C4  UNL d   1       0.999   4.611   0.278  0.00  0.00    -0.004 A 
ENDROOT
TORSDOF 0
ENDMDL
