MODEL 1
REMARK minimizedAffinity 6.25885248
REMARK minimizedRMSD -1
REMARK  0 active torsions:
REMARK  status: ('A' for Active; 'I' for Inactive)
ROOT
ATOM      1  C   UNL d   1       5.253  -4.072  -2.790  0.00  0.00     0.172 C 
ATOM      2  N   UNL d   1       5.205  -3.021  -1.800  0.00  0.00    -0.070 N 
ATOM      3  C1  UNL d   1       6.000  -1.907  -1.779  0.00  0.00    -0.004 A 
ATOM      4  C2  UNL d   1       5.643  -1.154  -0.681  0.00  0.00    -0.047 A 
ATOM      5  C3  UNL d   1       4.599  -1.841  -0.018  0.00  0.00    -0.047 A 
ATOM      6  C4  UNL d   1       4.347  -2.994  -0.732  0.00  0.00    -0.004 A 
ENDROOT
TORSDOF 0
ENDMDL
