MODEL 1
REMARK minimizedAffinity 3.63292313
REMARK minimizedRMSD -1
REMARK  0 active torsions:
REMARK  status: ('A' for Active; 'I' for Inactive)
ROOT
ATOM      1  C   UNL d   1       5.998  -3.555  -4.125  0.00  0.00     0.172 C 
ATOM      2  N   UNL d   1       5.918  -3.001  -2.794  0.00  0.00    -0.070 N 
ATOM      3  C1  UNL d   1       5.749  -3.717  -1.640  0.00  0.00    -0.004 A 
ATOM      4  C2  UNL d   1       5.724  -2.826  -0.589  0.00  0.00    -0.047 A 
ATOM      5  C3  UNL d   1       5.881  -1.528  -1.131  0.00  0.00    -0.047 A 
ATOM      6  C4  UNL d   1       5.999  -1.666  -2.498  0.00  0.00    -0.004 A 
ENDROOT
TORSDOF 0
ENDMDL
