MODEL 1
REMARK minimizedAffinity 5.16792345
REMARK minimizedRMSD -1
REMARK  0 active torsions:
REMARK  status: ('A' for Active; 'I' for Inactive)
ROOT
ATOM      1  C   UNL d   1      -0.553  -0.747  -2.109  0.00  0.00     0.172 C 
ATOM      2  N   UNL d   1       0.587  -1.119  -1.305  0.00  0.00    -0.070 N 
ATOM      3  C1  UNL d   1       1.567  -0.269  -0.866  0.00  0.00    -0.004 A 
ATOM      4  C2  UNL d   1       2.470  -1.008  -0.132  0.00  0.00    -0.047 A 
ATOM      5  C3  UNL d   1       2.018  -2.349  -0.131  0.00  0.00    -0.047 A 
ATOM      6  C4  UNL d   1       0.850  -2.390  -0.864  0.00  0.00    -0.004 A 
ENDROOT
TORSDOF 0
ENDMDL
