MODEL 1
REMARK minimizedAffinity -1.16683447
REMARK minimizedRMSD -1
REMARK  0 active torsions:
REMARK  status: ('A' for Active; 'I' for Inactive)
ROOT
ATOM      1  C2' OXE d   1      -2.337  -1.102   3.429  0.00  0.00     0.078 C 
ATOM      2  C1' OXE d   1      -1.096  -0.108   1.116  0.00  0.00     0.078 C 
ATOM      3  C1  OXE d   1      -0.214  -0.681   2.197  0.00  0.00    -0.078 A 
ATOM      4  C2  OXE d   1      -0.826  -1.123   3.345  0.00  0.00    -0.078 A 
ATOM      5  C3  OXE d   1      -0.064  -1.711   4.350  0.00  0.00     0.003 A 
ATOM      6  C4  OXE d   1       1.333  -1.717   4.268  0.00  0.00    -0.002 A 
ATOM      7  C5  OXE d   1       1.980  -1.237   3.125  0.00  0.00    -0.002 A 
ATOM      8  C6  OXE d   1       1.220  -0.755   2.064  0.00  0.00     0.003 A 
ENDROOT
TORSDOF 0
ENDMDL
