MODEL 1
REMARK minimizedAffinity 3.38685465
REMARK minimizedRMSD -1
REMARK  0 active torsions:
REMARK  status: ('A' for Active; 'I' for Inactive)
ROOT
ATOM      1  C2' OXE d   1       0.788  -0.621   1.337  0.00  0.00     0.078 C 
ATOM      2  C1' OXE d   1      -1.556   0.297   2.578  0.00  0.00     0.078 C 
ATOM      3  C1  OXE d   1      -1.657  -0.183   1.152  0.00  0.00    -0.078 A 
ATOM      4  C2  OXE d   1      -0.496  -0.587   0.537  0.00  0.00    -0.078 A 
ATOM      5  C3  OXE d   1      -0.542  -1.091  -0.760  0.00  0.00     0.003 A 
ATOM      6  C4  OXE d   1      -1.732  -1.047  -1.496  0.00  0.00    -0.002 A 
ATOM      7  C5  OXE d   1      -2.918  -0.602  -0.902  0.00  0.00    -0.002 A 
ATOM      8  C6  OXE d   1      -2.906  -0.208   0.432  0.00  0.00     0.003 A 
ENDROOT
TORSDOF 0
ENDMDL
