MODEL 1
REMARK minimizedAffinity 6.98406172
REMARK minimizedRMSD -1
REMARK  0 active torsions:
REMARK  status: ('A' for Active; 'I' for Inactive)
ROOT
ATOM      1  C2' OXE d   1      -1.670   0.401   3.025  0.00  0.00     0.078 C 
ATOM      2  C1' OXE d   1      -3.668  -1.569   2.920  0.00  0.00     0.078 C 
ATOM      3  C1  OXE d   1      -3.012  -1.163   1.624  0.00  0.00    -0.078 A 
ATOM      4  C2  OXE d   1      -2.068  -0.165   1.678  0.00  0.00    -0.078 A 
ATOM      5  C3  OXE d   1      -1.393   0.209   0.520  0.00  0.00     0.003 A 
ATOM      6  C4  OXE d   1      -1.774  -0.312  -0.722  0.00  0.00    -0.002 A 
ATOM      7  C5  OXE d   1      -2.760  -1.300  -0.805  0.00  0.00    -0.002 A 
ATOM      8  C6  OXE d   1      -3.358  -1.766   0.361  0.00  0.00     0.003 A 
ENDROOT
TORSDOF 0
ENDMDL
