MODEL 1
REMARK minimizedAffinity 2.59384084
REMARK minimizedRMSD -1
REMARK  0 active torsions:
REMARK  status: ('A' for Active; 'I' for Inactive)
ROOT
ATOM      1  C2' OXE d   1       0.914  -0.628   1.457  0.00  0.00     0.078 C 
ATOM      2  C1' OXE d   1      -1.545   0.152   2.566  0.00  0.00     0.078 C 
ATOM      3  C1  OXE d   1      -1.532  -0.288   1.124  0.00  0.00    -0.078 A 
ATOM      4  C2  OXE d   1      -0.317  -0.623   0.576  0.00  0.00    -0.078 A 
ATOM      5  C3  OXE d   1      -0.256  -1.088  -0.735  0.00  0.00     0.003 A 
ATOM      6  C4  OXE d   1      -1.397  -1.072  -1.546  0.00  0.00    -0.002 A 
ATOM      7  C5  OXE d   1      -2.638  -0.696  -1.019  0.00  0.00    -0.002 A 
ATOM      8  C6  OXE d   1      -2.729  -0.343   0.323  0.00  0.00     0.003 A 
ENDROOT
TORSDOF 0
ENDMDL
