MODEL 1
REMARK minimizedAffinity -1.47076201
REMARK minimizedRMSD -1
REMARK  0 active torsions:
REMARK  status: ('A' for Active; 'I' for Inactive)
ROOT
ATOM      1  C2' OXE d   1      -3.874  -1.308   3.758  0.00  0.00     0.078 C 
ATOM      2  C1' OXE d   1      -2.090   0.294   2.298  0.00  0.00     0.078 C 
ATOM      3  C1  OXE d   1      -1.511  -0.651   3.322  0.00  0.00    -0.078 A 
ATOM      4  C2  OXE d   1      -2.394  -1.397   4.064  0.00  0.00    -0.078 A 
ATOM      5  C3  OXE d   1      -1.911  -2.324   4.983  0.00  0.00     0.003 A 
ATOM      6  C4  OXE d   1      -0.542  -2.392   5.268  0.00  0.00    -0.002 A 
ATOM      7  C5  OXE d   1       0.372  -1.613   4.551  0.00  0.00    -0.002 A 
ATOM      8  C6  OXE d   1      -0.092  -0.769   3.547  0.00  0.00     0.003 A 
ENDROOT
TORSDOF 0
ENDMDL
