MODEL 1
REMARK minimizedAffinity -3.58311534
REMARK minimizedRMSD -1
REMARK  0 active torsions:
REMARK  status: ('A' for Active; 'I' for Inactive)
ROOT
ATOM      1  C2' OXE d   1       2.623   1.003   0.745  0.00  0.00     0.078 C 
ATOM      2  C1' OXE d   1      -0.056   0.562   1.460  0.00  0.00     0.078 C 
ATOM      3  C1  OXE d   1       1.015   0.034   2.382  0.00  0.00    -0.078 A 
ATOM      4  C2  OXE d   1       2.323   0.213   2.000  0.00  0.00    -0.078 A 
ATOM      5  C3  OXE d   1       3.350  -0.206   2.841  0.00  0.00     0.003 A 
ATOM      6  C4  OXE d   1       3.064  -0.945   3.996  0.00  0.00    -0.002 A 
ATOM      7  C5  OXE d   1       1.739  -1.173   4.382  0.00  0.00    -0.002 A 
ATOM      8  C6  OXE d   1       0.705  -0.655   3.610  0.00  0.00     0.003 A 
ENDROOT
TORSDOF 0
ENDMDL
