MODEL 1
REMARK minimizedAffinity 9.30506897
REMARK minimizedRMSD -1
REMARK  0 active torsions:
REMARK  status: ('A' for Active; 'I' for Inactive)
ROOT
ATOM      1  C2' OXE d   1       2.895   0.699   0.757  0.00  0.00     0.078 C 
ATOM      2  C1' OXE d   1       0.436  -0.552   1.275  0.00  0.00     0.078 C 
ATOM      3  C1  OXE d   1       1.511  -0.652   2.328  0.00  0.00    -0.078 A 
ATOM      4  C2  OXE d   1       2.727  -0.077   2.046  0.00  0.00    -0.078 A 
ATOM      5  C3  OXE d   1       3.736  -0.093   3.005  0.00  0.00     0.003 A 
ATOM      6  C4  OXE d   1       3.576  -0.821   4.190  0.00  0.00    -0.002 A 
ATOM      7  C5  OXE d   1       2.360  -1.448   4.479  0.00  0.00    -0.002 A 
ATOM      8  C6  OXE d   1       1.305  -1.337   3.580  0.00  0.00     0.003 A 
ENDROOT
TORSDOF 0
ENDMDL
