MODEL 1
REMARK minimizedAffinity 7.34858561
REMARK minimizedRMSD -1
REMARK  0 active torsions:
REMARK  status: ('A' for Active; 'I' for Inactive)
ROOT
ATOM      1  C2' OXE d   1      -1.243  -0.234   2.547  0.00  0.00     0.078 C 
ATOM      2  C1' OXE d   1       1.135  -0.360   1.059  0.00  0.00     0.078 C 
ATOM      3  C1  OXE d   1       1.200  -0.721   2.522  0.00  0.00    -0.078 A 
ATOM      4  C2  OXE d   1       0.042  -0.612   3.253  0.00  0.00    -0.078 A 
ATOM      5  C3  OXE d   1       0.034  -0.985   4.594  0.00  0.00     0.003 A 
ATOM      6  C4  OXE d   1       1.228  -1.324   5.242  0.00  0.00    -0.002 A 
ATOM      7  C5  OXE d   1       2.427  -1.403   4.525  0.00  0.00    -0.002 A 
ATOM      8  C6  OXE d   1       2.422  -1.147   3.159  0.00  0.00     0.003 A 
ENDROOT
TORSDOF 0
ENDMDL
