MODEL 1
REMARK minimizedAffinity -3.06484652
REMARK minimizedRMSD -1
REMARK  0 active torsions:
REMARK  status: ('A' for Active; 'I' for Inactive)
ROOT
ATOM      1  C2' OXE d   1       1.446   0.101   1.233  0.00  0.00     0.078 C 
ATOM      2  C1' OXE d   1      -0.911   0.019   2.755  0.00  0.00     0.078 C 
ATOM      3  C1  OXE d   1       0.344  -0.544   3.372  0.00  0.00    -0.078 A 
ATOM      4  C2  OXE d   1       1.483  -0.542   2.603  0.00  0.00    -0.078 A 
ATOM      5  C3  OXE d   1       2.681  -0.999   3.144  0.00  0.00     0.003 A 
ATOM      6  C4  OXE d   1       2.704  -1.602   4.407  0.00  0.00    -0.002 A 
ATOM      7  C5  OXE d   1       1.547  -1.651   5.192  0.00  0.00    -0.002 A 
ATOM      8  C6  OXE d   1       0.371  -1.089   4.707  0.00  0.00     0.003 A 
ENDROOT
TORSDOF 0
ENDMDL
