MODEL 1
REMARK minimizedAffinity 1.36102283
REMARK minimizedRMSD -1
REMARK  0 active torsions:
REMARK  status: ('A' for Active; 'I' for Inactive)
ROOT
ATOM      1  C2' OXE d   1       1.109  -0.478   1.633  0.00  0.00     0.078 C 
ATOM      2  C1' OXE d   1      -1.407  -0.019   2.791  0.00  0.00     0.078 C 
ATOM      3  C1  OXE d   1      -1.340  -0.172   1.292  0.00  0.00    -0.078 A 
ATOM      4  C2  OXE d   1      -0.099  -0.350   0.729  0.00  0.00    -0.078 A 
ATOM      5  C3  OXE d   1       0.013  -0.551  -0.643  0.00  0.00     0.003 A 
ATOM      6  C4  OXE d   1      -1.107  -0.422  -1.473  0.00  0.00    -0.002 A 
ATOM      7  C5  OXE d   1      -2.375  -0.201  -0.924  0.00  0.00    -0.002 A 
ATOM      8  C6  OXE d   1      -2.514  -0.117   0.457  0.00  0.00     0.003 A 
ENDROOT
TORSDOF 0
ENDMDL
