MODEL 1
REMARK minimizedAffinity 2.55653238
REMARK minimizedRMSD -1
REMARK  0 active torsions:
REMARK  status: ('A' for Active; 'I' for Inactive)
ROOT
ATOM      1  C2' OXE d   1      -0.965  -0.605   2.514  0.00  0.00     0.078 C 
ATOM      2  C1' OXE d   1       1.382  -0.122   1.051  0.00  0.00     0.078 C 
ATOM      3  C1  OXE d   1       1.520  -0.748   2.416  0.00  0.00    -0.078 A 
ATOM      4  C2  OXE d   1       0.370  -0.938   3.144  0.00  0.00    -0.078 A 
ATOM      5  C3  OXE d   1       0.436  -1.563   4.386  0.00  0.00     0.003 A 
ATOM      6  C4  OXE d   1       1.676  -1.859   4.966  0.00  0.00    -0.002 A 
ATOM      7  C5  OXE d   1       2.862  -1.637   4.258  0.00  0.00    -0.002 A 
ATOM      8  C6  OXE d   1       2.799  -1.123   2.968  0.00  0.00     0.003 A 
ENDROOT
TORSDOF 0
ENDMDL
