MODEL 1
REMARK minimizedAffinity 6.65896225
REMARK minimizedRMSD -1
REMARK  0 active torsions:
REMARK  status: ('A' for Active; 'I' for Inactive)
ROOT
ATOM      1  C4' PXY d   1       2.518   6.000  -1.466  0.00  0.00     0.077 C 
ATOM      2  C1' PXY d   1      -2.391   2.952  -1.628  0.00  0.00     0.077 C 
ATOM      3  C1  PXY d   1      -1.109   3.760  -1.594  0.00  0.00    -0.082 A 
ATOM      4  C2  PXY d   1       0.029   3.168  -1.269  0.00  0.00     0.003 A 
ATOM      5  C3  PXY d   1       1.192   3.890  -1.202  0.00  0.00     0.003 A 
ATOM      6  C4  PXY d   1       1.201   5.221  -1.523  0.00  0.00    -0.082 A 
ATOM      7  C5  PXY d   1       0.046   5.830  -1.866  0.00  0.00     0.003 A 
ATOM      8  C6  PXY d   1      -1.132   5.088  -1.888  0.00  0.00     0.003 A 
ENDROOT
TORSDOF 0
ENDMDL
