MODEL 1
REMARK minimizedAffinity 18.1200771
REMARK minimizedRMSD -1
REMARK  0 active torsions:
REMARK  status: ('A' for Active; 'I' for Inactive)
ROOT
ATOM      1  C4' PXY d   1       0.027   2.641  -0.823  0.00  0.00     0.077 C 
ATOM      2  C1' PXY d   1      -1.848   0.071  -5.650  0.00  0.00     0.077 C 
ATOM      3  C1  PXY d   1      -1.350   0.734  -4.381  0.00  0.00    -0.082 A 
ATOM      4  C2  PXY d   1      -2.024   1.750  -3.866  0.00  0.00     0.003 A 
ATOM      5  C3  PXY d   1      -1.570   2.382  -2.736  0.00  0.00     0.003 A 
ATOM      6  C4  PXY d   1      -0.444   1.935  -2.098  0.00  0.00    -0.082 A 
ATOM      7  C5  PXY d   1       0.243   0.893  -2.611  0.00  0.00     0.003 A 
ATOM      8  C6  PXY d   1      -0.212   0.292  -3.781  0.00  0.00     0.003 A 
ENDROOT
TORSDOF 0
ENDMDL
