MODEL 1
REMARK minimizedAffinity 6.91572285
REMARK minimizedRMSD -1
REMARK  0 active torsions:
REMARK  status: ('A' for Active; 'I' for Inactive)
ROOT
ATOM      1  C4' PXY d   1       5.998  -2.345   2.188  0.00  0.00     0.077 C 
ATOM      2  C1' PXY d   1       0.776  -1.543  -0.156  0.00  0.00     0.077 C 
ATOM      3  C1  PXY d   1       2.143  -1.744   0.467  0.00  0.00    -0.082 A 
ATOM      4  C2  PXY d   1       3.121  -2.267  -0.255  0.00  0.00     0.003 A 
ATOM      5  C3  PXY d   1       4.354  -2.485   0.303  0.00  0.00     0.003 A 
ATOM      6  C4  PXY d   1       4.605  -2.115   1.597  0.00  0.00    -0.082 A 
ATOM      7  C5  PXY d   1       3.615  -1.571   2.337  0.00  0.00     0.003 A 
ATOM      8  C6  PXY d   1       2.359  -1.396   1.765  0.00  0.00     0.003 A 
ENDROOT
TORSDOF 0
ENDMDL
