MODEL 1
REMARK minimizedAffinity 10.8294544
REMARK minimizedRMSD -1
REMARK  0 active torsions:
REMARK  status: ('A' for Active; 'I' for Inactive)
ROOT
ATOM      1  C4' PXY d   1       1.052  -0.064   1.853  0.00  0.00     0.077 C 
ATOM      2  C1' PXY d   1       6.000  -2.998   2.426  0.00  0.00     0.077 C 
ATOM      3  C1  PXY d   1       4.699  -2.232   2.288  0.00  0.00    -0.082 A 
ATOM      4  C2  PXY d   1       4.213  -1.980   1.083  0.00  0.00     0.003 A 
ATOM      5  C3  PXY d   1       3.054  -1.262   0.939  0.00  0.00     0.003 A 
ATOM      6  C4  PXY d   1       2.358  -0.842   2.041  0.00  0.00    -0.082 A 
ATOM      7  C5  PXY d   1       2.841  -1.105   3.274  0.00  0.00     0.003 A 
ATOM      8  C6  PXY d   1       4.040  -1.800   3.398  0.00  0.00     0.003 A 
ENDROOT
TORSDOF 0
ENDMDL
