MODEL 1
REMARK minimizedAffinity 13.160264
REMARK minimizedRMSD -1
REMARK  0 active torsions:
REMARK  status: ('A' for Active; 'I' for Inactive)
ROOT
ATOM      1  C4' PXY d   1      -6.000   1.577  -1.137  0.00  0.00     0.077 C 
ATOM      2  C1' PXY d   1      -1.550   0.974  -4.777  0.00  0.00     0.077 C 
ATOM      3  C1  PXY d   1      -2.725   1.126  -3.831  0.00  0.00    -0.082 A 
ATOM      4  C2  PXY d   1      -2.745   2.129  -2.968  0.00  0.00     0.003 A 
ATOM      5  C3  PXY d   1      -3.784   2.262  -2.084  0.00  0.00     0.003 A 
ATOM      6  C4  PXY d   1      -4.839   1.391  -2.118  0.00  0.00    -0.082 A 
ATOM      7  C5  PXY d   1      -4.831   0.371  -3.002  0.00  0.00     0.003 A 
ATOM      8  C6  PXY d   1      -3.747   0.229  -3.864  0.00  0.00     0.003 A 
ENDROOT
TORSDOF 0
ENDMDL
