MODEL 1
REMARK minimizedAffinity 7.03603888
REMARK minimizedRMSD -1
REMARK  0 active torsions:
REMARK  status: ('A' for Active; 'I' for Inactive)
ROOT
ATOM      1  C4' PXY d   1       1.983   5.998  -1.862  0.00  0.00     0.077 C 
ATOM      2  C1' PXY d   1      -2.673   2.587  -1.546  0.00  0.00     0.077 C 
ATOM      3  C1  PXY d   1      -1.445   3.473  -1.621  0.00  0.00    -0.082 A 
ATOM      4  C2  PXY d   1      -1.583   4.758  -1.904  0.00  0.00     0.003 A 
ATOM      5  C3  PXY d   1      -0.480   5.567  -2.007  0.00  0.00     0.003 A 
ATOM      6  C4  PXY d   1       0.771   5.067  -1.766  0.00  0.00    -0.082 A 
ATOM      7  C5  PXY d   1       0.919   3.759  -1.468  0.00  0.00     0.003 A 
ATOM      8  C6  PXY d   1      -0.209   2.946  -1.408  0.00  0.00     0.003 A 
ENDROOT
TORSDOF 0
ENDMDL
