MODEL 1
REMARK minimizedAffinity -3.59326506
REMARK minimizedRMSD -1
REMARK  0 active torsions:
REMARK  status: ('A' for Active; 'I' for Inactive)
ROOT
ATOM      1  C   UNL d   1       0.844  -1.966   1.541  0.00  0.00     0.172 C 
ATOM      2  N   UNL d   1      -0.433  -1.363   1.844  0.00  0.00    -0.070 N 
ATOM      3  C1  UNL d   1      -1.524  -1.347   1.018  0.00  0.00    -0.004 A 
ATOM      4  C2  UNL d   1      -2.538  -0.679   1.670  0.00  0.00    -0.047 A 
ATOM      5  C3  UNL d   1      -2.038  -0.279   2.932  0.00  0.00    -0.047 A 
ATOM      6  C4  UNL d   1      -0.732  -0.715   3.013  0.00  0.00    -0.004 A 
ENDROOT
TORSDOF 0
ENDMDL
