MODEL 1
REMARK minimizedAffinity -2.93168521
REMARK minimizedRMSD -1
REMARK  0 active torsions:
REMARK  status: ('A' for Active; 'I' for Inactive)
ROOT
ATOM      1  C   UNL d   1      -2.029   5.564  -6.000  0.00  0.00     0.172 C 
ATOM      2  N   UNL d   1      -2.234   5.009  -4.682  0.00  0.00    -0.070 N 
ATOM      3  C1  UNL d   1      -3.074   5.513  -3.726  0.00  0.00    -0.004 A 
ATOM      4  C2  UNL d   1      -2.985   4.702  -2.615  0.00  0.00    -0.047 A 
ATOM      5  C3  UNL d   1      -2.059   3.674  -2.915  0.00  0.00    -0.047 A 
ATOM      6  C4  UNL d   1      -1.610   3.889  -4.201  0.00  0.00    -0.004 A 
ENDROOT
TORSDOF 0
ENDMDL
