MODEL 1
REMARK minimizedAffinity 2.26558256
REMARK minimizedRMSD -1
REMARK  0 active torsions:
REMARK  status: ('A' for Active; 'I' for Inactive)
ROOT
ATOM      1  C   UNL d   1       1.557  -2.553   1.176  0.00  0.00     0.172 C 
ATOM      2  N   UNL d   1       0.411  -1.761   1.554  0.00  0.00    -0.070 N 
ATOM      3  C1  UNL d   1      -0.589  -1.351   0.713  0.00  0.00    -0.004 A 
ATOM      4  C2  UNL d   1      -1.492  -0.621   1.455  0.00  0.00    -0.047 A 
ATOM      5  C3  UNL d   1      -1.019  -0.591   2.788  0.00  0.00    -0.047 A 
ATOM      6  C4  UNL d   1       0.161  -1.304   2.821  0.00  0.00    -0.004 A 
ENDROOT
TORSDOF 0
ENDMDL
