MODEL 1
REMARK minimizedAffinity 0.816576242
REMARK minimizedRMSD -1
REMARK  0 active torsions:
REMARK  status: ('A' for Active; 'I' for Inactive)
ROOT
ATOM      1  C   UNL d   1       4.298  -5.999   4.494  0.00  0.00     0.172 C 
ATOM      2  N   UNL d   1       4.631  -4.638   4.843  0.00  0.00    -0.070 N 
ATOM      3  C1  UNL d   1       4.188  -3.516   4.195  0.00  0.00    -0.004 A 
ATOM      4  C2  UNL d   1       4.729  -2.420   4.832  0.00  0.00    -0.047 A 
ATOM      5  C3  UNL d   1       5.525  -2.899   5.899  0.00  0.00    -0.047 A 
ATOM      6  C4  UNL d   1       5.447  -4.276   5.883  0.00  0.00    -0.004 A 
ENDROOT
TORSDOF 0
ENDMDL
