MODEL 1
REMARK minimizedAffinity -1.84030581
REMARK minimizedRMSD -1
REMARK  0 active torsions:
REMARK  status: ('A' for Active; 'I' for Inactive)
ROOT
ATOM      1  C   UNL d   1      -2.203   1.237  -2.875  0.00  0.00     0.172 C 
ATOM      2  N   UNL d   1      -2.414   2.632  -3.184  0.00  0.00    -0.070 N 
ATOM      3  C1  UNL d   1      -3.631   3.241  -3.335  0.00  0.00    -0.004 A 
ATOM      4  C2  UNL d   1      -3.404   4.570  -3.623  0.00  0.00    -0.047 A 
ATOM      5  C3  UNL d   1      -2.003   4.766  -3.647  0.00  0.00    -0.047 A 
ATOM      6  C4  UNL d   1      -1.414   3.549  -3.372  0.00  0.00    -0.004 A 
ENDROOT
TORSDOF 0
ENDMDL
