MODEL 1
REMARK minimizedAffinity -2.32376218
REMARK minimizedRMSD -1
REMARK  0 active torsions:
REMARK  status: ('A' for Active; 'I' for Inactive)
ROOT
ATOM      1  C   UNL d   1      -0.519   4.704  -5.514  0.00  0.00     0.172 C 
ATOM      2  N   UNL d   1      -1.489   4.516  -4.461  0.00  0.00    -0.070 N 
ATOM      3  C1  UNL d   1      -1.648   3.379  -3.715  0.00  0.00    -0.004 A 
ATOM      4  C2  UNL d   1      -2.673   3.601  -2.821  0.00  0.00    -0.047 A 
ATOM      5  C3  UNL d   1      -3.147   4.916  -3.037  0.00  0.00    -0.047 A 
ATOM      6  C4  UNL d   1      -2.397   5.460  -4.058  0.00  0.00    -0.004 A 
ENDROOT
TORSDOF 0
ENDMDL
