MODEL 1
REMARK minimizedAffinity 0.467777014
REMARK minimizedRMSD -1
REMARK  0 active torsions:
REMARK  status: ('A' for Active; 'I' for Inactive)
ROOT
ATOM      1  C1  BNZ d   1       3.126   1.462  -0.410  0.00  0.00     0.000 A 
ATOM      2  C2  BNZ d   1       3.221   0.154  -0.017  0.00  0.00     0.000 A 
ATOM      3  C3  BNZ d   1       2.439  -0.809  -0.593  0.00  0.00     0.000 A 
ATOM      4  C4  BNZ d   1       1.537  -0.456  -1.531  0.00  0.00     0.000 A 
ATOM      5  C5  BNZ d   1       1.423   0.860  -1.931  0.00  0.00     0.000 A 
ATOM      6  C6  BNZ d   1       2.238   1.820  -1.377  0.00  0.00     0.000 A 
ENDROOT
TORSDOF 0
ENDMDL
