MODEL 1
REMARK minimizedAffinity 3.28058815
REMARK minimizedRMSD -1
REMARK  0 active torsions:
REMARK  status: ('A' for Active; 'I' for Inactive)
ROOT
ATOM      1  C1  BNZ d   1      -1.015  -0.347   2.464  0.00  0.00     0.000 A 
ATOM      2  C2  BNZ d   1      -0.178  -0.260   3.544  0.00  0.00     0.000 A 
ATOM      3  C3  BNZ d   1       1.064  -0.829   3.515  0.00  0.00     0.000 A 
ATOM      4  C4  BNZ d   1       1.452  -1.518   2.423  0.00  0.00     0.000 A 
ATOM      5  C5  BNZ d   1       0.616  -1.623   1.329  0.00  0.00     0.000 A 
ATOM      6  C6  BNZ d   1      -0.618  -1.016   1.347  0.00  0.00     0.000 A 
ENDROOT
TORSDOF 0
ENDMDL
