MODEL 1
REMARK minimizedAffinity 1.91380382
REMARK minimizedRMSD -1
REMARK  0 active torsions:
REMARK  status: ('A' for Active; 'I' for Inactive)
ROOT
ATOM      1  C1  BNZ d   1       0.153   0.322   3.423  0.00  0.00     0.000 A 
ATOM      2  C2  BNZ d   1       1.182  -0.400   2.878  0.00  0.00     0.000 A 
ATOM      3  C3  BNZ d   1       0.940  -1.367   1.943  0.00  0.00     0.000 A 
ATOM      4  C4  BNZ d   1      -0.331  -1.639   1.584  0.00  0.00     0.000 A 
ATOM      5  C5  BNZ d   1      -1.379  -0.926   2.130  0.00  0.00     0.000 A 
ATOM      6  C6  BNZ d   1      -1.129   0.073   3.042  0.00  0.00     0.000 A 
ENDROOT
TORSDOF 0
ENDMDL
