MODEL 1
REMARK minimizedAffinity 0.0253320765
REMARK minimizedRMSD -1
REMARK  0 active torsions:
REMARK  status: ('A' for Active; 'I' for Inactive)
ROOT
ATOM      1  C1  BNZ d   1       0.424  -1.660   1.272  0.00  0.00     0.000 A 
ATOM      2  C2  BNZ d   1      -0.418  -1.209   2.254  0.00  0.00     0.000 A 
ATOM      3  C3  BNZ d   1       0.075  -0.602   3.375  0.00  0.00     0.000 A 
ATOM      4  C4  BNZ d   1       1.410  -0.483   3.531  0.00  0.00     0.000 A 
ATOM      5  C5  BNZ d   1       2.272  -0.942   2.555  0.00  0.00     0.000 A 
ATOM      6  C6  BNZ d   1       1.770  -1.517   1.410  0.00  0.00     0.000 A 
ENDROOT
TORSDOF 0
ENDMDL
