MODEL 1
REMARK minimizedAffinity 3.49874282
REMARK minimizedRMSD -1
REMARK  0 active torsions:
REMARK  status: ('A' for Active; 'I' for Inactive)
ROOT
ATOM      1  C1  BNZ d   1      -0.712  -1.237   1.251  0.00  0.00     0.000 A 
ATOM      2  C2  BNZ d   1      -1.664  -0.374   1.722  0.00  0.00     0.000 A 
ATOM      3  C3  BNZ d   1      -1.519   0.231   2.940  0.00  0.00     0.000 A 
ATOM      4  C4  BNZ d   1      -0.444  -0.059   3.700  0.00  0.00     0.000 A 
ATOM      5  C5  BNZ d   1       0.520  -0.935   3.243  0.00  0.00     0.000 A 
ATOM      6  C6  BNZ d   1       0.390  -1.512   2.000  0.00  0.00     0.000 A 
ENDROOT
TORSDOF 0
ENDMDL
