MODEL 1
REMARK minimizedAffinity 1.70088863
REMARK minimizedRMSD -1
REMARK  0 active torsions:
REMARK  status: ('A' for Active; 'I' for Inactive)
ROOT
ATOM      1  C1  BNZ d   1       1.466  -0.166   3.625  0.00  0.00     0.000 A 
ATOM      2  C2  BNZ d   1       0.152   0.218   3.583  0.00  0.00     0.000 A 
ATOM      3  C3  BNZ d   1      -0.679  -0.235   2.596  0.00  0.00     0.000 A 
ATOM      4  C4  BNZ d   1      -0.185  -1.038   1.631  0.00  0.00     0.000 A 
ATOM      5  C5  BNZ d   1       1.139  -1.426   1.654  0.00  0.00     0.000 A 
ATOM      6  C6  BNZ d   1       1.963  -0.999   2.671  0.00  0.00     0.000 A 
ENDROOT
TORSDOF 0
ENDMDL
