MODEL 1
REMARK minimizedAffinity 1.97261953
REMARK minimizedRMSD -1
REMARK  0 active torsions:
REMARK  status: ('A' for Active; 'I' for Inactive)
ROOT
ATOM      1  C1  BNZ d   1       0.850  -0.901   3.343  0.00  0.00     0.000 A 
ATOM      2  C2  BNZ d   1       2.004  -1.632   3.257  0.00  0.00     0.000 A 
ATOM      3  C3  BNZ d   1       2.484  -2.044   2.045  0.00  0.00     0.000 A 
ATOM      4  C4  BNZ d   1       1.789  -1.758   0.925  0.00  0.00     0.000 A 
ATOM      5  C5  BNZ d   1       0.618  -1.030   0.996  0.00  0.00     0.000 A 
ATOM      6  C6  BNZ d   1       0.159  -0.584   2.214  0.00  0.00     0.000 A 
ENDROOT
TORSDOF 0
ENDMDL
