MODEL 1
REMARK minimizedAffinity -0.624726355
REMARK minimizedRMSD -1
REMARK  0 active torsions:
REMARK  status: ('A' for Active; 'I' for Inactive)
ROOT
ATOM      1  C1  BNZ d   1       0.401  -1.015  -0.221  0.00  0.00     0.000 A 
ATOM      2  C2  BNZ d   1       1.458  -1.226   0.624  0.00  0.00     0.000 A 
ATOM      3  C3  BNZ d   1       1.284  -1.212   1.979  0.00  0.00     0.000 A 
ATOM      4  C4  BNZ d   1       0.064  -0.948   2.489  0.00  0.00     0.000 A 
ATOM      5  C5  BNZ d   1      -1.010  -0.724   1.650  0.00  0.00     0.000 A 
ATOM      6  C6  BNZ d   1      -0.839  -0.778   0.286  0.00  0.00     0.000 A 
ENDROOT
TORSDOF 0
ENDMDL
