MODEL 1
REMARK minimizedAffinity -3.98152733
REMARK minimizedRMSD -1
REMARK  1 active torsions:
REMARK  status: ('A' for Active; 'I' for Inactive)
REMARK    1  A    between atoms: N_2  and  C1_3 
ROOT
ATOM      1  C1  UNL d   1      -0.276   0.355  -1.740  0.00  0.00     0.143 A 
ATOM      2  C2  UNL d   1      -0.240   1.371  -2.701  0.00  0.00    -0.057 A 
ATOM      3  C3  UNL d   1       0.736   1.387  -3.705  0.00  0.00     0.033 A 
ATOM      4  C4  UNL d   1       1.714   0.400  -3.748  0.00  0.00    -0.042 A 
ATOM      5  C5  UNL d   1       1.714  -0.606  -2.787  0.00  0.00     0.033 A 
ATOM      6  C6  UNL d   1       0.732  -0.620  -1.791  0.00  0.00    -0.057 A 
ENDROOT
BRANCH   1   7
ATOM      7  N   UNL d   1      -1.160   0.338  -0.659  0.00  0.00    -0.732 N 
ATOM      8  C   UNL d   1      -2.134  -0.723  -0.520  0.00  0.00     0.284 C 
ATOM      9  H3  UNL d   1      -0.712   0.608   0.214  0.00  0.00     0.395 HD
ENDBRANCH   1   7
TORSDOF 1
ENDMDL
