MODEL 1
REMARK minimizedAffinity -3.37066746
REMARK minimizedRMSD -1
REMARK  1 active torsions:
REMARK  status: ('A' for Active; 'I' for Inactive)
REMARK    1  A    between atoms: N_2  and  C1_3 
ROOT
ATOM      1  C1  UNL d   1      -2.196  -0.138   1.922  0.00  0.00     0.143 A 
ATOM      2  C2  UNL d   1      -1.162   0.449   2.659  0.00  0.00    -0.057 A 
ATOM      3  C3  UNL d   1       0.011   0.894   2.038  0.00  0.00     0.033 A 
ATOM      4  C4  UNL d   1       0.184   0.733   0.667  0.00  0.00    -0.042 A 
ATOM      5  C5  UNL d   1      -0.820   0.130  -0.082  0.00  0.00     0.033 A 
ATOM      6  C6  UNL d   1      -1.992  -0.306   0.543  0.00  0.00    -0.057 A 
ENDROOT
BRANCH   1   7
ATOM      7  N   UNL d   1      -3.344  -0.689   2.495  0.00  0.00    -0.732 N 
ATOM      8  C   UNL d   1      -3.268  -1.910   3.269  0.00  0.00     0.284 C 
ATOM      9  H3  UNL d   1      -3.957   0.018   2.893  0.00  0.00     0.395 HD
ENDBRANCH   1   7
TORSDOF 1
ENDMDL
