MODEL 1
REMARK minimizedAffinity -4.32307625
REMARK minimizedRMSD -1
REMARK  1 active torsions:
REMARK  status: ('A' for Active; 'I' for Inactive)
REMARK    1  A    between atoms: N_2  and  C1_3 
ROOT
ATOM      1  C1  UNL d   1      -0.143  -0.026  -0.137  0.00  0.00     0.143 A 
ATOM      2  C2  UNL d   1      -1.531   0.046   0.021  0.00  0.00    -0.057 A 
ATOM      3  C3  UNL d   1      -2.103   0.649   1.148  0.00  0.00     0.033 A 
ATOM      4  C4  UNL d   1      -1.293   1.167   2.154  0.00  0.00    -0.042 A 
ATOM      5  C5  UNL d   1       0.089   1.084   2.029  0.00  0.00     0.033 A 
ATOM      6  C6  UNL d   1       0.654   0.486   0.898  0.00  0.00    -0.057 A 
ENDROOT
BRANCH   1   7
ATOM      7  N   UNL d   1       0.486  -0.700  -1.187  0.00  0.00    -0.732 N 
ATOM      8  C   UNL d   1       0.486  -0.146  -2.524  0.00  0.00     0.284 C 
ATOM      9  H3  UNL d   1       1.374  -1.112  -0.908  0.00  0.00     0.395 HD
ENDBRANCH   1   7
TORSDOF 1
ENDMDL
