MODEL 1
REMARK minimizedAffinity -3.48658776
REMARK minimizedRMSD -1
REMARK  1 active torsions:
REMARK  status: ('A' for Active; 'I' for Inactive)
REMARK    1  A    between atoms: N_2  and  C1_3 
ROOT
ATOM      1  C1  UNL d   1       0.918  -0.729  -1.422  0.00  0.00     0.143 A 
ATOM      2  C2  UNL d   1       2.035  -1.359  -0.863  0.00  0.00    -0.057 A 
ATOM      3  C3  UNL d   1       2.323  -1.250   0.503  0.00  0.00     0.033 A 
ATOM      4  C4  UNL d   1       1.511  -0.482   1.331  0.00  0.00    -0.042 A 
ATOM      5  C5  UNL d   1       0.409   0.173   0.793  0.00  0.00     0.033 A 
ATOM      6  C6  UNL d   1       0.123   0.055  -0.570  0.00  0.00    -0.057 A 
ENDROOT
BRANCH   1   7
ATOM      7  N   UNL d   1       0.634  -0.719  -2.790  0.00  0.00    -0.732 N 
ATOM      8  C   UNL d   1       0.897   0.459  -3.588  0.00  0.00     0.284 C 
ATOM      9  H3  UNL d   1       0.884  -1.594  -3.245  0.00  0.00     0.395 HD
ENDBRANCH   1   7
TORSDOF 1
ENDMDL
