MODEL 1
REMARK minimizedAffinity -3.86981893
REMARK minimizedRMSD -1
REMARK  1 active torsions:
REMARK  status: ('A' for Active; 'I' for Inactive)
REMARK    1  A    between atoms: N_2  and  C1_3 
ROOT
ATOM      1  C1  UNL d   1      -1.820   0.284   2.351  0.00  0.00     0.143 A 
ATOM      2  C2  UNL d   1      -1.373  -0.014   1.059  0.00  0.00    -0.057 A 
ATOM      3  C3  UNL d   1      -0.246   0.617   0.517  0.00  0.00     0.033 A 
ATOM      4  C4  UNL d   1       0.438   1.581   1.250  0.00  0.00    -0.042 A 
ATOM      5  C5  UNL d   1      -0.004   1.911   2.526  0.00  0.00     0.033 A 
ATOM      6  C6  UNL d   1      -1.125   1.273   3.064  0.00  0.00    -0.057 A 
ENDROOT
BRANCH   1   7
ATOM      7  N   UNL d   1      -2.991  -0.237   2.908  0.00  0.00    -0.732 N 
ATOM      8  C   UNL d   1      -2.958  -1.458   3.684  0.00  0.00     0.284 C 
ATOM      9  H3  UNL d   1      -3.591   0.487   3.297  0.00  0.00     0.395 HD
ENDBRANCH   1   7
TORSDOF 1
ENDMDL
