MODEL 1
REMARK minimizedAffinity -2.32419467
REMARK minimizedRMSD -1
REMARK  1 active torsions:
REMARK  status: ('A' for Active; 'I' for Inactive)
REMARK    1  A    between atoms: N_2  and  C1_3 
ROOT
ATOM      1  C1  UNL d   1      -1.033  -0.139   1.061  0.00  0.00     0.143 A 
ATOM      2  C2  UNL d   1      -1.657   0.156   2.278  0.00  0.00    -0.057 A 
ATOM      3  C3  UNL d   1      -1.349   1.322   2.989  0.00  0.00     0.033 A 
ATOM      4  C4  UNL d   1      -0.386   2.203   2.507  0.00  0.00    -0.042 A 
ATOM      5  C5  UNL d   1       0.265   1.918   1.312  0.00  0.00     0.033 A 
ATOM      6  C6  UNL d   1      -0.052   0.755   0.604  0.00  0.00    -0.057 A 
ENDROOT
BRANCH   1   7
ATOM      7  N   UNL d   1      -1.225  -1.330   0.357  0.00  0.00    -0.732 N 
ATOM      8  C   UNL d   1      -0.096  -2.052  -0.190  0.00  0.00     0.284 C 
ATOM      9  H3  UNL d   1      -1.931  -1.924   0.784  0.00  0.00     0.395 HD
ENDBRANCH   1   7
TORSDOF 1
ENDMDL
