MODEL 1
REMARK minimizedAffinity 4.18382406
REMARK minimizedRMSD -1
REMARK  2 active torsions:
REMARK  status: ('A' for Active; 'I' for Inactive)
REMARK    1  A    between atoms: C2'_3  and  C1'_4 
REMARK    2  A    between atoms: C1'_4  and  C1_5 
ROOT
ATOM      1  C1  I4B d   1       2.686  -2.223  -0.382  0.00  0.00    -0.075 A 
ATOM      2  C2  I4B d   1       3.179  -2.713  -1.566  0.00  0.00     0.003 A 
ATOM      3  C3  I4B d   1       4.084  -1.941  -2.335  0.00  0.00     0.002 A 
ATOM      4  C4  I4B d   1       4.428  -0.674  -1.911  0.00  0.00    -0.004 A 
ATOM      5  C5  I4B d   1       3.945  -0.188  -0.699  0.00  0.00     0.002 A 
ATOM      6  C6  I4B d   1       3.078  -0.972   0.077  0.00  0.00     0.003 A 
ENDROOT
BRANCH   1   7
ATOM      7  C1' I4B d   1       1.707  -3.051   0.388  0.00  0.00     0.060 C 
BRANCH   7   8
ATOM      8  C2' I4B d   1       0.344  -2.875  -0.250  0.00  0.00    -0.013 C 
ATOM      9  C4' I4B d   1       0.435  -2.065  -1.516  0.00  0.00     0.013 C 
ATOM     10  C3' I4B d   1      -0.221  -4.238  -0.518  0.00  0.00     0.013 C 
ENDBRANCH   7   8
ENDBRANCH   1   7
TORSDOF 2
ENDMDL
