MODEL 1
REMARK minimizedAffinity 8.10201836
REMARK minimizedRMSD -1
REMARK  2 active torsions:
REMARK  status: ('A' for Active; 'I' for Inactive)
REMARK    1  A    between atoms: C2'_3  and  C1'_4 
REMARK    2  A    between atoms: C1'_4  and  C1_5 
ROOT
ATOM      1  C1  I4B d   1       0.003   0.852  -0.483  0.00  0.00    -0.075 A 
ATOM      2  C2  I4B d   1      -0.704   1.839   0.159  0.00  0.00     0.003 A 
ATOM      3  C3  I4B d   1      -2.052   2.093  -0.192  0.00  0.00     0.002 A 
ATOM      4  C4  I4B d   1      -2.634   1.376  -1.217  0.00  0.00    -0.004 A 
ATOM      5  C5  I4B d   1      -1.924   0.360  -1.850  0.00  0.00     0.002 A 
ATOM      6  C6  I4B d   1      -0.601   0.088  -1.473  0.00  0.00     0.003 A 
ENDROOT
BRANCH   1   7
ATOM      7  C1' I4B d   1       1.435   0.632  -0.110  0.00  0.00     0.060 C 
BRANCH   7   8
ATOM      8  C2' I4B d   1       1.862  -0.710  -0.669  0.00  0.00    -0.013 C 
ATOM      9  C4' I4B d   1       3.091  -0.577  -1.528  0.00  0.00     0.013 C 
ATOM     10  C3' I4B d   1       2.105  -1.635   0.486  0.00  0.00     0.013 C 
ENDBRANCH   7   8
ENDBRANCH   1   7
TORSDOF 2
ENDMDL
