MODEL 1
REMARK minimizedAffinity 7.96292305
REMARK minimizedRMSD -1
REMARK  2 active torsions:
REMARK  status: ('A' for Active; 'I' for Inactive)
REMARK    1  A    between atoms: C2'_3  and  C1'_4 
REMARK    2  A    between atoms: C1'_4  and  C1_5 
ROOT
ATOM      1  C1  I4B d   1       2.598  -0.379   0.354  0.00  0.00    -0.075 A 
ATOM      2  C2  I4B d   1       1.821  -1.480   0.091  0.00  0.00     0.003 A 
ATOM      3  C3  I4B d   1       2.274  -2.474  -0.809  0.00  0.00     0.002 A 
ATOM      4  C4  I4B d   1       3.479  -2.303  -1.459  0.00  0.00    -0.004 A 
ATOM      5  C5  I4B d   1       4.276  -1.198  -1.175  0.00  0.00     0.002 A 
ATOM      6  C6  I4B d   1       3.839  -0.236  -0.253  0.00  0.00     0.003 A 
ENDROOT
BRANCH   1   7
ATOM      7  C1' I4B d   1       2.074   0.668   1.285  0.00  0.00     0.060 C 
BRANCH   7   8
ATOM      8  C2' I4B d   1       1.276  -0.029   2.369  0.00  0.00    -0.013 C 
ATOM      9  C4' I4B d   1       2.132  -1.000   3.137  0.00  0.00     0.013 C 
ATOM     10  C3' I4B d   1       0.706   1.023   3.273  0.00  0.00     0.013 C 
ENDBRANCH   7   8
ENDBRANCH   1   7
TORSDOF 2
ENDMDL
