MODEL 1
REMARK minimizedAffinity 1.42771673
REMARK minimizedRMSD -1
REMARK  1 active torsions:
REMARK  status: ('A' for Active; 'I' for Inactive)
REMARK    1  A    between atoms: C1_2  and  C2_3 
ROOT
ATOM      1  C2  UNL d   1       5.588   5.153  -3.620  0.00  0.00    -0.077 A 
ATOM      2  C3  UNL d   1       5.231   3.799  -3.560  0.00  0.00     0.002 A 
ATOM      3  C4  UNL d   1       5.258   3.010  -4.713  0.00  0.00     0.002 A 
ATOM      4  C5  UNL d   1       5.645   3.566  -5.930  0.00  0.00    -0.004 A 
ATOM      5  C6  UNL d   1       6.000   4.913  -6.000  0.00  0.00     0.002 A 
ATOM      6  C7  UNL d   1       5.972   5.702  -4.849  0.00  0.00     0.002 A 
ENDROOT
BRANCH   1   7
ATOM      7  C1  UNL d   1       5.607   5.993  -2.369  0.00  0.00     0.055 C 
ATOM      8  C   UNL d   1       5.995   5.165  -1.152  0.00  0.00     0.019 C 
ENDBRANCH   1   7
TORSDOF 1
ENDMDL
