MODEL 1
REMARK minimizedAffinity 2.84873509
REMARK minimizedRMSD -1
REMARK  1 active torsions:
REMARK  status: ('A' for Active; 'I' for Inactive)
REMARK    1  A    between atoms: C1_2  and  C2_3 
ROOT
ATOM      1  C2  UNL d   1       1.749  -2.006  -2.940  0.00  0.00    -0.077 A 
ATOM      2  C3  UNL d   1       0.744  -1.768  -1.992  0.00  0.00     0.002 A 
ATOM      3  C4  UNL d   1      -0.493  -2.409  -2.097  0.00  0.00     0.002 A 
ATOM      4  C5  UNL d   1      -0.734  -3.294  -3.146  0.00  0.00    -0.004 A 
ATOM      5  C6  UNL d   1       0.259  -3.535  -4.095  0.00  0.00     0.002 A 
ATOM      6  C7  UNL d   1       1.494  -2.895  -3.992  0.00  0.00     0.002 A 
ENDROOT
BRANCH   1   7
ATOM      7  C1  UNL d   1       3.100  -1.355  -2.800  0.00  0.00     0.055 C 
ATOM      8  C   UNL d   1       3.771  -1.748  -1.493  0.00  0.00     0.019 C 
ENDBRANCH   1   7
TORSDOF 1
ENDMDL
