MODEL 1
REMARK minimizedAffinity 4.26599216
REMARK minimizedRMSD -1
REMARK  1 active torsions:
REMARK  status: ('A' for Active; 'I' for Inactive)
REMARK    1  A    between atoms: C1_2  and  C2_3 
ROOT
ATOM      1  C2  UNL d   1       3.725  -2.613   4.334  0.00  0.00    -0.077 A 
ATOM      2  C3  UNL d   1       2.995  -3.810   4.340  0.00  0.00     0.002 A 
ATOM      3  C4  UNL d   1       3.378  -4.866   5.168  0.00  0.00     0.002 A 
ATOM      4  C5  UNL d   1       4.488  -4.735   6.000  0.00  0.00    -0.004 A 
ATOM      5  C6  UNL d   1       5.222  -3.549   6.000  0.00  0.00     0.002 A 
ATOM      6  C7  UNL d   1       4.842  -2.492   5.171  0.00  0.00     0.002 A 
ENDROOT
BRANCH   1   7
ATOM      7  C1  UNL d   1       3.285  -1.455   3.477  0.00  0.00     0.055 C 
ATOM      8  C   UNL d   1       3.451  -1.767   1.997  0.00  0.00     0.019 C 
ENDBRANCH   1   7
TORSDOF 1
ENDMDL
