MODEL 1
REMARK minimizedAffinity 2.93898177
REMARK minimizedRMSD -1
REMARK  1 active torsions:
REMARK  status: ('A' for Active; 'I' for Inactive)
REMARK    1  A    between atoms: C1_2  and  C2_3 
ROOT
ATOM      1  C2  UNL d   1       3.609  -2.580   3.630  0.00  0.00    -0.077 A 
ATOM      2  C3  UNL d   1       3.293  -1.588   4.569  0.00  0.00     0.002 A 
ATOM      3  C4  UNL d   1       4.031  -1.473   5.749  0.00  0.00     0.002 A 
ATOM      4  C5  UNL d   1       5.091  -2.342   5.998  0.00  0.00    -0.004 A 
ATOM      5  C6  UNL d   1       5.411  -3.334   5.071  0.00  0.00     0.002 A 
ATOM      6  C7  UNL d   1       4.674  -3.451   3.892  0.00  0.00     0.002 A 
ENDROOT
BRANCH   1   7
ATOM      7  C1  UNL d   1       2.846  -2.675   2.334  0.00  0.00     0.055 C 
ATOM      8  C   UNL d   1       3.249  -1.567   1.372  0.00  0.00     0.019 C 
ENDBRANCH   1   7
TORSDOF 1
ENDMDL
