MODEL 1
REMARK minimizedAffinity 0.62630856
REMARK minimizedRMSD -1
REMARK  1 active torsions:
REMARK  status: ('A' for Active; 'I' for Inactive)
REMARK    1  A    between atoms: C1_2  and  C2_3 
ROOT
ATOM      1  C2  UNL d   1       4.892  -1.981   3.353  0.00  0.00    -0.077 A 
ATOM      2  C3  UNL d   1       4.477  -1.166   4.415  0.00  0.00     0.002 A 
ATOM      3  C4  UNL d   1       4.821  -1.489   5.729  0.00  0.00     0.002 A 
ATOM      4  C5  UNL d   1       5.584  -2.625   5.992  0.00  0.00    -0.004 A 
ATOM      5  C6  UNL d   1       5.999  -3.443   4.943  0.00  0.00     0.002 A 
ATOM      6  C7  UNL d   1       5.656  -3.122   3.629  0.00  0.00     0.002 A 
ENDROOT
BRANCH   1   7
ATOM      7  C1  UNL d   1       4.564  -1.607   1.931  0.00  0.00     0.055 C 
ATOM      8  C   UNL d   1       5.563  -2.212   0.955  0.00  0.00     0.019 C 
ENDBRANCH   1   7
TORSDOF 1
ENDMDL
