MODEL 1
REMARK minimizedAffinity 8.41606808
REMARK minimizedRMSD -1
REMARK  1 active torsions:
REMARK  status: ('A' for Active; 'I' for Inactive)
REMARK    1  A    between atoms: C1_2  and  C2_3 
ROOT
ATOM      1  C2  UNL d   1       5.038  -3.250   4.913  0.00  0.00    -0.077 A 
ATOM      2  C3  UNL d   1       4.966  -2.368   6.000  0.00  0.00     0.002 A 
ATOM      3  C4  UNL d   1       4.059  -1.306   5.989  0.00  0.00     0.002 A 
ATOM      4  C5  UNL d   1       3.215  -1.120   4.896  0.00  0.00    -0.004 A 
ATOM      5  C6  UNL d   1       3.280  -1.991   3.809  0.00  0.00     0.002 A 
ATOM      6  C7  UNL d   1       4.187  -3.052   3.818  0.00  0.00     0.002 A 
ENDROOT
BRANCH   1   7
ATOM      7  C1  UNL d   1       5.981  -4.425   4.944  0.00  0.00     0.055 C 
ATOM      8  C   UNL d   1       5.505  -5.491   5.921  0.00  0.00     0.019 C 
ENDBRANCH   1   7
TORSDOF 1
ENDMDL
