MODEL 1
REMARK minimizedAffinity -3.21796894
REMARK minimizedRMSD -1
REMARK  1 active torsions:
REMARK  status: ('A' for Active; 'I' for Inactive)
REMARK    1  A    between atoms: C1_2  and  C2_3 
ROOT
ATOM      1  C2  UNL d   1       5.403   4.739  -3.397  0.00  0.00    -0.077 A 
ATOM      2  C3  UNL d   1       5.689   3.753  -4.352  0.00  0.00     0.002 A 
ATOM      3  C4  UNL d   1       5.178   3.855  -5.647  0.00  0.00     0.002 A 
ATOM      4  C5  UNL d   1       4.382   4.942  -6.000  0.00  0.00    -0.004 A 
ATOM      5  C6  UNL d   1       4.090   5.927  -5.057  0.00  0.00     0.002 A 
ATOM      6  C7  UNL d   1       4.599   5.826  -3.761  0.00  0.00     0.002 A 
ENDROOT
BRANCH   1   7
ATOM      7  C1  UNL d   1       5.994   4.656  -2.014  0.00  0.00     0.055 C 
ATOM      8  C   UNL d   1       5.926   5.999  -1.301  0.00  0.00     0.019 C 
ENDBRANCH   1   7
TORSDOF 1
ENDMDL
