MODEL 1
REMARK minimizedAffinity 2.53699589
REMARK minimizedRMSD -1
REMARK  1 active torsions:
REMARK  status: ('A' for Active; 'I' for Inactive)
REMARK    1  A    between atoms: C1_2  and  C2_3 
ROOT
ATOM      1  C2  UNL d   1       5.303   4.747  -3.284  0.00  0.00    -0.077 A 
ATOM      2  C3  UNL d   1       5.992   4.458  -4.470  0.00  0.00     0.002 A 
ATOM      3  C4  UNL d   1       5.359   4.600  -5.707  0.00  0.00     0.002 A 
ATOM      4  C5  UNL d   1       4.037   5.036  -5.769  0.00  0.00    -0.004 A 
ATOM      5  C6  UNL d   1       3.343   5.324  -4.594  0.00  0.00     0.002 A 
ATOM      6  C7  UNL d   1       3.974   5.181  -3.357  0.00  0.00     0.002 A 
ENDROOT
BRANCH   1   7
ATOM      7  C1  UNL d   1       5.999   4.641  -1.952  0.00  0.00     0.055 C 
ATOM      8  C   UNL d   1       5.990   5.972  -1.215  0.00  0.00     0.019 C 
ENDBRANCH   1   7
TORSDOF 1
ENDMDL
