MODEL 1
REMARK minimizedAffinity -2.3125546
REMARK minimizedRMSD -1
REMARK  1 active torsions:
REMARK  status: ('A' for Active; 'I' for Inactive)
REMARK    1  A    between atoms: C1_2  and  C2_3 
ROOT
ATOM      1  C2  UNL d   1       5.099  -1.884   3.215  0.00  0.00    -0.077 A 
ATOM      2  C3  UNL d   1       5.896  -2.890   3.780  0.00  0.00     0.002 A 
ATOM      3  C4  UNL d   1       6.000  -3.014   5.167  0.00  0.00     0.002 A 
ATOM      4  C5  UNL d   1       5.305  -2.140   6.000  0.00  0.00    -0.004 A 
ATOM      5  C6  UNL d   1       4.511  -1.136   5.448  0.00  0.00     0.002 A 
ATOM      6  C7  UNL d   1       4.407  -1.009   4.062  0.00  0.00     0.002 A 
ENDROOT
BRANCH   1   7
ATOM      7  C1  UNL d   1       4.947  -1.779   1.720  0.00  0.00     0.055 C 
ATOM      8  C   UNL d   1       5.986  -2.624   0.998  0.00  0.00     0.019 C 
ENDBRANCH   1   7
TORSDOF 1
ENDMDL
