MODEL 1
REMARK minimizedAffinity 0.928313851
REMARK minimizedRMSD -1
REMARK  1 active torsions:
REMARK  status: ('A' for Active; 'I' for Inactive)
REMARK    1  A    between atoms: C1_2  and  C2_3 
ROOT
ATOM      1  C2  UNL d   1      -0.447  -2.600  -2.040  0.00  0.00    -0.077 A 
ATOM      2  C3  UNL d   1      -1.077  -3.802  -2.394  0.00  0.00     0.002 A 
ATOM      3  C4  UNL d   1      -0.910  -4.337  -3.673  0.00  0.00     0.002 A 
ATOM      4  C5  UNL d   1      -0.112  -3.679  -4.606  0.00  0.00    -0.004 A 
ATOM      5  C6  UNL d   1       0.517  -2.483  -4.265  0.00  0.00     0.002 A 
ATOM      6  C7  UNL d   1       0.351  -1.946  -2.987  0.00  0.00     0.002 A 
ENDROOT
BRANCH   1   7
ATOM      7  C1  UNL d   1      -0.585  -2.047  -0.646  0.00  0.00     0.055 C 
ATOM      8  C   UNL d   1      -1.652  -2.793   0.142  0.00  0.00     0.019 C 
ENDBRANCH   1   7
TORSDOF 1
ENDMDL
