MODEL 1
REMARK minimizedAffinity 5.67430735
REMARK minimizedRMSD -1
REMARK  1 active torsions:
REMARK  status: ('A' for Active; 'I' for Inactive)
REMARK    1  A    between atoms: C1_2  and  C2_3 
ROOT
ATOM      1  C2  UNL d   1       5.298   4.240  -3.804  0.00  0.00    -0.077 A 
ATOM      2  C3  UNL d   1       5.983   4.653  -2.652  0.00  0.00     0.002 A 
ATOM      3  C4  UNL d   1       5.376   5.522  -1.744  0.00  0.00     0.002 A 
ATOM      4  C5  UNL d   1       4.081   5.983  -1.976  0.00  0.00    -0.004 A 
ATOM      5  C6  UNL d   1       3.393   5.580  -3.119  0.00  0.00     0.002 A 
ATOM      6  C7  UNL d   1       3.999   4.711  -4.029  0.00  0.00     0.002 A 
ENDROOT
BRANCH   1   7
ATOM      7  C1  UNL d   1       5.933   3.263  -4.760  0.00  0.00     0.055 C 
ATOM      8  C   UNL d   1       5.555   1.829  -4.417  0.00  0.00     0.019 C 
ENDBRANCH   1   7
TORSDOF 1
ENDMDL
