MODEL 1
REMARK minimizedAffinity 1.26928914
REMARK minimizedRMSD -1
REMARK  1 active torsions:
REMARK  status: ('A' for Active; 'I' for Inactive)
REMARK    1  A    between atoms: C1_2  and  C2_3 
ROOT
ATOM      1  C2  UNL d   1       1.239  -2.181  -2.532  0.00  0.00    -0.077 A 
ATOM      2  C3  UNL d   1       0.242  -3.035  -3.022  0.00  0.00     0.002 A 
ATOM      3  C4  UNL d   1      -0.748  -3.528  -2.168  0.00  0.00     0.002 A 
ATOM      4  C5  UNL d   1      -0.752  -3.168  -0.822  0.00  0.00    -0.004 A 
ATOM      5  C6  UNL d   1       0.237  -2.321  -0.325  0.00  0.00     0.002 A 
ATOM      6  C7  UNL d   1       1.228  -1.828  -1.176  0.00  0.00     0.002 A 
ENDROOT
BRANCH   1   7
ATOM      7  C1  UNL d   1       2.278  -1.609  -3.460  0.00  0.00     0.055 C 
ATOM      8  C   UNL d   1       3.644  -1.546  -2.791  0.00  0.00     0.019 C 
ENDBRANCH   1   7
TORSDOF 1
ENDMDL
