MODEL 1
REMARK minimizedAffinity 3.58812714
REMARK minimizedRMSD -1
REMARK  1 active torsions:
REMARK  status: ('A' for Active; 'I' for Inactive)
REMARK    1  A    between atoms: C1_2  and  C2_3 
ROOT
ATOM      1  C2  UNL d   1       5.506   5.245  -2.681  0.00  0.00    -0.077 A 
ATOM      2  C3  UNL d   1       4.566   5.998  -3.398  0.00  0.00     0.002 A 
ATOM      3  C4  UNL d   1       4.129   5.571  -4.654  0.00  0.00     0.002 A 
ATOM      4  C5  UNL d   1       4.623   4.389  -5.200  0.00  0.00    -0.004 A 
ATOM      5  C6  UNL d   1       5.560   3.634  -4.495  0.00  0.00     0.002 A 
ATOM      6  C7  UNL d   1       5.999   4.060  -3.241  0.00  0.00     0.002 A 
ENDROOT
BRANCH   1   7
ATOM      7  C1  UNL d   1       5.942   5.679  -1.306  0.00  0.00     0.055 C 
ATOM      8  C   UNL d   1       6.000   4.499  -0.346  0.00  0.00     0.019 C 
ENDBRANCH   1   7
TORSDOF 1
ENDMDL
