MODEL 1
REMARK minimizedAffinity 4.94121885
REMARK minimizedRMSD -1
REMARK  1 active torsions:
REMARK  status: ('A' for Active; 'I' for Inactive)
REMARK    1  A    between atoms: C1_2  and  C2_3 
ROOT
ATOM      1  C2  UNL d   1      -0.359  -2.617  -2.774  0.00  0.00    -0.077 A 
ATOM      2  C3  UNL d   1       0.583  -3.350  -2.039  0.00  0.00     0.002 A 
ATOM      3  C4  UNL d   1       0.427  -3.520  -0.662  0.00  0.00     0.002 A 
ATOM      4  C5  UNL d   1      -0.671  -2.964  -0.009  0.00  0.00    -0.004 A 
ATOM      5  C6  UNL d   1      -1.612  -2.231  -0.731  0.00  0.00     0.002 A 
ATOM      6  C7  UNL d   1      -1.457  -2.059  -2.107  0.00  0.00     0.002 A 
ENDROOT
BRANCH   1   7
ATOM      7  C1  UNL d   1      -0.218  -2.473  -4.267  0.00  0.00     0.055 C 
ATOM      8  C   UNL d   1      -0.623  -3.752  -4.986  0.00  0.00     0.019 C 
ENDBRANCH   1   7
TORSDOF 1
ENDMDL
