MODEL 1
REMARK minimizedAffinity -1.89881659
REMARK minimizedRMSD -1
REMARK  1 active torsions:
REMARK  status: ('A' for Active; 'I' for Inactive)
REMARK    1  A    between atoms: C1_2  and  C2_3 
ROOT
ATOM      1  C2  UNL d   1       4.954   5.046  -4.469  0.00  0.00    -0.077 A 
ATOM      2  C3  UNL d   1       3.651   5.037  -3.950  0.00  0.00     0.002 A 
ATOM      3  C4  UNL d   1       3.403   5.504  -2.658  0.00  0.00     0.002 A 
ATOM      4  C5  UNL d   1       4.451   5.986  -1.876  0.00  0.00    -0.004 A 
ATOM      5  C6  UNL d   1       5.750   5.997  -2.382  0.00  0.00     0.002 A 
ATOM      6  C7  UNL d   1       6.000   5.529  -3.673  0.00  0.00     0.002 A 
ENDROOT
BRANCH   1   7
ATOM      7  C1  UNL d   1       5.216   4.588  -5.880  0.00  0.00     0.055 C 
ATOM      8  C   UNL d   1       5.156   3.072  -5.991  0.00  0.00     0.019 C 
ENDBRANCH   1   7
TORSDOF 1
ENDMDL
