MODEL 1
REMARK minimizedAffinity -0.836770713
REMARK minimizedRMSD -1
REMARK  1 active torsions:
REMARK  status: ('A' for Active; 'I' for Inactive)
REMARK    1  A    between atoms: C1_2  and  C2_3 
ROOT
ATOM      1  C2  UNL d   1      -0.756  -2.813  -1.954  0.00  0.00    -0.077 A 
ATOM      2  C3  UNL d   1      -0.629  -3.982  -2.717  0.00  0.00     0.002 A 
ATOM      3  C4  UNL d   1       0.500  -4.188  -3.512  0.00  0.00     0.002 A 
ATOM      4  C5  UNL d   1       1.512  -3.232  -3.548  0.00  0.00    -0.004 A 
ATOM      5  C6  UNL d   1       1.395  -2.065  -2.794  0.00  0.00     0.002 A 
ATOM      6  C7  UNL d   1       0.267  -1.857  -2.000  0.00  0.00     0.002 A 
ENDROOT
BRANCH   1   7
ATOM      7  C1  UNL d   1      -1.950  -2.612  -1.058  0.00  0.00     0.055 C 
ATOM      8  C   UNL d   1      -1.562  -2.709   0.411  0.00  0.00     0.019 C 
ENDBRANCH   1   7
TORSDOF 1
ENDMDL
