MODEL 1
REMARK minimizedAffinity -0.933200896
REMARK minimizedRMSD -1
REMARK  1 active torsions:
REMARK  status: ('A' for Active; 'I' for Inactive)
REMARK    1  A    between atoms: C1_2  and  C2_3 
ROOT
ATOM      1  C2  UNL d   1       4.813  -1.802   3.221  0.00  0.00    -0.077 A 
ATOM      2  C3  UNL d   1       3.662  -2.236   3.894  0.00  0.00     0.002 A 
ATOM      3  C4  UNL d   1       3.682  -2.426   5.277  0.00  0.00     0.002 A 
ATOM      4  C5  UNL d   1       4.848  -2.181   5.999  0.00  0.00    -0.004 A 
ATOM      5  C6  UNL d   1       5.999  -1.751   5.338  0.00  0.00     0.002 A 
ATOM      6  C7  UNL d   1       5.981  -1.561   3.955  0.00  0.00     0.002 A 
ENDROOT
BRANCH   1   7
ATOM      7  C1  UNL d   1       4.779  -1.549   1.736  0.00  0.00     0.055 C 
ATOM      8  C   UNL d   1       5.999  -2.141   1.046  0.00  0.00     0.019 C 
ENDBRANCH   1   7
TORSDOF 1
ENDMDL
