MODEL 1
REMARK minimizedAffinity 8.69433689
REMARK minimizedRMSD -1
REMARK  2 active torsions:
REMARK  status: ('A' for Active; 'I' for Inactive)
REMARK    1  A    between atoms: C2'_3  and  C1'_4 
REMARK    2  A    between atoms: C1'_4  and  C1_5 
ROOT
ATOM      1  C1  I4B d   1      -4.781   2.049  -1.309  0.00  0.00    -0.075 A 
ATOM      2  C2  I4B d   1      -5.812   2.921  -1.558  0.00  0.00     0.003 A 
ATOM      3  C3  I4B d   1      -5.999   3.452  -2.857  0.00  0.00     0.002 A 
ATOM      4  C4  I4B d   1      -5.107   3.127  -3.858  0.00  0.00    -0.004 A 
ATOM      5  C5  I4B d   1      -4.076   2.225  -3.610  0.00  0.00     0.002 A 
ATOM      6  C6  I4B d   1      -3.919   1.673  -2.330  0.00  0.00     0.003 A 
ENDROOT
BRANCH   1   7
ATOM      7  C1' I4B d   1      -4.594   1.533   0.083  0.00  0.00     0.060 C 
BRANCH   7   8
ATOM      8  C2' I4B d   1      -3.288   2.087   0.615  0.00  0.00    -0.013 C 
ATOM      9  C4' I4B d   1      -3.505   2.874   1.881  0.00  0.00     0.013 C 
ATOM     10  C3' I4B d   1      -2.356   0.936   0.846  0.00  0.00     0.013 C 
ENDBRANCH   7   8
ENDBRANCH   1   7
TORSDOF 2
ENDMDL
