MODEL 1
REMARK minimizedAffinity 4.07339811
REMARK minimizedRMSD -1
REMARK  2 active torsions:
REMARK  status: ('A' for Active; 'I' for Inactive)
REMARK    1  A    between atoms: C2'_3  and  C1'_4 
REMARK    2  A    between atoms: C1'_4  and  C1_5 
ROOT
ATOM      1  C1  I4B d   1       2.240  -0.944   2.602  0.00  0.00    -0.075 A 
ATOM      2  C2  I4B d   1       1.409  -1.527   3.527  0.00  0.00     0.003 A 
ATOM      3  C3  I4B d   1       1.898  -2.540   4.386  0.00  0.00     0.002 A 
ATOM      4  C4  I4B d   1       3.202  -2.974   4.253  0.00  0.00    -0.004 A 
ATOM      5  C5  I4B d   1       4.048  -2.366   3.330  0.00  0.00     0.002 A 
ATOM      6  C6  I4B d   1       3.568  -1.337   2.508  0.00  0.00     0.003 A 
ENDROOT
BRANCH   1   7
ATOM      7  C1' I4B d   1       1.681   0.100   1.688  0.00  0.00     0.060 C 
BRANCH   7   8
ATOM      8  C2' I4B d   1       2.800   1.058   1.336  0.00  0.00    -0.013 C 
ATOM      9  C4' I4B d   1       3.538   0.606   0.103  0.00  0.00     0.013 C 
ATOM     10  C3' I4B d   1       2.200   2.419   1.138  0.00  0.00     0.013 C 
ENDBRANCH   7   8
ENDBRANCH   1   7
TORSDOF 2
ENDMDL
