MODEL 1
REMARK minimizedAffinity 8.99745369
REMARK minimizedRMSD -1
REMARK  2 active torsions:
REMARK  status: ('A' for Active; 'I' for Inactive)
REMARK    1  A    between atoms: C2'_3  and  C1'_4 
REMARK    2  A    between atoms: C1'_4  and  C1_5 
ROOT
ATOM      1  C1  I4B d   1       0.130  -1.447   0.234  0.00  0.00    -0.075 A 
ATOM      2  C2  I4B d   1       1.095  -2.298  -0.245  0.00  0.00     0.003 A 
ATOM      3  C3  I4B d   1       0.934  -2.919  -1.507  0.00  0.00     0.002 A 
ATOM      4  C4  I4B d   1      -0.221  -2.703  -2.229  0.00  0.00    -0.004 A 
ATOM      5  C5  I4B d   1      -1.188  -1.822  -1.753  0.00  0.00     0.002 A 
ATOM      6  C6  I4B d   1      -1.006  -1.180  -0.519  0.00  0.00     0.003 A 
ENDROOT
BRANCH   1   7
ATOM      7  C1' I4B d   1       0.317  -0.833   1.585  0.00  0.00     0.060 C 
BRANCH   7   8
ATOM      8  C2' I4B d   1       1.771  -1.000   1.977  0.00  0.00    -0.013 C 
ATOM      9  C4' I4B d   1       2.503   0.316   1.926  0.00  0.00     0.013 C 
ATOM     10  C3' I4B d   1       1.815  -1.591   3.354  0.00  0.00     0.013 C 
ENDBRANCH   7   8
ENDBRANCH   1   7
TORSDOF 2
ENDMDL
