MODEL 1
REMARK minimizedAffinity 9.51081371
REMARK minimizedRMSD -1
REMARK  2 active torsions:
REMARK  status: ('A' for Active; 'I' for Inactive)
REMARK    1  A    between atoms: C2'_3  and  C1'_4 
REMARK    2  A    between atoms: C1'_4  and  C1_5 
ROOT
ATOM      1  C1  I4B d   1       2.290  -0.115   2.794  0.00  0.00    -0.075 A 
ATOM      2  C2  I4B d   1       1.573  -0.816   1.857  0.00  0.00     0.003 A 
ATOM      3  C3  I4B d   1       1.192  -2.157   2.107  0.00  0.00     0.002 A 
ATOM      4  C4  I4B d   1       1.589  -2.769   3.278  0.00  0.00    -0.004 A 
ATOM      5  C5  I4B d   1       2.296  -2.050   4.237  0.00  0.00     0.002 A 
ATOM      6  C6  I4B d   1       2.638  -0.711   4.000  0.00  0.00     0.003 A 
ENDROOT
BRANCH   1   7
ATOM      7  C1' I4B d   1       2.704   1.288   2.484  0.00  0.00     0.060 C 
BRANCH   7   8
ATOM      8  C2' I4B d   1       2.658   1.466   0.980  0.00  0.00    -0.013 C 
ATOM      9  C4' I4B d   1       2.698   2.923   0.602  0.00  0.00     0.013 C 
ATOM     10  C3' I4B d   1       3.819   0.722   0.390  0.00  0.00     0.013 C 
ENDBRANCH   7   8
ENDBRANCH   1   7
TORSDOF 2
ENDMDL
