MODEL 1
REMARK minimizedAffinity 7.54173946
REMARK minimizedRMSD -1
REMARK  2 active torsions:
REMARK  status: ('A' for Active; 'I' for Inactive)
REMARK    1  A    between atoms: C2'_3  and  C1'_4 
REMARK    2  A    between atoms: C1'_4  and  C1_5 
ROOT
ATOM      1  C1  I4B d   1      -5.163   2.351  -1.783  0.00  0.00    -0.075 A 
ATOM      2  C2  I4B d   1      -5.927   3.346  -2.340  0.00  0.00     0.003 A 
ATOM      3  C3  I4B d   1      -6.000   3.486  -3.747  0.00  0.00     0.002 A 
ATOM      4  C4  I4B d   1      -5.258   2.647  -4.553  0.00  0.00    -0.004 A 
ATOM      5  C5  I4B d   1      -4.502   1.624  -3.987  0.00  0.00     0.002 A 
ATOM      6  C6  I4B d   1      -4.463   1.467  -2.594  0.00  0.00     0.003 A 
ENDROOT
BRANCH   1   7
ATOM      7  C1' I4B d   1      -5.082   2.253  -0.293  0.00  0.00     0.060 C 
BRANCH   7   8
ATOM      8  C2' I4B d   1      -3.727   2.778   0.137  0.00  0.00    -0.013 C 
ATOM      9  C4' I4B d   1      -3.075   1.854   1.132  0.00  0.00     0.013 C 
ATOM     10  C3' I4B d   1      -2.881   2.935  -1.091  0.00  0.00     0.013 C 
ENDBRANCH   7   8
ENDBRANCH   1   7
TORSDOF 2
ENDMDL
