MODEL 1
REMARK minimizedAffinity 5.24165154
REMARK minimizedRMSD -1
REMARK  2 active torsions:
REMARK  status: ('A' for Active; 'I' for Inactive)
REMARK    1  A    between atoms: C2'_3  and  C1'_4 
REMARK    2  A    between atoms: C1'_4  and  C1_5 
ROOT
ATOM      1  C1  I4B d   1       2.217   1.083   1.325  0.00  0.00    -0.075 A 
ATOM      2  C2  I4B d   1       2.891   1.685   0.292  0.00  0.00     0.003 A 
ATOM      3  C3  I4B d   1       2.437   2.920  -0.231  0.00  0.00     0.002 A 
ATOM      4  C4  I4B d   1       1.284   3.489   0.272  0.00  0.00    -0.004 A 
ATOM      5  C5  I4B d   1       0.615   2.888   1.335  0.00  0.00     0.002 A 
ATOM      6  C6  I4B d   1       1.092   1.683   1.873  0.00  0.00     0.003 A 
ENDROOT
BRANCH   1   7
ATOM      7  C1' I4B d   1       2.706  -0.238   1.831  0.00  0.00     0.060 C 
BRANCH   7   8
ATOM      8  C2' I4B d   1       1.597  -0.862   2.653  0.00  0.00    -0.013 C 
ATOM      9  C4' I4B d   1       0.536  -1.464   1.770  0.00  0.00     0.013 C 
ATOM     10  C3' I4B d   1       2.210  -1.898   3.546  0.00  0.00     0.013 C 
ENDBRANCH   7   8
ENDBRANCH   1   7
TORSDOF 2
ENDMDL
