MODEL 1
REMARK minimizedAffinity -3.63150024
REMARK minimizedRMSD -1
REMARK  0 active torsions:
REMARK  status: ('A' for Active; 'I' for Inactive)
ROOT
ATOM      1  O1  BZF d   1      -0.073  -0.758   2.838  0.00  0.00    -0.204 OA
ATOM      2  C2  BZF d   1      -1.395  -0.390   2.680  0.00  0.00     0.174 A 
ATOM      3  C3  BZF d   1      -1.677  -0.164   1.381  0.00  0.00    -0.012 A 
ATOM      4  C3A BZF d   1      -0.478  -0.495   0.672  0.00  0.00    -0.107 A 
ATOM      5  C4  BZF d   1      -0.138  -0.491  -0.650  0.00  0.00     0.055 A 
ATOM      6  C5  BZF d   1       1.137  -0.800  -1.004  0.00  0.00    -0.016 A 
ATOM      7  C6  BZF d   1       2.097  -1.111  -0.064  0.00  0.00     0.022 A 
ATOM      8  C7  BZF d   1       1.806  -1.132   1.259  0.00  0.00     0.029 A 
ATOM      9  C7A BZF d   1       0.509  -0.853   1.618  0.00  0.00     0.058 A 
ENDROOT
TORSDOF 0
ENDMDL
