MODEL 1
REMARK minimizedAffinity -5.886374
REMARK minimizedRMSD -1
REMARK  0 active torsions:
REMARK  status: ('A' for Active; 'I' for Inactive)
ROOT
ATOM      1  O1  BZF d   1       0.980  -0.779  -1.274  0.00  0.00    -0.204 OA
ATOM      2  C2  BZF d   1      -0.108   0.012  -1.588  0.00  0.00     0.174 A 
ATOM      3  C3  BZF d   1      -0.757   0.399  -0.471  0.00  0.00    -0.012 A 
ATOM      4  C3A BZF d   1       0.026  -0.110   0.614  0.00  0.00    -0.107 A 
ATOM      5  C4  BZF d   1      -0.095  -0.040   1.972  0.00  0.00     0.055 A 
ATOM      6  C5  BZF d   1       0.798  -0.707   2.750  0.00  0.00    -0.016 A 
ATOM      7  C6  BZF d   1       1.819  -1.456   2.203  0.00  0.00     0.022 A 
ATOM      8  C7  BZF d   1       1.983  -1.551   0.861  0.00  0.00     0.029 A 
ATOM      9  C7A BZF d   1       1.101  -0.852   0.073  0.00  0.00     0.058 A 
ENDROOT
TORSDOF 0
ENDMDL
