MODEL 1
REMARK minimizedAffinity 1.43586707
REMARK minimizedRMSD -1
REMARK  0 active torsions:
REMARK  status: ('A' for Active; 'I' for Inactive)
ROOT
ATOM      1  O1  BZF d   1       1.737  -1.401  -0.205  0.00  0.00    -0.204 OA
ATOM      2  C2  BZF d   1       1.250  -0.692  -1.286  0.00  0.00     0.174 A 
ATOM      3  C3  BZF d   1       0.146   0.004  -0.943  0.00  0.00    -0.012 A 
ATOM      4  C3A BZF d   1      -0.016  -0.216   0.461  0.00  0.00    -0.107 A 
ATOM      5  C4  BZF d   1      -0.924   0.223   1.381  0.00  0.00     0.055 A 
ATOM      6  C5  BZF d   1      -0.845  -0.235   2.658  0.00  0.00    -0.016 A 
ATOM      7  C6  BZF d   1       0.125  -1.136   3.048  0.00  0.00     0.022 A 
ATOM      8  C7  BZF d   1       1.050  -1.596   2.172  0.00  0.00     0.029 A 
ATOM      9  C7A BZF d   1       0.993  -1.110   0.888  0.00  0.00     0.058 A 
ENDROOT
TORSDOF 0
ENDMDL
