MODEL 1
REMARK minimizedAffinity -2.6523962
REMARK minimizedRMSD -1
REMARK  0 active torsions:
REMARK  status: ('A' for Active; 'I' for Inactive)
ROOT
ATOM      1  O1  BZF d   1       0.831  -1.011  -1.056  0.00  0.00    -0.204 OA
ATOM      2  C2  BZF d   1      -0.254  -0.156  -1.082  0.00  0.00     0.174 A 
ATOM      3  C3  BZF d   1      -0.808  -0.049   0.142  0.00  0.00    -0.012 A 
ATOM      4  C3A BZF d   1       0.035  -0.816   1.006  0.00  0.00    -0.107 A 
ATOM      5  C4  BZF d   1       0.015  -1.080   2.346  0.00  0.00     0.055 A 
ATOM      6  C5  BZF d   1       0.942  -1.927   2.866  0.00  0.00    -0.016 A 
ATOM      7  C6  BZF d   1       1.900  -2.529   2.076  0.00  0.00     0.022 A 
ATOM      8  C7  BZF d   1       1.963  -2.294   0.743  0.00  0.00     0.029 A 
ATOM      9  C7A BZF d   1       1.047  -1.413   0.220  0.00  0.00     0.058 A 
ENDROOT
TORSDOF 0
ENDMDL
