MODEL 1
REMARK minimizedAffinity -4.1343894
REMARK minimizedRMSD -1
REMARK  0 active torsions:
REMARK  status: ('A' for Active; 'I' for Inactive)
ROOT
ATOM      1  O1  BZF d   1       0.336  -0.037  -1.605  0.00  0.00    -0.204 OA
ATOM      2  C2  BZF d   1      -0.841   0.669  -1.448  0.00  0.00     0.174 A 
ATOM      3  C3  BZF d   1      -1.171   0.765  -0.144  0.00  0.00    -0.012 A 
ATOM      4  C3A BZF d   1      -0.088   0.156   0.564  0.00  0.00    -0.107 A 
ATOM      5  C4  BZF d   1       0.173  -0.043   1.890  0.00  0.00     0.055 A 
ATOM      6  C5  BZF d   1       1.285  -0.737   2.247  0.00  0.00    -0.016 A 
ATOM      7  C6  BZF d   1       2.154  -1.251   1.306  0.00  0.00     0.022 A 
ATOM      8  C7  BZF d   1       1.940  -1.075  -0.020  0.00  0.00     0.029 A 
ATOM      9  C7A BZF d   1       0.834  -0.345  -0.383  0.00  0.00     0.058 A 
ENDROOT
TORSDOF 0
ENDMDL
