MODEL 1
REMARK minimizedAffinity -3.34836984
REMARK minimizedRMSD -1
REMARK  0 active torsions:
REMARK  status: ('A' for Active; 'I' for Inactive)
ROOT
ATOM      1  O1  BZF d   1      -0.976  -0.218   1.905  0.00  0.00    -0.204 OA
ATOM      2  C2  BZF d   1      -0.313  -1.047   2.789  0.00  0.00     0.174 A 
ATOM      3  C3  BZF d   1       0.728  -1.655   2.186  0.00  0.00    -0.012 A 
ATOM      4  C3A BZF d   1       0.771  -1.107   0.865  0.00  0.00    -0.107 A 
ATOM      5  C4  BZF d   1       1.593  -1.304  -0.207  0.00  0.00     0.055 A 
ATOM      6  C5  BZF d   1       1.319  -0.666  -1.376  0.00  0.00    -0.016 A 
ATOM      7  C6  BZF d   1       0.230   0.170  -1.508  0.00  0.00     0.022 A 
ATOM      8  C7  BZF d   1      -0.611   0.400  -0.471  0.00  0.00     0.029 A 
ATOM      9  C7A BZF d   1      -0.318  -0.217   0.720  0.00  0.00     0.058 A 
ENDROOT
TORSDOF 0
ENDMDL
