MODEL 1
REMARK minimizedAffinity -3.12807894
REMARK minimizedRMSD -1
REMARK  0 active torsions:
REMARK  status: ('A' for Active; 'I' for Inactive)
ROOT
ATOM      1  O1  BZF d   1       0.033  -0.031  -1.961  0.00  0.00    -0.204 OA
ATOM      2  C2  BZF d   1      -0.833   0.931  -2.444  0.00  0.00     0.174 A 
ATOM      3  C3  BZF d   1      -1.573   1.454  -1.445  0.00  0.00    -0.012 A 
ATOM      4  C3A BZF d   1      -1.078   0.843  -0.250  0.00  0.00    -0.107 A 
ATOM      5  C4  BZF d   1      -1.401   0.966   1.071  0.00  0.00     0.055 A 
ATOM      6  C5  BZF d   1      -0.777   0.172   1.980  0.00  0.00    -0.016 A 
ATOM      7  C6  BZF d   1       0.169  -0.758   1.604  0.00  0.00     0.022 A 
ATOM      8  C7  BZF d   1       0.526  -0.914   0.306  0.00  0.00     0.029 A 
ATOM      9  C7A BZF d   1      -0.078  -0.090  -0.612  0.00  0.00     0.058 A 
ENDROOT
TORSDOF 0
ENDMDL
