MODEL 1
REMARK minimizedAffinity -5.59742498
REMARK minimizedRMSD -1
REMARK  0 active torsions:
REMARK  status: ('A' for Active; 'I' for Inactive)
ROOT
ATOM      1  O1  BZF d   1       0.660  -0.724  -0.823  0.00  0.00    -0.204 OA
ATOM      2  C2  BZF d   1      -0.282   0.231  -0.495  0.00  0.00     0.174 A 
ATOM      3  C3  BZF d   1      -0.292   0.458   0.834  0.00  0.00    -0.012 A 
ATOM      4  C3A BZF d   1       0.771  -0.343   1.360  0.00  0.00    -0.107 A 
ATOM      5  C4  BZF d   1       1.270  -0.534   2.616  0.00  0.00     0.055 A 
ATOM      6  C5  BZF d   1       2.266  -1.440   2.801  0.00  0.00    -0.016 A 
ATOM      7  C6  BZF d   1       2.782  -2.175   1.755  0.00  0.00     0.022 A 
ATOM      8  C7  BZF d   1       2.323  -2.017   0.489  0.00  0.00     0.029 A 
ATOM      9  C7A BZF d   1       1.339  -1.079   0.294  0.00  0.00     0.058 A 
ENDROOT
TORSDOF 0
ENDMDL
