MODEL 1
REMARK minimizedAffinity -4.42726803
REMARK minimizedRMSD -1
REMARK  0 active torsions:
REMARK  status: ('A' for Active; 'I' for Inactive)
ROOT
ATOM      1  O1  BZF d   1       0.272   0.283  -0.956  0.00  0.00    -0.204 OA
ATOM      2  C2  BZF d   1      -1.082   0.025  -1.044  0.00  0.00     0.174 A 
ATOM      3  C3  BZF d   1      -1.529  -0.574   0.078  0.00  0.00    -0.012 A 
ATOM      4  C3A BZF d   1      -0.401  -0.616   0.957  0.00  0.00    -0.107 A 
ATOM      5  C4  BZF d   1      -0.218  -1.079   2.229  0.00  0.00     0.055 A 
ATOM      6  C5  BZF d   1       1.025  -1.036   2.775  0.00  0.00    -0.016 A 
ATOM      7  C6  BZF d   1       2.108  -0.543   2.077  0.00  0.00     0.022 A 
ATOM      8  C7  BZF d   1       1.976  -0.068   0.815  0.00  0.00     0.029 A 
ATOM      9  C7A BZF d   1       0.714  -0.079   0.272  0.00  0.00     0.058 A 
ENDROOT
TORSDOF 0
ENDMDL
