MODEL 1
REMARK minimizedAffinity -4.91508961
REMARK minimizedRMSD -1
REMARK  0 active torsions:
REMARK  status: ('A' for Active; 'I' for Inactive)
ROOT
ATOM      1  O1  BZF d   1       0.450   0.554  -0.593  0.00  0.00    -0.204 OA
ATOM      2  C2  BZF d   1      -0.917   0.673  -0.438  0.00  0.00     0.174 A 
ATOM      3  C3  BZF d   1      -1.335   0.001   0.655  0.00  0.00    -0.012 A 
ATOM      4  C3A BZF d   1      -0.143  -0.497   1.269  0.00  0.00    -0.107 A 
ATOM      5  C4  BZF d   1       0.097  -1.229   2.396  0.00  0.00     0.055 A 
ATOM      6  C5  BZF d   1       1.371  -1.613   2.676  0.00  0.00    -0.016 A 
ATOM      7  C6  BZF d   1       2.425  -1.286   1.849  0.00  0.00     0.022 A 
ATOM      8  C7  BZF d   1       2.238  -0.557   0.722  0.00  0.00     0.029 A 
ATOM      9  C7A BZF d   1       0.957  -0.140   0.454  0.00  0.00     0.058 A 
ENDROOT
TORSDOF 0
ENDMDL
