MODEL 1
REMARK minimizedAffinity 5.37517309
REMARK minimizedRMSD -1
REMARK  0 active torsions:
REMARK  status: ('A' for Active; 'I' for Inactive)
ROOT
ATOM      1  C4' PXY d   1       5.907  -0.083   1.474  0.00  0.00     0.077 C 
ATOM      2  C1' PXY d   1       0.440   1.672   2.145  0.00  0.00     0.077 C 
ATOM      3  C1  PXY d   1       1.874   1.208   1.982  0.00  0.00    -0.082 A 
ATOM      4  C2  PXY d   1       2.620   1.717   1.015  0.00  0.00     0.003 A 
ATOM      5  C3  PXY d   1       3.909   1.286   0.833  0.00  0.00     0.003 A 
ATOM      6  C4  PXY d   1       4.457   0.362   1.683  0.00  0.00    -0.082 A 
ATOM      7  C5  PXY d   1       3.705  -0.154   2.678  0.00  0.00     0.003 A 
ATOM      8  C6  PXY d   1       2.386   0.267   2.820  0.00  0.00     0.003 A 
ENDROOT
TORSDOF 0
ENDMDL
