MODEL 1
REMARK minimizedAffinity 2.43725109
REMARK minimizedRMSD -1
REMARK  0 active torsions:
REMARK  status: ('A' for Active; 'I' for Inactive)
ROOT
ATOM      1  C4' PXY d   1       3.853   5.076   1.517  0.00  0.00     0.077 C 
ATOM      2  C1' PXY d   1       1.604  -0.198   0.784  0.00  0.00     0.077 C 
ATOM      3  C1  PXY d   1       2.183   1.190   0.972  0.00  0.00    -0.082 A 
ATOM      4  C2  PXY d   1       3.494   1.364   0.929  0.00  0.00     0.003 A 
ATOM      5  C3  PXY d   1       4.035   2.608   1.130  0.00  0.00     0.003 A 
ATOM      6  C4  PXY d   1       3.224   3.694   1.323  0.00  0.00    -0.082 A 
ATOM      7  C5  PXY d   1       1.885   3.527   1.357  0.00  0.00     0.003 A 
ATOM      8  C6  PXY d   1       1.357   2.249   1.192  0.00  0.00     0.003 A 
ENDROOT
TORSDOF 0
ENDMDL
