MODEL 1
REMARK minimizedAffinity 15.2517262
REMARK minimizedRMSD -1
REMARK  0 active torsions:
REMARK  status: ('A' for Active; 'I' for Inactive)
ROOT
ATOM      1  C4' PXY d   1      -1.067  -6.000  -3.093  0.00  0.00     0.077 C 
ATOM      2  C1' PXY d   1      -6.000  -3.004  -2.760  0.00  0.00     0.077 C 
ATOM      3  C1  PXY d   1      -4.712  -3.799  -2.839  0.00  0.00    -0.082 A 
ATOM      4  C2  PXY d   1      -3.572  -3.175  -3.090  0.00  0.00     0.003 A 
ATOM      5  C3  PXY d   1      -2.403  -3.883  -3.198  0.00  0.00     0.003 A 
ATOM      6  C4  PXY d   1      -2.391  -5.236  -2.994  0.00  0.00    -0.082 A 
ATOM      7  C5  PXY d   1      -3.548  -5.879  -2.727  0.00  0.00     0.003 A 
ATOM      8  C6  PXY d   1      -4.730  -5.148  -2.663  0.00  0.00     0.003 A 
ENDROOT
TORSDOF 0
ENDMDL
