MODEL 1
REMARK minimizedAffinity 10.8653936
REMARK minimizedRMSD -1
REMARK  0 active torsions:
REMARK  status: ('A' for Active; 'I' for Inactive)
ROOT
ATOM      1  C4' PXY d   1       4.130   5.290   2.047  0.00  0.00     0.077 C 
ATOM      2  C1' PXY d   1       1.073   0.409   1.546  0.00  0.00     0.077 C 
ATOM      3  C1  PXY d   1       1.864   1.696   1.675  0.00  0.00    -0.082 A 
ATOM      4  C2  PXY d   1       3.172   1.682   1.476  0.00  0.00     0.003 A 
ATOM      5  C3  PXY d   1       3.907   2.831   1.619  0.00  0.00     0.003 A 
ATOM      6  C4  PXY d   1       3.290   4.016   1.918  0.00  0.00    -0.082 A 
ATOM      7  C5  PXY d   1       1.954   4.040   2.113  0.00  0.00     0.003 A 
ATOM      8  C6  PXY d   1       1.232   2.855   2.003  0.00  0.00     0.003 A 
ENDROOT
TORSDOF 0
ENDMDL
