MODEL 1
REMARK minimizedAffinity 15.7357311
REMARK minimizedRMSD -1
REMARK  0 active torsions:
REMARK  status: ('A' for Active; 'I' for Inactive)
ROOT
ATOM      1  C4' PXY d   1      -5.998   6.000   4.176  0.00  0.00     0.077 C 
ATOM      2  C1' PXY d   1      -3.806   0.749   3.158  0.00  0.00     0.077 C 
ATOM      3  C1  PXY d   1      -4.382   2.128   3.412  0.00  0.00    -0.082 A 
ATOM      4  C2  PXY d   1      -4.102   2.756   4.543  0.00  0.00     0.003 A 
ATOM      5  C3  PXY d   1      -4.640   3.990   4.803  0.00  0.00     0.003 A 
ATOM      6  C4  PXY d   1      -5.431   4.610   3.873  0.00  0.00    -0.082 A 
ATOM      7  C5  PXY d   1      -5.713   3.981   2.713  0.00  0.00     0.003 A 
ATOM      8  C6  PXY d   1      -5.190   2.711   2.486  0.00  0.00     0.003 A 
ENDROOT
TORSDOF 0
ENDMDL
