MODEL 1
REMARK minimizedAffinity 20.2385063
REMARK minimizedRMSD -1
REMARK  0 active torsions:
REMARK  status: ('A' for Active; 'I' for Inactive)
ROOT
ATOM      1  C4' PXY d   1      -3.603  -5.999  -0.127  0.00  0.00     0.077 C 
ATOM      2  C1' PXY d   1      -6.000  -3.326  -4.657  0.00  0.00     0.077 C 
ATOM      3  C1  PXY d   1      -5.359  -4.023  -3.473  0.00  0.00    -0.082 A 
ATOM      4  C2  PXY d   1      -5.981  -5.040  -2.899  0.00  0.00     0.003 A 
ATOM      5  C3  PXY d   1      -5.431  -5.661  -1.807  0.00  0.00     0.003 A 
ATOM      6  C4  PXY d   1      -4.208  -5.271  -1.331  0.00  0.00    -0.082 A 
ATOM      7  C5  PXY d   1      -3.563  -4.241  -1.918  0.00  0.00     0.003 A 
ATOM      8  C6  PXY d   1      -4.157  -3.597  -3.000  0.00  0.00     0.003 A 
ENDROOT
TORSDOF 0
ENDMDL
