MODEL 1
REMARK minimizedAffinity 10.2566814
REMARK minimizedRMSD -1
REMARK  0 active torsions:
REMARK  status: ('A' for Active; 'I' for Inactive)
ROOT
ATOM      1  C4' PXY d   1      -0.635  -1.642   1.236  0.00  0.00     0.077 C 
ATOM      2  C1' PXY d   1       3.505   2.374   1.618  0.00  0.00     0.077 C 
ATOM      3  C1  PXY d   1       2.418   1.321   1.531  0.00  0.00    -0.082 A 
ATOM      4  C2  PXY d   1       2.360   0.527   0.474  0.00  0.00     0.003 A 
ATOM      5  C3  PXY d   1       1.364  -0.410   0.364  0.00  0.00     0.003 A 
ATOM      6  C4  PXY d   1       0.451  -0.571   1.371  0.00  0.00    -0.082 A 
ATOM      7  C5  PXY d   1       0.509   0.228   2.457  0.00  0.00     0.003 A 
ATOM      8  C6  PXY d   1       1.503   1.200   2.531  0.00  0.00     0.003 A 
ENDROOT
TORSDOF 0
ENDMDL
