MODEL 1
REMARK minimizedAffinity 4.61690569
REMARK minimizedRMSD -1
REMARK  0 active torsions:
REMARK  status: ('A' for Active; 'I' for Inactive)
ROOT
ATOM      1  C4' PXY d   1       1.239   3.982  -3.317  0.00  0.00     0.077 C 
ATOM      2  C1' PXY d   1       5.991   6.000  -5.918  0.00  0.00     0.077 C 
ATOM      3  C1  PXY d   1       4.738   5.481  -5.240  0.00  0.00    -0.082 A 
ATOM      4  C2  PXY d   1       4.844   4.626  -4.236  0.00  0.00     0.003 A 
ATOM      5  C3  PXY d   1       3.720   4.122  -3.632  0.00  0.00     0.003 A 
ATOM      6  C4  PXY d   1       2.477   4.539  -4.025  0.00  0.00    -0.082 A 
ATOM      7  C5  PXY d   1       2.361   5.420  -5.041  0.00  0.00     0.003 A 
ATOM      8  C6  PXY d   1       3.512   5.888  -5.668  0.00  0.00     0.003 A 
ENDROOT
TORSDOF 0
ENDMDL
