MODEL 1
REMARK minimizedAffinity 10.5687952
REMARK minimizedRMSD -1
REMARK  0 active torsions:
REMARK  status: ('A' for Active; 'I' for Inactive)
ROOT
ATOM      1  C4' PXY d   1      -1.547   4.977  -1.284  0.00  0.00     0.077 C 
ATOM      2  C1' PXY d   1       2.305   1.309  -3.545  0.00  0.00     0.077 C 
ATOM      3  C1  PXY d   1       1.286   2.262  -2.954  0.00  0.00    -0.082 A 
ATOM      4  C2  PXY d   1       1.491   3.567  -3.026  0.00  0.00     0.003 A 
ATOM      5  C3  PXY d   1       0.595   4.442  -2.467  0.00  0.00     0.003 A 
ATOM      6  C4  PXY d   1      -0.549   3.978  -1.876  0.00  0.00    -0.082 A 
ATOM      7  C5  PXY d   1      -0.771   2.648  -1.808  0.00  0.00     0.003 A 
ATOM      8  C6  PXY d   1       0.171   1.775  -2.344  0.00  0.00     0.003 A 
ENDROOT
TORSDOF 0
ENDMDL
