MODEL 1
REMARK minimizedAffinity 5.27537298
REMARK minimizedRMSD -1
REMARK  0 active torsions:
REMARK  status: ('A' for Active; 'I' for Inactive)
ROOT
ATOM      1  C4' PXY d   1       5.820   5.955   2.670  0.00  0.00     0.077 C 
ATOM      2  C1' PXY d   1       0.944   3.377   0.940  0.00  0.00     0.077 C 
ATOM      3  C1  PXY d   1       2.218   4.065   1.390  0.00  0.00    -0.082 A 
ATOM      4  C2  PXY d   1       3.357   3.393   1.396  0.00  0.00     0.003 A 
ATOM      5  C3  PXY d   1       4.512   3.990   1.831  0.00  0.00     0.003 A 
ATOM      6  C4  PXY d   1       4.511   5.304   2.214  0.00  0.00    -0.082 A 
ATOM      7  C5  PXY d   1       3.355   6.000   2.201  0.00  0.00     0.003 A 
ATOM      8  C6  PXY d   1       2.185   5.364   1.795  0.00  0.00     0.003 A 
ENDROOT
TORSDOF 0
ENDMDL
