MODEL 1
REMARK minimizedAffinity -0.495026648
REMARK minimizedRMSD -1
REMARK  0 active torsions:
REMARK  status: ('A' for Active; 'I' for Inactive)
ROOT
ATOM      1  C4' PXY d   1       1.005   6.000  -6.000  0.00  0.00     0.077 C 
ATOM      2  C1' PXY d   1       5.633   3.302  -3.827  0.00  0.00     0.077 C 
ATOM      3  C1  PXY d   1       4.424   4.021  -4.393  0.00  0.00    -0.082 A 
ATOM      4  C2  PXY d   1       3.282   3.368  -4.536  0.00  0.00     0.003 A 
ATOM      5  C3  PXY d   1       2.188   3.994  -5.076  0.00  0.00     0.003 A 
ATOM      6  C4  PXY d   1       2.248   5.317  -5.424  0.00  0.00    -0.082 A 
ATOM      7  C5  PXY d   1       3.406   5.993  -5.271  0.00  0.00     0.003 A 
ATOM      8  C6  PXY d   1       4.517   5.328  -4.760  0.00  0.00     0.003 A 
ENDROOT
TORSDOF 0
ENDMDL
