MODEL 1
REMARK minimizedAffinity 8.43496609
REMARK minimizedRMSD -1
REMARK  0 active torsions:
REMARK  status: ('A' for Active; 'I' for Inactive)
ROOT
ATOM      1  C4' PXY d   1       0.670   1.039   3.746  0.00  0.00     0.077 C 
ATOM      2  C1' PXY d   1       4.264  -0.047  -0.649  0.00  0.00     0.077 C 
ATOM      3  C1  PXY d   1       3.317   0.248   0.497  0.00  0.00    -0.082 A 
ATOM      4  C2  PXY d   1       3.608  -0.183   1.713  0.00  0.00     0.003 A 
ATOM      5  C3  PXY d   1       2.747   0.047   2.755  0.00  0.00     0.003 A 
ATOM      6  C4  PXY d   1       1.602   0.772   2.561  0.00  0.00    -0.082 A 
ATOM      7  C5  PXY d   1       1.303   1.224   1.324  0.00  0.00     0.003 A 
ATOM      8  C6  PXY d   1       2.169   0.944   0.272  0.00  0.00     0.003 A 
ENDROOT
TORSDOF 0
ENDMDL
