MODEL 1
REMARK minimizedAffinity 17.9569225
REMARK minimizedRMSD -1
REMARK  0 active torsions:
REMARK  status: ('A' for Active; 'I' for Inactive)
ROOT
ATOM      1  C4' PXY d   1       0.318   1.329   4.176  0.00  0.00     0.077 C 
ATOM      2  C1' PXY d   1       3.805   1.772  -0.413  0.00  0.00     0.077 C 
ATOM      3  C1  PXY d   1       2.886   1.668   0.788  0.00  0.00    -0.082 A 
ATOM      4  C2  PXY d   1       3.164   0.805   1.751  0.00  0.00     0.003 A 
ATOM      5  C3  PXY d   1       2.327   0.675   2.830  0.00  0.00     0.003 A 
ATOM      6  C4  PXY d   1       1.222   1.475   2.949  0.00  0.00    -0.082 A 
ATOM      7  C5  PXY d   1       0.937   2.366   1.976  0.00  0.00     0.003 A 
ATOM      8  C6  PXY d   1       1.777   2.453   0.869  0.00  0.00     0.003 A 
ENDROOT
TORSDOF 0
ENDMDL
