MODEL 1
REMARK minimizedAffinity 9.93730164
REMARK minimizedRMSD -1
REMARK  0 active torsions:
REMARK  status: ('A' for Active; 'I' for Inactive)
ROOT
ATOM      1  C4' PXY d   1       4.523   1.555  -1.784  0.00  0.00     0.077 C 
ATOM      2  C1' PXY d   1       1.133   0.699   2.819  0.00  0.00     0.077 C 
ATOM      3  C1  PXY d   1       2.031   0.914   1.616  0.00  0.00    -0.082 A 
ATOM      4  C2  PXY d   1       1.986   2.065   0.965  0.00  0.00     0.003 A 
ATOM      5  C3  PXY d   1       2.768   2.265  -0.144  0.00  0.00     0.003 A 
ATOM      6  C4  PXY d   1       3.642   1.297  -0.559  0.00  0.00    -0.082 A 
ATOM      7  C5  PXY d   1       3.701   0.124   0.107  0.00  0.00     0.003 A 
ATOM      8  C6  PXY d   1       2.870  -0.075   1.205  0.00  0.00     0.003 A 
ENDROOT
TORSDOF 0
ENDMDL
