MODEL 1
REMARK minimizedAffinity 15.0339975
REMARK minimizedRMSD -1
REMARK  0 active torsions:
REMARK  status: ('A' for Active; 'I' for Inactive)
ROOT
ATOM      1  C4' PXY d   1       2.989   3.469  -4.111  0.00  0.00     0.077 C 
ATOM      2  C1' PXY d   1       6.000  -1.249  -5.555  0.00  0.00     0.077 C 
ATOM      3  C1  PXY d   1       5.215  -0.012  -5.164  0.00  0.00    -0.082 A 
ATOM      4  C2  PXY d   1       4.142   0.328  -5.859  0.00  0.00     0.003 A 
ATOM      5  C3  PXY d   1       3.439   1.461  -5.539  0.00  0.00     0.003 A 
ATOM      6  C4  PXY d   1       3.807   2.224  -4.464  0.00  0.00    -0.082 A 
ATOM      7  C5  PXY d   1       4.894   1.877  -3.743  0.00  0.00     0.003 A 
ATOM      8  C6  PXY d   1       5.618   0.746  -4.109  0.00  0.00     0.003 A 
ENDROOT
TORSDOF 0
ENDMDL
