MODEL 1
REMARK minimizedAffinity 2.60685062
REMARK minimizedRMSD -1
REMARK  0 active torsions:
REMARK  status: ('A' for Active; 'I' for Inactive)
ROOT
ATOM      1  C4' PXY d   1      -4.104  -3.106  -3.348  0.00  0.00     0.077 C 
ATOM      2  C1' PXY d   1       0.896  -2.438  -0.525  0.00  0.00     0.077 C 
ATOM      3  C1  PXY d   1      -0.409  -2.618  -1.275  0.00  0.00    -0.082 A 
ATOM      4  C2  PXY d   1      -1.463  -1.892  -0.938  0.00  0.00     0.003 A 
ATOM      5  C3  PXY d   1      -2.660  -2.065  -1.585  0.00  0.00     0.003 A 
ATOM      6  C4  PXY d   1      -2.764  -2.951  -2.624  0.00  0.00    -0.082 A 
ATOM      7  C5  PXY d   1      -1.690  -3.688  -2.981  0.00  0.00     0.003 A 
ATOM      8  C6  PXY d   1      -0.496  -3.527  -2.284  0.00  0.00     0.003 A 
ENDROOT
TORSDOF 0
ENDMDL
