MODEL 1
REMARK minimizedAffinity 11.3797083
REMARK minimizedRMSD -1
REMARK  0 active torsions:
REMARK  status: ('A' for Active; 'I' for Inactive)
ROOT
ATOM      1  C4' PXY d   1      -5.632  -4.832  -2.842  0.00  0.00     0.077 C 
ATOM      2  C1' PXY d   1      -0.859  -1.804  -1.631  0.00  0.00     0.077 C 
ATOM      3  C1  PXY d   1      -2.110  -2.594  -1.961  0.00  0.00    -0.082 A 
ATOM      4  C2  PXY d   1      -2.987  -2.858  -1.007  0.00  0.00     0.003 A 
ATOM      5  C3  PXY d   1      -4.108  -3.599  -1.281  0.00  0.00     0.003 A 
ATOM      6  C4  PXY d   1      -4.360  -4.029  -2.556  0.00  0.00    -0.082 A 
ATOM      7  C5  PXY d   1      -3.474  -3.755  -3.538  0.00  0.00     0.003 A 
ATOM      8  C6  PXY d   1      -2.322  -3.037  -3.230  0.00  0.00     0.003 A 
ENDROOT
TORSDOF 0
ENDMDL
