MODEL 1
REMARK minimizedAffinity 10.4773388
REMARK minimizedRMSD -1
REMARK  0 active torsions:
REMARK  status: ('A' for Active; 'I' for Inactive)
ROOT
ATOM      1  C4' PXY d   1       0.198  -1.326  -0.716  0.00  0.00     0.077 C 
ATOM      2  C1' PXY d   1      -4.573  -3.671  -2.985  0.00  0.00     0.077 C 
ATOM      3  C1  PXY d   1      -3.316  -3.057  -2.402  0.00  0.00    -0.082 A 
ATOM      4  C2  PXY d   1      -3.104  -3.117  -1.097  0.00  0.00     0.003 A 
ATOM      5  C3  PXY d   1      -1.988  -2.539  -0.549  0.00  0.00     0.003 A 
ATOM      6  C4  PXY d   1      -1.053  -1.940  -1.350  0.00  0.00    -0.082 A 
ATOM      7  C5  PXY d   1      -1.257  -1.884  -2.683  0.00  0.00     0.003 A 
ATOM      8  C6  PXY d   1      -2.417  -2.441  -3.216  0.00  0.00     0.003 A 
ENDROOT
TORSDOF 0
ENDMDL
