MODEL 1
REMARK minimizedAffinity 11.9539394
REMARK minimizedRMSD -1
REMARK  0 active torsions:
REMARK  status: ('A' for Active; 'I' for Inactive)
ROOT
ATOM      1  C4' PXY d   1      -3.800  -3.762  -2.488  0.00  0.00     0.077 C 
ATOM      2  C1' PXY d   1       0.379  -1.860  -6.000  0.00  0.00     0.077 C 
ATOM      3  C1  PXY d   1      -0.710  -2.355  -5.068  0.00  0.00    -0.082 A 
ATOM      4  C2  PXY d   1      -1.536  -3.306  -5.474  0.00  0.00     0.003 A 
ATOM      5  C3  PXY d   1      -2.546  -3.743  -4.657  0.00  0.00     0.003 A 
ATOM      6  C4  PXY d   1      -2.680  -3.238  -3.391  0.00  0.00    -0.082 A 
ATOM      7  C5  PXY d   1      -1.835  -2.275  -2.966  0.00  0.00     0.003 A 
ATOM      8  C6  PXY d   1      -0.842  -1.817  -3.826  0.00  0.00     0.003 A 
ENDROOT
TORSDOF 0
ENDMDL
