MODEL 1
REMARK minimizedAffinity -3.26057577
REMARK minimizedRMSD -1
REMARK  1 active torsions:
REMARK  status: ('A' for Active; 'I' for Inactive)
REMARK    1  A    between atoms: N_2  and  C1_3 
ROOT
ATOM      1  C1  UNL d   1      -0.809  -0.286   0.734  0.00  0.00     0.143 A 
ATOM      2  C2  UNL d   1      -0.686   0.377  -0.492  0.00  0.00    -0.057 A 
ATOM      3  C3  UNL d   1       0.238   1.415  -0.667  0.00  0.00     0.033 A 
ATOM      4  C4  UNL d   1       1.038   1.828   0.393  0.00  0.00    -0.042 A 
ATOM      5  C5  UNL d   1       0.916   1.200   1.627  0.00  0.00     0.033 A 
ATOM      6  C6  UNL d   1      -0.004   0.160   1.794  0.00  0.00    -0.057 A 
ENDROOT
BRANCH   1   7
ATOM      7  N   UNL d   1      -1.776  -1.258   0.999  0.00  0.00    -0.732 N 
ATOM      8  C   UNL d   1      -1.552  -2.263   2.016  0.00  0.00     0.284 C 
ATOM      9  H3  UNL d   1      -2.720  -0.879   0.990  0.00  0.00     0.395 HD
ENDBRANCH   1   7
TORSDOF 1
ENDMDL
