MODEL 1
REMARK minimizedAffinity -2.84253573
REMARK minimizedRMSD -1
REMARK  1 active torsions:
REMARK  status: ('A' for Active; 'I' for Inactive)
REMARK    1  A    between atoms: N_2  and  C1_3 
ROOT
ATOM      1  C1  UNL d   1      -0.745   0.390   1.314  0.00  0.00     0.143 A 
ATOM      2  C2  UNL d   1      -1.961   0.541   0.638  0.00  0.00    -0.057 A 
ATOM      3  C3  UNL d   1      -2.000   0.858  -0.725  0.00  0.00     0.033 A 
ATOM      4  C4  UNL d   1      -0.819   1.059  -1.432  0.00  0.00    -0.042 A 
ATOM      5  C5  UNL d   1       0.401   0.938  -0.776  0.00  0.00     0.033 A 
ATOM      6  C6  UNL d   1       0.433   0.615   0.584  0.00  0.00    -0.057 A 
ENDROOT
BRANCH   1   7
ATOM      7  N   UNL d   1      -0.642   0.173   2.690  0.00  0.00    -0.732 N 
ATOM      8  C   UNL d   1      -0.615   1.288   3.612  0.00  0.00     0.284 C 
ATOM      9  H3  UNL d   1      -1.209  -0.612   3.003  0.00  0.00     0.395 HD
ENDBRANCH   1   7
TORSDOF 1
ENDMDL
