MODEL 1
REMARK minimizedAffinity -2.06958294
REMARK minimizedRMSD -1
REMARK  1 active torsions:
REMARK  status: ('A' for Active; 'I' for Inactive)
REMARK    1  A    between atoms: N_2  and  C1_3 
ROOT
ATOM      1  C1  UNL d   1      -0.437   0.267   1.272  0.00  0.00     0.143 A 
ATOM      2  C2  UNL d   1      -0.004   0.213   2.601  0.00  0.00    -0.057 A 
ATOM      3  C3  UNL d   1      -0.892   0.425   3.663  0.00  0.00     0.033 A 
ATOM      4  C4  UNL d   1      -2.227   0.723   3.413  0.00  0.00    -0.042 A 
ATOM      5  C5  UNL d   1      -2.675   0.806   2.099  0.00  0.00     0.033 A 
ATOM      6  C6  UNL d   1      -1.785   0.587   1.043  0.00  0.00    -0.057 A 
ENDROOT
BRANCH   1   7
ATOM      7  N   UNL d   1       0.416   0.163   0.171  0.00  0.00    -0.732 N 
ATOM      8  C   UNL d   1      -0.059   0.467  -1.161  0.00  0.00     0.284 C 
ATOM      9  H3  UNL d   1       1.350   0.515   0.370  0.00  0.00     0.395 HD
ENDBRANCH   1   7
TORSDOF 1
ENDMDL
