MODEL 1
REMARK minimizedAffinity 0.683600724
REMARK minimizedRMSD -1
REMARK  1 active torsions:
REMARK  status: ('A' for Active; 'I' for Inactive)
REMARK    1  A    between atoms: N_2  and  C1_3 
ROOT
ATOM      1  C1  UNL d   1      -1.726   1.033   1.104  0.00  0.00     0.143 A 
ATOM      2  C2  UNL d   1      -0.819   1.014   2.169  0.00  0.00    -0.057 A 
ATOM      3  C3  UNL d   1       0.544   0.772   1.957  0.00  0.00     0.033 A 
ATOM      4  C4  UNL d   1       1.020   0.516   0.676  0.00  0.00    -0.042 A 
ATOM      5  C5  UNL d   1       0.133   0.504  -0.394  0.00  0.00     0.033 A 
ATOM      6  C6  UNL d   1      -1.226   0.753  -0.178  0.00  0.00    -0.057 A 
ENDROOT
BRANCH   1   7
ATOM      7  N   UNL d   1      -3.108   1.169   1.261  0.00  0.00    -0.732 N 
ATOM      8  C   UNL d   1      -3.667   1.595   2.526  0.00  0.00     0.284 C 
ATOM      9  H3  UNL d   1      -3.552   1.590   0.448  0.00  0.00     0.395 HD
ENDBRANCH   1   7
TORSDOF 1
ENDMDL
