MODEL 1
REMARK minimizedAffinity -2.01372886
REMARK minimizedRMSD -1
REMARK  1 active torsions:
REMARK  status: ('A' for Active; 'I' for Inactive)
REMARK    1  A    between atoms: N_2  and  C1_3 
ROOT
ATOM      1  C1  UNL d   1      -0.133   0.341   0.316  0.00  0.00     0.143 A 
ATOM      2  C2  UNL d   1       0.505   0.877   1.440  0.00  0.00    -0.057 A 
ATOM      3  C3  UNL d   1       0.271   0.365   2.722  0.00  0.00     0.033 A 
ATOM      4  C4  UNL d   1      -0.631  -0.678   2.907  0.00  0.00    -0.042 A 
ATOM      5  C5  UNL d   1      -1.295  -1.210   1.808  0.00  0.00     0.033 A 
ATOM      6  C6  UNL d   1      -1.052  -0.699   0.529  0.00  0.00    -0.057 A 
ENDROOT
BRANCH   1   7
ATOM      7  N   UNL d   1      -0.017   0.870  -0.971  0.00  0.00    -0.732 N 
ATOM      8  C   UNL d   1       0.651   0.126  -2.017  0.00  0.00     0.284 C 
ATOM      9  H3  UNL d   1      -0.865   1.344  -1.274  0.00  0.00     0.395 HD
ENDBRANCH   1   7
TORSDOF 1
ENDMDL
