MODEL 1
REMARK minimizedAffinity -4.5794549
REMARK minimizedRMSD -1
REMARK  1 active torsions:
REMARK  status: ('A' for Active; 'I' for Inactive)
REMARK    1  A    between atoms: N_2  and  C1_3 
ROOT
ATOM      1  C1  UNL d   1      -0.376   0.435   0.958  0.00  0.00     0.143 A 
ATOM      2  C2  UNL d   1      -1.743   0.554   0.688  0.00  0.00    -0.057 A 
ATOM      3  C3  UNL d   1      -2.705   0.056   1.576  0.00  0.00     0.033 A 
ATOM      4  C4  UNL d   1      -2.313  -0.596   2.740  0.00  0.00    -0.042 A 
ATOM      5  C5  UNL d   1      -0.959  -0.747   3.017  0.00  0.00     0.033 A 
ATOM      6  C6  UNL d   1      -0.004  -0.243   2.130  0.00  0.00    -0.057 A 
ENDROOT
BRANCH   1   7
ATOM      7  N   UNL d   1       0.629   0.822   0.068  0.00  0.00    -0.732 N 
ATOM      8  C   UNL d   1       1.040  -0.057  -1.006  0.00  0.00     0.284 C 
ATOM      9  H3  UNL d   1       0.556   1.800  -0.200  0.00  0.00     0.395 HD
ENDBRANCH   1   7
TORSDOF 1
ENDMDL
