MODEL 1
REMARK minimizedAffinity -2.19531822
REMARK minimizedRMSD -1
REMARK  1 active torsions:
REMARK  status: ('A' for Active; 'I' for Inactive)
REMARK    1  A    between atoms: N_2  and  C1_3 
ROOT
ATOM      1  C1  UNL d   1       0.309   0.090   0.043  0.00  0.00     0.143 A 
ATOM      2  C2  UNL d   1       1.224   0.689   0.915  0.00  0.00    -0.057 A 
ATOM      3  C3  UNL d   1       1.004   0.707   2.297  0.00  0.00     0.033 A 
ATOM      4  C4  UNL d   1      -0.152   0.149   2.831  0.00  0.00    -0.042 A 
ATOM      5  C5  UNL d   1      -1.088  -0.430   1.981  0.00  0.00     0.033 A 
ATOM      6  C6  UNL d   1      -0.860  -0.451   0.602  0.00  0.00    -0.057 A 
ENDROOT
BRANCH   1   7
ATOM      7  N   UNL d   1       0.423   0.127  -1.349  0.00  0.00    -0.732 N 
ATOM      8  C   UNL d   1       1.722   0.074  -1.985  0.00  0.00     0.284 C 
ATOM      9  H3  UNL d   1      -0.289  -0.434  -1.812  0.00  0.00     0.395 HD
ENDBRANCH   1   7
TORSDOF 1
ENDMDL
