MODEL 1
REMARK minimizedAffinity -4.39328337
REMARK minimizedRMSD -1
REMARK  1 active torsions:
REMARK  status: ('A' for Active; 'I' for Inactive)
REMARK    1  A    between atoms: N_2  and  C1_3 
ROOT
ATOM      1  C1  UNL d   1      -0.252   0.064   0.136  0.00  0.00     0.143 A 
ATOM      2  C2  UNL d   1       0.625  -0.067   1.217  0.00  0.00    -0.057 A 
ATOM      3  C3  UNL d   1       0.148  -0.248   2.521  0.00  0.00     0.033 A 
ATOM      4  C4  UNL d   1      -1.220  -0.271   2.771  0.00  0.00    -0.042 A 
ATOM      5  C5  UNL d   1      -2.111  -0.118   1.714  0.00  0.00     0.033 A 
ATOM      6  C6  UNL d   1      -1.628   0.055   0.413  0.00  0.00    -0.057 A 
ENDROOT
BRANCH   1   7
ATOM      7  N   UNL d   1       0.159   0.344  -1.170  0.00  0.00    -0.732 N 
ATOM      8  C   UNL d   1       0.659  -0.709  -2.027  0.00  0.00     0.284 C 
ATOM      9  H3  UNL d   1      -0.458   1.004  -1.638  0.00  0.00     0.395 HD
ENDBRANCH   1   7
TORSDOF 1
ENDMDL
