MODEL 1
REMARK minimizedAffinity -2.72096682
REMARK minimizedRMSD -1
REMARK  1 active torsions:
REMARK  status: ('A' for Active; 'I' for Inactive)
REMARK    1  A    between atoms: N_2  and  C1_3 
ROOT
ATOM      1  C1  UNL d   1      -0.170   0.179  -0.237  0.00  0.00     0.143 A 
ATOM      2  C2  UNL d   1      -1.283  -0.031   0.584  0.00  0.00    -0.057 A 
ATOM      3  C3  UNL d   1      -1.154  -0.114   1.975  0.00  0.00     0.033 A 
ATOM      4  C4  UNL d   1       0.100  -0.016   2.570  0.00  0.00    -0.042 A 
ATOM      5  C5  UNL d   1       1.223   0.168   1.772  0.00  0.00     0.033 A 
ATOM      6  C6  UNL d   1       1.087   0.256   0.384  0.00  0.00    -0.057 A 
ENDROOT
BRANCH   1   7
ATOM      7  N   UNL d   1      -0.221   0.171  -1.633  0.00  0.00    -0.732 N 
ATOM      8  C   UNL d   1       0.937  -0.216  -2.411  0.00  0.00     0.284 C 
ATOM      9  H3  UNL d   1      -1.101  -0.194  -1.988  0.00  0.00     0.395 HD
ENDBRANCH   1   7
TORSDOF 1
ENDMDL
