MODEL 1
REMARK minimizedAffinity -2.75030994
REMARK minimizedRMSD -1
REMARK  1 active torsions:
REMARK  status: ('A' for Active; 'I' for Inactive)
REMARK    1  A    between atoms: N_2  and  C1_3 
ROOT
ATOM      1  C1  UNL d   1       0.914  -0.242  -2.057  0.00  0.00     0.143 A 
ATOM      2  C2  UNL d   1       0.668  -1.312  -2.924  0.00  0.00    -0.057 A 
ATOM      3  C3  UNL d   1       1.661  -1.791  -3.786  0.00  0.00     0.033 A 
ATOM      4  C4  UNL d   1       2.913  -1.186  -3.819  0.00  0.00    -0.042 A 
ATOM      5  C5  UNL d   1       3.172  -0.104  -2.985  0.00  0.00     0.033 A 
ATOM      6  C6  UNL d   1       2.178   0.365  -2.121  0.00  0.00    -0.057 A 
ENDROOT
BRANCH   1   7
ATOM      7  N   UNL d   1      -0.063   0.343  -1.247  0.00  0.00    -0.732 N 
ATOM      8  C   UNL d   1      -0.278  -0.128   0.104  0.00  0.00     0.284 C 
ATOM      9  H3  UNL d   1      -0.093   1.355  -1.344  0.00  0.00     0.395 HD
ENDBRANCH   1   7
TORSDOF 1
ENDMDL
