MODEL 1
REMARK minimizedAffinity 1.90236139
REMARK minimizedRMSD -1
REMARK  0 active torsions:
REMARK  status: ('A' for Active; 'I' for Inactive)
ROOT
ATOM      1  C1  BNZ d   1       2.047   1.181   1.035  0.00  0.00     0.000 A 
ATOM      2  C2  BNZ d   1       1.878   2.058  -0.003  0.00  0.00     0.000 A 
ATOM      3  C3  BNZ d   1       0.636   2.300  -0.520  0.00  0.00     0.000 A 
ATOM      4  C4  BNZ d   1      -0.428   1.635  -0.027  0.00  0.00     0.000 A 
ATOM      5  C5  BNZ d   1      -0.273   0.741   1.014  0.00  0.00     0.000 A 
ATOM      6  C6  BNZ d   1       0.973   0.529   1.558  0.00  0.00     0.000 A 
ENDROOT
TORSDOF 0
ENDMDL
