MODEL 1
REMARK minimizedAffinity -3.2121532
REMARK minimizedRMSD -1
REMARK  0 active torsions:
REMARK  status: ('A' for Active; 'I' for Inactive)
ROOT
ATOM      1  C1  BNZ d   1      -1.613   0.351  -0.552  0.00  0.00     0.000 A 
ATOM      2  C2  BNZ d   1      -2.527   0.589  -1.544  0.00  0.00     0.000 A 
ATOM      3  C3  BNZ d   1      -2.581  -0.209  -2.653  0.00  0.00     0.000 A 
ATOM      4  C4  BNZ d   1      -1.695  -1.217  -2.787  0.00  0.00     0.000 A 
ATOM      5  C5  BNZ d   1      -0.761  -1.464  -1.800  0.00  0.00     0.000 A 
ATOM      6  C6  BNZ d   1      -0.736  -0.683  -0.668  0.00  0.00     0.000 A 
ENDROOT
TORSDOF 0
ENDMDL
