MODEL 1
REMARK minimizedAffinity -3.52888775
REMARK minimizedRMSD -1
REMARK  0 active torsions:
REMARK  status: ('A' for Active; 'I' for Inactive)
ROOT
ATOM      1  C1  BNZ d   1      -0.041   0.390   0.066  0.00  0.00     0.000 A 
ATOM      2  C2  BNZ d   1       1.015   1.261   0.022  0.00  0.00     0.000 A 
ATOM      3  C3  BNZ d   1       2.158   1.011   0.728  0.00  0.00     0.000 A 
ATOM      4  C4  BNZ d   1       2.229  -0.088   1.508  0.00  0.00     0.000 A 
ATOM      5  C5  BNZ d   1       1.170  -0.971   1.570  0.00  0.00     0.000 A 
ATOM      6  C6  BNZ d   1       0.035  -0.736   0.827  0.00  0.00     0.000 A 
ENDROOT
TORSDOF 0
ENDMDL
