MODEL 1
REMARK minimizedAffinity -5.19166708
REMARK minimizedRMSD -1
REMARK  0 active torsions:
REMARK  status: ('A' for Active; 'I' for Inactive)
ROOT
ATOM      1  C1  BNZ d   1       2.180  -1.173   1.267  0.00  0.00     0.000 A 
ATOM      2  C2  BNZ d   1       2.122   0.037   0.627  0.00  0.00     0.000 A 
ATOM      3  C3  BNZ d   1       0.954   0.481   0.074  0.00  0.00     0.000 A 
ATOM      4  C4  BNZ d   1      -0.144  -0.301   0.127  0.00  0.00     0.000 A 
ATOM      5  C5  BNZ d   1      -0.099  -1.527   0.760  0.00  0.00     0.000 A 
ATOM      6  C6  BNZ d   1       1.069  -1.954   1.350  0.00  0.00     0.000 A 
ENDROOT
TORSDOF 0
ENDMDL
