MODEL 1
REMARK minimizedAffinity -4.84706068
REMARK minimizedRMSD -1
REMARK  0 active torsions:
REMARK  status: ('A' for Active; 'I' for Inactive)
ROOT
ATOM      1  C1  BNZ d   1       2.286  -1.859   1.568  0.00  0.00     0.000 A 
ATOM      2  C2  BNZ d   1       0.919  -1.834   1.482  0.00  0.00     0.000 A 
ATOM      3  C3  BNZ d   1       0.271  -0.746   0.967  0.00  0.00     0.000 A 
ATOM      4  C4  BNZ d   1       0.985   0.329   0.577  0.00  0.00     0.000 A 
ATOM      5  C5  BNZ d   1       2.363   0.322   0.667  0.00  0.00     0.000 A 
ATOM      6  C6  BNZ d   1       3.015  -0.789   1.149  0.00  0.00     0.000 A 
ENDROOT
TORSDOF 0
ENDMDL
