MODEL 1
REMARK minimizedAffinity -5.04596233
REMARK minimizedRMSD -1
REMARK  0 active torsions:
REMARK  status: ('A' for Active; 'I' for Inactive)
ROOT
ATOM      1  C1  BNZ d   1       2.452  -1.906   1.896  0.00  0.00     0.000 A 
ATOM      2  C2  BNZ d   1       3.488  -1.117   1.471  0.00  0.00     0.000 A 
ATOM      3  C3  BNZ d   1       3.266  -0.060   0.633  0.00  0.00     0.000 A 
ATOM      4  C4  BNZ d   1       2.015   0.183   0.191  0.00  0.00     0.000 A 
ATOM      5  C5  BNZ d   1       0.961  -0.608   0.603  0.00  0.00     0.000 A 
ATOM      6  C6  BNZ d   1       1.183  -1.648   1.477  0.00  0.00     0.000 A 
ENDROOT
TORSDOF 0
ENDMDL
