MODEL 1
REMARK minimizedAffinity -5.00862408
REMARK minimizedRMSD -1
REMARK  0 active torsions:
REMARK  status: ('A' for Active; 'I' for Inactive)
ROOT
ATOM      1  C1  BNZ d   1       2.370  -0.320   1.092  0.00  0.00     0.000 A 
ATOM      2  C2  BNZ d   1       2.020   1.003   1.056  0.00  0.00     0.000 A 
ATOM      3  C3  BNZ d   1       0.801   1.392   0.575  0.00  0.00     0.000 A 
ATOM      4  C4  BNZ d   1      -0.050   0.462   0.096  0.00  0.00     0.000 A 
ATOM      5  C5  BNZ d   1       0.291  -0.875   0.117  0.00  0.00     0.000 A 
ATOM      6  C6  BNZ d   1       1.504  -1.267   0.637  0.00  0.00     0.000 A 
ENDROOT
TORSDOF 0
ENDMDL
