MODEL 1
REMARK minimizedAffinity -5.27652502
REMARK minimizedRMSD -1
REMARK  0 active torsions:
REMARK  status: ('A' for Active; 'I' for Inactive)
ROOT
ATOM      1  C1  BNZ d   1       0.197  -0.214   0.323  0.00  0.00     0.000 A 
ATOM      2  C2  BNZ d   1       0.251  -1.443   0.925  0.00  0.00     0.000 A 
ATOM      3  C3  BNZ d   1       1.383  -1.857   1.571  0.00  0.00     0.000 A 
ATOM      4  C4  BNZ d   1       2.470  -1.059   1.580  0.00  0.00     0.000 A 
ATOM      5  C5  BNZ d   1       2.434   0.179   0.970  0.00  0.00     0.000 A 
ATOM      6  C6  BNZ d   1       1.281   0.608   0.354  0.00  0.00     0.000 A 
ENDROOT
TORSDOF 0
ENDMDL
