MODEL 1
REMARK minimizedAffinity -2.8624258
REMARK minimizedRMSD -1
REMARK  0 active torsions:
REMARK  status: ('A' for Active; 'I' for Inactive)
ROOT
ATOM      1  C1  BNZ d   1      -0.574   0.583  -0.960  0.00  0.00     0.000 A 
ATOM      2  C2  BNZ d   1      -1.599  -0.315  -0.827  0.00  0.00     0.000 A 
ATOM      3  C3  BNZ d   1      -1.669  -1.142   0.259  0.00  0.00     0.000 A 
ATOM      4  C4  BNZ d   1      -0.694  -1.098   1.190  0.00  0.00     0.000 A 
ATOM      5  C5  BNZ d   1       0.351  -0.204   1.066  0.00  0.00     0.000 A 
ATOM      6  C6  BNZ d   1       0.397   0.654  -0.010  0.00  0.00     0.000 A 
ENDROOT
TORSDOF 0
ENDMDL
