MODEL 1
REMARK minimizedAffinity -4.94992113
REMARK minimizedRMSD -1
REMARK  0 active torsions:
REMARK  status: ('A' for Active; 'I' for Inactive)
ROOT
ATOM      1  C1  BNZ d   1       0.869  -0.957   1.057  0.00  0.00     0.000 A 
ATOM      2  C2  BNZ d   1       1.714   0.094   0.820  0.00  0.00     0.000 A 
ATOM      3  C3  BNZ d   1       2.956   0.136   1.388  0.00  0.00     0.000 A 
ATOM      4  C4  BNZ d   1       3.336  -0.851   2.225  0.00  0.00     0.000 A 
ATOM      5  C5  BNZ d   1       2.492  -1.913   2.482  0.00  0.00     0.000 A 
ATOM      6  C6  BNZ d   1       1.258  -1.972   1.877  0.00  0.00     0.000 A 
ENDROOT
TORSDOF 0
ENDMDL
