MODEL 1
REMARK minimizedAffinity -6.06303549
REMARK minimizedRMSD -1
REMARK  3 active torsions:
REMARK  status: ('A' for Active; 'I' for Inactive)
REMARK    1  A    between atoms: C3'_2  and  C2'_3 
REMARK    2  A    between atoms: C2'_3  and  C1'_4 
REMARK    3  A    between atoms: C1'_4  and  C1_5 
ROOT
ATOM      1  C1  N4B d   1       0.015   0.543   0.847  0.00  0.00    -0.075 A 
ATOM      2  C2  N4B d   1       1.206   0.340   1.578  0.00  0.00     0.002 A 
ATOM      3  C3  N4B d   1       1.156   0.183   2.942  0.00  0.00     0.002 A 
ATOM      4  C4  N4B d   1      -0.066   0.244   3.595  0.00  0.00    -0.004 A 
ATOM      5  C5  N4B d   1      -1.214   0.415   2.878  0.00  0.00     0.002 A 
ATOM      6  C6  N4B d   1      -1.179   0.570   1.507  0.00  0.00     0.002 A 
ENDROOT
BRANCH   1   7
ATOM      7  C1' N4B d   1       0.028   0.805  -0.635  0.00  0.00     0.057 C 
BRANCH   7   8
ATOM      8  C2' N4B d   1       0.574  -0.424  -1.356  0.00  0.00     0.009 C 
BRANCH   8   9
ATOM      9  C3' N4B d   1       0.836  -0.149  -2.827  0.00  0.00     0.004 C 
ATOM     10  C4' N4B d   1       1.603   1.119  -3.053  0.00  0.00     0.003 C 
ENDBRANCH   8   9
ENDBRANCH   7   8
ENDBRANCH   1   7
TORSDOF 3
ENDMDL
