MODEL 1
REMARK minimizedAffinity -4.36902952
REMARK minimizedRMSD -1
REMARK  3 active torsions:
REMARK  status: ('A' for Active; 'I' for Inactive)
REMARK    1  A    between atoms: C3'_2  and  C2'_3 
REMARK    2  A    between atoms: C2'_3  and  C1'_4 
REMARK    3  A    between atoms: C1'_4  and  C1_5 
ROOT
ATOM      1  C1  N4B d   1       0.365  -0.081   0.166  0.00  0.00    -0.075 A 
ATOM      2  C2  N4B d   1      -1.045  -0.035   0.240  0.00  0.00     0.002 A 
ATOM      3  C3  N4B d   1      -1.657   0.681   1.239  0.00  0.00     0.002 A 
ATOM      4  C4  N4B d   1      -0.884   1.340   2.183  0.00  0.00    -0.004 A 
ATOM      5  C5  N4B d   1       0.477   1.312   2.090  0.00  0.00     0.002 A 
ATOM      6  C6  N4B d   1       1.106   0.600   1.089  0.00  0.00     0.002 A 
ENDROOT
BRANCH   1   7
ATOM      7  C1' N4B d   1       1.080  -0.920  -0.857  0.00  0.00     0.057 C 
BRANCH   7   8
ATOM      8  C2' N4B d   1       0.500  -0.628  -2.238  0.00  0.00     0.009 C 
BRANCH   8   9
ATOM      9  C3' N4B d   1       1.507   0.061  -3.143  0.00  0.00     0.004 C 
ATOM     10  C4' N4B d   1       0.858   0.849  -4.241  0.00  0.00     0.003 C 
ENDBRANCH   8   9
ENDBRANCH   7   8
ENDBRANCH   1   7
TORSDOF 3
ENDMDL
