MODEL 1
REMARK minimizedAffinity -5.22146177
REMARK minimizedRMSD -1
REMARK  3 active torsions:
REMARK  status: ('A' for Active; 'I' for Inactive)
REMARK    1  A    between atoms: C3'_2  and  C2'_3 
REMARK    2  A    between atoms: C2'_3  and  C1'_4 
REMARK    3  A    between atoms: C1'_4  and  C1_5 
ROOT
ATOM      1  C1  N4B d   1      -0.302   0.352   0.158  0.00  0.00    -0.075 A 
ATOM      2  C2  N4B d   1      -1.617   0.381   0.672  0.00  0.00     0.002 A 
ATOM      3  C3  N4B d   1      -1.837   0.762   1.973  0.00  0.00     0.002 A 
ATOM      4  C4  N4B d   1      -0.761   1.098   2.780  0.00  0.00    -0.004 A 
ATOM      5  C5  N4B d   1       0.504   1.093   2.268  0.00  0.00     0.002 A 
ATOM      6  C6  N4B d   1       0.739   0.716   0.962  0.00  0.00     0.002 A 
ENDROOT
BRANCH   1   7
ATOM      7  C1' N4B d   1      -0.004  -0.140  -1.232  0.00  0.00     0.057 C 
BRANCH   7   8
ATOM      8  C2' N4B d   1       1.500  -0.062  -1.479  0.00  0.00     0.009 C 
BRANCH   8   9
ATOM      9  C3' N4B d   1       1.831   0.761  -2.712  0.00  0.00     0.004 C 
ATOM     10  C4' N4B d   1       0.669   0.897  -3.650  0.00  0.00     0.003 C 
ENDBRANCH   8   9
ENDBRANCH   7   8
ENDBRANCH   1   7
TORSDOF 3
ENDMDL
