MODEL 1
REMARK minimizedAffinity -4.44129038
REMARK minimizedRMSD -1
REMARK  3 active torsions:
REMARK  status: ('A' for Active; 'I' for Inactive)
REMARK    1  A    between atoms: C3'_2  and  C2'_3 
REMARK    2  A    between atoms: C2'_3  and  C1'_4 
REMARK    3  A    between atoms: C1'_4  and  C1_5 
ROOT
ATOM      1  C1  N4B d   1      -0.062   0.290  -0.674  0.00  0.00    -0.075 A 
ATOM      2  C2  N4B d   1      -1.128   1.204  -0.526  0.00  0.00     0.002 A 
ATOM      3  C3  N4B d   1      -1.592   1.522   0.727  0.00  0.00     0.002 A 
ATOM      4  C4  N4B d   1      -1.020   0.926   1.841  0.00  0.00    -0.004 A 
ATOM      5  C5  N4B d   1       0.026   0.063   1.691  0.00  0.00     0.002 A 
ATOM      6  C6  N4B d   1       0.504  -0.262   0.438  0.00  0.00     0.002 A 
ENDROOT
BRANCH   1   7
ATOM      7  C1' N4B d   1       0.422  -0.154  -2.027  0.00  0.00     0.057 C 
BRANCH   7   8
ATOM      8  C2' N4B d   1       1.196   0.987  -2.681  0.00  0.00     0.009 C 
BRANCH   8   9
ATOM      9  C3' N4B d   1       1.036   0.990  -4.192  0.00  0.00     0.004 C 
ATOM     10  C4' N4B d   1      -0.201   0.274  -4.646  0.00  0.00     0.003 C 
ENDBRANCH   8   9
ENDBRANCH   7   8
ENDBRANCH   1   7
TORSDOF 3
ENDMDL
