MODEL 1
REMARK minimizedAffinity -4.09381676
REMARK minimizedRMSD -1
REMARK  3 active torsions:
REMARK  status: ('A' for Active; 'I' for Inactive)
REMARK    1  A    between atoms: C3'_2  and  C2'_3 
REMARK    2  A    between atoms: C2'_3  and  C1'_4 
REMARK    3  A    between atoms: C1'_4  and  C1_5 
ROOT
ATOM      1  C1  N4B d   1       0.411  -0.667  -0.840  0.00  0.00    -0.075 A 
ATOM      2  C2  N4B d   1       1.612  -0.964  -0.159  0.00  0.00     0.002 A 
ATOM      3  C3  N4B d   1       1.947  -0.269   0.976  0.00  0.00     0.002 A 
ATOM      4  C4  N4B d   1       1.111   0.737   1.437  0.00  0.00    -0.004 A 
ATOM      5  C5  N4B d   1      -0.059   1.001   0.788  0.00  0.00     0.002 A 
ATOM      6  C6  N4B d   1      -0.411   0.307  -0.352  0.00  0.00     0.002 A 
ENDROOT
BRANCH   1   7
ATOM      7  C1' N4B d   1       0.043  -1.341  -2.134  0.00  0.00     0.057 C 
BRANCH   7   8
ATOM      8  C2' N4B d   1      -0.062  -0.290  -3.234  0.00  0.00     0.009 C 
BRANCH   8   9
ATOM      9  C3' N4B d   1       0.550  -0.770  -4.539  0.00  0.00     0.004 C 
ATOM     10  C4' N4B d   1      -0.480  -1.227  -5.530  0.00  0.00     0.003 C 
ENDBRANCH   8   9
ENDBRANCH   7   8
ENDBRANCH   1   7
TORSDOF 3
ENDMDL
