MODEL 1
REMARK minimizedAffinity 2.84142113
REMARK minimizedRMSD -1
REMARK  0 active torsions:
REMARK  status: ('A' for Active; 'I' for Inactive)
ROOT
ATOM      1  C   UNL d   1      -1.672   4.828  -1.745  0.00  0.00     0.172 C 
ATOM      2  N   UNL d   1      -0.720   4.191  -0.867  0.00  0.00    -0.070 N 
ATOM      3  C1  UNL d   1       0.619   4.045  -1.112  0.00  0.00    -0.004 A 
ATOM      4  C2  UNL d   1       1.176   3.388  -0.036  0.00  0.00    -0.047 A 
ATOM      5  C3  UNL d   1       0.135   3.129   0.887  0.00  0.00    -0.047 A 
ATOM      6  C4  UNL d   1      -1.028   3.636   0.348  0.00  0.00    -0.004 A 
ENDROOT
TORSDOF 0
ENDMDL
