MODEL 1
REMARK minimizedAffinity -0.304637402
REMARK minimizedRMSD -1
REMARK  0 active torsions:
REMARK  status: ('A' for Active; 'I' for Inactive)
ROOT
ATOM      1  C   UNL d   1      -0.375   3.229  -0.756  0.00  0.00     0.172 C 
ATOM      2  N   UNL d   1      -0.665   1.906  -1.254  0.00  0.00    -0.070 N 
ATOM      3  C1  UNL d   1      -0.115   0.740  -0.793  0.00  0.00    -0.004 A 
ATOM      4  C2  UNL d   1      -0.650  -0.298  -1.525  0.00  0.00    -0.047 A 
ATOM      5  C3  UNL d   1      -1.551   0.263  -2.460  0.00  0.00    -0.047 A 
ATOM      6  C4  UNL d   1      -1.542   1.629  -2.270  0.00  0.00    -0.004 A 
ENDROOT
TORSDOF 0
ENDMDL
