MODEL 1
REMARK minimizedAffinity 3.58831263
REMARK minimizedRMSD -1
REMARK  0 active torsions:
REMARK  status: ('A' for Active; 'I' for Inactive)
ROOT
ATOM      1  C   UNL d   1       0.618   3.553   0.001  0.00  0.00     0.172 C 
ATOM      2  N   UNL d   1      -0.321   4.442  -0.642  0.00  0.00    -0.070 N 
ATOM      3  C1  UNL d   1      -1.126   5.349  -0.006  0.00  0.00    -0.004 A 
ATOM      4  C2  UNL d   1      -1.870   5.999  -0.967  0.00  0.00    -0.047 A 
ATOM      5  C3  UNL d   1      -1.501   5.464  -2.223  0.00  0.00    -0.047 A 
ATOM      6  C4  UNL d   1      -0.540   4.502  -1.993  0.00  0.00    -0.004 A 
ENDROOT
TORSDOF 0
ENDMDL
