MODEL 1
REMARK minimizedAffinity 5.43061209
REMARK minimizedRMSD -1
REMARK  0 active torsions:
REMARK  status: ('A' for Active; 'I' for Inactive)
ROOT
ATOM      1  C   UNL d   1       3.440  -2.318  -0.621  0.00  0.00     0.172 C 
ATOM      2  N   UNL d   1       2.038  -2.247  -0.960  0.00  0.00    -0.070 N 
ATOM      3  C1  UNL d   1       1.144  -3.281  -0.879  0.00  0.00    -0.004 A 
ATOM      4  C2  UNL d   1      -0.085  -2.810  -1.287  0.00  0.00    -0.047 A 
ATOM      5  C3  UNL d   1       0.077  -1.445  -1.627  0.00  0.00    -0.047 A 
ATOM      6  C4  UNL d   1       1.400  -1.123  -1.415  0.00  0.00    -0.004 A 
ENDROOT
TORSDOF 0
ENDMDL
