MODEL 1
REMARK minimizedAffinity -1.89942253
REMARK minimizedRMSD -1
REMARK  0 active torsions:
REMARK  status: ('A' for Active; 'I' for Inactive)
ROOT
ATOM      1  C   UNL d   1      -0.895   5.999  -2.626  0.00  0.00     0.172 C 
ATOM      2  N   UNL d   1      -0.466   5.196  -1.505  0.00  0.00    -0.070 N 
ATOM      3  C1  UNL d   1      -1.171   4.998  -0.348  0.00  0.00    -0.004 A 
ATOM      4  C2  UNL d   1      -0.423   4.175   0.466  0.00  0.00    -0.047 A 
ATOM      5  C3  UNL d   1       0.773   3.869  -0.225  0.00  0.00    -0.047 A 
ATOM      6  C4  UNL d   1       0.721   4.514  -1.443  0.00  0.00    -0.004 A 
ENDROOT
TORSDOF 0
ENDMDL
