MODEL 1
REMARK minimizedAffinity -1.26851296
REMARK minimizedRMSD -1
REMARK  0 active torsions:
REMARK  status: ('A' for Active; 'I' for Inactive)
ROOT
ATOM      1  C   UNL d   1       0.835   4.507  -0.617  0.00  0.00     0.172 C 
ATOM      2  N   UNL d   1      -0.338   3.792  -1.061  0.00  0.00    -0.070 N 
ATOM      3  C1  UNL d   1      -0.425   2.438  -1.246  0.00  0.00    -0.004 A 
ATOM      4  C2  UNL d   1      -1.704   2.151  -1.672  0.00  0.00    -0.047 A 
ATOM      5  C3  UNL d   1      -2.409   3.376  -1.746  0.00  0.00    -0.047 A 
ATOM      6  C4  UNL d   1      -1.540   4.375  -1.363  0.00  0.00    -0.004 A 
ENDROOT
TORSDOF 0
ENDMDL
