MODEL 1
REMARK minimizedAffinity -1.0941565
REMARK minimizedRMSD -1
REMARK  0 active torsions:
REMARK  status: ('A' for Active; 'I' for Inactive)
ROOT
ATOM      1  C   UNL d   1      -4.304  -0.461   2.991  0.00  0.00     0.172 C 
ATOM      2  N   UNL d   1      -4.703  -1.254   4.130  0.00  0.00    -0.070 N 
ATOM      3  C1  UNL d   1      -3.854  -1.877   5.006  0.00  0.00    -0.004 A 
ATOM      4  C2  UNL d   1      -4.622  -2.526   5.948  0.00  0.00    -0.047 A 
ATOM      5  C3  UNL d   1      -5.979  -2.286   5.627  0.00  0.00    -0.047 A 
ATOM      6  C4  UNL d   1      -6.000  -1.496   4.497  0.00  0.00    -0.004 A 
ENDROOT
TORSDOF 0
ENDMDL
