MODEL 1
REMARK minimizedAffinity 0.198000297
REMARK minimizedRMSD -1
REMARK  0 active torsions:
REMARK  status: ('A' for Active; 'I' for Inactive)
ROOT
ATOM      1  C   UNL d   1      -2.394   4.472  -2.015  0.00  0.00     0.172 C 
ATOM      2  N   UNL d   1      -1.168   4.182  -1.309  0.00  0.00    -0.070 N 
ATOM      3  C1  UNL d   1       0.077   4.639  -1.650  0.00  0.00    -0.004 A 
ATOM      4  C2  UNL d   1       0.975   4.142  -0.731  0.00  0.00    -0.047 A 
ATOM      5  C3  UNL d   1       0.245   3.359   0.195  0.00  0.00    -0.047 A 
ATOM      6  C4  UNL d   1      -1.080   3.401  -0.187  0.00  0.00    -0.004 A 
ENDROOT
TORSDOF 0
ENDMDL
