MODEL 1
REMARK minimizedAffinity 0.930965483
REMARK minimizedRMSD -1
REMARK  0 active torsions:
REMARK  status: ('A' for Active; 'I' for Inactive)
ROOT
ATOM      1  C   UNL d   1      -0.107   3.544   0.451  0.00  0.00     0.172 C 
ATOM      2  N   UNL d   1      -0.074   2.686   1.612  0.00  0.00    -0.070 N 
ATOM      3  C1  UNL d   1       1.056   2.249   2.250  0.00  0.00    -0.004 A 
ATOM      4  C2  UNL d   1       0.664   1.456   3.307  0.00  0.00    -0.047 A 
ATOM      5  C3  UNL d   1      -0.751   1.414   3.303  0.00  0.00    -0.047 A 
ATOM      6  C4  UNL d   1      -1.181   2.184   2.243  0.00  0.00    -0.004 A 
ENDROOT
TORSDOF 0
ENDMDL
