MODEL 1
REMARK minimizedAffinity -4.44359016
REMARK minimizedRMSD -1
REMARK  0 active torsions:
REMARK  status: ('A' for Active; 'I' for Inactive)
ROOT
ATOM      1  C2' OXE d   1      -1.361   0.700   0.220  0.00  0.00     0.078 C 
ATOM      2  C1' OXE d   1       0.754   1.818  -1.250  0.00  0.00     0.078 C 
ATOM      3  C1  OXE d   1       0.826   0.348  -0.920  0.00  0.00    -0.078 A 
ATOM      4  C2  OXE d   1      -0.190  -0.181  -0.161  0.00  0.00    -0.078 A 
ATOM      5  C3  OXE d   1      -0.201  -1.543   0.124  0.00  0.00     0.003 A 
ATOM      6  C4  OXE d   1       0.891  -2.348  -0.223  0.00  0.00    -0.002 A 
ATOM      7  C5  OXE d   1       1.955  -1.821  -0.962  0.00  0.00    -0.002 A 
ATOM      8  C6  OXE d   1       1.918  -0.488  -1.355  0.00  0.00     0.003 A 
ENDROOT
TORSDOF 0
ENDMDL
