MODEL 1
REMARK minimizedAffinity -4.8742137
REMARK minimizedRMSD -1
REMARK  0 active torsions:
REMARK  status: ('A' for Active; 'I' for Inactive)
ROOT
ATOM      1  C2' OXE d   1      -0.868   1.401  -1.485  0.00  0.00     0.078 C 
ATOM      2  C1' OXE d   1      -1.640  -0.009   0.815  0.00  0.00     0.078 C 
ATOM      3  C1  OXE d   1      -0.391  -0.460   0.100  0.00  0.00    -0.078 A 
ATOM      4  C2  OXE d   1      -0.046   0.207  -1.051  0.00  0.00    -0.078 A 
ATOM      5  C3  OXE d   1       1.126  -0.133  -1.719  0.00  0.00     0.003 A 
ATOM      6  C4  OXE d   1       1.875  -1.246  -1.317  0.00  0.00    -0.002 A 
ATOM      7  C5  OXE d   1       1.519  -1.963  -0.169  0.00  0.00    -0.002 A 
ATOM      8  C6  OXE d   1       0.416  -1.558   0.573  0.00  0.00     0.003 A 
ENDROOT
TORSDOF 0
ENDMDL
