MODEL 1
REMARK minimizedAffinity -0.639129937
REMARK minimizedRMSD -1
REMARK  0 active torsions:
REMARK  status: ('A' for Active; 'I' for Inactive)
ROOT
ATOM      1  C2' OXE d   1       5.773  -2.167   3.192  0.00  0.00     0.078 C 
ATOM      2  C1' OXE d   1       5.739  -2.158   5.999  0.00  0.00     0.078 C 
ATOM      3  C1  OXE d   1       5.563  -0.839   5.289  0.00  0.00    -0.078 A 
ATOM      4  C2  OXE d   1       5.627  -0.846   3.916  0.00  0.00    -0.078 A 
ATOM      5  C3  OXE d   1       5.416   0.334   3.210  0.00  0.00     0.003 A 
ATOM      6  C4  OXE d   1       5.292   1.553   3.888  0.00  0.00    -0.002 A 
ATOM      7  C5  OXE d   1       5.263   1.589   5.286  0.00  0.00    -0.002 A 
ATOM      8  C6  OXE d   1       5.354   0.399   6.000  0.00  0.00     0.003 A 
ENDROOT
TORSDOF 0
ENDMDL
