MODEL 1
REMARK minimizedAffinity 3.25353599
REMARK minimizedRMSD -1
REMARK  0 active torsions:
REMARK  status: ('A' for Active; 'I' for Inactive)
ROOT
ATOM      1  C2' OXE d   1       5.992   4.021   4.404  0.00  0.00     0.078 C 
ATOM      2  C1' OXE d   1       3.295   3.818   3.650  0.00  0.00     0.078 C 
ATOM      3  C1  OXE d   1       3.991   2.565   4.119  0.00  0.00    -0.078 A 
ATOM      4  C2  OXE d   1       5.323   2.663   4.441  0.00  0.00    -0.078 A 
ATOM      5  C3  OXE d   1       5.998   1.549   4.931  0.00  0.00     0.003 A 
ATOM      6  C4  OXE d   1       5.375   0.296   4.953  0.00  0.00    -0.002 A 
ATOM      7  C5  OXE d   1       4.030   0.165   4.591  0.00  0.00    -0.002 A 
ATOM      8  C6  OXE d   1       3.313   1.295   4.213  0.00  0.00     0.003 A 
ENDROOT
TORSDOF 0
ENDMDL
