MODEL 1
REMARK minimizedAffinity 7.63780928
REMARK minimizedRMSD -1
REMARK  0 active torsions:
REMARK  status: ('A' for Active; 'I' for Inactive)
ROOT
ATOM      1  C2' OXE d   1      -1.728  -0.676   1.826  0.00  0.00     0.078 C 
ATOM      2  C1' OXE d   1       0.439  -2.258   1.001  0.00  0.00     0.078 C 
ATOM      3  C1  OXE d   1       0.119  -1.027   0.191  0.00  0.00    -0.078 A 
ATOM      4  C2  OXE d   1      -0.972  -0.284   0.575  0.00  0.00    -0.078 A 
ATOM      5  C3  OXE d   1      -1.278   0.892  -0.104  0.00  0.00     0.003 A 
ATOM      6  C4  OXE d   1      -0.580   1.242  -1.267  0.00  0.00    -0.002 A 
ATOM      7  C5  OXE d   1       0.509   0.477  -1.698  0.00  0.00    -0.002 A 
ATOM      8  C6  OXE d   1       0.897  -0.634  -0.957  0.00  0.00     0.003 A 
ENDROOT
TORSDOF 0
ENDMDL
