MODEL 1
REMARK minimizedAffinity -0.863513827
REMARK minimizedRMSD -1
REMARK  0 active torsions:
REMARK  status: ('A' for Active; 'I' for Inactive)
ROOT
ATOM      1  C2' OXE d   1       1.100  -1.244  -0.585  0.00  0.00     0.078 C 
ATOM      2  C1' OXE d   1      -1.388  -2.542  -0.663  0.00  0.00     0.078 C 
ATOM      3  C1  OXE d   1      -1.316  -1.200   0.023  0.00  0.00    -0.078 A 
ATOM      4  C2  OXE d   1      -0.085  -0.594   0.097  0.00  0.00    -0.078 A 
ATOM      5  C3  OXE d   1       0.028   0.669   0.671  0.00  0.00     0.003 A 
ATOM      6  C4  OXE d   1      -1.070   1.258   1.309  0.00  0.00    -0.002 A 
ATOM      7  C5  OXE d   1      -2.325   0.639   1.280  0.00  0.00    -0.002 A 
ATOM      8  C6  OXE d   1      -2.473  -0.568   0.605  0.00  0.00     0.003 A 
ENDROOT
TORSDOF 0
ENDMDL
