MODEL 1
REMARK minimizedAffinity -1.59943771
REMARK minimizedRMSD -1
REMARK  0 active torsions:
REMARK  status: ('A' for Active; 'I' for Inactive)
ROOT
ATOM      1  C2' OXE d   1      -4.707  -1.888   2.630  0.00  0.00     0.078 C 
ATOM      2  C1' OXE d   1      -3.659  -1.543   5.212  0.00  0.00     0.078 C 
ATOM      3  C1  OXE d   1      -3.124  -0.661   4.111  0.00  0.00    -0.078 A 
ATOM      4  C2  OXE d   1      -3.608  -0.868   2.842  0.00  0.00    -0.078 A 
ATOM      5  C3  OXE d   1      -3.189  -0.046   1.801  0.00  0.00     0.003 A 
ATOM      6  C4  OXE d   1      -2.165   0.888   2.003  0.00  0.00    -0.002 A 
ATOM      7  C5  OXE d   1      -1.629   1.088   3.280  0.00  0.00    -0.002 A 
ATOM      8  C6  OXE d   1      -2.126   0.353   4.351  0.00  0.00     0.003 A 
ENDROOT
TORSDOF 0
ENDMDL
