MODEL 1
REMARK minimizedAffinity -2.5913465
REMARK minimizedRMSD -1
REMARK  0 active torsions:
REMARK  status: ('A' for Active; 'I' for Inactive)
ROOT
ATOM      1  C2' OXE d   1      -0.796  -1.211  -0.131  0.00  0.00     0.078 C 
ATOM      2  C1' OXE d   1       0.176   1.422  -0.198  0.00  0.00     0.078 C 
ATOM      3  C1  OXE d   1      -0.641   1.004   0.999  0.00  0.00    -0.078 A 
ATOM      4  C2  OXE d   1      -1.152  -0.272   1.001  0.00  0.00    -0.078 A 
ATOM      5  C3  OXE d   1      -1.867  -0.726   2.106  0.00  0.00     0.003 A 
ATOM      6  C4  OXE d   1      -2.200   0.153   3.144  0.00  0.00    -0.002 A 
ATOM      7  C5  OXE d   1      -1.723   1.468   3.142  0.00  0.00    -0.002 A 
ATOM      8  C6  OXE d   1      -0.909   1.896   2.100  0.00  0.00     0.003 A 
ENDROOT
TORSDOF 0
ENDMDL
