MODEL 1
REMARK minimizedAffinity -3.80510092
REMARK minimizedRMSD -1
REMARK  0 active torsions:
REMARK  status: ('A' for Active; 'I' for Inactive)
ROOT
ATOM      1  C2' OXE d   1       0.561  -2.375   0.235  0.00  0.00     0.078 C 
ATOM      2  C1' OXE d   1       2.555  -0.923  -1.105  0.00  0.00     0.078 C 
ATOM      3  C1  OXE d   1       1.292  -0.193  -0.718  0.00  0.00    -0.078 A 
ATOM      4  C2  OXE d   1       0.303  -0.923  -0.104  0.00  0.00    -0.078 A 
ATOM      5  C3  OXE d   1      -0.859  -0.287   0.323  0.00  0.00     0.003 A 
ATOM      6  C4  OXE d   1      -1.094   1.054  -0.004  0.00  0.00    -0.002 A 
ATOM      7  C5  OXE d   1      -0.115   1.806  -0.663  0.00  0.00    -0.002 A 
ATOM      8  C6  OXE d   1       1.098   1.210  -0.989  0.00  0.00     0.003 A 
ENDROOT
TORSDOF 0
ENDMDL
