MODEL 1
REMARK minimizedAffinity -5.21439362
REMARK minimizedRMSD -1
REMARK  0 active torsions:
REMARK  status: ('A' for Active; 'I' for Inactive)
ROOT
ATOM      1  C2' OXE d   1       3.102  -0.298  -1.678  0.00  0.00     0.078 C 
ATOM      2  C1' OXE d   1       1.839  -2.578  -0.636  0.00  0.00     0.078 C 
ATOM      3  C1  OXE d   1       1.031  -1.308  -0.730  0.00  0.00    -0.078 A 
ATOM      4  C2  OXE d   1       1.671  -0.185  -1.198  0.00  0.00    -0.078 A 
ATOM      5  C3  OXE d   1       0.957   0.999  -1.356  0.00  0.00     0.003 A 
ATOM      6  C4  OXE d   1      -0.363   1.098  -0.899  0.00  0.00    -0.002 A 
ATOM      7  C5  OXE d   1      -1.021  -0.024  -0.383  0.00  0.00    -0.002 A 
ATOM      8  C6  OXE d   1      -0.353  -1.242  -0.331  0.00  0.00     0.003 A 
ENDROOT
TORSDOF 0
ENDMDL
