MODEL 1
REMARK minimizedAffinity -4.08642006
REMARK minimizedRMSD -1
REMARK  0 active torsions:
REMARK  status: ('A' for Active; 'I' for Inactive)
ROOT
ATOM      1  C2' OXE d   1      -0.827   0.212   0.431  0.00  0.00     0.078 C 
ATOM      2  C1' OXE d   1       0.850   1.895  -1.064  0.00  0.00     0.078 C 
ATOM      3  C1  OXE d   1       1.274   0.459  -0.885  0.00  0.00    -0.078 A 
ATOM      4  C2  OXE d   1       0.471  -0.346  -0.113  0.00  0.00    -0.078 A 
ATOM      5  C3  OXE d   1       0.787  -1.693   0.039  0.00  0.00     0.003 A 
ATOM      6  C4  OXE d   1       1.994  -2.198  -0.459  0.00  0.00    -0.002 A 
ATOM      7  C5  OXE d   1       2.846  -1.386  -1.215  0.00  0.00    -0.002 A 
ATOM      8  C6  OXE d   1       2.480  -0.069  -1.473  0.00  0.00     0.003 A 
ENDROOT
TORSDOF 0
ENDMDL
