MODEL 1
REMARK minimizedAffinity 0.522693276
REMARK minimizedRMSD -1
REMARK  0 active torsions:
REMARK  status: ('A' for Active; 'I' for Inactive)
ROOT
ATOM      1  C2' OXE d   1       0.680   0.374   0.418  0.00  0.00     0.078 C 
ATOM      2  C1' OXE d   1      -1.905   1.205  -0.295  0.00  0.00     0.078 C 
ATOM      3  C1  OXE d   1      -1.684   0.729   1.119  0.00  0.00    -0.078 A 
ATOM      4  C2  OXE d   1      -0.427   0.280   1.446  0.00  0.00    -0.078 A 
ATOM      5  C3  OXE d   1      -0.155  -0.118   2.752  0.00  0.00     0.003 A 
ATOM      6  C4  OXE d   1      -1.186  -0.211   3.694  0.00  0.00    -0.002 A 
ATOM      7  C5  OXE d   1      -2.483   0.203   3.371  0.00  0.00    -0.002 A 
ATOM      8  C6  OXE d   1      -2.738   0.715   2.103  0.00  0.00     0.003 A 
ENDROOT
TORSDOF 0
ENDMDL
