MODEL 1
REMARK minimizedAffinity -5.47471762
REMARK minimizedRMSD -1
REMARK  0 active torsions:
REMARK  status: ('A' for Active; 'I' for Inactive)
ROOT
ATOM      1  C2' OXE d   1      -1.371   0.259  -0.002  0.00  0.00     0.078 C 
ATOM      2  C1' OXE d   1       0.517   1.817  -1.377  0.00  0.00     0.078 C 
ATOM      3  C1  OXE d   1       0.915   0.418  -0.980  0.00  0.00    -0.078 A 
ATOM      4  C2  OXE d   1       0.002  -0.321  -0.266  0.00  0.00    -0.078 A 
ATOM      5  C3  OXE d   1       0.298  -1.637   0.077  0.00  0.00     0.003 A 
ATOM      6  C4  OXE d   1       1.573  -2.163  -0.162  0.00  0.00    -0.002 A 
ATOM      7  C5  OXE d   1       2.532  -1.413  -0.852  0.00  0.00    -0.002 A 
ATOM      8  C6  OXE d   1       2.205  -0.139  -1.305  0.00  0.00     0.003 A 
ENDROOT
TORSDOF 0
ENDMDL
