MODEL 1
REMARK minimizedAffinity -5.28270149
REMARK minimizedRMSD -1
REMARK  0 active torsions:
REMARK  status: ('A' for Active; 'I' for Inactive)
ROOT
ATOM      1  C2' OXE d   1       0.151  -2.229   0.455  0.00  0.00     0.078 C 
ATOM      2  C1' OXE d   1      -1.332   0.124   0.076  0.00  0.00     0.078 C 
ATOM      3  C1  OXE d   1       0.039   0.049  -0.547  0.00  0.00    -0.078 A 
ATOM      4  C2  OXE d   1       0.777  -1.087  -0.317  0.00  0.00    -0.078 A 
ATOM      5  C3  OXE d   1       2.026  -1.231  -0.914  0.00  0.00     0.003 A 
ATOM      6  C4  OXE d   1       2.602  -0.167  -1.618  0.00  0.00    -0.002 A 
ATOM      7  C5  OXE d   1       1.883   1.015  -1.831  0.00  0.00    -0.002 A 
ATOM      8  C6  OXE d   1       0.587   1.122  -1.339  0.00  0.00     0.003 A 
ENDROOT
TORSDOF 0
ENDMDL
