MODEL 1
REMARK minimizedAffinity -2.66902232
REMARK minimizedRMSD -1
REMARK  0 active torsions:
REMARK  status: ('A' for Active; 'I' for Inactive)
ROOT
ATOM      1  C2' OXE d   1      -2.015   1.665   3.467  0.00  0.00     0.078 C 
ATOM      2  C1' OXE d   1      -0.838   3.976   2.394  0.00  0.00     0.078 C 
ATOM      3  C1  OXE d   1      -1.011   2.787   1.482  0.00  0.00    -0.078 A 
ATOM      4  C2  OXE d   1      -1.545   1.645   2.028  0.00  0.00    -0.078 A 
ATOM      5  C3  OXE d   1      -1.777   0.537   1.218  0.00  0.00     0.003 A 
ATOM      6  C4  OXE d   1      -1.331   0.523  -0.108  0.00  0.00    -0.002 A 
ATOM      7  C5  OXE d   1      -0.748   1.662  -0.673  0.00  0.00    -0.002 A 
ATOM      8  C6  OXE d   1      -0.620   2.814   0.095  0.00  0.00     0.003 A 
ENDROOT
TORSDOF 0
ENDMDL
