MODEL 1
REMARK minimizedAffinity -6.86069822
REMARK minimizedRMSD -1
REMARK  0 active torsions:
REMARK  status: ('A' for Active; 'I' for Inactive)
ROOT
ATOM      1  C2' OXE d   1       0.168  -2.515  -0.043  0.00  0.00     0.078 C 
ATOM      2  C1' OXE d   1      -0.710   0.145   0.138  0.00  0.00     0.078 C 
ATOM      3  C1  OXE d   1       0.610  -0.115  -0.544  0.00  0.00    -0.078 A 
ATOM      4  C2  OXE d   1       1.054  -1.415  -0.587  0.00  0.00    -0.078 A 
ATOM      5  C3  OXE d   1       2.239  -1.717  -1.253  0.00  0.00     0.003 A 
ATOM      6  C4  OXE d   1       3.057  -0.693  -1.744  0.00  0.00    -0.002 A 
ATOM      7  C5  OXE d   1       2.642   0.642  -1.676  0.00  0.00    -0.002 A 
ATOM      8  C6  OXE d   1       1.405   0.943  -1.118  0.00  0.00     0.003 A 
ENDROOT
TORSDOF 0
ENDMDL
