MODEL 1
REMARK minimizedAffinity -3.76570702
REMARK minimizedRMSD -1
REMARK  0 active torsions:
REMARK  status: ('A' for Active; 'I' for Inactive)
ROOT
ATOM      1  C2' OXE d   1      -4.470  -0.776   3.561  0.00  0.00     0.078 C 
ATOM      2  C1' OXE d   1      -3.870   1.725   4.686  0.00  0.00     0.078 C 
ATOM      3  C1  OXE d   1      -3.151   1.333   3.419  0.00  0.00    -0.078 A 
ATOM      4  C2  OXE d   1      -3.417   0.088   2.902  0.00  0.00    -0.078 A 
ATOM      5  C3  OXE d   1      -2.822  -0.302   1.705  0.00  0.00     0.003 A 
ATOM      6  C4  OXE d   1      -1.842   0.499   1.106  0.00  0.00    -0.002 A 
ATOM      7  C5  OXE d   1      -1.527   1.753   1.639  0.00  0.00    -0.002 A 
ATOM      8  C6  OXE d   1      -2.202   2.202   2.769  0.00  0.00     0.003 A 
ENDROOT
TORSDOF 0
ENDMDL
