MODEL 1
REMARK minimizedAffinity -4.03918409
REMARK minimizedRMSD -1
REMARK  0 active torsions:
REMARK  status: ('A' for Active; 'I' for Inactive)
ROOT
ATOM      1  C2' OXE d   1      -1.437   0.898   0.017  0.00  0.00     0.078 C 
ATOM      2  C1' OXE d   1       0.568   2.221  -1.436  0.00  0.00     0.078 C 
ATOM      3  C1  OXE d   1       0.802   0.777  -1.067  0.00  0.00    -0.078 A 
ATOM      4  C2  OXE d   1      -0.164   0.152  -0.316  0.00  0.00    -0.078 A 
ATOM      5  C3  OXE d   1      -0.022  -1.196   0.005  0.00  0.00     0.003 A 
ATOM      6  C4  OXE d   1       1.163  -1.876  -0.299  0.00  0.00    -0.002 A 
ATOM      7  C5  OXE d   1       2.177  -1.246  -1.029  0.00  0.00    -0.002 A 
ATOM      8  C6  OXE d   1       1.994   0.065  -1.456  0.00  0.00     0.003 A 
ENDROOT
TORSDOF 0
ENDMDL
