MODEL 1
REMARK minimizedAffinity -5.8170929
REMARK minimizedRMSD -1
REMARK  1 active torsions:
REMARK  status: ('A' for Active; 'I' for Inactive)
REMARK    1  A    between atoms: C1_2  and  C2_3 
ROOT
ATOM      1  C2  UNL d   1       0.009   0.400  -0.279  0.00  0.00    -0.073 A 
ATOM      2  C3  UNL d   1      -0.797  -0.316   0.612  0.00  0.00    -0.002 A 
ATOM      3  C4  UNL d   1      -0.317  -0.661   1.876  0.00  0.00     0.004 A 
ATOM      4  C5  UNL d   1       0.970  -0.287   2.264  0.00  0.00    -0.004 A 
ATOM      5  C6  UNL d   1       1.786   0.440   1.392  0.00  0.00    -0.075 A 
ATOM      6  C7  UNL d   1       3.174   0.847   1.793  0.00  0.00     0.076 C 
ATOM      7  C8  UNL d   1       1.298   0.780   0.123  0.00  0.00     0.001 A 
ENDROOT
BRANCH   1   8
ATOM      8  C1  UNL d   1      -0.507   0.780  -1.643  0.00  0.00     0.053 C 
ATOM      9  C   UNL d   1       0.599   0.799  -2.686  0.00  0.00     0.018 C 
ENDBRANCH   1   8
TORSDOF 1
ENDMDL
