MODEL 1
REMARK minimizedAffinity -5.41925859
REMARK minimizedRMSD -1
REMARK  1 active torsions:
REMARK  status: ('A' for Active; 'I' for Inactive)
REMARK    1  A    between atoms: C1_2  and  C2_3 
ROOT
ATOM      1  C2  UNL d   1      -1.026   0.271   0.334  0.00  0.00    -0.073 A 
ATOM      2  C3  UNL d   1      -2.158  -0.327   0.897  0.00  0.00    -0.002 A 
ATOM      3  C4  UNL d   1      -2.170  -0.683   2.246  0.00  0.00     0.004 A 
ATOM      4  C5  UNL d   1      -1.054  -0.439   3.047  0.00  0.00    -0.004 A 
ATOM      5  C6  UNL d   1       0.083   0.169   2.505  0.00  0.00    -0.075 A 
ATOM      6  C7  UNL d   1       1.292   0.436   3.352  0.00  0.00     0.076 C 
ATOM      7  C8  UNL d   1       0.088   0.521   1.149  0.00  0.00     0.001 A 
ENDROOT
BRANCH   1   8
ATOM      8  C1  UNL d   1      -1.010   0.664  -1.121  0.00  0.00     0.053 C 
ATOM      9  C   UNL d   1       0.259   0.206  -1.822  0.00  0.00     0.018 C 
ENDBRANCH   1   8
TORSDOF 1
ENDMDL
