MODEL 1
REMARK minimizedAffinity -6.70074415
REMARK minimizedRMSD -1
REMARK  1 active torsions:
REMARK  status: ('A' for Active; 'I' for Inactive)
REMARK    1  A    between atoms: C1_2  and  C2_3 
ROOT
ATOM      1  C2  UNL d   1      -0.570   0.419   0.265  0.00  0.00    -0.073 A 
ATOM      2  C3  UNL d   1       0.756   0.605   0.673  0.00  0.00    -0.002 A 
ATOM      3  C4  UNL d   1       1.103   0.480   2.019  0.00  0.00     0.004 A 
ATOM      4  C5  UNL d   1       0.131   0.162   2.968  0.00  0.00    -0.004 A 
ATOM      5  C6  UNL d   1      -1.197  -0.039   2.577  0.00  0.00    -0.075 A 
ATOM      6  C7  UNL d   1      -2.254  -0.380   3.586  0.00  0.00     0.076 C 
ATOM      7  C8  UNL d   1      -1.538   0.090   1.224  0.00  0.00     0.001 A 
ENDROOT
BRANCH   1   8
ATOM      8  C1  UNL d   1      -0.948   0.547  -1.188  0.00  0.00     0.053 C 
ATOM      9  C   UNL d   1       0.161   0.063  -2.110  0.00  0.00     0.018 C 
ENDBRANCH   1   8
TORSDOF 1
ENDMDL
