MODEL 1
REMARK minimizedAffinity -4.33779764
REMARK minimizedRMSD -1
REMARK  1 active torsions:
REMARK  status: ('A' for Active; 'I' for Inactive)
REMARK    1  A    between atoms: C1_2  and  C2_3 
ROOT
ATOM      1  C2  UNL d   1       0.871   0.730   0.391  0.00  0.00    -0.073 A 
ATOM      2  C3  UNL d   1      -0.144   0.751  -0.571  0.00  0.00    -0.002 A 
ATOM      3  C4  UNL d   1      -1.426   0.300  -0.254  0.00  0.00     0.004 A 
ATOM      4  C5  UNL d   1      -1.708  -0.169   1.029  0.00  0.00    -0.004 A 
ATOM      5  C6  UNL d   1      -0.709  -0.187   2.008  0.00  0.00    -0.075 A 
ATOM      6  C7  UNL d   1      -0.995  -0.690   3.393  0.00  0.00     0.076 C 
ATOM      7  C8  UNL d   1       0.576   0.265   1.681  0.00  0.00     0.001 A 
ENDROOT
BRANCH   1   8
ATOM      8  C1  UNL d   1       2.255   1.222   0.055  0.00  0.00     0.053 C 
ATOM      9  C   UNL d   1       2.869   2.021   1.194  0.00  0.00     0.018 C 
ENDBRANCH   1   8
TORSDOF 1
ENDMDL
