MODEL 1
REMARK minimizedAffinity -4.58679771
REMARK minimizedRMSD -1
REMARK  1 active torsions:
REMARK  status: ('A' for Active; 'I' for Inactive)
REMARK    1  A    between atoms: C1_2  and  C2_3 
ROOT
ATOM      1  C2  UNL d   1      -1.572   0.640   2.033  0.00  0.00    -0.073 A 
ATOM      2  C3  UNL d   1      -0.782   0.200   3.100  0.00  0.00    -0.002 A 
ATOM      3  C4  UNL d   1       0.535  -0.208   2.882  0.00  0.00     0.004 A 
ATOM      4  C5  UNL d   1       1.076  -0.174   1.597  0.00  0.00    -0.004 A 
ATOM      5  C6  UNL d   1       0.306   0.274   0.518  0.00  0.00    -0.075 A 
ATOM      6  C7  UNL d   1       0.873   0.315  -0.870  0.00  0.00     0.076 C 
ATOM      7  C8  UNL d   1      -1.016   0.680   0.746  0.00  0.00     0.001 A 
ENDROOT
BRANCH   1   8
ATOM      8  C1  UNL d   1      -2.992   1.087   2.265  0.00  0.00     0.053 C 
ATOM      9  C   UNL d   1      -3.771   1.210   0.965  0.00  0.00     0.018 C 
ENDBRANCH   1   8
TORSDOF 1
ENDMDL
