MODEL 1
REMARK minimizedAffinity -5.15493631
REMARK minimizedRMSD -1
REMARK  1 active torsions:
REMARK  status: ('A' for Active; 'I' for Inactive)
REMARK    1  A    between atoms: C1_2  and  C2_3 
ROOT
ATOM      1  C2  UNL d   1       0.245   0.447  -0.126  0.00  0.00    -0.073 A 
ATOM      2  C3  UNL d   1       1.426   1.057   0.310  0.00  0.00    -0.002 A 
ATOM      3  C4  UNL d   1       1.788   1.011   1.656  0.00  0.00     0.004 A 
ATOM      4  C5  UNL d   1       0.978   0.349   2.579  0.00  0.00    -0.004 A 
ATOM      5  C6  UNL d   1      -0.201  -0.277   2.160  0.00  0.00    -0.075 A 
ATOM      6  C7  UNL d   1      -1.085  -0.992   3.140  0.00  0.00     0.076 C 
ATOM      7  C8  UNL d   1      -0.559  -0.224   0.806  0.00  0.00     0.001 A 
ENDROOT
BRANCH   1   8
ATOM      8  C1  UNL d   1      -0.147   0.490  -1.581  0.00  0.00     0.053 C 
ATOM      9  C   UNL d   1       0.498  -0.633  -2.378  0.00  0.00     0.018 C 
ENDBRANCH   1   8
TORSDOF 1
ENDMDL
