MODEL 1
REMARK minimizedAffinity -4.87975502
REMARK minimizedRMSD -1
REMARK  1 active torsions:
REMARK  status: ('A' for Active; 'I' for Inactive)
REMARK    1  A    between atoms: C1_2  and  C2_3 
ROOT
ATOM      1  C2  UNL d   1       0.055  -0.058  -0.524  0.00  0.00    -0.073 A 
ATOM      2  C3  UNL d   1      -0.192   1.157  -1.172  0.00  0.00    -0.002 A 
ATOM      3  C4  UNL d   1      -0.003   1.273  -2.549  0.00  0.00     0.004 A 
ATOM      4  C5  UNL d   1       0.427   0.175  -3.294  0.00  0.00    -0.004 A 
ATOM      5  C6  UNL d   1       0.668  -1.052  -2.666  0.00  0.00    -0.075 A 
ATOM      6  C7  UNL d   1       1.133  -2.243  -3.452  0.00  0.00     0.076 C 
ATOM      7  C8  UNL d   1       0.478  -1.159  -1.282  0.00  0.00     0.001 A 
ENDROOT
BRANCH   1   8
ATOM      8  C1  UNL d   1      -0.155  -0.190   0.963  0.00  0.00     0.053 C 
ATOM      9  C   UNL d   1      -1.629  -0.200   1.332  0.00  0.00     0.018 C 
ENDBRANCH   1   8
TORSDOF 1
ENDMDL
