MODEL 1
REMARK minimizedAffinity -6.19219971
REMARK minimizedRMSD -1
REMARK  1 active torsions:
REMARK  status: ('A' for Active; 'I' for Inactive)
REMARK    1  A    between atoms: C1_2  and  C2_3 
ROOT
ATOM      1  C2  UNL d   1      -0.051   0.379  -0.148  0.00  0.00    -0.073 A 
ATOM      2  C3  UNL d   1       1.200   0.665   0.411  0.00  0.00    -0.002 A 
ATOM      3  C4  UNL d   1       1.392   0.575   1.791  0.00  0.00     0.004 A 
ATOM      4  C5  UNL d   1       0.340   0.191   2.622  0.00  0.00    -0.004 A 
ATOM      5  C6  UNL d   1      -0.913  -0.111   2.081  0.00  0.00    -0.075 A 
ATOM      6  C7  UNL d   1      -2.056  -0.523   2.962  0.00  0.00     0.076 C 
ATOM      7  C8  UNL d   1      -1.099  -0.014   0.695  0.00  0.00     0.001 A 
ENDROOT
BRANCH   1   8
ATOM      8  C1  UNL d   1      -0.261   0.470  -1.638  0.00  0.00     0.053 C 
ATOM      9  C   UNL d   1       0.657  -0.471  -2.402  0.00  0.00     0.018 C 
ENDBRANCH   1   8
TORSDOF 1
ENDMDL
