MODEL 1
REMARK minimizedAffinity -5.16040325
REMARK minimizedRMSD -1
REMARK  1 active torsions:
REMARK  status: ('A' for Active; 'I' for Inactive)
REMARK    1  A    between atoms: C1_2  and  C2_3 
ROOT
ATOM      1  C2  UNL d   1      -0.076  -0.008  -0.624  0.00  0.00    -0.073 A 
ATOM      2  C3  UNL d   1      -1.460   0.176  -0.718  0.00  0.00    -0.002 A 
ATOM      3  C4  UNL d   1      -2.252   0.168   0.431  0.00  0.00     0.004 A 
ATOM      4  C5  UNL d   1      -1.668  -0.016   1.684  0.00  0.00    -0.004 A 
ATOM      5  C6  UNL d   1      -0.285  -0.189   1.800  0.00  0.00    -0.075 A 
ATOM      6  C7  UNL d   1       0.357  -0.390   3.141  0.00  0.00     0.076 C 
ATOM      7  C8  UNL d   1       0.503  -0.183   0.641  0.00  0.00     0.001 A 
ENDROOT
BRANCH   1   8
ATOM      8  C1  UNL d   1       0.784   0.007  -1.861  0.00  0.00     0.053 C 
ATOM      9  C   UNL d   1       0.729  -1.316  -2.609  0.00  0.00     0.018 C 
ENDBRANCH   1   8
TORSDOF 1
ENDMDL
