MODEL 1
REMARK minimizedAffinity -1.39524603
REMARK minimizedRMSD -1
REMARK  0 active torsions:
REMARK  status: ('A' for Active; 'I' for Inactive)
ROOT
ATOM      1  C1  BNZ d   1      -0.431   1.549   0.707  0.00  0.00     0.000 A 
ATOM      2  C2  BNZ d   1      -0.271   0.506   1.578  0.00  0.00     0.000 A 
ATOM      3  C3  BNZ d   1       0.330  -0.655   1.178  0.00  0.00     0.000 A 
ATOM      4  C4  BNZ d   1       0.733  -0.785  -0.103  0.00  0.00     0.000 A 
ATOM      5  C5  BNZ d   1       0.570   0.255  -0.996  0.00  0.00     0.000 A 
ATOM      6  C6  BNZ d   1      -0.001   1.436  -0.579  0.00  0.00     0.000 A 
ENDROOT
TORSDOF 0
ENDMDL
