MODEL 1
REMARK minimizedAffinity -1.26298821
REMARK minimizedRMSD -1
REMARK  0 active torsions:
REMARK  status: ('A' for Active; 'I' for Inactive)
ROOT
ATOM      1  C1  BNZ d   1      -0.804   1.485  -0.660  0.00  0.00     0.000 A 
ATOM      2  C2  BNZ d   1      -1.495   0.501  -0.005  0.00  0.00     0.000 A 
ATOM      3  C3  BNZ d   1      -1.010  -0.775   0.052  0.00  0.00     0.000 A 
ATOM      4  C4  BNZ d   1       0.144  -1.075  -0.579  0.00  0.00     0.000 A 
ATOM      5  C5  BNZ d   1       0.848  -0.096  -1.251  0.00  0.00     0.000 A 
ATOM      6  C6  BNZ d   1       0.376   1.197  -1.274  0.00  0.00     0.000 A 
ENDROOT
TORSDOF 0
ENDMDL
