MODEL 1
REMARK minimizedAffinity -2.90318871
REMARK minimizedRMSD -1
REMARK  0 active torsions:
REMARK  status: ('A' for Active; 'I' for Inactive)
ROOT
ATOM      1  C1  BNZ d   1       0.030  -0.800   0.273  0.00  0.00     0.000 A 
ATOM      2  C2  BNZ d   1       0.182   0.391  -0.386  0.00  0.00     0.000 A 
ATOM      3  C3  BNZ d   1       1.080   0.516  -1.408  0.00  0.00     0.000 A 
ATOM      4  C4  BNZ d   1       1.853  -0.537  -1.744  0.00  0.00     0.000 A 
ATOM      5  C5  BNZ d   1       1.718  -1.742  -1.083  0.00  0.00     0.000 A 
ATOM      6  C6  BNZ d   1       0.786  -1.875  -0.080  0.00  0.00     0.000 A 
ENDROOT
TORSDOF 0
ENDMDL
