MODEL 1
REMARK minimizedAffinity -1.35444605
REMARK minimizedRMSD -1
REMARK  0 active torsions:
REMARK  status: ('A' for Active; 'I' for Inactive)
ROOT
ATOM      1  C1  BNZ d   1      -0.254  -0.518   1.084  0.00  0.00     0.000 A 
ATOM      2  C2  BNZ d   1      -0.756  -0.032   2.262  0.00  0.00     0.000 A 
ATOM      3  C3  BNZ d   1      -1.793   0.859   2.266  0.00  0.00     0.000 A 
ATOM      4  C4  BNZ d   1      -2.298   1.293   1.093  0.00  0.00     0.000 A 
ATOM      5  C5  BNZ d   1      -1.797   0.819  -0.103  0.00  0.00     0.000 A 
ATOM      6  C6  BNZ d   1      -0.779  -0.107  -0.102  0.00  0.00     0.000 A 
ENDROOT
TORSDOF 0
ENDMDL
