MODEL 1
REMARK minimizedAffinity -3.56844378
REMARK minimizedRMSD -1
REMARK  0 active torsions:
REMARK  status: ('A' for Active; 'I' for Inactive)
ROOT
ATOM      1  C1  BNZ d   1       1.131  -0.742   1.491  0.00  0.00     0.000 A 
ATOM      2  C2  BNZ d   1       0.234   0.183   1.953  0.00  0.00     0.000 A 
ATOM      3  C3  BNZ d   1      -0.896   0.479   1.242  0.00  0.00     0.000 A 
ATOM      4  C4  BNZ d   1      -1.107  -0.121   0.053  0.00  0.00     0.000 A 
ATOM      5  C5  BNZ d   1      -0.207  -1.050  -0.431  0.00  0.00     0.000 A 
ATOM      6  C6  BNZ d   1       0.910  -1.373   0.306  0.00  0.00     0.000 A 
ENDROOT
TORSDOF 0
ENDMDL
