MODEL 1
REMARK minimizedAffinity -3.34521461
REMARK minimizedRMSD -1
REMARK  0 active torsions:
REMARK  status: ('A' for Active; 'I' for Inactive)
ROOT
ATOM      1  C1  BNZ d   1       0.064   0.550   1.773  0.00  0.00     0.000 A 
ATOM      2  C2  BNZ d   1       0.885  -0.536   1.620  0.00  0.00     0.000 A 
ATOM      3  C3  BNZ d   1       0.674  -1.437   0.615  0.00  0.00     0.000 A 
ATOM      4  C4  BNZ d   1      -0.379  -1.274  -0.212  0.00  0.00     0.000 A 
ATOM      5  C5  BNZ d   1      -1.221  -0.190  -0.065  0.00  0.00     0.000 A 
ATOM      6  C6  BNZ d   1      -0.983   0.736   0.924  0.00  0.00     0.000 A 
ENDROOT
TORSDOF 0
ENDMDL
