MODEL 1
REMARK minimizedAffinity -0.486429393
REMARK minimizedRMSD -1
REMARK  0 active torsions:
REMARK  status: ('A' for Active; 'I' for Inactive)
ROOT
ATOM      1  C1  BNZ d   1       1.392  -0.116  -1.613  0.00  0.00     0.000 A 
ATOM      2  C2  BNZ d   1       0.537   0.515  -0.749  0.00  0.00     0.000 A 
ATOM      3  C3  BNZ d   1      -0.305  -0.204   0.052  0.00  0.00     0.000 A 
ATOM      4  C4  BNZ d   1      -0.320  -1.550  -0.040  0.00  0.00     0.000 A 
ATOM      5  C5  BNZ d   1       0.529  -2.200  -0.913  0.00  0.00     0.000 A 
ATOM      6  C6  BNZ d   1       1.403  -1.474  -1.690  0.00  0.00     0.000 A 
ENDROOT
TORSDOF 0
ENDMDL
