MODEL 1
REMARK minimizedAffinity -5.14249563
REMARK minimizedRMSD -1
REMARK  0 active torsions:
REMARK  status: ('A' for Active; 'I' for Inactive)
ROOT
ATOM      1  C1  BNZ d   1       0.570   0.589  -0.240  0.00  0.00     0.000 A 
ATOM      2  C2  BNZ d   1       1.786   0.697  -0.862  0.00  0.00     0.000 A 
ATOM      3  C3  BNZ d   1       2.477  -0.417  -1.247  0.00  0.00     0.000 A 
ATOM      4  C4  BNZ d   1       1.972  -1.638  -0.974  0.00  0.00     0.000 A 
ATOM      5  C5  BNZ d   1       0.753  -1.764  -0.339  0.00  0.00     0.000 A 
ATOM      6  C6  BNZ d   1       0.041  -0.640   0.012  0.00  0.00     0.000 A 
ENDROOT
TORSDOF 0
ENDMDL
