MODEL 1
REMARK minimizedAffinity -1.14130557
REMARK minimizedRMSD -1
REMARK  0 active torsions:
REMARK  status: ('A' for Active; 'I' for Inactive)
ROOT
ATOM      1  C1  BNZ d   1       1.669  -1.266   0.404  0.00  0.00     0.000 A 
ATOM      2  C2  BNZ d   1       2.219  -1.862  -0.700  0.00  0.00     0.000 A 
ATOM      3  C3  BNZ d   1       1.463  -2.114  -1.810  0.00  0.00     0.000 A 
ATOM      4  C4  BNZ d   1       0.149  -1.808  -1.801  0.00  0.00     0.000 A 
ATOM      5  C5  BNZ d   1      -0.422  -1.215  -0.692  0.00  0.00     0.000 A 
ATOM      6  C6  BNZ d   1       0.351  -0.927   0.409  0.00  0.00     0.000 A 
ENDROOT
TORSDOF 0
ENDMDL
