MODEL 1
REMARK minimizedAffinity -4.0463233
REMARK minimizedRMSD -1
REMARK  0 active torsions:
REMARK  status: ('A' for Active; 'I' for Inactive)
ROOT
ATOM      1  C1  BNZ d   1       0.158  -0.128   0.286  0.00  0.00     0.000 A 
ATOM      2  C2  BNZ d   1      -1.161   0.070   0.596  0.00  0.00     0.000 A 
ATOM      3  C3  BNZ d   1      -1.877   1.070   0.001  0.00  0.00     0.000 A 
ATOM      4  C4  BNZ d   1      -1.264   1.896  -0.872  0.00  0.00     0.000 A 
ATOM      5  C5  BNZ d   1       0.067   1.715  -1.188  0.00  0.00     0.000 A 
ATOM      6  C6  BNZ d   1       0.775   0.682  -0.617  0.00  0.00     0.000 A 
ENDROOT
TORSDOF 0
ENDMDL
