MODEL 1
REMARK minimizedAffinity -4.96539736
REMARK minimizedRMSD -1
REMARK  0 active torsions:
REMARK  status: ('A' for Active; 'I' for Inactive)
ROOT
ATOM      1  C1  BNZ d   1       2.875  -0.705  -0.888  0.00  0.00     0.000 A 
ATOM      2  C2  BNZ d   1       2.984  -0.066  -2.094  0.00  0.00     0.000 A 
ATOM      3  C3  BNZ d   1       2.144   0.963  -2.418  0.00  0.00     0.000 A 
ATOM      4  C4  BNZ d   1       1.173   1.324  -1.555  0.00  0.00     0.000 A 
ATOM      5  C5  BNZ d   1       1.045   0.683  -0.339  0.00  0.00     0.000 A 
ATOM      6  C6  BNZ d   1       1.917  -0.326   0.001  0.00  0.00     0.000 A 
ENDROOT
TORSDOF 0
ENDMDL
