MODEL 1
REMARK minimizedAffinity -1.35932934
REMARK minimizedRMSD -1
REMARK  0 active torsions:
REMARK  status: ('A' for Active; 'I' for Inactive)
ROOT
ATOM      1  C1  BNZ d   1       1.062  -1.851   0.033  0.00  0.00     0.000 A 
ATOM      2  C2  BNZ d   1       0.208  -1.181   0.868  0.00  0.00     0.000 A 
ATOM      3  C3  BNZ d   1      -0.435  -0.049   0.451  0.00  0.00     0.000 A 
ATOM      4  C4  BNZ d   1      -0.194   0.433  -0.785  0.00  0.00     0.000 A 
ATOM      5  C5  BNZ d   1       0.671  -0.226  -1.636  0.00  0.00     0.000 A 
ATOM      6  C6  BNZ d   1       1.287  -1.386  -1.226  0.00  0.00     0.000 A 
ENDROOT
TORSDOF 0
ENDMDL
