MODEL 1
REMARK minimizedAffinity -4.81318188
REMARK minimizedRMSD -1
REMARK  0 active torsions:
REMARK  status: ('A' for Active; 'I' for Inactive)
ROOT
ATOM      1  C1  BNZ d   1       0.019   0.309  -0.830  0.00  0.00     0.000 A 
ATOM      2  C2  BNZ d   1       0.208   1.277  -1.781  0.00  0.00     0.000 A 
ATOM      3  C3  BNZ d   1       1.173   1.137  -2.739  0.00  0.00     0.000 A 
ATOM      4  C4  BNZ d   1       1.972   0.051  -2.723  0.00  0.00     0.000 A 
ATOM      5  C5  BNZ d   1       1.800  -0.929  -1.765  0.00  0.00     0.000 A 
ATOM      6  C6  BNZ d   1       0.802  -0.804  -0.825  0.00  0.00     0.000 A 
ENDROOT
TORSDOF 0
ENDMDL
