MODEL 1
REMARK minimizedAffinity 1.05466342
REMARK minimizedRMSD -1
REMARK  0 active torsions:
REMARK  status: ('A' for Active; 'I' for Inactive)
ROOT
ATOM      1  C1  BNZ d   1      -4.789  -1.048   1.290  0.00  0.00     0.000 A 
ATOM      2  C2  BNZ d   1      -3.586  -0.824   1.906  0.00  0.00     0.000 A 
ATOM      3  C3  BNZ d   1      -3.520  -0.124   3.079  0.00  0.00     0.000 A 
ATOM      4  C4  BNZ d   1      -4.650   0.385   3.612  0.00  0.00     0.000 A 
ATOM      5  C5  BNZ d   1      -5.868   0.175   2.998  0.00  0.00     0.000 A 
ATOM      6  C6  BNZ d   1      -5.936  -0.563   1.838  0.00  0.00     0.000 A 
ENDROOT
TORSDOF 0
ENDMDL
