MODEL 1
REMARK minimizedAffinity -3.75931931
REMARK minimizedRMSD -1
REMARK  0 active torsions:
REMARK  status: ('A' for Active; 'I' for Inactive)
ROOT
ATOM      1  C1  BNZ d   1       0.760  -0.470   1.205  0.00  0.00     0.000 A 
ATOM      2  C2  BNZ d   1      -0.137   0.536   1.445  0.00  0.00     0.000 A 
ATOM      3  C3  BNZ d   1      -0.929   1.021   0.442  0.00  0.00     0.000 A 
ATOM      4  C4  BNZ d   1      -0.795   0.528  -0.806  0.00  0.00     0.000 A 
ATOM      5  C5  BNZ d   1       0.112  -0.480  -1.066  0.00  0.00     0.000 A 
ATOM      6  C6  BNZ d   1       0.880  -0.993  -0.045  0.00  0.00     0.000 A 
ENDROOT
TORSDOF 0
ENDMDL
