MODEL 1
REMARK minimizedAffinity -2.4817059
REMARK minimizedRMSD -1
REMARK  0 active torsions:
REMARK  status: ('A' for Active; 'I' for Inactive)
ROOT
ATOM      1  C1  BNZ d   1       0.893  -0.698   1.459  0.00  0.00     0.000 A 
ATOM      2  C2  BNZ d   1       0.092   0.350   1.826  0.00  0.00     0.000 A 
ATOM      3  C3  BNZ d   1      -0.728   0.958   0.917  0.00  0.00     0.000 A 
ATOM      4  C4  BNZ d   1      -0.716   0.544  -0.367  0.00  0.00     0.000 A 
ATOM      5  C5  BNZ d   1       0.093  -0.506  -0.755  0.00  0.00     0.000 A 
ATOM      6  C6  BNZ d   1       0.888  -1.140   0.172  0.00  0.00     0.000 A 
ENDROOT
TORSDOF 0
ENDMDL
