MODEL 1
REMARK minimizedAffinity -3.95022535
REMARK minimizedRMSD -1
REMARK  0 active torsions:
REMARK  status: ('A' for Active; 'I' for Inactive)
ROOT
ATOM      1  C   UNL d   1      -0.687   0.147  -0.875  0.00  0.00     0.023 A 
ATOM      2  C1  UNL d   1       0.601  -0.358  -0.698  0.00  0.00     0.003 A 
ATOM      3  C2  UNL d   1       1.557   0.390  -0.009  0.00  0.00     0.048 A 
ATOM      4  C3  UNL d   1       1.219   1.642   0.503  0.00  0.00     0.023 A 
ATOM      5  C4  UNL d   1      -0.069   2.152   0.329  0.00  0.00     0.048 A 
ATOM      6  C5  UNL d   1      -1.022   1.401  -0.362  0.00  0.00     0.003 A 
ATOM      7  I   UNL d   1       2.640   2.758   1.530  0.00  0.00    -0.146 I 
ENDROOT
TORSDOF 0
ENDMDL
