MODEL 1
REMARK minimizedAffinity -1.409477
REMARK minimizedRMSD -1
REMARK  0 active torsions:
REMARK  status: ('A' for Active; 'I' for Inactive)
ROOT
ATOM      1  C   UNL d   1      -2.138  -1.395  -1.036  0.00  0.00     0.023 A 
ATOM      2  C1  UNL d   1      -1.656  -1.538   0.265  0.00  0.00     0.003 A 
ATOM      3  C2  UNL d   1      -0.543  -0.806   0.683  0.00  0.00     0.048 A 
ATOM      4  C3  UNL d   1       0.083   0.068  -0.204  0.00  0.00     0.023 A 
ATOM      5  C4  UNL d   1      -0.396   0.215  -1.507  0.00  0.00     0.048 A 
ATOM      6  C5  UNL d   1      -1.509  -0.519  -1.921  0.00  0.00     0.003 A 
ATOM      7  I   UNL d   1       1.740   1.159   0.416  0.00  0.00    -0.146 I 
ENDROOT
TORSDOF 0
ENDMDL
