MODEL 1
REMARK minimizedAffinity -0.543014944
REMARK minimizedRMSD -1
REMARK  0 active torsions:
REMARK  status: ('A' for Active; 'I' for Inactive)
ROOT
ATOM      1  C   UNL d   1      -1.113  -0.234  -1.044  0.00  0.00     0.023 A 
ATOM      2  C1  UNL d   1      -0.327  -0.782  -0.030  0.00  0.00     0.003 A 
ATOM      3  C2  UNL d   1       0.765  -0.071   0.471  0.00  0.00     0.048 A 
ATOM      4  C3  UNL d   1       1.065   1.189  -0.046  0.00  0.00     0.023 A 
ATOM      5  C4  UNL d   1       0.282   1.742  -1.060  0.00  0.00     0.048 A 
ATOM      6  C5  UNL d   1      -0.809   1.027  -1.558  0.00  0.00     0.003 A 
ATOM      7  I   UNL d   1       2.690   2.250   0.699  0.00  0.00    -0.146 I 
ENDROOT
TORSDOF 0
ENDMDL
