MODEL 1
REMARK minimizedAffinity -2.75679946
REMARK minimizedRMSD -1
REMARK  0 active torsions:
REMARK  status: ('A' for Active; 'I' for Inactive)
ROOT
ATOM      1  C   UNL d   1      -1.020   0.153  -1.045  0.00  0.00     0.023 A 
ATOM      2  C1  UNL d   1      -1.207   1.428  -0.511  0.00  0.00     0.003 A 
ATOM      3  C2  UNL d   1      -0.166   2.058   0.176  0.00  0.00     0.048 A 
ATOM      4  C3  UNL d   1       1.058   1.407   0.324  0.00  0.00     0.023 A 
ATOM      5  C4  UNL d   1       1.249   0.131  -0.209  0.00  0.00     0.048 A 
ATOM      6  C5  UNL d   1       0.206  -0.494  -0.895  0.00  0.00     0.003 A 
ATOM      7  I   UNL d   1       2.608   2.341   1.346  0.00  0.00    -0.146 I 
ENDROOT
TORSDOF 0
ENDMDL
