MODEL 1
REMARK minimizedAffinity -2.00412607
REMARK minimizedRMSD -1
REMARK  0 active torsions:
REMARK  status: ('A' for Active; 'I' for Inactive)
ROOT
ATOM      1  C   UNL d   1      -2.337  -0.564  -1.227  0.00  0.00     0.023 A 
ATOM      2  C1  UNL d   1      -1.773   0.641  -1.647  0.00  0.00     0.003 A 
ATOM      3  C2  UNL d   1      -0.552   1.064  -1.117  0.00  0.00     0.048 A 
ATOM      4  C3  UNL d   1       0.100   0.276  -0.170  0.00  0.00     0.023 A 
ATOM      5  C4  UNL d   1      -0.459  -0.931   0.252  0.00  0.00     0.048 A 
ATOM      6  C5  UNL d   1      -1.681  -1.349  -0.279  0.00  0.00     0.003 A 
ATOM      7  I   UNL d   1       1.918   0.902   0.619  0.00  0.00    -0.146 I 
ENDROOT
TORSDOF 0
ENDMDL
