MODEL 1
REMARK minimizedAffinity -1.5478164
REMARK minimizedRMSD -1
REMARK  0 active torsions:
REMARK  status: ('A' for Active; 'I' for Inactive)
ROOT
ATOM      1  C   UNL d   1      -0.844   0.562  -1.482  0.00  0.00     0.023 A 
ATOM      2  C1  UNL d   1       0.205   0.288  -0.603  0.00  0.00     0.003 A 
ATOM      3  C2  UNL d   1       0.143  -0.828   0.233  0.00  0.00     0.048 A 
ATOM      4  C3  UNL d   1      -0.970  -1.667   0.185  0.00  0.00     0.023 A 
ATOM      5  C4  UNL d   1      -2.021  -1.398  -0.693  0.00  0.00     0.048 A 
ATOM      6  C5  UNL d   1      -1.955  -0.280  -1.526  0.00  0.00     0.003 A 
ATOM      7  I   UNL d   1      -1.064  -3.330   1.429  0.00  0.00    -0.146 I 
ENDROOT
TORSDOF 0
ENDMDL
