MODEL 1
REMARK minimizedAffinity -0.347649097
REMARK minimizedRMSD -1
REMARK  0 active torsions:
REMARK  status: ('A' for Active; 'I' for Inactive)
ROOT
ATOM      1  C   UNL d   1      -1.212  -0.489  -0.556  0.00  0.00     0.023 A 
ATOM      2  C1  UNL d   1      -0.180  -1.148   0.111  0.00  0.00     0.003 A 
ATOM      3  C2  UNL d   1       1.011  -0.477   0.394  0.00  0.00     0.048 A 
ATOM      4  C3  UNL d   1       1.164   0.854   0.008  0.00  0.00     0.023 A 
ATOM      5  C4  UNL d   1       0.133   1.519  -0.659  0.00  0.00     0.048 A 
ATOM      6  C5  UNL d   1      -1.056   0.843  -0.941  0.00  0.00     0.003 A 
ATOM      7  I   UNL d   1       2.936   1.855   0.428  0.00  0.00    -0.146 I 
ENDROOT
TORSDOF 0
ENDMDL
