MODEL 1
REMARK minimizedAffinity -1.67210722
REMARK minimizedRMSD -1
REMARK  0 active torsions:
REMARK  status: ('A' for Active; 'I' for Inactive)
ROOT
ATOM      1  C   UNL d   1       1.692   1.079   0.818  0.00  0.00     0.023 A 
ATOM      2  C1  UNL d   1       1.843   0.006  -0.060  0.00  0.00     0.003 A 
ATOM      3  C2  UNL d   1       0.733  -0.506  -0.736  0.00  0.00     0.048 A 
ATOM      4  C3  UNL d   1      -0.524   0.060  -0.530  0.00  0.00     0.023 A 
ATOM      5  C4  UNL d   1      -0.680   1.135   0.348  0.00  0.00     0.048 A 
ATOM      6  C5  UNL d   1       0.432   1.643   1.022  0.00  0.00     0.003 A 
ATOM      7  I   UNL d   1      -2.177  -0.700  -1.535  0.00  0.00    -0.146 I 
ENDROOT
TORSDOF 0
ENDMDL
