MODEL 1
REMARK minimizedAffinity -0.725927472
REMARK minimizedRMSD -1
REMARK  0 active torsions:
REMARK  status: ('A' for Active; 'I' for Inactive)
ROOT
ATOM      1  C   UNL d   1      -1.269  -0.393  -0.778  0.00  0.00     0.023 A 
ATOM      2  C1  UNL d   1      -0.311  -0.960   0.064  0.00  0.00     0.003 A 
ATOM      3  C2  UNL d   1       0.824  -0.231   0.424  0.00  0.00     0.048 A 
ATOM      4  C3  UNL d   1       0.995   1.065  -0.061  0.00  0.00     0.023 A 
ATOM      5  C4  UNL d   1       0.040   1.637  -0.902  0.00  0.00     0.048 A 
ATOM      6  C5  UNL d   1      -1.093   0.904  -1.260  0.00  0.00     0.003 A 
ATOM      7  I   UNL d   1       2.684   2.152   0.474  0.00  0.00    -0.146 I 
ENDROOT
TORSDOF 0
ENDMDL
