MODEL 1
REMARK minimizedAffinity -1.4487716
REMARK minimizedRMSD -1
REMARK  0 active torsions:
REMARK  status: ('A' for Active; 'I' for Inactive)
ROOT
ATOM      1  C   UNL d   1      -2.375  -2.007  -0.600  0.00  0.00     0.023 A 
ATOM      2  C1  UNL d   1      -1.632  -2.270   0.552  0.00  0.00     0.003 A 
ATOM      3  C2  UNL d   1      -0.601  -1.408   0.930  0.00  0.00     0.048 A 
ATOM      4  C3  UNL d   1      -0.318  -0.285   0.154  0.00  0.00     0.023 A 
ATOM      5  C4  UNL d   1      -1.059  -0.018  -0.999  0.00  0.00     0.048 A 
ATOM      6  C5  UNL d   1      -2.089  -0.883  -1.374  0.00  0.00     0.003 A 
ATOM      7  I   UNL d   1       1.216   1.000   0.715  0.00  0.00    -0.146 I 
ENDROOT
TORSDOF 0
ENDMDL
