MODEL 1
REMARK minimizedAffinity -3.06559515
REMARK minimizedRMSD -1
REMARK  0 active torsions:
REMARK  status: ('A' for Active; 'I' for Inactive)
ROOT
ATOM      1  C   UNL d   1      -0.729   0.345  -0.827  0.00  0.00     0.023 A 
ATOM      2  C1  UNL d   1      -0.900   1.697  -0.527  0.00  0.00     0.003 A 
ATOM      3  C2  UNL d   1       0.095   2.391   0.165  0.00  0.00     0.048 A 
ATOM      4  C3  UNL d   1       1.258   1.728   0.553  0.00  0.00     0.023 A 
ATOM      5  C4  UNL d   1       1.434   0.375   0.254  0.00  0.00     0.048 A 
ATOM      6  C5  UNL d   1       0.436  -0.315  -0.437  0.00  0.00     0.003 A 
ATOM      7  I   UNL d   1       2.740   2.759   1.583  0.00  0.00    -0.146 I 
ENDROOT
TORSDOF 0
ENDMDL
