MODEL 1
REMARK minimizedAffinity 0.0182130355
REMARK minimizedRMSD -1
REMARK  0 active torsions:
REMARK  status: ('A' for Active; 'I' for Inactive)
ROOT
ATOM      1  C   UNL d   1      -2.419  -3.413   0.562  0.00  0.00     0.023 A 
ATOM      2  C1  UNL d   1      -1.334  -2.898   1.272  0.00  0.00     0.003 A 
ATOM      3  C2  UNL d   1      -0.753  -1.690   0.882  0.00  0.00     0.048 A 
ATOM      4  C3  UNL d   1      -1.263  -1.000  -0.217  0.00  0.00     0.023 A 
ATOM      5  C4  UNL d   1      -2.349  -1.511  -0.929  0.00  0.00     0.048 A 
ATOM      6  C5  UNL d   1      -2.926  -2.720  -0.537  0.00  0.00     0.003 A 
ATOM      7  I   UNL d   1      -0.400   0.799  -0.799  0.00  0.00    -0.146 I 
ENDROOT
TORSDOF 0
ENDMDL
