MODEL 1
REMARK minimizedAffinity 0.972280562
REMARK minimizedRMSD -1
REMARK  0 active torsions:
REMARK  status: ('A' for Active; 'I' for Inactive)
ROOT
ATOM      1  C   UNL d   1      -0.051  -1.159   3.943  0.00  0.00     0.077 C 
ATOM      2  C1  UNL d   1      -0.016   0.056   3.064  0.00  0.00    -0.074 A 
ATOM      3  C2  UNL d   1      -0.201   1.335   3.598  0.00  0.00    -0.005 A 
ATOM      4  C3  UNL d   1      -0.156   2.457   2.770  0.00  0.00     0.006 A 
ATOM      5  C4  UNL d   1       0.073   2.310   1.401  0.00  0.00    -0.005 A 
ATOM      6  C5  UNL d   1       0.261   1.039   0.849  0.00  0.00    -0.074 A 
ATOM      7  C6  UNL d   1       0.518   0.865  -0.618  0.00  0.00     0.077 C 
ATOM      8  C7  UNL d   1       0.221  -0.082   1.689  0.00  0.00    -0.001 A 
ENDROOT
TORSDOF 0
ENDMDL
