MODEL 1
REMARK minimizedAffinity 4.12367487
REMARK minimizedRMSD -1
REMARK  0 active torsions:
REMARK  status: ('A' for Active; 'I' for Inactive)
ROOT
ATOM      1  C   UNL d   1      -0.671   1.538  -1.778  0.00  0.00     0.077 C 
ATOM      2  C1  UNL d   1      -0.248   0.110  -1.602  0.00  0.00    -0.074 A 
ATOM      3  C2  UNL d   1      -1.161  -0.936  -1.767  0.00  0.00    -0.005 A 
ATOM      4  C3  UNL d   1      -0.751  -2.260  -1.610  0.00  0.00     0.006 A 
ATOM      5  C4  UNL d   1       0.575  -2.550  -1.288  0.00  0.00    -0.005 A 
ATOM      6  C5  UNL d   1       1.503  -1.518  -1.120  0.00  0.00    -0.074 A 
ATOM      7  C6  UNL d   1       2.935  -1.813  -0.784  0.00  0.00     0.077 C 
ATOM      8  C7  UNL d   1       1.085  -0.191  -1.286  0.00  0.00    -0.001 A 
ENDROOT
TORSDOF 0
ENDMDL
