MODEL 1
REMARK minimizedAffinity 3.57433844
REMARK minimizedRMSD -1
REMARK  0 active torsions:
REMARK  status: ('A' for Active; 'I' for Inactive)
ROOT
ATOM      1  C   UNL d   1      -0.603   2.074   2.617  0.00  0.00     0.077 C 
ATOM      2  C1  UNL d   1      -0.267   1.299   1.378  0.00  0.00    -0.074 A 
ATOM      3  C2  UNL d   1      -1.194   1.166   0.340  0.00  0.00    -0.005 A 
ATOM      4  C3  UNL d   1      -0.864   0.449  -0.810  0.00  0.00     0.006 A 
ATOM      5  C4  UNL d   1       0.394  -0.140  -0.934  0.00  0.00    -0.005 A 
ATOM      6  C5  UNL d   1       1.335  -0.017   0.093  0.00  0.00    -0.074 A 
ATOM      7  C6  UNL d   1       2.696  -0.636  -0.028  0.00  0.00     0.077 C 
ATOM      8  C7  UNL d   1       0.999   0.710   1.243  0.00  0.00    -0.001 A 
ENDROOT
TORSDOF 0
ENDMDL
