MODEL 1
REMARK minimizedAffinity 4.03514814
REMARK minimizedRMSD -1
REMARK  0 active torsions:
REMARK  status: ('A' for Active; 'I' for Inactive)
ROOT
ATOM      1  C   UNL d   1      -1.369  -2.041  -4.458  0.00  0.00     0.077 C 
ATOM      2  C1  UNL d   1      -1.439  -1.122  -3.275  0.00  0.00    -0.074 A 
ATOM      3  C2  UNL d   1      -0.474  -0.129  -3.078  0.00  0.00    -0.005 A 
ATOM      4  C3  UNL d   1      -0.557   0.725  -1.978  0.00  0.00     0.006 A 
ATOM      5  C4  UNL d   1      -1.605   0.594  -1.065  0.00  0.00    -0.005 A 
ATOM      6  C5  UNL d   1      -2.579  -0.392  -1.246  0.00  0.00    -0.074 A 
ATOM      7  C6  UNL d   1      -3.717  -0.540  -0.280  0.00  0.00     0.077 C 
ATOM      8  C7  UNL d   1      -2.492  -1.242  -2.358  0.00  0.00    -0.001 A 
ENDROOT
TORSDOF 0
ENDMDL
