MODEL 1
REMARK minimizedAffinity 9.09977627
REMARK minimizedRMSD -1
REMARK  0 active torsions:
REMARK  status: ('A' for Active; 'I' for Inactive)
ROOT
ATOM      1  O1  BZF d   1      -3.714   4.234   2.598  0.00  0.00    -0.204 OA
ATOM      2  C2  BZF d   1      -4.897   3.823   2.013  0.00  0.00     0.174 A 
ATOM      3  C3  BZF d   1      -5.950   4.125   2.800  0.00  0.00    -0.012 A 
ATOM      4  C3A BZF d   1      -5.399   4.846   3.906  0.00  0.00    -0.107 A 
ATOM      5  C4  BZF d   1      -5.946   5.426   5.014  0.00  0.00     0.055 A 
ATOM      6  C5  BZF d   1      -5.125   5.989   5.939  0.00  0.00    -0.016 A 
ATOM      7  C6  BZF d   1      -3.754   5.987   5.789  0.00  0.00     0.022 A 
ATOM      8  C7  BZF d   1      -3.165   5.428   4.704  0.00  0.00     0.029 A 
ATOM      9  C7A BZF d   1      -3.994   4.887   3.752  0.00  0.00     0.058 A 
ENDROOT
TORSDOF 0
ENDMDL
