MODEL 1
REMARK minimizedAffinity 13.8363056
REMARK minimizedRMSD -1
REMARK  0 active torsions:
REMARK  status: ('A' for Active; 'I' for Inactive)
ROOT
ATOM      1  O1  BZF d   1      -3.688   4.876   2.283  0.00  0.00    -0.204 OA
ATOM      2  C2  BZF d   1      -4.738   4.219   1.671  0.00  0.00     0.174 A 
ATOM      3  C3  BZF d   1      -5.763   4.051   2.530  0.00  0.00    -0.012 A 
ATOM      4  C3A BZF d   1      -5.363   4.722   3.729  0.00  0.00    -0.107 A 
ATOM      5  C4  BZF d   1      -5.965   4.919   4.940  0.00  0.00     0.055 A 
ATOM      6  C5  BZF d   1      -5.275   5.554   5.924  0.00  0.00    -0.016 A 
ATOM      7  C6  BZF d   1      -3.983   5.999   5.734  0.00  0.00     0.022 A 
ATOM      8  C7  BZF d   1      -3.347   5.831   4.549  0.00  0.00     0.029 A 
ATOM      9  C7A BZF d   1      -4.053   5.219   3.542  0.00  0.00     0.058 A 
ENDROOT
TORSDOF 0
ENDMDL
