MODEL 1
REMARK minimizedAffinity 6.73686075
REMARK minimizedRMSD -1
REMARK  0 active torsions:
REMARK  status: ('A' for Active; 'I' for Inactive)
ROOT
ATOM      1  O1  BZF d   1       3.764  -1.252   1.486  0.00  0.00    -0.204 OA
ATOM      2  C2  BZF d   1       4.408  -0.048   1.699  0.00  0.00     0.174 A 
ATOM      3  C3  BZF d   1       4.099   0.837   0.729  0.00  0.00    -0.012 A 
ATOM      4  C3A BZF d   1       3.135   0.174  -0.093  0.00  0.00    -0.107 A 
ATOM      5  C4  BZF d   1       2.438   0.544  -1.208  0.00  0.00     0.055 A 
ATOM      6  C5  BZF d   1       1.628  -0.365  -1.813  0.00  0.00    -0.016 A 
ATOM      7  C6  BZF d   1       1.496  -1.652  -1.333  0.00  0.00     0.022 A 
ATOM      8  C7  BZF d   1       2.163  -2.063  -0.228  0.00  0.00     0.029 A 
ATOM      9  C7A BZF d   1       2.956  -1.138   0.405  0.00  0.00     0.058 A 
ENDROOT
TORSDOF 0
ENDMDL
