MODEL 1
REMARK minimizedAffinity 7.67971277
REMARK minimizedRMSD -1
REMARK  0 active torsions:
REMARK  status: ('A' for Active; 'I' for Inactive)
ROOT
ATOM      1  O1  BZF d   1       1.901  -2.116  -0.104  0.00  0.00    -0.204 OA
ATOM      2  C2  BZF d   1       1.076  -1.966  -1.202  0.00  0.00     0.174 A 
ATOM      3  C3  BZF d   1       1.136  -0.705  -1.676  0.00  0.00    -0.012 A 
ATOM      4  C3A BZF d   1       2.126  -0.049  -0.878  0.00  0.00    -0.107 A 
ATOM      5  C4  BZF d   1       2.644   1.214  -0.876  0.00  0.00     0.055 A 
ATOM      6  C5  BZF d   1       3.546   1.557   0.081  0.00  0.00    -0.016 A 
ATOM      7  C6  BZF d   1       3.946   0.664   1.054  0.00  0.00     0.022 A 
ATOM      8  C7  BZF d   1       3.463  -0.602   1.090  0.00  0.00     0.029 A 
ATOM      9  C7A BZF d   1       2.577  -0.961   0.104  0.00  0.00     0.058 A 
ENDROOT
TORSDOF 0
ENDMDL
