MODEL 1
REMARK minimizedAffinity 11.3992901
REMARK minimizedRMSD -1
REMARK  0 active torsions:
REMARK  status: ('A' for Active; 'I' for Inactive)
ROOT
ATOM      1  O1  BZF d   1       3.677   0.940  -2.822  0.00  0.00    -0.204 OA
ATOM      2  C2  BZF d   1       4.907   1.564  -2.748  0.00  0.00     0.174 A 
ATOM      3  C3  BZF d   1       5.205   1.885  -1.473  0.00  0.00    -0.012 A 
ATOM      4  C3A BZF d   1       4.133   1.351  -0.690  0.00  0.00    -0.107 A 
ATOM      5  C4  BZF d   1       3.867   1.333   0.649  0.00  0.00     0.055 A 
ATOM      6  C5  BZF d   1       2.698   0.794   1.083  0.00  0.00    -0.016 A 
ATOM      7  C6  BZF d   1       1.771   0.269   0.207  0.00  0.00     0.022 A 
ATOM      8  C7  BZF d   1       1.993   0.260  -1.130  0.00  0.00     0.029 A 
ATOM      9  C7A BZF d   1       3.188   0.774  -1.569  0.00  0.00     0.058 A 
ENDROOT
TORSDOF 0
ENDMDL
