MODEL 1
REMARK minimizedAffinity 9.70852852
REMARK minimizedRMSD -1
REMARK  0 active torsions:
REMARK  status: ('A' for Active; 'I' for Inactive)
ROOT
ATOM      1  O1  BZF d   1      -5.580   2.217  -3.648  0.00  0.00    -0.204 OA
ATOM      2  C2  BZF d   1      -6.000   1.125  -4.383  0.00  0.00     0.174 A 
ATOM      3  C3  BZF d   1      -5.702  -0.025  -3.744  0.00  0.00    -0.012 A 
ATOM      4  C3A BZF d   1      -5.140   0.376  -2.491  0.00  0.00    -0.107 A 
ATOM      5  C4  BZF d   1      -4.664  -0.312  -1.412  0.00  0.00     0.055 A 
ATOM      6  C5  BZF d   1      -4.115   0.378  -0.377  0.00  0.00    -0.016 A 
ATOM      7  C6  BZF d   1      -4.022   1.754  -0.391  0.00  0.00     0.022 A 
ATOM      8  C7  BZF d   1      -4.484   2.481  -1.437  0.00  0.00     0.029 A 
ATOM      9  C7A BZF d   1      -5.069   1.789  -2.469  0.00  0.00     0.058 A 
ENDROOT
TORSDOF 0
ENDMDL
