MODEL 1
REMARK minimizedAffinity 5.08271503
REMARK minimizedRMSD -1
REMARK  0 active torsions:
REMARK  status: ('A' for Active; 'I' for Inactive)
ROOT
ATOM      1  O1  BZF d   1       2.404  -2.474   0.557  0.00  0.00    -0.204 OA
ATOM      2  C2  BZF d   1       2.029  -3.084  -0.625  0.00  0.00     0.174 A 
ATOM      3  C3  BZF d   1       2.097  -2.215  -1.654  0.00  0.00    -0.012 A 
ATOM      4  C3A BZF d   1       2.630  -1.011  -1.095  0.00  0.00    -0.107 A 
ATOM      5  C4  BZF d   1       2.945   0.209  -1.622  0.00  0.00     0.055 A 
ATOM      6  C5  BZF d   1       3.377   1.195  -0.792  0.00  0.00    -0.016 A 
ATOM      7  C6  BZF d   1       3.502   0.997   0.567  0.00  0.00     0.022 A 
ATOM      8  C7  BZF d   1       3.207  -0.198   1.135  0.00  0.00     0.029 A 
ATOM      9  C7A BZF d   1       2.801  -1.206   0.295  0.00  0.00     0.058 A 
ENDROOT
TORSDOF 0
ENDMDL
