MODEL 1
REMARK minimizedAffinity 8.00257015
REMARK minimizedRMSD -1
REMARK  0 active torsions:
REMARK  status: ('A' for Active; 'I' for Inactive)
ROOT
ATOM      1  O1  BZF d   1      -5.976   3.128   3.316  0.00  0.00    -0.204 OA
ATOM      2  C2  BZF d   1      -5.132   3.045   2.225  0.00  0.00     0.174 A 
ATOM      3  C3  BZF d   1      -4.139   3.952   2.319  0.00  0.00    -0.012 A 
ATOM      4  C3A BZF d   1      -4.324   4.582   3.590  0.00  0.00    -0.107 A 
ATOM      5  C4  BZF d   1      -3.645   5.558   4.262  0.00  0.00     0.055 A 
ATOM      6  C5  BZF d   1      -4.128   5.999   5.453  0.00  0.00    -0.016 A 
ATOM      7  C6  BZF d   1      -5.289   5.491   5.998  0.00  0.00     0.022 A 
ATOM      8  C7  BZF d   1      -5.995   4.519   5.371  0.00  0.00     0.029 A 
ATOM      9  C7A BZF d   1      -5.491   4.048   4.183  0.00  0.00     0.058 A 
ENDROOT
TORSDOF 0
ENDMDL
