MODEL 1
REMARK minimizedAffinity 15.6134558
REMARK minimizedRMSD -1
REMARK  0 active torsions:
REMARK  status: ('A' for Active; 'I' for Inactive)
ROOT
ATOM      1  O1  BZF d   1       4.132   1.365  -2.935  0.00  0.00    -0.204 OA
ATOM      2  C2  BZF d   1       5.273   2.082  -2.633  0.00  0.00     0.174 A 
ATOM      3  C3  BZF d   1       5.438   2.178  -1.298  0.00  0.00    -0.012 A 
ATOM      4  C3A BZF d   1       4.381   1.399  -0.731  0.00  0.00    -0.107 A 
ATOM      5  C4  BZF d   1       4.021   1.096   0.552  0.00  0.00     0.055 A 
ATOM      6  C5  BZF d   1       2.893   0.369   0.767  0.00  0.00    -0.016 A 
ATOM      7  C6  BZF d   1       2.099  -0.065  -0.274  0.00  0.00     0.022 A 
ATOM      8  C7  BZF d   1       2.418   0.206  -1.563  0.00  0.00     0.029 A 
ATOM      9  C7A BZF d   1       3.575   0.912  -1.786  0.00  0.00     0.058 A 
ENDROOT
TORSDOF 0
ENDMDL
