MODEL 1
REMARK minimizedAffinity 9.01364231
REMARK minimizedRMSD -1
REMARK  0 active torsions:
REMARK  status: ('A' for Active; 'I' for Inactive)
ROOT
ATOM      1  O1  BZF d   1       1.999  -2.462   0.644  0.00  0.00    -0.204 OA
ATOM      2  C2  BZF d   1       1.516  -2.866  -0.586  0.00  0.00     0.174 A 
ATOM      3  C3  BZF d   1       1.665  -1.888  -1.503  0.00  0.00    -0.012 A 
ATOM      4  C3A BZF d   1       2.363  -0.839  -0.825  0.00  0.00    -0.107 A 
ATOM      5  C4  BZF d   1       2.816   0.390  -1.211  0.00  0.00     0.055 A 
ATOM      6  C5  BZF d   1       3.394   1.201  -0.287  0.00  0.00    -0.016 A 
ATOM      7  C6  BZF d   1       3.531   0.818   1.031  0.00  0.00     0.022 A 
ATOM      8  C7  BZF d   1       3.102  -0.394   1.460  0.00  0.00     0.029 A 
ATOM      9  C7A BZF d   1       2.547  -1.229   0.522  0.00  0.00     0.058 A 
ENDROOT
TORSDOF 0
ENDMDL
