MODEL 1
REMARK minimizedAffinity -2.59003162
REMARK minimizedRMSD -1
REMARK  1 active torsions:
REMARK  status: ('A' for Active; 'I' for Inactive)
REMARK    1  A    between atoms: N_2  and  C1_3 
ROOT
ATOM      1  C1  UNL d   1       0.331  -0.300  -0.875  0.00  0.00     0.143 A 
ATOM      2  C2  UNL d   1       1.105   0.209   0.174  0.00  0.00    -0.057 A 
ATOM      3  C3  UNL d   1       0.512   0.671   1.355  0.00  0.00     0.033 A 
ATOM      4  C4  UNL d   1      -0.872   0.660   1.497  0.00  0.00    -0.042 A 
ATOM      5  C5  UNL d   1      -1.662   0.182   0.457  0.00  0.00     0.033 A 
ATOM      6  C6  UNL d   1      -1.063  -0.285  -0.717  0.00  0.00    -0.057 A 
ENDROOT
BRANCH   1   7
ATOM      7  N   UNL d   1       0.855  -0.683  -2.113  0.00  0.00    -0.732 N 
ATOM      8  C   UNL d   1       1.262   0.313  -3.081  0.00  0.00     0.284 C 
ATOM      9  H3  UNL d   1       1.489  -1.474  -2.038  0.00  0.00     0.395 HD
ENDBRANCH   1   7
TORSDOF 1
ENDMDL
