MODEL 1
REMARK minimizedAffinity -4.39270449
REMARK minimizedRMSD -1
REMARK  1 active torsions:
REMARK  status: ('A' for Active; 'I' for Inactive)
REMARK    1  A    between atoms: N_2  and  C1_3 
ROOT
ATOM      1  C1  UNL d   1       0.007  -0.247  -0.214  0.00  0.00     0.143 A 
ATOM      2  C2  UNL d   1      -1.372  -0.059  -0.072  0.00  0.00    -0.057 A 
ATOM      3  C3  UNL d   1      -1.903   0.618   1.033  0.00  0.00     0.033 A 
ATOM      4  C4  UNL d   1      -1.062   1.096   2.033  0.00  0.00    -0.042 A 
ATOM      5  C5  UNL d   1       0.310   0.899   1.925  0.00  0.00     0.033 A 
ATOM      6  C6  UNL d   1       0.834   0.228   0.816  0.00  0.00    -0.057 A 
ENDROOT
BRANCH   1   7
ATOM      7  N   UNL d   1       0.589  -0.997  -1.238  0.00  0.00    -0.732 N 
ATOM      8  C   UNL d   1       0.851  -0.401  -2.531  0.00  0.00     0.284 C 
ATOM      9  H3  UNL d   1       1.333  -1.604  -0.901  0.00  0.00     0.395 HD
ENDBRANCH   1   7
TORSDOF 1
ENDMDL
