MODEL 1
REMARK minimizedAffinity -3.2860167
REMARK minimizedRMSD -1
REMARK  1 active torsions:
REMARK  status: ('A' for Active; 'I' for Inactive)
REMARK    1  A    between atoms: N_2  and  C1_3 
ROOT
ATOM      1  C1  UNL d   1       0.437  -0.471   0.650  0.00  0.00     0.143 A 
ATOM      2  C2  UNL d   1      -0.818   0.051   0.978  0.00  0.00    -0.057 A 
ATOM      3  C3  UNL d   1      -1.131   0.419   2.293  0.00  0.00     0.033 A 
ATOM      4  C4  UNL d   1      -0.199   0.244   3.310  0.00  0.00    -0.042 A 
ATOM      5  C5  UNL d   1       1.047  -0.296   3.012  0.00  0.00     0.033 A 
ATOM      6  C6  UNL d   1       1.355  -0.656   1.696  0.00  0.00    -0.057 A 
ENDROOT
BRANCH   1   7
ATOM      7  N   UNL d   1       0.774  -0.947  -0.619  0.00  0.00    -0.732 N 
ATOM      8  C   UNL d   1       0.526  -0.144  -1.798  0.00  0.00     0.284 C 
ATOM      9  H3  UNL d   1       1.669  -1.432  -0.628  0.00  0.00     0.395 HD
ENDBRANCH   1   7
TORSDOF 1
ENDMDL
