MODEL 1
REMARK minimizedAffinity -3.08497643
REMARK minimizedRMSD -1
REMARK  1 active torsions:
REMARK  status: ('A' for Active; 'I' for Inactive)
REMARK    1  A    between atoms: N_2  and  C1_3 
ROOT
ATOM      1  C1  UNL d   1       0.094   0.168   1.182  0.00  0.00     0.143 A 
ATOM      2  C2  UNL d   1       1.242  -0.631   1.213  0.00  0.00    -0.057 A 
ATOM      3  C3  UNL d   1       1.678  -1.319   0.074  0.00  0.00     0.033 A 
ATOM      4  C4  UNL d   1       0.954  -1.245  -1.111  0.00  0.00    -0.042 A 
ATOM      5  C5  UNL d   1      -0.205  -0.477  -1.157  0.00  0.00     0.033 A 
ATOM      6  C6  UNL d   1      -0.631   0.214  -0.019  0.00  0.00    -0.057 A 
ENDROOT
BRANCH   1   7
ATOM      7  N   UNL d   1      -0.445   0.798   2.307  0.00  0.00    -0.732 N 
ATOM      8  C   UNL d   1      -1.571   0.218   3.008  0.00  0.00     0.284 C 
ATOM      9  H3  UNL d   1       0.272   1.183   2.917  0.00  0.00     0.395 HD
ENDBRANCH   1   7
TORSDOF 1
ENDMDL
