MODEL 1
REMARK minimizedAffinity 11.233676
REMARK minimizedRMSD -1
REMARK  3 active torsions:
REMARK  status: ('A' for Active; 'I' for Inactive)
REMARK    1  A    between atoms: C3'_2  and  C2'_3 
REMARK    2  A    between atoms: C2'_3  and  C1'_4 
REMARK    3  A    between atoms: C1'_4  and  C1_5 
ROOT
ATOM      1  C1  N4B d   1      -2.315   0.567  -1.562  0.00  0.00    -0.075 A 
ATOM      2  C2  N4B d   1      -1.493  -0.541  -1.258  0.00  0.00     0.002 A 
ATOM      3  C3  N4B d   1      -0.868  -1.230  -2.268  0.00  0.00     0.002 A 
ATOM      4  C4  N4B d   1      -1.064  -0.843  -3.585  0.00  0.00    -0.004 A 
ATOM      5  C5  N4B d   1      -1.839   0.244  -3.869  0.00  0.00     0.002 A 
ATOM      6  C6  N4B d   1      -2.470   0.948  -2.863  0.00  0.00     0.002 A 
ENDROOT
BRANCH   1   7
ATOM      7  C1' N4B d   1      -3.088   1.298  -0.498  0.00  0.00     0.057 C 
BRANCH   7   8
ATOM      8  C2' N4B d   1      -3.605   0.292   0.526  0.00  0.00     0.009 C 
BRANCH   8   9
ATOM      9  C3' N4B d   1      -3.382   0.767   1.952  0.00  0.00     0.004 C 
ATOM     10  C4' N4B d   1      -4.005  -0.141   2.970  0.00  0.00     0.003 C 
ENDBRANCH   8   9
ENDBRANCH   7   8
ENDBRANCH   1   7
TORSDOF 3
ENDMDL
