MODEL 1
REMARK minimizedAffinity 1.85353589
REMARK minimizedRMSD -1
REMARK  3 active torsions:
REMARK  status: ('A' for Active; 'I' for Inactive)
REMARK    1  A    between atoms: C3'_2  and  C2'_3 
REMARK    2  A    between atoms: C2'_3  and  C1'_4 
REMARK    3  A    between atoms: C1'_4  and  C1_5 
ROOT
ATOM      1  C1  N4B d   1      -0.478   1.761  -0.273  0.00  0.00    -0.075 A 
ATOM      2  C2  N4B d   1      -1.818   1.358  -0.465  0.00  0.00     0.002 A 
ATOM      3  C3  N4B d   1      -2.099   0.250  -1.225  0.00  0.00     0.002 A 
ATOM      4  C4  N4B d   1      -1.063  -0.457  -1.817  0.00  0.00    -0.004 A 
ATOM      5  C5  N4B d   1       0.230  -0.076  -1.607  0.00  0.00     0.002 A 
ATOM      6  C6  N4B d   1       0.528   1.033  -0.841  0.00  0.00     0.002 A 
ENDROOT
BRANCH   1   7
ATOM      7  C1' N4B d   1      -0.126   3.015   0.479  0.00  0.00     0.057 C 
BRANCH   7   8
ATOM      8  C2' N4B d   1      -0.715   4.219  -0.250  0.00  0.00     0.009 C 
BRANCH   8   9
ATOM      9  C3' N4B d   1       0.337   5.272  -0.552  0.00  0.00     0.004 C 
ATOM     10  C4' N4B d   1       1.555   5.141   0.314  0.00  0.00     0.003 C 
ENDBRANCH   8   9
ENDBRANCH   7   8
ENDBRANCH   1   7
TORSDOF 3
ENDMDL
