MODEL 1
REMARK minimizedAffinity 6.00190163
REMARK minimizedRMSD -1
REMARK  3 active torsions:
REMARK  status: ('A' for Active; 'I' for Inactive)
REMARK    1  A    between atoms: C3'_2  and  C2'_3 
REMARK    2  A    between atoms: C2'_3  and  C1'_4 
REMARK    3  A    between atoms: C1'_4  and  C1_5 
ROOT
ATOM      1  C1  N4B d   1      -0.002   2.274   2.002  0.00  0.00    -0.075 A 
ATOM      2  C2  N4B d   1       0.972   2.841   1.150  0.00  0.00     0.002 A 
ATOM      3  C3  N4B d   1       0.625   3.853   0.289  0.00  0.00     0.002 A 
ATOM      4  C4  N4B d   1      -0.687   4.300   0.248  0.00  0.00    -0.004 A 
ATOM      5  C5  N4B d   1      -1.616   3.764   1.092  0.00  0.00     0.002 A 
ATOM      6  C6  N4B d   1      -1.281   2.749   1.966  0.00  0.00     0.002 A 
ENDROOT
BRANCH   1   7
ATOM      7  C1' N4B d   1       0.310   1.108   2.899  0.00  0.00     0.057 C 
BRANCH   7   8
ATOM      8  C2' N4B d   1       1.821   1.015   3.092  0.00  0.00     0.009 C 
BRANCH   8   9
ATOM      9  C3' N4B d   1       2.185   0.391   4.429  0.00  0.00     0.004 C 
ATOM     10  C4' N4B d   1       1.435  -0.878   4.701  0.00  0.00     0.003 C 
ENDBRANCH   8   9
ENDBRANCH   7   8
ENDBRANCH   1   7
TORSDOF 3
ENDMDL
