MODEL 1
REMARK minimizedAffinity 11.6986303
REMARK minimizedRMSD -1
REMARK  3 active torsions:
REMARK  status: ('A' for Active; 'I' for Inactive)
REMARK    1  A    between atoms: C3'_2  and  C2'_3 
REMARK    2  A    between atoms: C2'_3  and  C1'_4 
REMARK    3  A    between atoms: C1'_4  and  C1_5 
ROOT
ATOM      1  C1  N4B d   1      -2.465   0.750  -3.061  0.00  0.00    -0.075 A 
ATOM      2  C2  N4B d   1      -2.272   0.167  -4.332  0.00  0.00     0.002 A 
ATOM      3  C3  N4B d   1      -2.768   0.786  -5.453  0.00  0.00     0.002 A 
ATOM      4  C4  N4B d   1      -3.472   1.974  -5.326  0.00  0.00    -0.004 A 
ATOM      5  C5  N4B d   1      -3.632   2.543  -4.097  0.00  0.00     0.002 A 
ATOM      6  C6  N4B d   1      -3.136   1.934  -2.962  0.00  0.00     0.002 A 
ENDROOT
BRANCH   1   7
ATOM      7  C1' N4B d   1      -2.016   0.066  -1.798  0.00  0.00     0.057 C 
BRANCH   7   8
ATOM      8  C2' N4B d   1      -0.829  -0.839  -2.112  0.00  0.00     0.009 C 
BRANCH   8   9
ATOM      9  C3' N4B d   1      -1.069  -1.679  -3.355  0.00  0.00     0.004 C 
ATOM     10  C4' N4B d   1      -1.226  -3.139  -3.047  0.00  0.00     0.003 C 
ENDBRANCH   8   9
ENDBRANCH   7   8
ENDBRANCH   1   7
TORSDOF 3
ENDMDL
