MODEL 1
REMARK minimizedAffinity 6.40431023
REMARK minimizedRMSD -1
REMARK  0 active torsions:
REMARK  status: ('A' for Active; 'I' for Inactive)
ROOT
ATOM      1  C   UNL d   1      -2.522   0.887   0.075  0.00  0.00     0.023 A 
ATOM      2  C1  UNL d   1      -1.467   1.760   0.338  0.00  0.00     0.003 A 
ATOM      3  C2  UNL d   1      -0.371   1.327   1.088  0.00  0.00     0.048 A 
ATOM      4  C3  UNL d   1      -0.338   0.019   1.571  0.00  0.00     0.023 A 
ATOM      5  C4  UNL d   1      -1.391  -0.858   1.309  0.00  0.00     0.048 A 
ATOM      6  C5  UNL d   1      -2.485  -0.420   0.560  0.00  0.00     0.003 A 
ATOM      7  I   UNL d   1       1.292  -0.628   2.687  0.00  0.00    -0.146 I 
ENDROOT
TORSDOF 0
ENDMDL
