MODEL 1
REMARK minimizedAffinity 11.939847
REMARK minimizedRMSD -1
REMARK  0 active torsions:
REMARK  status: ('A' for Active; 'I' for Inactive)
ROOT
ATOM      1  C   UNL d   1       0.007   5.999   0.174  0.00  0.00     0.023 A 
ATOM      2  C1  UNL d   1      -1.029   5.613   1.025  0.00  0.00     0.003 A 
ATOM      3  C2  UNL d   1      -1.328   4.260   1.195  0.00  0.00     0.048 A 
ATOM      4  C3  UNL d   1      -0.586   3.297   0.512  0.00  0.00     0.023 A 
ATOM      5  C4  UNL d   1       0.451   3.678  -0.341  0.00  0.00     0.048 A 
ATOM      6  C5  UNL d   1       0.746   5.032  -0.508  0.00  0.00     0.003 A 
ATOM      7  I   UNL d   1      -1.029   1.282   0.763  0.00  0.00    -0.146 I 
ENDROOT
TORSDOF 0
ENDMDL
