MODEL 1
REMARK minimizedAffinity 6.62662506
REMARK minimizedRMSD -1
REMARK  0 active torsions:
REMARK  status: ('A' for Active; 'I' for Inactive)
ROOT
ATOM      1  C   UNL d   1      -5.379   4.853  -4.201  0.00  0.00     0.023 A 
ATOM      2  C1  UNL d   1      -5.856   5.993  -3.553  0.00  0.00     0.003 A 
ATOM      3  C2  UNL d   1      -6.000   6.000  -2.164  0.00  0.00     0.048 A 
ATOM      4  C3  UNL d   1      -5.663   4.864  -1.429  0.00  0.00     0.023 A 
ATOM      5  C4  UNL d   1      -5.184   3.722  -2.072  0.00  0.00     0.048 A 
ATOM      6  C5  UNL d   1      -5.044   3.719  -3.461  0.00  0.00     0.003 A 
ATOM      7  I   UNL d   1      -5.875   4.872   0.639  0.00  0.00    -0.146 I 
ENDROOT
TORSDOF 0
ENDMDL
