MODEL 1
REMARK minimizedAffinity 1.90611839
REMARK minimizedRMSD -1
REMARK  0 active torsions:
REMARK  status: ('A' for Active; 'I' for Inactive)
ROOT
ATOM      1  C   UNL d   1       0.852   0.398   0.752  0.00  0.00     0.023 A 
ATOM      2  C1  UNL d   1       0.205  -0.818   0.534  0.00  0.00     0.003 A 
ATOM      3  C2  UNL d   1       0.408  -1.886   1.411  0.00  0.00     0.048 A 
ATOM      4  C3  UNL d   1       1.258  -1.729   2.505  0.00  0.00     0.023 A 
ATOM      5  C4  UNL d   1       1.907  -0.513   2.728  0.00  0.00     0.048 A 
ATOM      6  C5  UNL d   1       1.702   0.550   1.848  0.00  0.00     0.003 A 
ATOM      7  I   UNL d   1       1.561  -3.316   3.813  0.00  0.00    -0.146 I 
ENDROOT
TORSDOF 0
ENDMDL
