MODEL 1
REMARK minimizedAffinity -0.223028734
REMARK minimizedRMSD -1
REMARK  0 active torsions:
REMARK  status: ('A' for Active; 'I' for Inactive)
ROOT
ATOM      1  C   UNL d   1       4.498  -0.011  -5.972  0.00  0.00     0.023 A 
ATOM      2  C1  UNL d   1       3.404  -0.875  -5.966  0.00  0.00     0.003 A 
ATOM      3  C2  UNL d   1       3.603  -2.257  -5.969  0.00  0.00     0.048 A 
ATOM      4  C3  UNL d   1       4.901  -2.768  -5.978  0.00  0.00     0.023 A 
ATOM      5  C4  UNL d   1       5.999  -1.907  -5.983  0.00  0.00     0.048 A 
ATOM      6  C5  UNL d   1       5.795  -0.526  -5.981  0.00  0.00     0.003 A 
ATOM      7  I   UNL d   1       5.201  -4.825  -5.983  0.00  0.00    -0.146 I 
ENDROOT
TORSDOF 0
ENDMDL
