MODEL 1
REMARK minimizedAffinity -0.950363696
REMARK minimizedRMSD -1
REMARK  1 active torsions:
REMARK  status: ('A' for Active; 'I' for Inactive)
REMARK    1  A    between atoms: C3_4  and  O_7 
ROOT
ATOM      1  C   UNL d   1      -0.907  -1.798   3.381  0.00  0.00    -0.033 A 
ATOM      2  C1  UNL d   1      -0.590  -3.103   2.997  0.00  0.00     0.039 A 
ATOM      3  C2  UNL d   1       0.511  -3.342   2.172  0.00  0.00    -0.080 A 
ATOM      4  C3  UNL d   1       1.286  -2.270   1.739  0.00  0.00     0.150 A 
ATOM      5  C4  UNL d   1       0.979  -0.968   2.121  0.00  0.00    -0.007 A 
ATOM      6  C5  UNL d   1      -0.122  -0.731   2.944  0.00  0.00     0.039 A 
ENDROOT
BRANCH   4   7
ATOM      7  O   UNL d   1       2.367  -2.453   0.929  0.00  0.00    -0.526 OA
ATOM      8  H5  UNL d   1       2.441  -3.400   0.724  0.00  0.00     0.418 HD
ENDBRANCH   4   7
TORSDOF 1
ENDMDL
