MODEL 1
REMARK minimizedAffinity -1.03897369
REMARK minimizedRMSD -1
REMARK  1 active torsions:
REMARK  status: ('A' for Active; 'I' for Inactive)
REMARK    1  A    between atoms: C3_4  and  O_7 
ROOT
ATOM      1  C   UNL d   1       3.913   5.877  -5.992  0.00  0.00    -0.033 A 
ATOM      2  C1  UNL d   1       5.283   5.971  -5.741  0.00  0.00     0.039 A 
ATOM      3  C2  UNL d   1       6.000   4.844  -5.335  0.00  0.00    -0.080 A 
ATOM      4  C3  UNL d   1       5.336   3.630  -5.185  0.00  0.00     0.150 A 
ATOM      5  C4  UNL d   1       3.972   3.527  -5.438  0.00  0.00    -0.007 A 
ATOM      6  C5  UNL d   1       3.258   4.654  -5.842  0.00  0.00     0.039 A 
ENDROOT
BRANCH   4   7
ATOM      7  O   UNL d   1       5.992   2.503  -4.786  0.00  0.00    -0.526 OA
ATOM      8  H5  UNL d   1       6.922   2.731  -4.621  0.00  0.00     0.418 HD
ENDBRANCH   4   7
TORSDOF 1
ENDMDL
