MODEL 1
REMARK minimizedAffinity 3.79338288
REMARK minimizedRMSD -1
REMARK  1 active torsions:
REMARK  status: ('A' for Active; 'I' for Inactive)
REMARK    1  A    between atoms: C3_4  and  O_7 
ROOT
ATOM      1  C   UNL d   1       5.960   0.142   0.118  0.00  0.00    -0.033 A 
ATOM      2  C1  UNL d   1       5.996  -0.549  -1.095  0.00  0.00     0.039 A 
ATOM      3  C2  UNL d   1       6.000   0.153  -2.301  0.00  0.00    -0.080 A 
ATOM      4  C3  UNL d   1       5.968   1.544  -2.282  0.00  0.00     0.150 A 
ATOM      5  C4  UNL d   1       5.935   2.240  -1.078  0.00  0.00    -0.007 A 
ATOM      6  C5  UNL d   1       5.931   1.537   0.126  0.00  0.00     0.039 A 
ENDROOT
BRANCH   4   7
ATOM      7  O   UNL d   1       5.965   2.273  -3.435  0.00  0.00    -0.526 OA
ATOM      8  H5  UNL d   1       5.960   1.658  -4.187  0.00  0.00     0.418 HD
ENDBRANCH   4   7
TORSDOF 1
ENDMDL
