MODEL 1
REMARK minimizedAffinity -3.10419536
REMARK minimizedRMSD -1
REMARK  1 active torsions:
REMARK  status: ('A' for Active; 'I' for Inactive)
REMARK    1  A    between atoms: C3_4  and  O_7 
ROOT
ATOM      1  C   UNL d   1      -3.023   5.520   4.558  0.00  0.00    -0.033 A 
ATOM      2  C1  UNL d   1      -2.660   4.240   4.982  0.00  0.00     0.039 A 
ATOM      3  C2  UNL d   1      -3.615   3.222   5.031  0.00  0.00    -0.080 A 
ATOM      4  C3  UNL d   1      -4.927   3.498   4.654  0.00  0.00     0.150 A 
ATOM      5  C4  UNL d   1      -5.294   4.770   4.228  0.00  0.00    -0.007 A 
ATOM      6  C5  UNL d   1      -4.339   5.784   4.180  0.00  0.00     0.039 A 
ENDROOT
BRANCH   4   7
ATOM      7  O   UNL d   1      -5.895   2.538   4.690  0.00  0.00    -0.526 OA
ATOM      8  H5  UNL d   1      -5.502   1.718   5.032  0.00  0.00     0.418 HD
ENDBRANCH   4   7
TORSDOF 1
ENDMDL
