MODEL 1
REMARK minimizedAffinity 1.55877209
REMARK minimizedRMSD -1
REMARK  1 active torsions:
REMARK  status: ('A' for Active; 'I' for Inactive)
REMARK    1  A    between atoms: C3_4  and  O_7 
ROOT
ATOM      1  C   UNL d   1      -4.864   2.891  -5.024  0.00  0.00    -0.033 A 
ATOM      2  C1  UNL d   1      -3.996   1.809  -5.184  0.00  0.00     0.039 A 
ATOM      3  C2  UNL d   1      -2.780   1.781  -4.498  0.00  0.00    -0.080 A 
ATOM      4  C3  UNL d   1      -2.446   2.838  -3.657  0.00  0.00     0.150 A 
ATOM      5  C4  UNL d   1      -3.308   3.917  -3.490  0.00  0.00    -0.007 A 
ATOM      6  C5  UNL d   1      -4.521   3.944  -4.177  0.00  0.00     0.039 A 
ENDROOT
BRANCH   4   7
ATOM      7  O   UNL d   1      -1.268   2.858  -2.970  0.00  0.00    -0.526 OA
ATOM      8  H5  UNL d   1      -0.762   2.062  -3.205  0.00  0.00     0.418 HD
ENDBRANCH   4   7
TORSDOF 1
ENDMDL
