MODEL 1
REMARK minimizedAffinity 7.96381092
REMARK minimizedRMSD -1
REMARK  1 active torsions:
REMARK  status: ('A' for Active; 'I' for Inactive)
REMARK    1  A    between atoms: C3_4  and  O_7 
ROOT
ATOM      1  C   UNL d   1       1.169  -1.247   1.605  0.00  0.00    -0.033 A 
ATOM      2  C1  UNL d   1       2.304  -1.243   0.791  0.00  0.00     0.039 A 
ATOM      3  C2  UNL d   1       2.562  -2.323  -0.056  0.00  0.00    -0.080 A 
ATOM      4  C3  UNL d   1       1.678  -3.399  -0.080  0.00  0.00     0.150 A 
ATOM      5  C4  UNL d   1       0.544  -3.408   0.725  0.00  0.00    -0.007 A 
ATOM      6  C5  UNL d   1       0.288  -2.329   1.571  0.00  0.00     0.039 A 
ENDROOT
BRANCH   4   7
ATOM      7  O   UNL d   1       1.891  -4.477  -0.886  0.00  0.00    -0.526 OA
ATOM      8  H5  UNL d   1       2.727  -4.345  -1.363  0.00  0.00     0.418 HD
ENDBRANCH   4   7
TORSDOF 1
ENDMDL
