MODEL 1
REMARK minimizedAffinity 4.89950514
REMARK minimizedRMSD -1
REMARK  1 active torsions:
REMARK  status: ('A' for Active; 'I' for Inactive)
REMARK    1  A    between atoms: C3_4  and  O_7 
ROOT
ATOM      1  C   UNL d   1       0.538  -0.549   2.962  0.00  0.00    -0.033 A 
ATOM      2  C1  UNL d   1      -0.492  -1.166   2.249  0.00  0.00     0.039 A 
ATOM      3  C2  UNL d   1      -0.199  -1.940   1.125  0.00  0.00    -0.080 A 
ATOM      4  C3  UNL d   1       1.126  -2.089   0.725  0.00  0.00     0.150 A 
ATOM      5  C4  UNL d   1       2.157  -1.481   1.432  0.00  0.00    -0.007 A 
ATOM      6  C5  UNL d   1       1.863  -0.707   2.555  0.00  0.00     0.039 A 
ENDROOT
BRANCH   4   7
ATOM      7  O   UNL d   1       1.461  -2.831  -0.369  0.00  0.00    -0.526 OA
ATOM      8  H5  UNL d   1       0.645  -3.167  -0.775  0.00  0.00     0.418 HD
ENDBRANCH   4   7
TORSDOF 1
ENDMDL
