MODEL 1
REMARK minimizedAffinity 2.96171927
REMARK minimizedRMSD -1
REMARK  1 active torsions:
REMARK  status: ('A' for Active; 'I' for Inactive)
REMARK    1  A    between atoms: C3_4  and  O_7 
ROOT
ATOM      1  C   UNL d   1      -3.526   2.928  -2.711  0.00  0.00    -0.033 A 
ATOM      2  C1  UNL d   1      -4.132   1.881  -3.409  0.00  0.00     0.039 A 
ATOM      3  C2  UNL d   1      -4.967   2.155  -4.494  0.00  0.00    -0.080 A 
ATOM      4  C3  UNL d   1      -5.187   3.477  -4.870  0.00  0.00     0.150 A 
ATOM      5  C4  UNL d   1      -4.584   4.524  -4.182  0.00  0.00    -0.007 A 
ATOM      6  C5  UNL d   1      -3.751   4.249  -3.098  0.00  0.00     0.039 A 
ENDROOT
BRANCH   4   7
ATOM      7  O   UNL d   1      -5.998   3.793  -5.919  0.00  0.00    -0.526 OA
ATOM      8  H5  UNL d   1      -6.368   2.971  -6.281  0.00  0.00     0.418 HD
ENDBRANCH   4   7
TORSDOF 1
ENDMDL
