MODEL 1
REMARK minimizedAffinity -4.26002598
REMARK minimizedRMSD -1
REMARK  0 active torsions:
REMARK  status: ('A' for Active; 'I' for Inactive)
ROOT
ATOM      1  O1  BZF d   1       0.839   0.546  -0.936  0.00  0.00    -0.204 OA
ATOM      2  C2  BZF d   1       0.646  -0.751  -0.500  0.00  0.00     0.174 A 
ATOM      3  C3  BZF d   1      -0.232  -0.787   0.522  0.00  0.00    -0.012 A 
ATOM      4  C3A BZF d   1      -0.683   0.562   0.679  0.00  0.00    -0.107 A 
ATOM      5  C4  BZF d   1      -1.574   1.162   1.522  0.00  0.00     0.055 A 
ATOM      6  C5  BZF d   1      -1.732   2.511   1.464  0.00  0.00    -0.016 A 
ATOM      7  C6  BZF d   1      -1.013   3.289   0.581  0.00  0.00     0.022 A 
ATOM      8  C7  BZF d   1      -0.121   2.738  -0.278  0.00  0.00     0.029 A 
ATOM      9  C7A BZF d   1       0.017   1.372  -0.245  0.00  0.00     0.058 A 
ENDROOT
TORSDOF 0
ENDMDL
