MODEL 1
REMARK minimizedAffinity -4.33970785
REMARK minimizedRMSD -1
REMARK  0 active torsions:
REMARK  status: ('A' for Active; 'I' for Inactive)
ROOT
ATOM      1  O1  BZF d   1       0.529  -0.084  -1.354  0.00  0.00    -0.204 OA
ATOM      2  C2  BZF d   1       1.078  -1.214  -0.779  0.00  0.00     0.174 A 
ATOM      3  C3  BZF d   1       0.722  -1.311   0.518  0.00  0.00    -0.012 A 
ATOM      4  C3A BZF d   1      -0.175  -0.219   0.745  0.00  0.00    -0.107 A 
ATOM      5  C4  BZF d   1      -0.876   0.208   1.836  0.00  0.00     0.055 A 
ATOM      6  C5  BZF d   1      -1.605   1.351   1.747  0.00  0.00    -0.016 A 
ATOM      7  C6  BZF d   1      -1.651   2.094   0.585  0.00  0.00     0.022 A 
ATOM      8  C7  BZF d   1      -0.976   1.707  -0.525  0.00  0.00     0.029 A 
ATOM      9  C7A BZF d   1      -0.265   0.535  -0.447  0.00  0.00     0.058 A 
ENDROOT
TORSDOF 0
ENDMDL
