MODEL 1
REMARK minimizedAffinity -4.83589268
REMARK minimizedRMSD -1
REMARK  0 active torsions:
REMARK  status: ('A' for Active; 'I' for Inactive)
ROOT
ATOM      1  O1  BZF d   1       0.542   1.380  -1.019  0.00  0.00    -0.204 OA
ATOM      2  C2  BZF d   1       1.324   0.277  -1.303  0.00  0.00     0.174 A 
ATOM      3  C3  BZF d   1       1.054  -0.733  -0.452  0.00  0.00    -0.012 A 
ATOM      4  C3A BZF d   1      -0.026  -0.262   0.361  0.00  0.00    -0.107 A 
ATOM      5  C4  BZF d   1      -0.745  -0.817   1.380  0.00  0.00     0.055 A 
ATOM      6  C5  BZF d   1      -1.684  -0.065   2.012  0.00  0.00    -0.016 A 
ATOM      7  C6  BZF d   1      -1.925   1.246   1.655  0.00  0.00     0.022 A 
ATOM      8  C7  BZF d   1      -1.240   1.838   0.647  0.00  0.00     0.029 A 
ATOM      9  C7A BZF d   1      -0.314   1.070  -0.015  0.00  0.00     0.058 A 
ENDROOT
TORSDOF 0
ENDMDL
