MODEL 1
REMARK minimizedAffinity -3.21351814
REMARK minimizedRMSD -1
REMARK  0 active torsions:
REMARK  status: ('A' for Active; 'I' for Inactive)
ROOT
ATOM      1  O1  BZF d   1       0.979   0.252  -1.752  0.00  0.00    -0.204 OA
ATOM      2  C2  BZF d   1       1.328  -1.047  -1.435  0.00  0.00     0.174 A 
ATOM      3  C3  BZF d   1       0.771  -1.420  -0.265  0.00  0.00    -0.012 A 
ATOM      4  C3A BZF d   1      -0.047  -0.315   0.131  0.00  0.00    -0.107 A 
ATOM      5  C4  BZF d   1      -0.866  -0.089   1.201  0.00  0.00     0.055 A 
ATOM      6  C5  BZF d   1      -1.466   1.124   1.329  0.00  0.00    -0.016 A 
ATOM      7  C6  BZF d   1      -1.266   2.133   0.411  0.00  0.00     0.022 A 
ATOM      8  C7  BZF d   1      -0.467   1.955  -0.669  0.00  0.00     0.029 A 
ATOM      9  C7A BZF d   1       0.115   0.719  -0.819  0.00  0.00     0.058 A 
ENDROOT
TORSDOF 0
ENDMDL
