MODEL 1
REMARK minimizedAffinity -3.36800337
REMARK minimizedRMSD -1
REMARK  0 active torsions:
REMARK  status: ('A' for Active; 'I' for Inactive)
ROOT
ATOM      1  O1  BZF d   1       0.890   0.134  -0.779  0.00  0.00    -0.204 OA
ATOM      2  C2  BZF d   1       0.783  -0.854   0.180  0.00  0.00     0.174 A 
ATOM      3  C3  BZF d   1      -0.032  -0.462   1.181  0.00  0.00    -0.012 A 
ATOM      4  C3A BZF d   1      -0.534   0.816   0.780  0.00  0.00    -0.107 A 
ATOM      5  C4  BZF d   1      -1.401   1.705   1.348  0.00  0.00     0.055 A 
ATOM      6  C5  BZF d   1      -1.623   2.896   0.733  0.00  0.00    -0.016 A 
ATOM      7  C6  BZF d   1      -0.993   3.232  -0.448  0.00  0.00     0.022 A 
ATOM      8  C7  BZF d   1      -0.129   2.381  -1.052  0.00  0.00     0.029 A 
ATOM      9  C7A BZF d   1       0.073   1.163  -0.449  0.00  0.00     0.058 A 
ENDROOT
TORSDOF 0
ENDMDL
