MODEL 1
REMARK minimizedAffinity -2.37655878
REMARK minimizedRMSD -1
REMARK  0 active torsions:
REMARK  status: ('A' for Active; 'I' for Inactive)
ROOT
ATOM      1  O1  BZF d   1       1.217  -0.017  -0.976  0.00  0.00    -0.204 OA
ATOM      2  C2  BZF d   1       1.062  -1.159  -0.215  0.00  0.00     0.174 A 
ATOM      3  C3  BZF d   1       0.125  -0.977   0.737  0.00  0.00    -0.012 A 
ATOM      4  C3A BZF d   1      -0.401   0.333   0.501  0.00  0.00    -0.107 A 
ATOM      5  C4  BZF d   1      -1.372   1.078   1.107  0.00  0.00     0.055 A 
ATOM      6  C5  BZF d   1      -1.593   2.349   0.679  0.00  0.00    -0.016 A 
ATOM      7  C6  BZF d   1      -0.860   2.907  -0.348  0.00  0.00     0.022 A 
ATOM      8  C7  BZF d   1       0.110   2.205  -0.983  0.00  0.00     0.029 A 
ATOM      9  C7A BZF d   1       0.313   0.909  -0.575  0.00  0.00     0.058 A 
ENDROOT
TORSDOF 0
ENDMDL
