MODEL 1
REMARK minimizedAffinity -3.73377132
REMARK minimizedRMSD -1
REMARK  0 active torsions:
REMARK  status: ('A' for Active; 'I' for Inactive)
ROOT
ATOM      1  O1  BZF d   1      -1.485   0.841   2.014  0.00  0.00    -0.204 OA
ATOM      2  C2  BZF d   1      -2.204   1.862   1.424  0.00  0.00     0.174 A 
ATOM      3  C3  BZF d   1      -1.773   2.085   0.166  0.00  0.00    -0.012 A 
ATOM      4  C3A BZF d   1      -0.781   1.083  -0.076  0.00  0.00    -0.107 A 
ATOM      5  C4  BZF d   1       0.001   0.777  -1.152  0.00  0.00     0.055 A 
ATOM      6  C5  BZF d   1       0.922  -0.216  -1.038  0.00  0.00    -0.016 A 
ATOM      7  C6  BZF d   1       1.091  -0.918   0.137  0.00  0.00     0.022 A 
ATOM      8  C7  BZF d   1       0.336  -0.653   1.230  0.00  0.00     0.029 A 
ATOM      9  C7A BZF d   1      -0.618   0.327   1.108  0.00  0.00     0.058 A 
ENDROOT
TORSDOF 0
ENDMDL
