MODEL 1
REMARK minimizedAffinity -4.04926395
REMARK minimizedRMSD -1
REMARK  0 active torsions:
REMARK  status: ('A' for Active; 'I' for Inactive)
ROOT
ATOM      1  O1  BZF d   1      -1.655   1.155   1.908  0.00  0.00    -0.204 OA
ATOM      2  C2  BZF d   1      -2.055   2.265   1.189  0.00  0.00     0.174 A 
ATOM      3  C3  BZF d   1      -1.425   2.316  -0.002  0.00  0.00    -0.012 A 
ATOM      4  C3A BZF d   1      -0.648   1.116  -0.068  0.00  0.00    -0.107 A 
ATOM      5  C4  BZF d   1       0.184   0.587  -1.013  0.00  0.00     0.055 A 
ATOM      6  C5  BZF d   1       0.846  -0.567  -0.738  0.00  0.00    -0.016 A 
ATOM      7  C6  BZF d   1       0.705  -1.215   0.472  0.00  0.00     0.022 A 
ATOM      8  C7  BZF d   1      -0.112  -0.731   1.438  0.00  0.00     0.029 A 
ATOM      9  C7A BZF d   1      -0.809   0.417   1.151  0.00  0.00     0.058 A 
ENDROOT
TORSDOF 0
ENDMDL
