MODEL 1
REMARK minimizedAffinity -1.60221636
REMARK minimizedRMSD -1
REMARK  0 active torsions:
REMARK  status: ('A' for Active; 'I' for Inactive)
ROOT
ATOM      1  O1  BZF d   1       0.594   0.150  -0.626  0.00  0.00    -0.204 OA
ATOM      2  C2  BZF d   1       0.229   0.062   0.703  0.00  0.00     0.174 A 
ATOM      3  C3  BZF d   1      -0.102  -1.205   1.025  0.00  0.00    -0.012 A 
ATOM      4  C3A BZF d   1       0.155  -1.972  -0.154  0.00  0.00    -0.107 A 
ATOM      5  C4  BZF d   1       0.036  -3.299  -0.455  0.00  0.00     0.055 A 
ATOM      6  C5  BZF d   1       0.300  -3.715  -1.722  0.00  0.00    -0.016 A 
ATOM      7  C6  BZF d   1       0.678  -2.832  -2.712  0.00  0.00     0.022 A 
ATOM      8  C7  BZF d   1       0.814  -1.508  -2.460  0.00  0.00     0.029 A 
ATOM      9  C7A BZF d   1       0.581  -1.089  -1.173  0.00  0.00     0.058 A 
ENDROOT
TORSDOF 0
ENDMDL
