MODEL 1
REMARK minimizedAffinity -2.47986937
REMARK minimizedRMSD -1
REMARK  0 active torsions:
REMARK  status: ('A' for Active; 'I' for Inactive)
ROOT
ATOM      1  O1  BZF d   1      -1.775   1.243   1.957  0.00  0.00    -0.204 OA
ATOM      2  C2  BZF d   1      -2.160   2.263   1.110  0.00  0.00     0.174 A 
ATOM      3  C3  BZF d   1      -1.543   2.152  -0.084  0.00  0.00    -0.012 A 
ATOM      4  C3A BZF d   1      -0.791   0.937  -0.008  0.00  0.00    -0.107 A 
ATOM      5  C4  BZF d   1       0.019   0.277  -0.887  0.00  0.00     0.055 A 
ATOM      6  C5  BZF d   1       0.661  -0.848  -0.477  0.00  0.00    -0.016 A 
ATOM      7  C6  BZF d   1       0.521  -1.338   0.806  0.00  0.00     0.022 A 
ATOM      8  C7  BZF d   1      -0.275  -0.720   1.712  0.00  0.00     0.029 A 
ATOM      9  C7A BZF d   1      -0.952   0.398   1.290  0.00  0.00     0.058 A 
ENDROOT
TORSDOF 0
ENDMDL
