MODEL 1
REMARK minimizedAffinity -2.36888099
REMARK minimizedRMSD -1
REMARK  0 active torsions:
REMARK  status: ('A' for Active; 'I' for Inactive)
ROOT
ATOM      1  O1  BZF d   1      -0.954  -0.072  -1.940  0.00  0.00    -0.204 OA
ATOM      2  C2  BZF d   1      -0.667   0.514  -0.722  0.00  0.00     0.174 A 
ATOM      3  C3  BZF d   1       0.128  -0.286   0.017  0.00  0.00    -0.012 A 
ATOM      4  C3A BZF d   1       0.427  -1.403  -0.825  0.00  0.00    -0.107 A 
ATOM      5  C4  BZF d   1       1.184  -2.527  -0.660  0.00  0.00     0.055 A 
ATOM      6  C5  BZF d   1       1.209  -3.457  -1.650  0.00  0.00    -0.016 A 
ATOM      7  C6  BZF d   1       0.487  -3.299  -2.815  0.00  0.00     0.022 A 
ATOM      8  C7  BZF d   1      -0.275  -2.198  -3.026  0.00  0.00     0.029 A 
ATOM      9  C7A BZF d   1      -0.277  -1.240  -2.041  0.00  0.00     0.058 A 
ENDROOT
TORSDOF 0
ENDMDL
