MODEL 1
REMARK minimizedAffinity 0.343768299
REMARK minimizedRMSD -1
REMARK  0 active torsions:
REMARK  status: ('A' for Active; 'I' for Inactive)
ROOT
ATOM      1  O1  BZF d   1       1.363   0.380  -0.767  0.00  0.00    -0.204 OA
ATOM      2  C2  BZF d   1       0.849  -0.816  -0.306  0.00  0.00     0.174 A 
ATOM      3  C3  BZF d   1      -0.471  -0.702  -0.050  0.00  0.00    -0.012 A 
ATOM      4  C3A BZF d   1      -0.820   0.623  -0.459  0.00  0.00    -0.107 A 
ATOM      5  C4  BZF d   1      -1.992   1.325  -0.469  0.00  0.00     0.055 A 
ATOM      6  C5  BZF d   1      -1.981   2.625  -0.864  0.00  0.00    -0.016 A 
ATOM      7  C6  BZF d   1      -0.816   3.256  -1.250  0.00  0.00     0.022 A 
ATOM      8  C7  BZF d   1       0.370   2.600  -1.261  0.00  0.00     0.029 A 
ATOM      9  C7A BZF d   1       0.356   1.277  -0.894  0.00  0.00     0.058 A 
ENDROOT
TORSDOF 0
ENDMDL
