MODEL 1
REMARK minimizedAffinity -4.01169538
REMARK minimizedRMSD -1
REMARK  0 active torsions:
REMARK  status: ('A' for Active; 'I' for Inactive)
ROOT
ATOM      1  O1  BZF d   1       0.541  -0.535   1.582  0.00  0.00    -0.204 OA
ATOM      2  C2  BZF d   1       0.892  -1.104   0.373  0.00  0.00     0.174 A 
ATOM      3  C3  BZF d   1       0.233  -0.511  -0.643  0.00  0.00    -0.012 A 
ATOM      4  C3A BZF d   1      -0.511   0.552  -0.041  0.00  0.00    -0.107 A 
ATOM      5  C4  BZF d   1      -1.349   1.510  -0.537  0.00  0.00     0.055 A 
ATOM      6  C5  BZF d   1      -1.972   2.353   0.328  0.00  0.00    -0.016 A 
ATOM      7  C6  BZF d   1      -1.785   2.264   1.691  0.00  0.00     0.022 A 
ATOM      8  C7  BZF d   1      -0.959   1.334   2.230  0.00  0.00     0.029 A 
ATOM      9  C7A BZF d   1      -0.302   0.501   1.357  0.00  0.00     0.058 A 
ENDROOT
TORSDOF 0
ENDMDL
