MODEL 1
REMARK minimizedAffinity 0.766849935
REMARK minimizedRMSD -1
REMARK  0 active torsions:
REMARK  status: ('A' for Active; 'I' for Inactive)
ROOT
ATOM      1  O1  BZF d   1       1.602  -0.654  -0.318  0.00  0.00    -0.204 OA
ATOM      2  C2  BZF d   1       1.022  -1.417   0.678  0.00  0.00     0.174 A 
ATOM      3  C3  BZF d   1      -0.069  -0.802   1.177  0.00  0.00    -0.012 A 
ATOM      4  C3A BZF d   1      -0.231   0.379   0.385  0.00  0.00    -0.107 A 
ATOM      5  C4  BZF d   1      -1.147   1.392   0.387  0.00  0.00     0.055 A 
ATOM      6  C5  BZF d   1      -0.980   2.434  -0.469  0.00  0.00    -0.016 A 
ATOM      7  C6  BZF d   1       0.092   2.498  -1.334  0.00  0.00     0.022 A 
ATOM      8  C7  BZF d   1       1.024   1.515  -1.376  0.00  0.00     0.029 A 
ATOM      9  C7A BZF d   1       0.840   0.444  -0.535  0.00  0.00     0.058 A 
ENDROOT
TORSDOF 0
ENDMDL
