MODEL 1
REMARK minimizedAffinity -2.8437407
REMARK minimizedRMSD -1
REMARK  0 active torsions:
REMARK  status: ('A' for Active; 'I' for Inactive)
ROOT
ATOM      1  O1  BZF d   1       1.643  -0.066  -1.585  0.00  0.00    -0.204 OA
ATOM      2  C2  BZF d   1       1.688  -1.339  -1.052  0.00  0.00     0.174 A 
ATOM      3  C3  BZF d   1       0.793  -1.471  -0.051  0.00  0.00    -0.012 A 
ATOM      4  C3A BZF d   1       0.085  -0.228  -0.014  0.00  0.00    -0.107 A 
ATOM      5  C4  BZF d   1      -0.938   0.247   0.756  0.00  0.00     0.055 A 
ATOM      6  C5  BZF d   1      -1.351   1.531   0.587  0.00  0.00    -0.016 A 
ATOM      7  C6  BZF d   1      -0.761   2.367  -0.337  0.00  0.00     0.022 A 
ATOM      8  C7  BZF d   1       0.254   1.940  -1.128  0.00  0.00     0.029 A 
ATOM      9  C7A BZF d   1       0.651   0.633  -0.982  0.00  0.00     0.058 A 
ENDROOT
TORSDOF 0
ENDMDL
