MODEL 1
REMARK minimizedAffinity -1.79633832
REMARK minimizedRMSD -1
REMARK  0 active torsions:
REMARK  status: ('A' for Active; 'I' for Inactive)
ROOT
ATOM      1  O1  BZF d   1       1.640  -0.076  -0.179  0.00  0.00    -0.204 OA
ATOM      2  C2  BZF d   1       1.130  -1.222   0.399  0.00  0.00     0.174 A 
ATOM      3  C3  BZF d   1      -0.213  -1.150   0.498  0.00  0.00    -0.012 A 
ATOM      4  C3A BZF d   1      -0.572   0.082  -0.136  0.00  0.00    -0.107 A 
ATOM      5  C4  BZF d   1      -1.765   0.705  -0.369  0.00  0.00     0.055 A 
ATOM      6  C5  BZF d   1      -1.765   1.934  -0.949  0.00  0.00    -0.016 A 
ATOM      7  C6  BZF d   1      -0.594   2.571  -1.302  0.00  0.00     0.022 A 
ATOM      8  C7  BZF d   1       0.613   1.990  -1.095  0.00  0.00     0.029 A 
ATOM      9  C7A BZF d   1       0.616   0.734  -0.540  0.00  0.00     0.058 A 
ENDROOT
TORSDOF 0
ENDMDL
