MODEL 1
REMARK minimizedAffinity -3.76389098
REMARK minimizedRMSD -1
REMARK  0 active torsions:
REMARK  status: ('A' for Active; 'I' for Inactive)
ROOT
ATOM      1  C   UNL d   1      -3.003   1.635  -3.547  0.00  0.00     0.023 A 
ATOM      2  C1  UNL d   1      -2.325   0.424  -3.690  0.00  0.00     0.003 A 
ATOM      3  C2  UNL d   1      -1.622  -0.115  -2.611  0.00  0.00     0.048 A 
ATOM      4  C3  UNL d   1      -1.601   0.562  -1.392  0.00  0.00     0.023 A 
ATOM      5  C4  UNL d   1      -2.278   1.773  -1.244  0.00  0.00     0.048 A 
ATOM      6  C5  UNL d   1      -2.980   2.309  -2.326  0.00  0.00     0.003 A 
ATOM      7  I   UNL d   1      -0.555  -0.239   0.216  0.00  0.00    -0.146 I 
ENDROOT
TORSDOF 0
ENDMDL
