MODEL 1
REMARK minimizedAffinity -0.455240816
REMARK minimizedRMSD -1
REMARK  0 active torsions:
REMARK  status: ('A' for Active; 'I' for Inactive)
ROOT
ATOM      1  C   UNL d   1      -2.605  -0.216  -3.809  0.00  0.00     0.023 A 
ATOM      2  C1  UNL d   1      -2.894  -1.370  -3.080  0.00  0.00     0.003 A 
ATOM      3  C2  UNL d   1      -2.225  -1.626  -1.881  0.00  0.00     0.048 A 
ATOM      4  C3  UNL d   1      -1.268  -0.724  -1.417  0.00  0.00     0.023 A 
ATOM      5  C4  UNL d   1      -0.975   0.432  -2.143  0.00  0.00     0.048 A 
ATOM      6  C5  UNL d   1      -1.646   0.683  -3.341  0.00  0.00     0.003 A 
ATOM      7  I   UNL d   1      -0.270  -1.103   0.366  0.00  0.00    -0.146 I 
ENDROOT
TORSDOF 0
ENDMDL
