MODEL 1
REMARK minimizedAffinity 0.440133691
REMARK minimizedRMSD -1
REMARK  0 active torsions:
REMARK  status: ('A' for Active; 'I' for Inactive)
ROOT
ATOM      1  C   UNL d   1       1.455  -1.131  -0.055  0.00  0.00     0.023 A 
ATOM      2  C1  UNL d   1       2.113   0.054   0.276  0.00  0.00     0.003 A 
ATOM      3  C2  UNL d   1       1.377   1.194   0.603  0.00  0.00     0.048 A 
ATOM      4  C3  UNL d   1      -0.017   1.142   0.599  0.00  0.00     0.023 A 
ATOM      5  C4  UNL d   1      -0.679  -0.041   0.269  0.00  0.00     0.048 A 
ATOM      6  C5  UNL d   1       0.061  -1.179  -0.058  0.00  0.00     0.003 A 
ATOM      7  I   UNL d   1      -1.115   2.838   1.086  0.00  0.00    -0.146 I 
ENDROOT
TORSDOF 0
ENDMDL
