MODEL 1
REMARK minimizedAffinity -2.55823493
REMARK minimizedRMSD -1
REMARK  0 active torsions:
REMARK  status: ('A' for Active; 'I' for Inactive)
ROOT
ATOM      1  C   UNL d   1       1.048  -0.382   0.008  0.00  0.00     0.023 A 
ATOM      2  C1  UNL d   1       1.586   0.864   0.328  0.00  0.00     0.003 A 
ATOM      3  C2  UNL d   1       0.754   1.890   0.781  0.00  0.00     0.048 A 
ATOM      4  C3  UNL d   1      -0.615   1.663   0.911  0.00  0.00     0.023 A 
ATOM      5  C4  UNL d   1      -1.158   0.417   0.592  0.00  0.00     0.048 A 
ATOM      6  C5  UNL d   1      -0.322  -0.606   0.140  0.00  0.00     0.003 A 
ATOM      7  I   UNL d   1      -1.856   3.188   1.585  0.00  0.00    -0.146 I 
ENDROOT
TORSDOF 0
ENDMDL
