MODEL 1
REMARK minimizedAffinity 0.200559184
REMARK minimizedRMSD -1
REMARK  0 active torsions:
REMARK  status: ('A' for Active; 'I' for Inactive)
ROOT
ATOM      1  C   UNL d   1       0.813  -1.730   0.208  0.00  0.00     0.023 A 
ATOM      2  C1  UNL d   1      -0.414  -1.741   0.871  0.00  0.00     0.003 A 
ATOM      3  C2  UNL d   1      -1.183  -0.577   0.938  0.00  0.00     0.048 A 
ATOM      4  C3  UNL d   1      -0.720   0.593   0.339  0.00  0.00     0.023 A 
ATOM      5  C4  UNL d   1       0.507   0.609  -0.327  0.00  0.00     0.048 A 
ATOM      6  C5  UNL d   1       1.273  -0.557  -0.391  0.00  0.00     0.003 A 
ATOM      7  I   UNL d   1      -1.863   2.326   0.437  0.00  0.00    -0.146 I 
ENDROOT
TORSDOF 0
ENDMDL
