MODEL 1
REMARK minimizedAffinity -1.91255724
REMARK minimizedRMSD -1
REMARK  0 active torsions:
REMARK  status: ('A' for Active; 'I' for Inactive)
ROOT
ATOM      1  C   UNL d   1       0.990  -0.897   0.679  0.00  0.00     0.023 A 
ATOM      2  C1  UNL d   1      -0.173  -1.647   0.854  0.00  0.00     0.003 A 
ATOM      3  C2  UNL d   1      -1.256  -1.471  -0.010  0.00  0.00     0.048 A 
ATOM      4  C3  UNL d   1      -1.168  -0.545  -1.049  0.00  0.00     0.023 A 
ATOM      5  C4  UNL d   1      -0.005   0.207  -1.229  0.00  0.00     0.048 A 
ATOM      6  C5  UNL d   1       1.074   0.028  -0.361  0.00  0.00     0.003 A 
ATOM      7  I   UNL d   1      -2.777  -0.282  -2.337  0.00  0.00    -0.146 I 
ENDROOT
TORSDOF 0
ENDMDL
