MODEL 1
REMARK minimizedAffinity -3.74375248
REMARK minimizedRMSD -1
REMARK  0 active torsions:
REMARK  status: ('A' for Active; 'I' for Inactive)
ROOT
ATOM      1  C   UNL d   1      -0.267   1.342  -0.003  0.00  0.00     0.172 C 
ATOM      2  N   UNL d   1      -0.415  -0.065   0.286  0.00  0.00    -0.070 N 
ATOM      3  C1  UNL d   1      -0.073  -1.092  -0.553  0.00  0.00    -0.004 A 
ATOM      4  C2  UNL d   1      -0.368  -2.276   0.088  0.00  0.00    -0.047 A 
ATOM      5  C3  UNL d   1      -0.908  -1.949   1.355  0.00  0.00    -0.047 A 
ATOM      6  C4  UNL d   1      -0.925  -0.573   1.451  0.00  0.00    -0.004 A 
ENDROOT
TORSDOF 0
ENDMDL
