MODEL 1
REMARK minimizedAffinity -3.86704373
REMARK minimizedRMSD -1
REMARK  0 active torsions:
REMARK  status: ('A' for Active; 'I' for Inactive)
ROOT
ATOM      1  C   UNL d   1      -0.283   0.583   0.091  0.00  0.00     0.172 C 
ATOM      2  N   UNL d   1      -0.253  -0.838  -0.162  0.00  0.00    -0.070 N 
ATOM      3  C1  UNL d   1      -0.556  -1.818   0.746  0.00  0.00    -0.004 A 
ATOM      4  C2  UNL d   1      -0.409  -3.035   0.118  0.00  0.00    -0.047 A 
ATOM      5  C3  UNL d   1      -0.003  -2.779  -1.213  0.00  0.00    -0.047 A 
ATOM      6  C4  UNL d   1       0.085  -1.411  -1.360  0.00  0.00    -0.004 A 
ENDROOT
TORSDOF 0
ENDMDL
