MODEL 1
REMARK minimizedAffinity -3.38365293
REMARK minimizedRMSD -1
REMARK  0 active torsions:
REMARK  status: ('A' for Active; 'I' for Inactive)
ROOT
ATOM      1  C   UNL d   1      -0.300   1.113  -0.097  0.00  0.00     0.172 C 
ATOM      2  N   UNL d   1      -0.332  -0.302   0.192  0.00  0.00    -0.070 N 
ATOM      3  C1  UNL d   1       0.482  -1.249  -0.368  0.00  0.00    -0.004 A 
ATOM      4  C2  UNL d   1       0.138  -2.472   0.167  0.00  0.00    -0.047 A 
ATOM      5  C3  UNL d   1      -0.922  -2.251   1.080  0.00  0.00    -0.047 A 
ATOM      6  C4  UNL d   1      -1.192  -0.899   1.075  0.00  0.00    -0.004 A 
ENDROOT
TORSDOF 0
ENDMDL
