MODEL 1
REMARK minimizedAffinity -3.19919896
REMARK minimizedRMSD -1
REMARK  0 active torsions:
REMARK  status: ('A' for Active; 'I' for Inactive)
ROOT
ATOM      1  C   UNL d   1       0.177   1.375   0.041  0.00  0.00     0.172 C 
ATOM      2  N   UNL d   1      -0.313   0.070   0.418  0.00  0.00    -0.070 N 
ATOM      3  C1  UNL d   1       0.143  -1.125  -0.069  0.00  0.00    -0.004 A 
ATOM      4  C2  UNL d   1      -0.577  -2.131   0.538  0.00  0.00    -0.047 A 
ATOM      5  C3  UNL d   1      -1.499  -1.519   1.419  0.00  0.00    -0.047 A 
ATOM      6  C4  UNL d   1      -1.314  -0.156   1.326  0.00  0.00    -0.004 A 
ENDROOT
TORSDOF 0
ENDMDL
