MODEL 1
REMARK minimizedAffinity -2.30149269
REMARK minimizedRMSD -1
REMARK  0 active torsions:
REMARK  status: ('A' for Active; 'I' for Inactive)
ROOT
ATOM      1  C   UNL d   1       0.195   5.340   3.372  0.00  0.00     0.172 C 
ATOM      2  N   UNL d   1       0.576   4.635   2.170  0.00  0.00    -0.070 N 
ATOM      3  C1  UNL d   1       1.803   4.693   1.566  0.00  0.00    -0.004 A 
ATOM      4  C2  UNL d   1       1.764   3.883   0.452  0.00  0.00    -0.047 A 
ATOM      5  C3  UNL d   1       0.468   3.320   0.383  0.00  0.00    -0.047 A 
ATOM      6  C4  UNL d   1      -0.247   3.803   1.459  0.00  0.00    -0.004 A 
ENDROOT
TORSDOF 0
ENDMDL
