MODEL 1
REMARK minimizedAffinity -2.46884441
REMARK minimizedRMSD -1
REMARK  0 active torsions:
REMARK  status: ('A' for Active; 'I' for Inactive)
ROOT
ATOM      1  C   UNL d   1      -0.386  -2.197   0.836  0.00  0.00     0.172 C 
ATOM      2  N   UNL d   1      -0.209  -0.813   0.461  0.00  0.00    -0.070 N 
ATOM      3  C1  UNL d   1      -0.712   0.267   1.136  0.00  0.00    -0.004 A 
ATOM      4  C2  UNL d   1      -0.324   1.404   0.462  0.00  0.00    -0.047 A 
ATOM      5  C3  UNL d   1       0.438   0.994  -0.658  0.00  0.00    -0.047 A 
ATOM      6  C4  UNL d   1       0.493  -0.384  -0.634  0.00  0.00    -0.004 A 
ENDROOT
TORSDOF 0
ENDMDL
