MODEL 1
REMARK minimizedAffinity -2.77729344
REMARK minimizedRMSD -1
REMARK  0 active torsions:
REMARK  status: ('A' for Active; 'I' for Inactive)
ROOT
ATOM      1  C   UNL d   1       0.030   0.777   0.110  0.00  0.00     0.172 C 
ATOM      2  N   UNL d   1       0.543   2.110   0.323  0.00  0.00    -0.070 N 
ATOM      3  C1  UNL d   1       1.139   2.897  -0.626  0.00  0.00    -0.004 A 
ATOM      4  C2  UNL d   1       1.487   4.089  -0.028  0.00  0.00    -0.047 A 
ATOM      5  C3  UNL d   1       1.087   4.015   1.327  0.00  0.00    -0.047 A 
ATOM      6  C4  UNL d   1       0.505   2.780   1.517  0.00  0.00    -0.004 A 
ENDROOT
TORSDOF 0
ENDMDL
