MODEL 1
REMARK minimizedAffinity -2.36470008
REMARK minimizedRMSD -1
REMARK  0 active torsions:
REMARK  status: ('A' for Active; 'I' for Inactive)
ROOT
ATOM      1  C   UNL d   1      -0.033   0.343  -0.058  0.00  0.00     0.172 C 
ATOM      2  N   UNL d   1      -0.058  -1.079   0.192  0.00  0.00    -0.070 N 
ATOM      3  C1  UNL d   1       1.009  -1.929   0.071  0.00  0.00    -0.004 A 
ATOM      4  C2  UNL d   1       0.577  -3.197   0.396  0.00  0.00    -0.047 A 
ATOM      5  C3  UNL d   1      -0.797  -3.106   0.722  0.00  0.00    -0.047 A 
ATOM      6  C4  UNL d   1      -1.164  -1.783   0.587  0.00  0.00    -0.004 A 
ENDROOT
TORSDOF 0
ENDMDL
