MODEL 1
REMARK minimizedAffinity -2.11343002
REMARK minimizedRMSD -1
REMARK  0 active torsions:
REMARK  status: ('A' for Active; 'I' for Inactive)
ROOT
ATOM      1  C   UNL d   1      -0.914   0.479   0.365  0.00  0.00     0.172 C 
ATOM      2  N   UNL d   1       0.094   1.511   0.311  0.00  0.00    -0.070 N 
ATOM      3  C1  UNL d   1       1.262   1.524   1.025  0.00  0.00    -0.004 A 
ATOM      4  C2  UNL d   1       1.947   2.674   0.694  0.00  0.00    -0.047 A 
ATOM      5  C3  UNL d   1       1.161   3.377  -0.250  0.00  0.00    -0.047 A 
ATOM      6  C4  UNL d   1       0.020   2.635  -0.469  0.00  0.00    -0.004 A 
ENDROOT
TORSDOF 0
ENDMDL
