MODEL 1
REMARK minimizedAffinity -3.55780959
REMARK minimizedRMSD -1
REMARK  0 active torsions:
REMARK  status: ('A' for Active; 'I' for Inactive)
ROOT
ATOM      1  C   UNL d   1      -0.015   0.837  -0.395  0.00  0.00     0.172 C 
ATOM      2  N   UNL d   1      -0.065  -0.492   0.167  0.00  0.00    -0.070 N 
ATOM      3  C1  UNL d   1       0.763  -1.531  -0.164  0.00  0.00    -0.004 A 
ATOM      4  C2  UNL d   1       0.393  -2.623   0.590  0.00  0.00    -0.047 A 
ATOM      5  C3  UNL d   1      -0.696  -2.227   1.402  0.00  0.00    -0.047 A 
ATOM      6  C4  UNL d   1      -0.959  -0.903   1.120  0.00  0.00    -0.004 A 
ENDROOT
TORSDOF 0
ENDMDL
