MODEL 1
REMARK minimizedAffinity -3.75276923
REMARK minimizedRMSD -1
REMARK  0 active torsions:
REMARK  status: ('A' for Active; 'I' for Inactive)
ROOT
ATOM      1  C   UNL d   1      -0.171   0.682  -0.089  0.00  0.00     0.172 C 
ATOM      2  N   UNL d   1      -0.331  -0.674   0.380  0.00  0.00    -0.070 N 
ATOM      3  C1  UNL d   1       0.323  -1.772  -0.112  0.00  0.00    -0.004 A 
ATOM      4  C2  UNL d   1      -0.103  -2.872   0.600  0.00  0.00    -0.047 A 
ATOM      5  C3  UNL d   1      -1.048  -2.420   1.552  0.00  0.00    -0.047 A 
ATOM      6  C4  UNL d   1      -1.170  -1.056   1.394  0.00  0.00    -0.004 A 
ENDROOT
TORSDOF 0
ENDMDL
