MODEL 1
REMARK minimizedAffinity -3.47084141
REMARK minimizedRMSD -1
REMARK  0 active torsions:
REMARK  status: ('A' for Active; 'I' for Inactive)
ROOT
ATOM      1  C   UNL d   1       0.087   0.604  -0.884  0.00  0.00     0.172 C 
ATOM      2  N   UNL d   1      -0.009  -0.708  -0.289  0.00  0.00    -0.070 N 
ATOM      3  C1  UNL d   1       0.820  -1.766  -0.551  0.00  0.00    -0.004 A 
ATOM      4  C2  UNL d   1       0.398  -2.832   0.214  0.00  0.00    -0.047 A 
ATOM      5  C3  UNL d   1      -0.724  -2.401   0.960  0.00  0.00    -0.047 A 
ATOM      6  C4  UNL d   1      -0.954  -1.082   0.630  0.00  0.00    -0.004 A 
ENDROOT
TORSDOF 0
ENDMDL
