MODEL 1
REMARK minimizedAffinity -2.02081943
REMARK minimizedRMSD -1
REMARK  0 active torsions:
REMARK  status: ('A' for Active; 'I' for Inactive)
ROOT
ATOM      1  C   UNL d   1      -0.001   1.544  -0.353  0.00  0.00     0.172 C 
ATOM      2  N   UNL d   1       0.592   2.733   0.212  0.00  0.00    -0.070 N 
ATOM      3  C1  UNL d   1      -0.016   3.587   1.093  0.00  0.00    -0.004 A 
ATOM      4  C2  UNL d   1       0.878   4.593   1.391  0.00  0.00    -0.047 A 
ATOM      5  C3  UNL d   1       2.064   4.335   0.663  0.00  0.00    -0.047 A 
ATOM      6  C4  UNL d   1       1.859   3.178  -0.058  0.00  0.00    -0.004 A 
ENDROOT
TORSDOF 0
ENDMDL
