MODEL 1
REMARK minimizedAffinity -3.06904864
REMARK minimizedRMSD -1
REMARK  0 active torsions:
REMARK  status: ('A' for Active; 'I' for Inactive)
ROOT
ATOM      1  C   UNL d   1      -0.017   0.957  -0.372  0.00  0.00     0.172 C 
ATOM      2  N   UNL d   1      -0.250  -0.369   0.151  0.00  0.00    -0.070 N 
ATOM      3  C1  UNL d   1      -1.253  -0.722   1.014  0.00  0.00    -0.004 A 
ATOM      4  C2  UNL d   1      -1.133  -2.070   1.272  0.00  0.00    -0.047 A 
ATOM      5  C3  UNL d   1      -0.019  -2.544   0.539  0.00  0.00    -0.047 A 
ATOM      6  C4  UNL d   1       0.509  -1.470  -0.145  0.00  0.00    -0.004 A 
ENDROOT
TORSDOF 0
ENDMDL
