MODEL 1
REMARK minimizedAffinity -4.05386543
REMARK minimizedRMSD -1
REMARK  0 active torsions:
REMARK  status: ('A' for Active; 'I' for Inactive)
ROOT
ATOM      1  C   UNL d   1       0.205   0.721  -0.531  0.00  0.00     0.172 C 
ATOM      2  N   UNL d   1       0.190  -0.722  -0.508  0.00  0.00    -0.070 N 
ATOM      3  C1  UNL d   1       0.685  -1.542  -1.487  0.00  0.00    -0.004 A 
ATOM      4  C2  UNL d   1       0.480  -2.845  -1.090  0.00  0.00    -0.047 A 
ATOM      5  C3  UNL d   1      -0.161  -2.808   0.171  0.00  0.00    -0.047 A 
ATOM      6  C4  UNL d   1      -0.329  -1.482   0.508  0.00  0.00    -0.004 A 
ENDROOT
TORSDOF 0
ENDMDL
