MODEL 1
REMARK minimizedAffinity -3.44997096
REMARK minimizedRMSD -1
REMARK  0 active torsions:
REMARK  status: ('A' for Active; 'I' for Inactive)
ROOT
ATOM      1  C   UNL d   1       0.865  -2.249  -2.627  0.00  0.00     0.172 C 
ATOM      2  N   UNL d   1       0.421  -2.420  -1.263  0.00  0.00    -0.070 N 
ATOM      3  C1  UNL d   1       0.007  -3.597  -0.700  0.00  0.00    -0.004 A 
ATOM      4  C2  UNL d   1      -0.331  -3.341   0.612  0.00  0.00    -0.047 A 
ATOM      5  C3  UNL d   1      -0.114  -1.962   0.844  0.00  0.00    -0.047 A 
ATOM      6  C4  UNL d   1       0.352  -1.416  -0.333  0.00  0.00    -0.004 A 
ENDROOT
TORSDOF 0
ENDMDL
