MODEL 1
REMARK minimizedAffinity -3.57074142
REMARK minimizedRMSD -1
REMARK  0 active torsions:
REMARK  status: ('A' for Active; 'I' for Inactive)
ROOT
ATOM      1  C   UNL d   1       0.042  -2.999   0.595  0.00  0.00     0.172 C 
ATOM      2  N   UNL d   1      -0.179  -1.572   0.557  0.00  0.00    -0.070 N 
ATOM      3  C1  UNL d   1      -0.968  -0.863   1.423  0.00  0.00    -0.004 A 
ATOM      4  C2  UNL d   1      -0.916   0.463   1.052  0.00  0.00    -0.047 A 
ATOM      5  C3  UNL d   1      -0.067   0.554  -0.077  0.00  0.00    -0.047 A 
ATOM      6  C4  UNL d   1       0.375  -0.721  -0.362  0.00  0.00    -0.004 A 
ENDROOT
TORSDOF 0
ENDMDL
