MODEL 1
REMARK minimizedAffinity -3.22663283
REMARK minimizedRMSD -1
REMARK  0 active torsions:
REMARK  status: ('A' for Active; 'I' for Inactive)
ROOT
ATOM      1  C   UNL d   1       0.313   1.848  -0.202  0.00  0.00     0.172 C 
ATOM      2  N   UNL d   1       0.031   0.469   0.121  0.00  0.00    -0.070 N 
ATOM      3  C1  UNL d   1       0.589  -0.623  -0.489  0.00  0.00    -0.004 A 
ATOM      4  C2  UNL d   1       0.062  -1.751   0.103  0.00  0.00    -0.047 A 
ATOM      5  C3  UNL d   1      -0.843  -1.322   1.103  0.00  0.00    -0.047 A 
ATOM      6  C4  UNL d   1      -0.843   0.057   1.092  0.00  0.00    -0.004 A 
ENDROOT
TORSDOF 0
ENDMDL
