MODEL 1
REMARK minimizedAffinity -3.22074747
REMARK minimizedRMSD -1
REMARK  0 active torsions:
REMARK  status: ('A' for Active; 'I' for Inactive)
ROOT
ATOM      1  C   UNL d   1      -5.998   4.864  -0.801  0.00  0.00     0.078 C 
ATOM      2  C1  UNL d   1      -5.406   3.771   0.038  0.00  0.00    -0.077 A 
ATOM      3  C2  UNL d   1      -4.268   3.073  -0.386  0.00  0.00    -0.001 A 
ATOM      4  C3  UNL d   1      -3.734   2.051   0.401  0.00  0.00     0.003 A 
ATOM      5  C4  UNL d   1      -4.330   1.718   1.615  0.00  0.00    -0.005 A 
ATOM      6  C5  UNL d   1      -5.464   2.406   2.044  0.00  0.00     0.003 A 
ATOM      7  C6  UNL d   1      -6.000   3.427   1.259  0.00  0.00    -0.001 A 
ENDROOT
TORSDOF 0
ENDMDL
