MODEL 1
REMARK minimizedAffinity 5.82392216
REMARK minimizedRMSD -1
REMARK  0 active torsions:
REMARK  status: ('A' for Active; 'I' for Inactive)
ROOT
ATOM      1  C   UNL d   1       0.376  -3.678  -0.138  0.00  0.00     0.078 C 
ATOM      2  C1  UNL d   1       0.881  -2.585   0.755  0.00  0.00    -0.077 A 
ATOM      3  C2  UNL d   1       1.740  -1.593   0.266  0.00  0.00    -0.001 A 
ATOM      4  C3  UNL d   1       2.211  -0.587   1.112  0.00  0.00     0.003 A 
ATOM      5  C4  UNL d   1       1.829  -0.565   2.452  0.00  0.00    -0.005 A 
ATOM      6  C5  UNL d   1       0.977  -1.549   2.948  0.00  0.00     0.003 A 
ATOM      7  C6  UNL d   1       0.505  -2.555   2.104  0.00  0.00    -0.001 A 
ENDROOT
TORSDOF 0
ENDMDL
