MODEL 1
REMARK minimizedAffinity 1.52995622
REMARK minimizedRMSD -1
REMARK  0 active torsions:
REMARK  status: ('A' for Active; 'I' for Inactive)
ROOT
ATOM      1  C   UNL d   1      -4.419  -5.997  -2.377  0.00  0.00     0.078 C 
ATOM      2  C1  UNL d   1      -4.839  -5.305  -3.640  0.00  0.00    -0.077 A 
ATOM      3  C2  UNL d   1      -4.510  -3.964  -3.871  0.00  0.00    -0.001 A 
ATOM      4  C3  UNL d   1      -4.916  -3.330  -5.047  0.00  0.00     0.003 A 
ATOM      5  C4  UNL d   1      -5.654  -4.030  -6.000  0.00  0.00    -0.005 A 
ATOM      6  C5  UNL d   1      -5.987  -5.364  -5.778  0.00  0.00     0.003 A 
ATOM      7  C6  UNL d   1      -5.582  -6.000  -4.602  0.00  0.00    -0.001 A 
ENDROOT
TORSDOF 0
ENDMDL
