MODEL 1
REMARK minimizedAffinity -3.77127838
REMARK minimizedRMSD -1
REMARK  0 active torsions:
REMARK  status: ('A' for Active; 'I' for Inactive)
ROOT
ATOM      1  C   UNL d   1      -5.044  -5.919  -5.750  0.00  0.00     0.078 C 
ATOM      2  C1  UNL d   1      -5.067  -5.245  -4.410  0.00  0.00    -0.077 A 
ATOM      3  C2  UNL d   1      -5.265  -3.864  -4.301  0.00  0.00    -0.001 A 
ATOM      4  C3  UNL d   1      -5.274  -3.249  -3.048  0.00  0.00     0.003 A 
ATOM      5  C4  UNL d   1      -5.084  -4.007  -1.895  0.00  0.00    -0.005 A 
ATOM      6  C5  UNL d   1      -4.883  -5.383  -1.994  0.00  0.00     0.003 A 
ATOM      7  C6  UNL d   1      -4.874  -5.999  -3.246  0.00  0.00    -0.001 A 
ENDROOT
TORSDOF 0
ENDMDL
