MODEL 1
REMARK minimizedAffinity 4.65277624
REMARK minimizedRMSD -1
REMARK  0 active torsions:
REMARK  status: ('A' for Active; 'I' for Inactive)
ROOT
ATOM      1  C   UNL d   1       2.187  -4.469   2.299  0.00  0.00     0.078 C 
ATOM      2  C1  UNL d   1       1.768  -3.037   2.446  0.00  0.00    -0.077 A 
ATOM      3  C2  UNL d   1       0.896  -2.642   3.468  0.00  0.00    -0.001 A 
ATOM      4  C3  UNL d   1       0.506  -1.307   3.586  0.00  0.00     0.003 A 
ATOM      5  C4  UNL d   1       0.982  -0.356   2.686  0.00  0.00    -0.005 A 
ATOM      6  C5  UNL d   1       1.849  -0.740   1.664  0.00  0.00     0.003 A 
ATOM      7  C6  UNL d   1       2.240  -2.075   1.544  0.00  0.00    -0.001 A 
ENDROOT
TORSDOF 0
ENDMDL
