MODEL 1
REMARK minimizedAffinity 4.93999624
REMARK minimizedRMSD -1
REMARK  0 active torsions:
REMARK  status: ('A' for Active; 'I' for Inactive)
ROOT
ATOM      1  C   UNL d   1       2.194  -4.376   2.522  0.00  0.00     0.078 C 
ATOM      2  C1  UNL d   1       1.662  -2.994   2.758  0.00  0.00    -0.077 A 
ATOM      3  C2  UNL d   1       1.197  -2.607   4.021  0.00  0.00    -0.001 A 
ATOM      4  C3  UNL d   1       0.695  -1.320   4.224  0.00  0.00     0.003 A 
ATOM      5  C4  UNL d   1       0.651  -0.412   3.168  0.00  0.00    -0.005 A 
ATOM      6  C5  UNL d   1       1.109  -0.789   1.908  0.00  0.00     0.003 A 
ATOM      7  C6  UNL d   1       1.612  -2.075   1.703  0.00  0.00    -0.001 A 
ENDROOT
TORSDOF 0
ENDMDL
