MODEL 1
REMARK minimizedAffinity 1.9700309
REMARK minimizedRMSD -1
REMARK  0 active torsions:
REMARK  status: ('A' for Active; 'I' for Inactive)
ROOT
ATOM      1  C   UNL d   1       2.295  -2.402   3.098  0.00  0.00     0.078 C 
ATOM      2  C1  UNL d   1       3.580  -2.401   3.872  0.00  0.00    -0.077 A 
ATOM      3  C2  UNL d   1       4.813  -2.539   3.224  0.00  0.00    -0.001 A 
ATOM      4  C3  UNL d   1       6.000  -2.546   3.958  0.00  0.00     0.003 A 
ATOM      5  C4  UNL d   1       5.965  -2.418   5.345  0.00  0.00    -0.005 A 
ATOM      6  C5  UNL d   1       4.743  -2.283   6.000  0.00  0.00     0.003 A 
ATOM      7  C6  UNL d   1       3.555  -2.275   5.267  0.00  0.00    -0.001 A 
ENDROOT
TORSDOF 0
ENDMDL
