MODEL 1
REMARK minimizedAffinity -0.808801651
REMARK minimizedRMSD -1
REMARK  0 active torsions:
REMARK  status: ('A' for Active; 'I' for Inactive)
ROOT
ATOM      1  C   UNL d   1       5.659  -3.321   2.540  0.00  0.00     0.078 C 
ATOM      2  C1  UNL d   1       4.221  -3.472   2.939  0.00  0.00    -0.077 A 
ATOM      3  C2  UNL d   1       3.781  -4.607   3.631  0.00  0.00    -0.001 A 
ATOM      4  C3  UNL d   1       2.438  -4.739   3.988  0.00  0.00     0.003 A 
ATOM      5  C4  UNL d   1       1.524  -3.740   3.656  0.00  0.00    -0.005 A 
ATOM      6  C5  UNL d   1       1.953  -2.608   2.966  0.00  0.00     0.003 A 
ATOM      7  C6  UNL d   1       3.296  -2.475   2.608  0.00  0.00    -0.001 A 
ENDROOT
TORSDOF 0
ENDMDL
