MODEL 1
REMARK minimizedAffinity -2.5152905
REMARK minimizedRMSD -1
REMARK  0 active torsions:
REMARK  status: ('A' for Active; 'I' for Inactive)
ROOT
ATOM      1  C   UNL d   1       1.520  -5.642   5.420  0.00  0.00     0.078 C 
ATOM      2  C1  UNL d   1       1.727  -4.452   4.532  0.00  0.00    -0.077 A 
ATOM      3  C2  UNL d   1       3.000  -4.126   4.048  0.00  0.00    -0.001 A 
ATOM      4  C3  UNL d   1       3.180  -3.010   3.230  0.00  0.00     0.003 A 
ATOM      5  C4  UNL d   1       2.091  -2.210   2.889  0.00  0.00    -0.005 A 
ATOM      6  C5  UNL d   1       0.821  -2.525   3.367  0.00  0.00     0.003 A 
ATOM      7  C6  UNL d   1       0.640  -3.641   4.185  0.00  0.00    -0.001 A 
ENDROOT
TORSDOF 0
ENDMDL
