MODEL 1
REMARK minimizedAffinity -3.69500899
REMARK minimizedRMSD -1
REMARK  0 active torsions:
REMARK  status: ('A' for Active; 'I' for Inactive)
ROOT
ATOM      1  C   UNL d   1      -1.989   2.371  -1.117  0.00  0.00    -0.002 A 
ATOM      2  C1  UNL d   1      -2.524   1.349  -1.888  0.00  0.00     0.010 A 
ATOM      3  C2  UNL d   1      -1.891   0.107  -1.960  0.00  0.00     0.041 A 
ATOM      4  C3  UNL d   1      -0.700  -0.093  -1.234  0.00  0.00    -0.075 A 
ATOM      5  S   UNL d   1       0.249  -1.532  -1.170  0.00  0.00     0.015 SA
ATOM      6  C4  UNL d   1       1.386  -0.824  -0.116  0.00  0.00     0.022 A 
ATOM      7  C5  UNL d   1       1.065   0.478   0.190  0.00  0.00     0.026 A 
ATOM      8  C6  UNL d   1      -0.142   0.920  -0.449  0.00  0.00    -0.082 A 
ATOM      9  C7  UNL d   1      -0.808   2.168  -0.398  0.00  0.00     0.045 A 
ENDROOT
TORSDOF 0
ENDMDL
