MODEL 1
REMARK minimizedAffinity -2.68858361
REMARK minimizedRMSD -1
REMARK  0 active torsions:
REMARK  status: ('A' for Active; 'I' for Inactive)
ROOT
ATOM      1  C   UNL d   1       1.904  -1.212   0.622  0.00  0.00    -0.002 A 
ATOM      2  C1  UNL d   1       2.629  -0.125   0.157  0.00  0.00     0.010 A 
ATOM      3  C2  UNL d   1       1.977   0.992  -0.369  0.00  0.00     0.041 A 
ATOM      4  C3  UNL d   1       0.569   0.998  -0.418  0.00  0.00    -0.075 A 
ATOM      5  S   UNL d   1      -0.444   2.257  -1.019  0.00  0.00     0.015 SA
ATOM      6  C4  UNL d   1      -1.865   1.382  -0.671  0.00  0.00     0.022 A 
ATOM      7  C5  UNL d   1      -1.591   0.157  -0.110  0.00  0.00     0.026 A 
ATOM      8  C6  UNL d   1      -0.184  -0.084   0.046  0.00  0.00    -0.082 A 
ATOM      9  C7  UNL d   1       0.507  -1.202   0.572  0.00  0.00     0.045 A 
ENDROOT
TORSDOF 0
ENDMDL
