MODEL 1
REMARK minimizedAffinity 3.83768439
REMARK minimizedRMSD -1
REMARK  0 active torsions:
REMARK  status: ('A' for Active; 'I' for Inactive)
ROOT
ATOM      1  C   UNL d   1       1.526  -2.863   0.782  0.00  0.00    -0.002 A 
ATOM      2  C1  UNL d   1       2.435  -1.815   0.759  0.00  0.00     0.010 A 
ATOM      3  C2  UNL d   1       2.057  -0.557   0.284  0.00  0.00     0.041 A 
ATOM      4  C3  UNL d   1       0.736  -0.368  -0.168  0.00  0.00    -0.075 A 
ATOM      5  S   UNL d   1       0.049   1.085  -0.791  0.00  0.00     0.015 SA
ATOM      6  C4  UNL d   1      -1.468   0.349  -1.039  0.00  0.00     0.022 A 
ATOM      7  C5  UNL d   1      -1.468  -0.973  -0.662  0.00  0.00     0.026 A 
ATOM      8  C6  UNL d   1      -0.197  -1.408  -0.154  0.00  0.00    -0.082 A 
ATOM      9  C7  UNL d   1       0.217  -2.672   0.332  0.00  0.00     0.045 A 
ENDROOT
TORSDOF 0
ENDMDL
