MODEL 1
REMARK minimizedAffinity -0.977616549
REMARK minimizedRMSD -1
REMARK  0 active torsions:
REMARK  status: ('A' for Active; 'I' for Inactive)
ROOT
ATOM      1  C   UNL d   1       1.704  -2.334  -0.302  0.00  0.00    -0.002 A 
ATOM      2  C1  UNL d   1       1.819  -1.565   0.848  0.00  0.00     0.010 A 
ATOM      3  C2  UNL d   1       1.047  -0.413   1.012  0.00  0.00     0.041 A 
ATOM      4  C3  UNL d   1       0.146  -0.045  -0.007  0.00  0.00    -0.075 A 
ATOM      5  S   UNL d   1      -0.902   1.324  -0.024  0.00  0.00     0.015 SA
ATOM      6  C4  UNL d   1      -1.528   0.919  -1.557  0.00  0.00     0.022 A 
ATOM      7  C5  UNL d   1      -0.962  -0.229  -2.058  0.00  0.00     0.026 A 
ATOM      8  C6  UNL d   1       0.012  -0.804  -1.173  0.00  0.00    -0.082 A 
ATOM      9  C7  UNL d   1       0.810  -1.965  -1.311  0.00  0.00     0.045 A 
ENDROOT
TORSDOF 0
ENDMDL
