MODEL 1
REMARK minimizedAffinity -3.75507641
REMARK minimizedRMSD -1
REMARK  0 active torsions:
REMARK  status: ('A' for Active; 'I' for Inactive)
ROOT
ATOM      1  C   UNL d   1      -1.367   1.430   0.566  0.00  0.00    -0.002 A 
ATOM      2  C1  UNL d   1      -1.682   0.310   1.323  0.00  0.00     0.010 A 
ATOM      3  C2  UNL d   1      -0.777  -0.747   1.438  0.00  0.00     0.041 A 
ATOM      4  C3  UNL d   1       0.462  -0.658   0.775  0.00  0.00    -0.075 A 
ATOM      5  S   UNL d   1       1.727  -1.830   0.773  0.00  0.00     0.015 SA
ATOM      6  C4  UNL d   1       2.716  -0.871  -0.231  0.00  0.00     0.022 A 
ATOM      7  C5  UNL d   1       2.111   0.317  -0.567  0.00  0.00     0.026 A 
ATOM      8  C6  UNL d   1       0.803   0.460   0.007  0.00  0.00    -0.082 A 
ATOM      9  C7  UNL d   1      -0.136   1.515  -0.090  0.00  0.00     0.045 A 
ENDROOT
TORSDOF 0
ENDMDL
