MODEL 1
REMARK minimizedAffinity -3.00904012
REMARK minimizedRMSD -1
REMARK  0 active torsions:
REMARK  status: ('A' for Active; 'I' for Inactive)
ROOT
ATOM      1  C   UNL d   1       1.504  -2.794   1.791  0.00  0.00    -0.002 A 
ATOM      2  C1  UNL d   1       0.150  -3.047   1.958  0.00  0.00     0.010 A 
ATOM      3  C2  UNL d   1      -0.806  -2.224   1.359  0.00  0.00     0.041 A 
ATOM      4  C3  UNL d   1      -0.374  -1.133   0.580  0.00  0.00    -0.075 A 
ATOM      5  S   UNL d   1      -1.364   0.009  -0.249  0.00  0.00     0.015 SA
ATOM      6  C4  UNL d   1      -0.013   0.860  -0.846  0.00  0.00     0.022 A 
ATOM      7  C5  UNL d   1       1.172   0.300  -0.432  0.00  0.00     0.026 A 
ATOM      8  C6  UNL d   1       0.984  -0.858   0.396  0.00  0.00    -0.082 A 
ATOM      9  C7  UNL d   1       1.929  -1.710   1.017  0.00  0.00     0.045 A 
ENDROOT
TORSDOF 0
ENDMDL
