MODEL 1
REMARK minimizedAffinity -0.859156668
REMARK minimizedRMSD -1
REMARK  0 active torsions:
REMARK  status: ('A' for Active; 'I' for Inactive)
ROOT
ATOM      1  C   UNL d   1      -1.643   1.138   0.667  0.00  0.00    -0.002 A 
ATOM      2  C1  UNL d   1      -1.852   0.093   1.555  0.00  0.00     0.010 A 
ATOM      3  C2  UNL d   1      -0.905  -0.925   1.689  0.00  0.00     0.041 A 
ATOM      4  C3  UNL d   1       0.267  -0.873   0.909  0.00  0.00    -0.075 A 
ATOM      5  S   UNL d   1       1.564  -2.008   0.906  0.00  0.00     0.015 SA
ATOM      6  C4  UNL d   1       2.427  -1.131  -0.274  0.00  0.00     0.022 A 
ATOM      7  C5  UNL d   1       1.756   0.002  -0.667  0.00  0.00     0.026 A 
ATOM      8  C6  UNL d   1       0.500   0.170   0.008  0.00  0.00    -0.082 A 
ATOM      9  C7  UNL d   1      -0.479   1.187  -0.105  0.00  0.00     0.045 A 
ENDROOT
TORSDOF 0
ENDMDL
