MODEL 1
REMARK minimizedAffinity -2.6861403
REMARK minimizedRMSD -1
REMARK  0 active torsions:
REMARK  status: ('A' for Active; 'I' for Inactive)
ROOT
ATOM      1  C   UNL d   1       1.858  -2.397   0.174  0.00  0.00    -0.002 A 
ATOM      2  C1  UNL d   1       0.910  -2.775   1.115  0.00  0.00     0.010 A 
ATOM      3  C2  UNL d   1      -0.202  -1.968   1.366  0.00  0.00     0.041 A 
ATOM      4  C3  UNL d   1      -0.347  -0.765   0.648  0.00  0.00    -0.075 A 
ATOM      5  S   UNL d   1      -1.627   0.381   0.788  0.00  0.00     0.015 SA
ATOM      6  C4  UNL d   1      -0.946   1.399  -0.397  0.00  0.00     0.022 A 
ATOM      7  C5  UNL d   1       0.229   0.892  -0.898  0.00  0.00     0.026 A 
ATOM      8  C6  UNL d   1       0.594  -0.363  -0.304  0.00  0.00    -0.082 A 
ATOM      9  C7  UNL d   1       1.710  -1.202  -0.536  0.00  0.00     0.045 A 
ENDROOT
TORSDOF 0
ENDMDL
