MODEL 1
REMARK minimizedAffinity -3.9924736
REMARK minimizedRMSD -1
REMARK  0 active torsions:
REMARK  status: ('A' for Active; 'I' for Inactive)
ROOT
ATOM      1  C   UNL d   1      -0.529  -1.171  -0.559  0.00  0.00    -0.002 A 
ATOM      2  C1  UNL d   1       0.392  -0.148  -0.387  0.00  0.00     0.010 A 
ATOM      3  C2  UNL d   1       0.231   1.072  -1.047  0.00  0.00     0.041 A 
ATOM      4  C3  UNL d   1      -0.885   1.248  -1.889  0.00  0.00    -0.075 A 
ATOM      5  S   UNL d   1      -1.288   2.657  -2.798  0.00  0.00     0.015 SA
ATOM      6  C4  UNL d   1      -2.693   1.933  -3.436  0.00  0.00     0.022 A 
ATOM      7  C5  UNL d   1      -2.866   0.649  -2.978  0.00  0.00     0.026 A 
ATOM      8  C6  UNL d   1      -1.826   0.233  -2.078  0.00  0.00    -0.082 A 
ATOM      9  C7  UNL d   1      -1.634  -0.992  -1.396  0.00  0.00     0.045 A 
ENDROOT
TORSDOF 0
ENDMDL
