MODEL 1
REMARK minimizedAffinity 6.28774261
REMARK minimizedRMSD -1
REMARK  0 active torsions:
REMARK  status: ('A' for Active; 'I' for Inactive)
ROOT
ATOM      1  C4' PXY d   1       2.852   3.287   3.006  0.00  0.00     0.077 C 
ATOM      2  C1' PXY d   1       1.358  -0.704  -0.900  0.00  0.00     0.077 C 
ATOM      3  C1  PXY d   1       1.762   0.341   0.121  0.00  0.00    -0.082 A 
ATOM      4  C2  PXY d   1       0.959   0.606   1.139  0.00  0.00     0.003 A 
ATOM      5  C3  PXY d   1       1.295   1.571   2.054  0.00  0.00     0.003 A 
ATOM      6  C4  PXY d   1       2.489   2.233   1.956  0.00  0.00    -0.082 A 
ATOM      7  C5  PXY d   1       3.319   1.961   0.926  0.00  0.00     0.003 A 
ATOM      8  C6  PXY d   1       2.941   1.007  -0.015  0.00  0.00     0.003 A 
ENDROOT
TORSDOF 0
ENDMDL
