MODEL 1
REMARK minimizedAffinity 12.0482378
REMARK minimizedRMSD -1
REMARK  0 active torsions:
REMARK  status: ('A' for Active; 'I' for Inactive)
ROOT
ATOM      1  C4' PXY d   1      -0.126  -5.153   6.000  0.00  0.00     0.077 C 
ATOM      2  C1' PXY d   1       0.120   0.028   3.447  0.00  0.00     0.077 C 
ATOM      3  C1  PXY d   1       0.045  -1.334   4.109  0.00  0.00    -0.082 A 
ATOM      4  C2  PXY d   1       0.573  -1.507   5.310  0.00  0.00     0.003 A 
ATOM      5  C3  PXY d   1       0.543  -2.740   5.910  0.00  0.00     0.003 A 
ATOM      6  C4  PXY d   1      -0.082  -3.793   5.297  0.00  0.00    -0.082 A 
ATOM      7  C5  PXY d   1      -0.633  -3.621   4.077  0.00  0.00     0.003 A 
ATOM      8  C6  PXY d   1      -0.555  -2.372   3.467  0.00  0.00     0.003 A 
ENDROOT
TORSDOF 0
ENDMDL
