MODEL 1
REMARK minimizedAffinity 11.3161993
REMARK minimizedRMSD -1
REMARK  0 active torsions:
REMARK  status: ('A' for Active; 'I' for Inactive)
ROOT
ATOM      1  C4' PXY d   1       2.380  -1.288  -1.550  0.00  0.00     0.077 C 
ATOM      2  C1' PXY d   1       2.815   2.738   2.575  0.00  0.00     0.077 C 
ATOM      3  C1  PXY d   1       2.692   1.690   1.486  0.00  0.00    -0.082 A 
ATOM      4  C2  PXY d   1       2.960   0.424   1.764  0.00  0.00     0.003 A 
ATOM      5  C3  PXY d   1       2.886  -0.532   0.784  0.00  0.00     0.003 A 
ATOM      6  C4  PXY d   1       2.481  -0.197  -0.480  0.00  0.00    -0.082 A 
ATOM      7  C5  PXY d   1       2.195   1.090  -0.769  0.00  0.00     0.003 A 
ATOM      8  C6  PXY d   1       2.317   2.052   0.230  0.00  0.00     0.003 A 
ENDROOT
TORSDOF 0
ENDMDL
