MODEL 1
REMARK minimizedAffinity 9.03971672
REMARK minimizedRMSD -1
REMARK  0 active torsions:
REMARK  status: ('A' for Active; 'I' for Inactive)
ROOT
ATOM      1  C4' PXY d   1       3.806   3.975   1.126  0.00  0.00     0.077 C 
ATOM      2  C1' PXY d   1       2.157  -0.882  -1.539  0.00  0.00     0.077 C 
ATOM      3  C1  PXY d   1       2.578   0.393  -0.835  0.00  0.00    -0.082 A 
ATOM      4  C2  PXY d   1       3.576   1.111  -1.323  0.00  0.00     0.003 A 
ATOM      5  C3  PXY d   1       3.990   2.250  -0.681  0.00  0.00     0.003 A 
ATOM      6  C4  PXY d   1       3.342   2.686   0.443  0.00  0.00    -0.082 A 
ATOM      7  C5  PXY d   1       2.316   1.965   0.941  0.00  0.00     0.003 A 
ATOM      8  C6  PXY d   1       1.937   0.790   0.298  0.00  0.00     0.003 A 
ENDROOT
TORSDOF 0
ENDMDL
