MODEL 1
REMARK minimizedAffinity 16.1225529
REMARK minimizedRMSD -1
REMARK  0 active torsions:
REMARK  status: ('A' for Active; 'I' for Inactive)
ROOT
ATOM      1  C4' PXY d   1       0.344  -0.718   3.635  0.00  0.00     0.077 C 
ATOM      2  C1' PXY d   1       0.267  -5.992   6.000  0.00  0.00     0.077 C 
ATOM      3  C1  PXY d   1       0.291  -4.604   5.391  0.00  0.00    -0.082 A 
ATOM      4  C2  PXY d   1      -0.458  -4.341   4.332  0.00  0.00     0.003 A 
ATOM      5  C3  PXY d   1      -0.424  -3.100   3.749  0.00  0.00     0.003 A 
ATOM      6  C4  PXY d   1       0.344  -2.103   4.288  0.00  0.00    -0.082 A 
ATOM      7  C5  PXY d   1       1.102  -2.360   5.375  0.00  0.00     0.003 A 
ATOM      8  C6  PXY d   1       1.085  -3.638   5.927  0.00  0.00     0.003 A 
ENDROOT
TORSDOF 0
ENDMDL
