MODEL 1
REMARK minimizedAffinity 16.4347878
REMARK minimizedRMSD -1
REMARK  0 active torsions:
REMARK  status: ('A' for Active; 'I' for Inactive)
ROOT
ATOM      1  C4' PXY d   1       2.634   3.420   2.293  0.00  0.00     0.077 C 
ATOM      2  C1' PXY d   1      -0.759   0.719  -1.528  0.00  0.00     0.077 C 
ATOM      3  C1  PXY d   1       0.127   1.419  -0.517  0.00  0.00    -0.082 A 
ATOM      4  C2  PXY d   1       0.450   2.689  -0.698  0.00  0.00     0.003 A 
ATOM      5  C3  PXY d   1       1.276   3.328   0.190  0.00  0.00     0.003 A 
ATOM      6  C4  PXY d   1       1.734   2.676   1.303  0.00  0.00    -0.082 A 
ATOM      7  C5  PXY d   1       1.400   1.383   1.501  0.00  0.00     0.003 A 
ATOM      8  C6  PXY d   1       0.594   0.740   0.566  0.00  0.00     0.003 A 
ENDROOT
TORSDOF 0
ENDMDL
