MODEL 1
REMARK minimizedAffinity -1.64710271
REMARK minimizedRMSD -1
REMARK  0 active torsions:
REMARK  status: ('A' for Active; 'I' for Inactive)
ROOT
ATOM      1  C4' PXY d   1       5.169   2.781  -1.329  0.00  0.00     0.077 C 
ATOM      2  C1' PXY d   1       2.239  -1.827   0.566  0.00  0.00     0.077 C 
ATOM      3  C1  PXY d   1       3.013  -0.617   0.081  0.00  0.00    -0.082 A 
ATOM      4  C2  PXY d   1       2.554   0.085  -0.943  0.00  0.00     0.003 A 
ATOM      5  C3  PXY d   1       3.258   1.163  -1.415  0.00  0.00     0.003 A 
ATOM      6  C4  PXY d   1       4.416   1.558  -0.800  0.00  0.00    -0.082 A 
ATOM      7  C5  PXY d   1       4.885   0.852   0.252  0.00  0.00     0.003 A 
ATOM      8  C6  PXY d   1       4.177  -0.263   0.690  0.00  0.00     0.003 A 
ENDROOT
TORSDOF 0
ENDMDL
