MODEL 1
REMARK minimizedAffinity 1.82248199
REMARK minimizedRMSD -1
REMARK  0 active torsions:
REMARK  status: ('A' for Active; 'I' for Inactive)
ROOT
ATOM      1  C4' PXY d   1       4.298  -0.749  -2.646  0.00  0.00     0.077 C 
ATOM      2  C1' PXY d   1       0.741  -1.482   1.851  0.00  0.00     0.077 C 
ATOM      3  C1  PXY d   1       1.669  -1.278   0.670  0.00  0.00    -0.082 A 
ATOM      4  C2  PXY d   1       2.099  -2.326  -0.013  0.00  0.00     0.003 A 
ATOM      5  C3  PXY d   1       2.965  -2.162  -1.064  0.00  0.00     0.003 A 
ATOM      6  C4  PXY d   1       3.352  -0.907  -1.453  0.00  0.00    -0.082 A 
ATOM      7  C5  PXY d   1       2.909   0.168  -0.767  0.00  0.00     0.003 A 
ATOM      8  C6  PXY d   1       2.064  -0.023   0.322  0.00  0.00     0.003 A 
ENDROOT
TORSDOF 0
ENDMDL
