MODEL 1
REMARK minimizedAffinity 4.60022354
REMARK minimizedRMSD -1
REMARK  0 active torsions:
REMARK  status: ('A' for Active; 'I' for Inactive)
ROOT
ATOM      1  C4' PXY d   1       5.583   3.766   0.043  0.00  0.00     0.077 C 
ATOM      2  C1' PXY d   1       2.099  -0.694  -1.133  0.00  0.00     0.077 C 
ATOM      3  C1  PXY d   1       3.020   0.472  -0.834  0.00  0.00    -0.082 A 
ATOM      4  C2  PXY d   1       3.011   1.021   0.369  0.00  0.00     0.003 A 
ATOM      5  C3  PXY d   1       3.815   2.096   0.647  0.00  0.00     0.003 A 
ATOM      6  C4  PXY d   1       4.676   2.581  -0.301  0.00  0.00    -0.082 A 
ATOM      7  C5  PXY d   1       4.698   2.020  -1.528  0.00  0.00     0.003 A 
ATOM      8  C6  PXY d   1       3.845   0.955  -1.803  0.00  0.00     0.003 A 
ENDROOT
TORSDOF 0
ENDMDL
