MODEL 1
REMARK minimizedAffinity 6.50640297
REMARK minimizedRMSD -1
REMARK  0 active torsions:
REMARK  status: ('A' for Active; 'I' for Inactive)
ROOT
ATOM      1  C4' PXY d   1       2.015  -0.844  -0.304  0.00  0.00     0.077 C 
ATOM      2  C1' PXY d   1       5.488   3.684  -1.226  0.00  0.00     0.077 C 
ATOM      3  C1  PXY d   1       4.575   2.500  -0.972  0.00  0.00    -0.082 A 
ATOM      4  C2  PXY d   1       4.659   1.431  -1.747  0.00  0.00     0.003 A 
ATOM      5  C3  PXY d   1       3.820   0.365  -1.551  0.00  0.00     0.003 A 
ATOM      6  C4  PXY d   1       2.922   0.370  -0.518  0.00  0.00    -0.082 A 
ATOM      7  C5  PXY d   1       2.838   1.453   0.284  0.00  0.00     0.003 A 
ATOM      8  C6  PXY d   1       3.670   2.542   0.043  0.00  0.00     0.003 A 
ENDROOT
TORSDOF 0
ENDMDL
