MODEL 1
REMARK minimizedAffinity 12.2533216
REMARK minimizedRMSD -1
REMARK  0 active torsions:
REMARK  status: ('A' for Active; 'I' for Inactive)
ROOT
ATOM      1  C4' PXY d   1       6.000   0.356   0.817  0.00  0.00     0.077 C 
ATOM      2  C1' PXY d   1       0.509  -0.042  -0.947  0.00  0.00     0.077 C 
ATOM      3  C1  PXY d   1       1.952   0.070  -0.495  0.00  0.00    -0.082 A 
ATOM      4  C2  PXY d   1       2.469  -0.869   0.281  0.00  0.00     0.003 A 
ATOM      5  C3  PXY d   1       3.762  -0.767   0.725  0.00  0.00     0.003 A 
ATOM      6  C4  PXY d   1       4.551   0.279   0.328  0.00  0.00    -0.082 A 
ATOM      7  C5  PXY d   1       4.034   1.235  -0.472  0.00  0.00     0.003 A 
ATOM      8  C6  PXY d   1       2.707   1.135  -0.879  0.00  0.00     0.003 A 
ENDROOT
TORSDOF 0
ENDMDL
