MODEL 1
REMARK minimizedAffinity 5.63860416
REMARK minimizedRMSD -1
REMARK  0 active torsions:
REMARK  status: ('A' for Active; 'I' for Inactive)
ROOT
ATOM      1  C4' PXY d   1      -4.860   0.355  -0.481  0.00  0.00     0.077 C 
ATOM      2  C1' PXY d   1      -3.394   1.382  -5.977  0.00  0.00     0.077 C 
ATOM      3  C1  PXY d   1      -3.768   1.106  -4.534  0.00  0.00    -0.082 A 
ATOM      4  C2  PXY d   1      -5.035   1.183  -4.160  0.00  0.00     0.003 A 
ATOM      5  C3  PXY d   1      -5.386   0.967  -2.853  0.00  0.00     0.003 A 
ATOM      6  C4  PXY d   1      -4.438   0.617  -1.929  0.00  0.00    -0.082 A 
ATOM      7  C5  PXY d   1      -3.145   0.526  -2.305  0.00  0.00     0.003 A 
ATOM      8  C6  PXY d   1      -2.803   0.789  -3.628  0.00  0.00     0.003 A 
ENDROOT
TORSDOF 0
ENDMDL
