MODEL 1
REMARK minimizedAffinity 17.5111542
REMARK minimizedRMSD -1
REMARK  0 active torsions:
REMARK  status: ('A' for Active; 'I' for Inactive)
ROOT
ATOM      1  C4' PXY d   1      -5.912  -0.334  -4.790  0.00  0.00     0.077 C 
ATOM      2  C1' PXY d   1      -3.712   4.874  -5.994  0.00  0.00     0.077 C 
ATOM      3  C1  PXY d   1      -4.281   3.503  -5.687  0.00  0.00    -0.082 A 
ATOM      4  C2  PXY d   1      -5.483   3.401  -5.143  0.00  0.00     0.003 A 
ATOM      5  C3  PXY d   1      -5.999   2.170  -4.830  0.00  0.00     0.003 A 
ATOM      6  C4  PXY d   1      -5.301   1.030  -5.125  0.00  0.00    -0.082 A 
ATOM      7  C5  PXY d   1      -4.079   1.126  -5.690  0.00  0.00     0.003 A 
ATOM      8  C6  PXY d   1      -3.555   2.386  -5.962  0.00  0.00     0.003 A 
ENDROOT
TORSDOF 0
ENDMDL
