MODEL 1
REMARK minimizedAffinity 0.150869295
REMARK minimizedRMSD -1
REMARK  1 active torsions:
REMARK  status: ('A' for Active; 'I' for Inactive)
REMARK    1  A    between atoms: C1_2  and  C2_3 
ROOT
ATOM      1  C2  UNL d   1      -0.534  -0.952  -0.210  0.00  0.00    -0.076 A 
ATOM      2  C3  UNL d   1      -1.598  -0.412   0.533  0.00  0.00     0.004 A 
ATOM      3  C4  UNL d   1      -1.379   0.590   1.476  0.00  0.00    -0.003 A 
ATOM      4  C5  UNL d   1      -0.091   1.070   1.692  0.00  0.00     0.000 A 
ATOM      5  C6  UNL d   1       0.974   0.558   0.951  0.00  0.00     0.000 A 
ATOM      6  C7  UNL d   1       0.767  -0.441  -0.016  0.00  0.00    -0.073 A 
ATOM      7  C8  UNL d   1       1.953  -0.961  -0.781  0.00  0.00     0.078 C 
ENDROOT
BRANCH   1   8
ATOM      8  C1  UNL d   1      -0.829  -2.056  -1.200  0.00  0.00     0.053 C 
ATOM      9  C   UNL d   1      -2.295  -2.460  -1.203  0.00  0.00     0.018 C 
ENDBRANCH   1   8
TORSDOF 1
ENDMDL
