MODEL 1
REMARK minimizedAffinity -1.65389132
REMARK minimizedRMSD -1
REMARK  1 active torsions:
REMARK  status: ('A' for Active; 'I' for Inactive)
REMARK    1  A    between atoms: C1_2  and  C2_3 
ROOT
ATOM      1  C2  UNL d   1       1.761   1.257   1.275  0.00  0.00    -0.076 A 
ATOM      2  C3  UNL d   1       3.033   1.048   0.714  0.00  0.00     0.004 A 
ATOM      3  C4  UNL d   1       4.191   1.307   1.446  0.00  0.00    -0.003 A 
ATOM      4  C5  UNL d   1       4.095   1.780   2.750  0.00  0.00     0.000 A 
ATOM      5  C6  UNL d   1       2.842   1.976   3.328  0.00  0.00     0.000 A 
ATOM      6  C7  UNL d   1       1.665   1.704   2.610  0.00  0.00    -0.073 A 
ATOM      7  C8  UNL d   1       0.339   1.939   3.281  0.00  0.00     0.078 C 
ENDROOT
BRANCH   1   8
ATOM      8  C1  UNL d   1       0.541   0.984   0.425  0.00  0.00     0.053 C 
ATOM      9  C   UNL d   1       0.311  -0.502   0.195  0.00  0.00     0.018 C 
ENDBRANCH   1   8
TORSDOF 1
ENDMDL
