MODEL 1
REMARK minimizedAffinity 4.78500938
REMARK minimizedRMSD -1
REMARK  1 active torsions:
REMARK  status: ('A' for Active; 'I' for Inactive)
REMARK    1  A    between atoms: C1_2  and  C2_3 
ROOT
ATOM      1  C2  UNL d   1       0.057   0.514   1.197  0.00  0.00    -0.076 A 
ATOM      2  C3  UNL d   1      -0.016  -0.735   0.557  0.00  0.00     0.004 A 
ATOM      3  C4  UNL d   1       0.880  -1.077  -0.455  0.00  0.00    -0.003 A 
ATOM      4  C5  UNL d   1       1.864  -0.174  -0.843  0.00  0.00     0.000 A 
ATOM      5  C6  UNL d   1       1.962   1.063  -0.208  0.00  0.00     0.000 A 
ATOM      6  C7  UNL d   1       1.077   1.417   0.825  0.00  0.00    -0.073 A 
ATOM      7  C8  UNL d   1       1.225   2.767   1.472  0.00  0.00     0.078 C 
ENDROOT
BRANCH   1   8
ATOM      8  C1  UNL d   1      -0.958   0.840   2.268  0.00  0.00     0.053 C 
ATOM      9  C   UNL d   1      -2.370   0.960   1.716  0.00  0.00     0.018 C 
ENDBRANCH   1   8
TORSDOF 1
ENDMDL
