MODEL 1
REMARK minimizedAffinity -0.527155101
REMARK minimizedRMSD -1
REMARK  1 active torsions:
REMARK  status: ('A' for Active; 'I' for Inactive)
REMARK    1  A    between atoms: C1_2  and  C2_3 
ROOT
ATOM      1  C2  UNL d   1       0.242  -0.305  -2.498  0.00  0.00    -0.076 A 
ATOM      2  C3  UNL d   1       0.766  -1.277  -1.628  0.00  0.00     0.004 A 
ATOM      3  C4  UNL d   1       1.682  -0.934  -0.636  0.00  0.00    -0.003 A 
ATOM      4  C5  UNL d   1       2.090   0.389  -0.497  0.00  0.00     0.000 A 
ATOM      5  C6  UNL d   1       1.567   1.369  -1.339  0.00  0.00     0.000 A 
ATOM      6  C7  UNL d   1       0.630   1.042  -2.334  0.00  0.00    -0.073 A 
ATOM      7  C8  UNL d   1       0.104   2.139  -3.219  0.00  0.00     0.078 C 
ENDROOT
BRANCH   1   8
ATOM      8  C1  UNL d   1      -0.728  -0.741  -3.573  0.00  0.00     0.053 C 
ATOM      9  C   UNL d   1      -1.917  -1.504  -3.009  0.00  0.00     0.018 C 
ENDBRANCH   1   8
TORSDOF 1
ENDMDL
