MODEL 1
REMARK minimizedAffinity 1.71978915
REMARK minimizedRMSD -1
REMARK  1 active torsions:
REMARK  status: ('A' for Active; 'I' for Inactive)
REMARK    1  A    between atoms: C1_2  and  C2_3 
ROOT
ATOM      1  C2  UNL d   1      -3.001  -3.661  -0.857  0.00  0.00    -0.076 A 
ATOM      2  C3  UNL d   1      -2.687  -2.654   0.072  0.00  0.00     0.004 A 
ATOM      3  C4  UNL d   1      -1.714  -2.856   1.049  0.00  0.00    -0.003 A 
ATOM      4  C5  UNL d   1      -1.037  -4.069   1.112  0.00  0.00     0.000 A 
ATOM      5  C6  UNL d   1      -1.322  -5.073   0.188  0.00  0.00     0.000 A 
ATOM      6  C7  UNL d   1      -2.289  -4.880  -0.814  0.00  0.00    -0.073 A 
ATOM      7  C8  UNL d   1      -2.561  -5.999  -1.781  0.00  0.00     0.078 C 
ENDROOT
BRANCH   1   8
ATOM      8  C1  UNL d   1      -4.085  -3.395  -1.876  0.00  0.00     0.053 C 
ATOM      9  C   UNL d   1      -3.564  -2.660  -3.102  0.00  0.00     0.018 C 
ENDBRANCH   1   8
TORSDOF 1
ENDMDL
