MODEL 1
REMARK minimizedAffinity 4.0208478
REMARK minimizedRMSD -1
REMARK  1 active torsions:
REMARK  status: ('A' for Active; 'I' for Inactive)
REMARK    1  A    between atoms: C1_2  and  C2_3 
ROOT
ATOM      1  C2  UNL d   1       1.304   0.451   1.099  0.00  0.00    -0.076 A 
ATOM      2  C3  UNL d   1       0.489  -0.499   0.460  0.00  0.00     0.004 A 
ATOM      3  C4  UNL d   1       0.976  -1.267  -0.597  0.00  0.00    -0.003 A 
ATOM      4  C5  UNL d   1       2.286  -1.098  -1.031  0.00  0.00     0.000 A 
ATOM      5  C6  UNL d   1       3.114  -0.172  -0.396  0.00  0.00     0.000 A 
ATOM      6  C7  UNL d   1       2.644   0.598   0.681  0.00  0.00    -0.073 A 
ATOM      7  C8  UNL d   1       3.579   1.586   1.324  0.00  0.00     0.078 C 
ENDROOT
BRANCH   1   8
ATOM      8  C1  UNL d   1       0.713   1.274   2.221  0.00  0.00     0.053 C 
ATOM      9  C   UNL d   1      -0.808   1.271   2.208  0.00  0.00     0.018 C 
ENDBRANCH   1   8
TORSDOF 1
ENDMDL
