MODEL 1
REMARK minimizedAffinity 14.4047689
REMARK minimizedRMSD -1
REMARK  1 active torsions:
REMARK  status: ('A' for Active; 'I' for Inactive)
REMARK    1  A    between atoms: C1_2  and  C2_3 
ROOT
ATOM      1  C2  UNL d   1      -0.992   0.722   2.696  0.00  0.00    -0.076 A 
ATOM      2  C3  UNL d   1      -0.337   0.166   3.809  0.00  0.00     0.004 A 
ATOM      3  C4  UNL d   1       0.850   0.715   4.291  0.00  0.00    -0.003 A 
ATOM      4  C5  UNL d   1       1.402   1.828   3.667  0.00  0.00     0.000 A 
ATOM      5  C6  UNL d   1       0.757   2.404   2.573  0.00  0.00     0.000 A 
ATOM      6  C7  UNL d   1      -0.450   1.873   2.085  0.00  0.00    -0.073 A 
ATOM      7  C8  UNL d   1      -1.100   2.530   0.898  0.00  0.00     0.078 C 
ENDROOT
BRANCH   1   8
ATOM      8  C1  UNL d   1      -2.262   0.068   2.202  0.00  0.00     0.053 C 
ATOM      9  C   UNL d   1      -3.428   0.260   3.160  0.00  0.00     0.018 C 
ENDBRANCH   1   8
TORSDOF 1
ENDMDL
