MODEL 1
REMARK minimizedAffinity 6.63768816
REMARK minimizedRMSD -1
REMARK  1 active torsions:
REMARK  status: ('A' for Active; 'I' for Inactive)
REMARK    1  A    between atoms: C1_2  and  C2_3 
ROOT
ATOM      1  C2  UNL d   1       0.885   1.108   1.524  0.00  0.00    -0.076 A 
ATOM      2  C3  UNL d   1       0.811   2.492   1.757  0.00  0.00     0.004 A 
ATOM      3  C4  UNL d   1      -0.334   3.068   2.306  0.00  0.00    -0.003 A 
ATOM      4  C5  UNL d   1      -1.423   2.268   2.632  0.00  0.00     0.000 A 
ATOM      5  C6  UNL d   1      -1.361   0.890   2.425  0.00  0.00     0.000 A 
ATOM      6  C7  UNL d   1      -0.208   0.292   1.887  0.00  0.00    -0.073 A 
ATOM      7  C8  UNL d   1      -0.198  -1.198   1.679  0.00  0.00     0.078 C 
ENDROOT
BRANCH   1   8
ATOM      8  C1  UNL d   1       2.142   0.544   0.901  0.00  0.00     0.053 C 
ATOM      9  C   UNL d   1       2.033   0.409  -0.609  0.00  0.00     0.018 C 
ENDBRANCH   1   8
TORSDOF 1
ENDMDL
