MODEL 1
REMARK minimizedAffinity -2.90385151
REMARK minimizedRMSD -1
REMARK  1 active torsions:
REMARK  status: ('A' for Active; 'I' for Inactive)
REMARK    1  A    between atoms: C1_2  and  C2_3 
ROOT
ATOM      1  C2  UNL d   1       0.581   1.384   1.142  0.00  0.00    -0.076 A 
ATOM      2  C3  UNL d   1      -0.047   0.136   1.298  0.00  0.00     0.004 A 
ATOM      3  C4  UNL d   1      -1.359   0.046   1.759  0.00  0.00    -0.003 A 
ATOM      4  C5  UNL d   1      -2.065   1.203   2.071  0.00  0.00     0.000 A 
ATOM      5  C6  UNL d   1      -1.464   2.450   1.906  0.00  0.00     0.000 A 
ATOM      6  C7  UNL d   1      -0.147   2.559   1.427  0.00  0.00    -0.073 A 
ATOM      7  C8  UNL d   1       0.454   3.930   1.273  0.00  0.00     0.078 C 
ENDROOT
BRANCH   1   8
ATOM      8  C1  UNL d   1       2.015   1.419   0.664  0.00  0.00     0.053 C 
ATOM      9  C   UNL d   1       2.266   0.468  -0.496  0.00  0.00     0.018 C 
ENDBRANCH   1   8
TORSDOF 1
ENDMDL
