MODEL 1
REMARK minimizedAffinity 1.85294485
REMARK minimizedRMSD -1
REMARK  1 active torsions:
REMARK  status: ('A' for Active; 'I' for Inactive)
REMARK    1  A    between atoms: C1_2  and  C2_3 
ROOT
ATOM      1  C2  UNL d   1      -4.500   4.177   1.900  0.00  0.00    -0.076 A 
ATOM      2  C3  UNL d   1      -4.591   3.633   3.193  0.00  0.00     0.004 A 
ATOM      3  C4  UNL d   1      -5.334   4.267   4.188  0.00  0.00    -0.003 A 
ATOM      4  C5  UNL d   1      -5.999   5.455   3.905  0.00  0.00     0.000 A 
ATOM      5  C6  UNL d   1      -5.933   6.000   2.623  0.00  0.00     0.000 A 
ATOM      6  C7  UNL d   1      -5.202   5.365   1.604  0.00  0.00    -0.073 A 
ATOM      7  C8  UNL d   1      -5.161   5.999   0.241  0.00  0.00     0.078 C 
ENDROOT
BRANCH   1   8
ATOM      8  C1  UNL d   1      -3.657   3.459   0.871  0.00  0.00     0.053 C 
ATOM      9  C   UNL d   1      -2.523   2.663   1.498  0.00  0.00     0.018 C 
ENDBRANCH   1   8
TORSDOF 1
ENDMDL
