MODEL 1
REMARK minimizedAffinity 11.1316233
REMARK minimizedRMSD -1
REMARK  1 active torsions:
REMARK  status: ('A' for Active; 'I' for Inactive)
REMARK    1  A    between atoms: C1_2  and  C2_3 
ROOT
ATOM      1  C2  UNL d   1       1.699   0.691   1.004  0.00  0.00    -0.076 A 
ATOM      2  C3  UNL d   1       1.126  -0.479   0.476  0.00  0.00     0.004 A 
ATOM      3  C4  UNL d   1       1.708  -1.138  -0.605  0.00  0.00    -0.003 A 
ATOM      4  C5  UNL d   1       2.873  -0.638  -1.176  0.00  0.00     0.000 A 
ATOM      5  C6  UNL d   1       3.465   0.512  -0.654  0.00  0.00     0.000 A 
ATOM      6  C7  UNL d   1       2.900   1.179   0.446  0.00  0.00    -0.073 A 
ATOM      7  C8  UNL d   1       3.576   2.419   0.964  0.00  0.00     0.078 C 
ENDROOT
BRANCH   1   8
ATOM      8  C1  UNL d   1       1.008   1.378   2.160  0.00  0.00     0.053 C 
ATOM      9  C   UNL d   1      -0.115   2.297   1.705  0.00  0.00     0.018 C 
ENDBRANCH   1   8
TORSDOF 1
ENDMDL
