MODEL 1
REMARK minimizedAffinity -2.06924796
REMARK minimizedRMSD -1
REMARK  1 active torsions:
REMARK  status: ('A' for Active; 'I' for Inactive)
REMARK    1  A    between atoms: C1_2  and  C2_3 
ROOT
ATOM      1  C2  UNL d   1       0.365  -0.204   0.668  0.00  0.00    -0.076 A 
ATOM      2  C3  UNL d   1       1.241   0.828   1.044  0.00  0.00     0.004 A 
ATOM      3  C4  UNL d   1       0.817   1.861   1.879  0.00  0.00    -0.003 A 
ATOM      4  C5  UNL d   1      -0.490   1.877   2.352  0.00  0.00     0.000 A 
ATOM      5  C6  UNL d   1      -1.368   0.852   2.003  0.00  0.00     0.000 A 
ATOM      6  C7  UNL d   1      -0.952  -0.205   1.176  0.00  0.00    -0.073 A 
ATOM      7  C8  UNL d   1      -1.943  -1.282   0.826  0.00  0.00     0.078 C 
ENDROOT
BRANCH   1   8
ATOM      8  C1  UNL d   1       0.873  -1.283  -0.262  0.00  0.00     0.053 C 
ATOM      9  C   UNL d   1       2.200  -0.918  -0.908  0.00  0.00     0.018 C 
ENDBRANCH   1   8
TORSDOF 1
ENDMDL
