MODEL 1
REMARK minimizedAffinity 11.1939335
REMARK minimizedRMSD -1
REMARK  1 active torsions:
REMARK  status: ('A' for Active; 'I' for Inactive)
REMARK    1  A    between atoms: C1_2  and  C2_3 
ROOT
ATOM      1  C2  UNL d   1       4.361   0.001  -3.593  0.00  0.00    -0.076 A 
ATOM      2  C3  UNL d   1       5.194  -1.102  -3.847  0.00  0.00     0.004 A 
ATOM      3  C4  UNL d   1       5.908  -1.202  -5.039  0.00  0.00    -0.003 A 
ATOM      4  C5  UNL d   1       5.802  -0.200  -5.997  0.00  0.00     0.000 A 
ATOM      5  C6  UNL d   1       4.994   0.910  -5.755  0.00  0.00     0.000 A 
ATOM      6  C7  UNL d   1       4.280   1.035  -4.551  0.00  0.00    -0.073 A 
ATOM      7  C8  UNL d   1       3.419   2.251  -4.345  0.00  0.00     0.078 C 
ENDROOT
BRANCH   1   8
ATOM      8  C1  UNL d   1       3.589   0.043  -2.294  0.00  0.00     0.053 C 
ATOM      9  C   UNL d   1       2.886  -1.272  -1.992  0.00  0.00     0.018 C 
ENDBRANCH   1   8
TORSDOF 1
ENDMDL
