MODEL 1
REMARK minimizedAffinity 10.4902411
REMARK minimizedRMSD -1
REMARK  1 active torsions:
REMARK  status: ('A' for Active; 'I' for Inactive)
REMARK    1  A    between atoms: C1_2  and  C2_3 
ROOT
ATOM      1  C2  UNL d   1      -5.257  -3.478  -5.173  0.00  0.00    -0.076 A 
ATOM      2  C3  UNL d   1      -5.966  -4.672  -4.954  0.00  0.00     0.004 A 
ATOM      3  C4  UNL d   1      -5.399  -5.909  -5.258  0.00  0.00    -0.003 A 
ATOM      4  C5  UNL d   1      -4.114  -5.971  -5.787  0.00  0.00     0.000 A 
ATOM      5  C6  UNL d   1      -3.390  -4.797  -5.994  0.00  0.00     0.000 A 
ATOM      6  C7  UNL d   1      -3.941  -3.543  -5.677  0.00  0.00    -0.073 A 
ATOM      7  C8  UNL d   1      -3.118  -2.309  -5.927  0.00  0.00     0.078 C 
ENDROOT
BRANCH   1   8
ATOM      8  C1  UNL d   1      -5.934  -2.165  -4.849  0.00  0.00     0.053 C 
ATOM      9  C   UNL d   1      -5.968  -1.880  -3.355  0.00  0.00     0.018 C 
ENDBRANCH   1   8
TORSDOF 1
ENDMDL
