MODEL 1
REMARK minimizedAffinity 3.65880513
REMARK minimizedRMSD -1
REMARK  1 active torsions:
REMARK  status: ('A' for Active; 'I' for Inactive)
REMARK    1  A    between atoms: C1_2  and  C2_3 
ROOT
ATOM      1  C2  UNL d   1       4.098  -0.873  -4.351  0.00  0.00    -0.076 A 
ATOM      2  C3  UNL d   1       3.406   0.350  -4.377  0.00  0.00     0.004 A 
ATOM      3  C4  UNL d   1       3.830   1.397  -5.194  0.00  0.00    -0.003 A 
ATOM      4  C5  UNL d   1       4.952   1.237  -6.000  0.00  0.00     0.000 A 
ATOM      5  C6  UNL d   1       5.640   0.024  -6.000  0.00  0.00     0.000 A 
ATOM      6  C7  UNL d   1       5.217  -1.047  -5.194  0.00  0.00    -0.073 A 
ATOM      7  C8  UNL d   1       6.000  -2.331  -5.229  0.00  0.00     0.078 C 
ENDROOT
BRANCH   1   8
ATOM      8  C1  UNL d   1       3.608  -1.963  -3.424  0.00  0.00     0.053 C 
ATOM      9  C   UNL d   1       2.172  -2.371  -3.712  0.00  0.00     0.018 C 
ENDBRANCH   1   8
TORSDOF 1
ENDMDL
