MODEL 1
REMARK minimizedAffinity 14.0772257
REMARK minimizedRMSD -1
REMARK  1 active torsions:
REMARK  status: ('A' for Active; 'I' for Inactive)
REMARK    1  A    between atoms: C1_2  and  C2_3 
ROOT
ATOM      1  C2  UNL d   1       0.461  -0.617   1.450  0.00  0.00    -0.076 A 
ATOM      2  C3  UNL d   1      -0.781  -1.176   1.101  0.00  0.00     0.004 A 
ATOM      3  C4  UNL d   1      -1.847  -0.368   0.710  0.00  0.00    -0.003 A 
ATOM      4  C5  UNL d   1      -1.690   1.012   0.662  0.00  0.00     0.000 A 
ATOM      5  C6  UNL d   1      -0.460   1.583   0.988  0.00  0.00     0.000 A 
ATOM      6  C7  UNL d   1       0.630   0.782   1.368  0.00  0.00    -0.073 A 
ATOM      7  C8  UNL d   1       1.932   1.451   1.715  0.00  0.00     0.078 C 
ENDROOT
BRANCH   1   8
ATOM      8  C1  UNL d   1       1.573  -1.541   1.892  0.00  0.00     0.053 C 
ATOM      9  C   UNL d   1       1.474  -1.909   3.364  0.00  0.00     0.018 C 
ENDBRANCH   1   8
TORSDOF 1
ENDMDL
