MODEL 1
REMARK minimizedAffinity 2.2660296
REMARK minimizedRMSD -1
REMARK  1 active torsions:
REMARK  status: ('A' for Active; 'I' for Inactive)
REMARK    1  A    between atoms: C1_2  and  C2_3 
ROOT
ATOM      1  C2  UNL d   1       5.220  -0.695  -4.900  0.00  0.00    -0.076 A 
ATOM      2  C3  UNL d   1       5.863   0.227  -5.744  0.00  0.00     0.004 A 
ATOM      3  C4  UNL d   1       5.308   1.481  -5.993  0.00  0.00    -0.003 A 
ATOM      4  C5  UNL d   1       4.100   1.834  -5.400  0.00  0.00     0.000 A 
ATOM      5  C6  UNL d   1       3.457   0.939  -4.546  0.00  0.00     0.000 A 
ATOM      6  C7  UNL d   1       4.012  -0.323  -4.273  0.00  0.00    -0.073 A 
ATOM      7  C8  UNL d   1       3.273  -1.252  -3.348  0.00  0.00     0.078 C 
ENDROOT
BRANCH   1   8
ATOM      8  C1  UNL d   1       5.856  -2.050  -4.690  0.00  0.00     0.053 C 
ATOM      9  C   UNL d   1       5.997  -2.835  -5.985  0.00  0.00     0.018 C 
ENDBRANCH   1   8
TORSDOF 1
ENDMDL
