MODEL 1
REMARK minimizedAffinity 2.52202415
REMARK minimizedRMSD -1
REMARK  1 active torsions:
REMARK  status: ('A' for Active; 'I' for Inactive)
REMARK    1  A    between atoms: C1_2  and  C2_3 
ROOT
ATOM      1  C2  UNL d   1       3.477  -2.314   3.170  0.00  0.00    -0.076 A 
ATOM      2  C3  UNL d   1       2.645  -2.967   4.096  0.00  0.00     0.004 A 
ATOM      3  C4  UNL d   1       1.262  -2.795   4.064  0.00  0.00    -0.003 A 
ATOM      4  C5  UNL d   1       0.689  -1.968   3.104  0.00  0.00     0.000 A 
ATOM      5  C6  UNL d   1       1.498  -1.327   2.166  0.00  0.00     0.000 A 
ATOM      6  C7  UNL d   1       2.892  -1.503   2.175  0.00  0.00    -0.073 A 
ATOM      7  C8  UNL d   1       3.717  -0.782   1.144  0.00  0.00     0.078 C 
ENDROOT
BRANCH   1   8
ATOM      8  C1  UNL d   1       4.972  -2.518   3.271  0.00  0.00     0.053 C 
ATOM      9  C   UNL d   1       5.455  -2.581   4.712  0.00  0.00     0.018 C 
ENDBRANCH   1   8
TORSDOF 1
ENDMDL
