MODEL 1
REMARK minimizedAffinity 4.43655205
REMARK minimizedRMSD -1
REMARK  1 active torsions:
REMARK  status: ('A' for Active; 'I' for Inactive)
REMARK    1  A    between atoms: C1_2  and  C2_3 
ROOT
ATOM      1  C2  UNL d   1       2.647  -2.674   4.013  0.00  0.00    -0.076 A 
ATOM      2  C3  UNL d   1       1.411  -2.289   3.463  0.00  0.00     0.004 A 
ATOM      3  C4  UNL d   1       1.351  -1.520   2.302  0.00  0.00    -0.003 A 
ATOM      4  C5  UNL d   1       2.526  -1.124   1.672  0.00  0.00     0.000 A 
ATOM      5  C6  UNL d   1       3.759  -1.511   2.194  0.00  0.00     0.000 A 
ATOM      6  C7  UNL d   1       3.837  -2.300   3.354  0.00  0.00    -0.073 A 
ATOM      7  C8  UNL d   1       5.195  -2.683   3.877  0.00  0.00     0.078 C 
ENDROOT
BRANCH   1   8
ATOM      8  C1  UNL d   1       2.650  -3.485   5.289  0.00  0.00     0.053 C 
ATOM      9  C   UNL d   1       2.131  -4.899   5.082  0.00  0.00     0.018 C 
ENDBRANCH   1   8
TORSDOF 1
ENDMDL
