MODEL 1
REMARK minimizedAffinity 16.0276165
REMARK minimizedRMSD -1
REMARK  1 active torsions:
REMARK  status: ('A' for Active; 'I' for Inactive)
REMARK    1  A    between atoms: C1_2  and  C2_3 
ROOT
ATOM      1  C2  UNL d   1       1.490  -1.101   0.855  0.00  0.00    -0.076 A 
ATOM      2  C3  UNL d   1       1.166  -2.438   1.146  0.00  0.00     0.004 A 
ATOM      3  C4  UNL d   1       0.973  -2.860   2.460  0.00  0.00    -0.003 A 
ATOM      4  C5  UNL d   1       1.101  -1.952   3.506  0.00  0.00     0.000 A 
ATOM      5  C6  UNL d   1       1.405  -0.618   3.234  0.00  0.00     0.000 A 
ATOM      6  C7  UNL d   1       1.586  -0.173   1.914  0.00  0.00    -0.073 A 
ATOM      7  C8  UNL d   1       1.918   1.275   1.679  0.00  0.00     0.078 C 
ENDROOT
BRANCH   1   8
ATOM      8  C1  UNL d   1       1.713  -0.708  -0.587  0.00  0.00     0.053 C 
ATOM      9  C   UNL d   1       3.111  -1.054  -1.076  0.00  0.00     0.018 C 
ENDBRANCH   1   8
TORSDOF 1
ENDMDL
