MODEL 1
REMARK minimizedAffinity 10.0920477
REMARK minimizedRMSD -1
REMARK  1 active torsions:
REMARK  status: ('A' for Active; 'I' for Inactive)
REMARK    1  A    between atoms: C1_2  and  C2_3 
ROOT
ATOM      1  C2  UNL d   1       3.332  -3.442   3.614  0.00  0.00    -0.076 A 
ATOM      2  C3  UNL d   1       4.363  -3.021   2.757  0.00  0.00     0.004 A 
ATOM      3  C4  UNL d   1       5.686  -3.396   2.987  0.00  0.00    -0.003 A 
ATOM      4  C5  UNL d   1       5.998  -4.200   4.077  0.00  0.00     0.000 A 
ATOM      5  C6  UNL d   1       4.985  -4.642   4.928  0.00  0.00     0.000 A 
ATOM      6  C7  UNL d   1       3.645  -4.286   4.701  0.00  0.00    -0.073 A 
ATOM      7  C8  UNL d   1       2.593  -4.786   5.653  0.00  0.00     0.078 C 
ENDROOT
BRANCH   1   8
ATOM      8  C1  UNL d   1       1.920  -2.981   3.329  0.00  0.00     0.053 C 
ATOM      9  C   UNL d   1       1.865  -1.894   2.267  0.00  0.00     0.018 C 
ENDBRANCH   1   8
TORSDOF 1
ENDMDL
