MODEL 1
REMARK minimizedAffinity 8.40052986
REMARK minimizedRMSD -1
REMARK  0 active torsions:
REMARK  status: ('A' for Active; 'I' for Inactive)
ROOT
ATOM      1  C   UNL d   1       4.515  -4.229   0.786  0.00  0.00    -0.002 A 
ATOM      2  C1  UNL d   1       5.434  -3.225   0.515  0.00  0.00     0.010 A 
ATOM      3  C2  UNL d   1       5.893  -2.388   1.533  0.00  0.00     0.041 A 
ATOM      4  C3  UNL d   1       5.411  -2.580   2.843  0.00  0.00    -0.075 A 
ATOM      5  S   UNL d   1       5.833  -1.677   4.249  0.00  0.00     0.015 SA
ATOM      6  C4  UNL d   1       4.805  -2.603   5.244  0.00  0.00     0.022 A 
ATOM      7  C5  UNL d   1       4.148  -3.581   4.537  0.00  0.00     0.026 A 
ATOM      8  C6  UNL d   1       4.486  -3.585   3.142  0.00  0.00    -0.082 A 
ATOM      9  C7  UNL d   1       4.039  -4.416   2.087  0.00  0.00     0.045 A 
ENDROOT
TORSDOF 0
ENDMDL
