MODEL 1
REMARK minimizedAffinity 8.50640488
REMARK minimizedRMSD -1
REMARK  0 active torsions:
REMARK  status: ('A' for Active; 'I' for Inactive)
ROOT
ATOM      1  C   UNL d   1      -4.053  -1.987  -5.145  0.00  0.00    -0.002 A 
ATOM      2  C1  UNL d   1      -3.696  -0.918  -5.954  0.00  0.00     0.010 A 
ATOM      3  C2  UNL d   1      -3.412   0.330  -5.397  0.00  0.00     0.041 A 
ATOM      4  C3  UNL d   1      -3.493   0.487  -3.999  0.00  0.00    -0.075 A 
ATOM      5  S   UNL d   1      -3.189   1.924  -3.095  0.00  0.00     0.015 SA
ATOM      6  C4  UNL d   1      -3.525   1.152  -1.614  0.00  0.00     0.022 A 
ATOM      7  C5  UNL d   1      -3.863  -0.170  -1.786  0.00  0.00     0.026 A 
ATOM      8  C6  UNL d   1      -3.849  -0.575  -3.163  0.00  0.00    -0.082 A 
ATOM      9  C7  UNL d   1      -4.132  -1.828  -3.759  0.00  0.00     0.045 A 
ENDROOT
TORSDOF 0
ENDMDL
