MODEL 1
REMARK minimizedAffinity -3.25481749
REMARK minimizedRMSD -1
REMARK  0 active torsions:
REMARK  status: ('A' for Active; 'I' for Inactive)
ROOT
ATOM      1  C   UNL d   1      -5.846  -0.804  -4.715  0.00  0.00    -0.002 A 
ATOM      2  C1  UNL d   1      -5.321  -1.544  -3.666  0.00  0.00     0.010 A 
ATOM      3  C2  UNL d   1      -4.019  -1.314  -3.217  0.00  0.00     0.041 A 
ATOM      4  C3  UNL d   1      -3.248  -0.316  -3.844  0.00  0.00    -0.075 A 
ATOM      5  S   UNL d   1      -1.630   0.141  -3.462  0.00  0.00     0.015 SA
ATOM      6  C4  UNL d   1      -1.599   1.331  -4.682  0.00  0.00     0.022 A 
ATOM      7  C5  UNL d   1      -2.785   1.391  -5.374  0.00  0.00     0.026 A 
ATOM      8  C6  UNL d   1      -3.755   0.443  -4.902  0.00  0.00    -0.082 A 
ATOM      9  C7  UNL d   1      -5.078   0.185  -5.336  0.00  0.00     0.045 A 
ENDROOT
TORSDOF 0
ENDMDL
