MODEL 1
REMARK minimizedAffinity 17.8928719
REMARK minimizedRMSD -1
REMARK  0 active torsions:
REMARK  status: ('A' for Active; 'I' for Inactive)
ROOT
ATOM      1  C   UNL d   1       5.732  -4.535   1.523  0.00  0.00    -0.002 A 
ATOM      2  C1  UNL d   1       5.248  -5.707   2.085  0.00  0.00     0.010 A 
ATOM      3  C2  UNL d   1       5.022  -5.795   3.460  0.00  0.00     0.041 A 
ATOM      4  C3  UNL d   1       5.293  -4.673   4.268  0.00  0.00    -0.075 A 
ATOM      5  S   UNL d   1       5.091  -4.550   5.976  0.00  0.00     0.015 SA
ATOM      6  C4  UNL d   1       5.643  -2.937   5.999  0.00  0.00     0.022 A 
ATOM      7  C5  UNL d   1       5.977  -2.488   4.744  0.00  0.00     0.026 A 
ATOM      8  C6  UNL d   1       5.780  -3.481   3.725  0.00  0.00    -0.082 A 
ATOM      9  C7  UNL d   1       5.999  -3.424   2.328  0.00  0.00     0.045 A 
ENDROOT
TORSDOF 0
ENDMDL
