MODEL 1
REMARK minimizedAffinity 12.3950357
REMARK minimizedRMSD -1
REMARK  0 active torsions:
REMARK  status: ('A' for Active; 'I' for Inactive)
ROOT
ATOM      1  C   UNL d   1      -1.872  -1.006  -5.467  0.00  0.00    -0.002 A 
ATOM      2  C1  UNL d   1      -2.857  -1.847  -4.969  0.00  0.00     0.010 A 
ATOM      3  C2  UNL d   1      -4.114  -1.345  -4.626  0.00  0.00     0.041 A 
ATOM      4  C3  UNL d   1      -4.368   0.030  -4.796  0.00  0.00    -0.075 A 
ATOM      5  S   UNL d   1      -5.833   0.867  -4.444  0.00  0.00     0.015 SA
ATOM      6  C4  UNL d   1      -5.188   2.362  -4.949  0.00  0.00     0.022 A 
ATOM      7  C5  UNL d   1      -3.887   2.243  -5.377  0.00  0.00     0.026 A 
ATOM      8  C6  UNL d   1      -3.393   0.897  -5.297  0.00  0.00    -0.082 A 
ATOM      9  C7  UNL d   1      -2.128   0.358  -5.634  0.00  0.00     0.045 A 
ENDROOT
TORSDOF 0
ENDMDL
