MODEL 1
REMARK minimizedAffinity -3.65835905
REMARK minimizedRMSD -1
REMARK  0 active torsions:
REMARK  status: ('A' for Active; 'I' for Inactive)
ROOT
ATOM      1  C   UNL d   1      -3.754  -1.819  -2.982  0.00  0.00    -0.002 A 
ATOM      2  C1  UNL d   1      -3.435  -1.917  -4.329  0.00  0.00     0.010 A 
ATOM      3  C2  UNL d   1      -2.837  -0.846  -4.997  0.00  0.00     0.041 A 
ATOM      4  C3  UNL d   1      -2.561   0.335  -4.280  0.00  0.00    -0.075 A 
ATOM      5  S   UNL d   1      -1.832   1.774  -4.890  0.00  0.00     0.015 SA
ATOM      6  C4  UNL d   1      -1.926   2.552  -3.377  0.00  0.00     0.022 A 
ATOM      7  C5  UNL d   1      -2.497   1.748  -2.418  0.00  0.00     0.026 A 
ATOM      8  C6  UNL d   1      -2.872   0.457  -2.923  0.00  0.00    -0.082 A 
ATOM      9  C7  UNL d   1      -3.478  -0.645  -2.275  0.00  0.00     0.045 A 
ENDROOT
TORSDOF 0
ENDMDL
