MODEL 1
REMARK minimizedAffinity 4.37073135
REMARK minimizedRMSD -1
REMARK  0 active torsions:
REMARK  status: ('A' for Active; 'I' for Inactive)
ROOT
ATOM      1  C   UNL d   1      -0.842   3.148  -5.962  0.00  0.00    -0.002 A 
ATOM      2  C1  UNL d   1      -0.585   4.511  -5.999  0.00  0.00     0.010 A 
ATOM      3  C2  UNL d   1      -1.624   5.434  -5.862  0.00  0.00     0.041 A 
ATOM      4  C3  UNL d   1      -2.938   4.959  -5.683  0.00  0.00    -0.075 A 
ATOM      5  S   UNL d   1      -4.368   5.903  -5.493  0.00  0.00     0.015 SA
ATOM      6  C4  UNL d   1      -5.354   4.519  -5.357  0.00  0.00     0.022 A 
ATOM      7  C5  UNL d   1      -4.626   3.357  -5.453  0.00  0.00     0.026 A 
ATOM      8  C6  UNL d   1      -3.222   3.591  -5.642  0.00  0.00    -0.082 A 
ATOM      9  C7  UNL d   1      -2.147   2.680  -5.785  0.00  0.00     0.045 A 
ENDROOT
TORSDOF 0
ENDMDL
