MODEL 1
REMARK minimizedAffinity 4.32736349
REMARK minimizedRMSD -1
REMARK  0 active torsions:
REMARK  status: ('A' for Active; 'I' for Inactive)
ROOT
ATOM      1  C   UNL d   1      -4.994   1.570  -5.988  0.00  0.00    -0.002 A 
ATOM      2  C1  UNL d   1      -6.000   1.438  -5.040  0.00  0.00     0.010 A 
ATOM      3  C2  UNL d   1      -5.948   0.420  -4.086  0.00  0.00     0.041 A 
ATOM      4  C3  UNL d   1      -4.857  -0.472  -4.099  0.00  0.00    -0.075 A 
ATOM      5  S   UNL d   1      -4.582  -1.794  -3.028  0.00  0.00     0.015 SA
ATOM      6  C4  UNL d   1      -3.123  -2.215  -3.802  0.00  0.00     0.022 A 
ATOM      7  C5  UNL d   1      -2.837  -1.378  -4.854  0.00  0.00     0.026 A 
ATOM      8  C6  UNL d   1      -3.832  -0.359  -5.043  0.00  0.00    -0.082 A 
ATOM      9  C7  UNL d   1      -3.914   0.683  -5.998  0.00  0.00     0.045 A 
ENDROOT
TORSDOF 0
ENDMDL
