MODEL 1
REMARK minimizedAffinity 0.468272179
REMARK minimizedRMSD -1
REMARK  0 active torsions:
REMARK  status: ('A' for Active; 'I' for Inactive)
ROOT
ATOM      1  C   UNL d   1       4.771  -3.724   1.549  0.00  0.00    -0.002 A 
ATOM      2  C1  UNL d   1       4.366  -4.921   2.125  0.00  0.00     0.010 A 
ATOM      3  C2  UNL d   1       4.503  -5.130   3.499  0.00  0.00     0.041 A 
ATOM      4  C3  UNL d   1       5.057  -4.106   4.292  0.00  0.00    -0.075 A 
ATOM      5  S   UNL d   1       5.319  -4.138   5.996  0.00  0.00     0.015 SA
ATOM      6  C4  UNL d   1       5.974  -2.565   6.000  0.00  0.00     0.022 A 
ATOM      7  C5  UNL d   1       6.000  -2.013   4.740  0.00  0.00     0.026 A 
ATOM      8  C6  UNL d   1       5.471  -2.892   3.736  0.00  0.00    -0.082 A 
ATOM      9  C7  UNL d   1       5.320  -2.711   2.340  0.00  0.00     0.045 A 
ENDROOT
TORSDOF 0
ENDMDL
