MODEL 1
REMARK minimizedAffinity 13.7994747
REMARK minimizedRMSD -1
REMARK  0 active torsions:
REMARK  status: ('A' for Active; 'I' for Inactive)
ROOT
ATOM      1  C   UNL d   1      -1.996  -0.902  -5.487  0.00  0.00    -0.002 A 
ATOM      2  C1  UNL d   1      -2.753  -1.632  -4.581  0.00  0.00     0.010 A 
ATOM      3  C2  UNL d   1      -4.004  -1.170  -4.167  0.00  0.00     0.041 A 
ATOM      4  C3  UNL d   1      -4.487   0.047  -4.685  0.00  0.00    -0.075 A 
ATOM      5  S   UNL d   1      -5.991   0.808  -4.323  0.00  0.00     0.015 SA
ATOM      6  C4  UNL d   1      -5.665   2.118  -5.362  0.00  0.00     0.022 A 
ATOM      7  C5  UNL d   1      -4.442   1.995  -5.979  0.00  0.00     0.026 A 
ATOM      8  C6  UNL d   1      -3.743   0.799  -5.599  0.00  0.00    -0.082 A 
ATOM      9  C7  UNL d   1      -2.478   0.305  -5.999  0.00  0.00     0.045 A 
ENDROOT
TORSDOF 0
ENDMDL
