MODEL 1
REMARK minimizedAffinity 4.28050184
REMARK minimizedRMSD -1
REMARK  0 active torsions:
REMARK  status: ('A' for Active; 'I' for Inactive)
ROOT
ATOM      1  C   UNL d   1       2.973  -1.219   3.842  0.00  0.00     0.020 A 
ATOM      2  C1  UNL d   1       3.852  -1.869   2.977  0.00  0.00     0.020 A 
ATOM      3  C2  UNL d   1       3.524  -2.014   1.627  0.00  0.00     0.034 A 
ATOM      4  C3  UNL d   1       2.313  -1.509   1.139  0.00  0.00     0.017 A 
ATOM      5  C4  UNL d   1       1.432  -0.856   2.008  0.00  0.00     0.017 A 
ATOM      6  C5  UNL d   1       1.765  -0.714   3.358  0.00  0.00     0.034 A 
ATOM      7 Cl   UNL d   1      -0.080  -0.206   1.479  0.00  0.00    -0.070 Cl
ATOM      8 Cl1  UNL d   1       1.973  -1.723  -0.542  0.00  0.00    -0.070 Cl
ENDROOT
TORSDOF 0
ENDMDL
