MODEL 1
REMARK minimizedAffinity 9.1108408
REMARK minimizedRMSD -1
REMARK  0 active torsions:
REMARK  status: ('A' for Active; 'I' for Inactive)
ROOT
ATOM      1  C   UNL d   1      -5.492   2.801   2.977  0.00  0.00     0.020 A 
ATOM      2  C1  UNL d   1      -4.181   2.326   2.951  0.00  0.00     0.020 A 
ATOM      3  C2  UNL d   1      -3.378   2.554   1.832  0.00  0.00     0.034 A 
ATOM      4  C3  UNL d   1      -3.884   3.260   0.734  0.00  0.00     0.017 A 
ATOM      5  C4  UNL d   1      -5.200   3.737   0.762  0.00  0.00     0.017 A 
ATOM      6  C5  UNL d   1      -6.000   3.505   1.885  0.00  0.00     0.034 A 
ATOM      7 Cl   UNL d   1      -5.895   4.616  -0.554  0.00  0.00    -0.070 Cl
ATOM      8 Cl1  UNL d   1      -2.835   3.506  -0.616  0.00  0.00    -0.070 Cl
ENDROOT
TORSDOF 0
ENDMDL
