MODEL 1
REMARK minimizedAffinity 7.02270746
REMARK minimizedRMSD -1
REMARK  0 active torsions:
REMARK  status: ('A' for Active; 'I' for Inactive)
ROOT
ATOM      1  C   UNL d   1       2.488  -3.831   4.743  0.00  0.00     0.020 A 
ATOM      2  C1  UNL d   1       1.400  -3.022   4.413  0.00  0.00     0.020 A 
ATOM      3  C2  UNL d   1       1.603  -1.830   3.714  0.00  0.00     0.034 A 
ATOM      4  C3  UNL d   1       2.896  -1.443   3.342  0.00  0.00     0.017 A 
ATOM      5  C4  UNL d   1       3.986  -2.255   3.673  0.00  0.00     0.017 A 
ATOM      6  C5  UNL d   1       3.778  -3.448   4.373  0.00  0.00     0.034 A 
ATOM      7 Cl   UNL d   1       5.611  -1.844   3.249  0.00  0.00    -0.070 Cl
ATOM      8 Cl1  UNL d   1       3.072   0.043   2.479  0.00  0.00    -0.070 Cl
ENDROOT
TORSDOF 0
ENDMDL
