MODEL 1
REMARK minimizedAffinity 1.74123204
REMARK minimizedRMSD -1
REMARK  0 active torsions:
REMARK  status: ('A' for Active; 'I' for Inactive)
ROOT
ATOM      1  C   UNL d   1       2.626  -0.741   3.804  0.00  0.00     0.020 A 
ATOM      2  C1  UNL d   1       2.480  -1.205   2.497  0.00  0.00     0.020 A 
ATOM      3  C2  UNL d   1       2.331  -2.573   2.255  0.00  0.00     0.034 A 
ATOM      4  C3  UNL d   1       2.328  -3.480   3.320  0.00  0.00     0.017 A 
ATOM      5  C4  UNL d   1       2.475  -3.013   4.631  0.00  0.00     0.017 A 
ATOM      6  C5  UNL d   1       2.623  -1.643   4.868  0.00  0.00     0.034 A 
ATOM      7 Cl   UNL d   1       2.481  -4.072   5.998  0.00  0.00    -0.070 Cl
ATOM      8 Cl1  UNL d   1       2.140  -5.157   2.947  0.00  0.00    -0.070 Cl
ENDROOT
TORSDOF 0
ENDMDL
