MODEL 1
REMARK minimizedAffinity 3.79301167
REMARK minimizedRMSD -1
REMARK  0 active torsions:
REMARK  status: ('A' for Active; 'I' for Inactive)
ROOT
ATOM      1  C   UNL d   1       2.258  -0.716   2.185  0.00  0.00     0.020 A 
ATOM      2  C1  UNL d   1       3.610  -0.815   2.510  0.00  0.00     0.020 A 
ATOM      3  C2  UNL d   1       4.055  -1.846   3.340  0.00  0.00     0.034 A 
ATOM      4  C3  UNL d   1       3.146  -2.782   3.849  0.00  0.00     0.017 A 
ATOM      5  C4  UNL d   1       1.789  -2.681   3.521  0.00  0.00     0.017 A 
ATOM      6  C5  UNL d   1       1.349  -1.647   2.689  0.00  0.00     0.034 A 
ATOM      7 Cl   UNL d   1       0.609  -3.799   4.110  0.00  0.00    -0.070 Cl
ATOM      8 Cl1  UNL d   1       3.766  -4.030   4.869  0.00  0.00    -0.070 Cl
ENDROOT
TORSDOF 0
ENDMDL
