MODEL 1
REMARK minimizedAffinity 10.4968634
REMARK minimizedRMSD -1
REMARK  0 active torsions:
REMARK  status: ('A' for Active; 'I' for Inactive)
ROOT
ATOM      1  C   UNL d   1       1.980  -0.903   4.359  0.00  0.00     0.020 A 
ATOM      2  C1  UNL d   1       2.117  -1.413   3.069  0.00  0.00     0.020 A 
ATOM      3  C2  UNL d   1       2.500  -0.571   2.023  0.00  0.00     0.034 A 
ATOM      4  C3  UNL d   1       2.746   0.785   2.265  0.00  0.00     0.017 A 
ATOM      5  C4  UNL d   1       2.609   1.296   3.560  0.00  0.00     0.017 A 
ATOM      6  C5  UNL d   1       2.225   0.449   4.604  0.00  0.00     0.034 A 
ATOM      7 Cl   UNL d   1       2.896   2.958   3.936  0.00  0.00    -0.070 Cl
ATOM      8 Cl1  UNL d   1       3.217   1.768   0.923  0.00  0.00    -0.070 Cl
ENDROOT
TORSDOF 0
ENDMDL
