MODEL 1
REMARK minimizedAffinity 13.5091896
REMARK minimizedRMSD -1
REMARK  0 active torsions:
REMARK  status: ('A' for Active; 'I' for Inactive)
ROOT
ATOM      1  C   UNL d   1      -5.937   3.520   0.863  0.00  0.00     0.020 A 
ATOM      2  C1  UNL d   1      -5.999   2.133   0.735  0.00  0.00     0.020 A 
ATOM      3  C2  UNL d   1      -5.967   1.325   1.874  0.00  0.00     0.034 A 
ATOM      4  C3  UNL d   1      -5.871   1.904   3.145  0.00  0.00     0.017 A 
ATOM      5  C4  UNL d   1      -5.808   3.296   3.272  0.00  0.00     0.017 A 
ATOM      6  C5  UNL d   1      -5.841   4.100   2.128  0.00  0.00     0.034 A 
ATOM      7 Cl   UNL d   1      -5.689   4.082   4.806  0.00  0.00    -0.070 Cl
ATOM      8 Cl1  UNL d   1      -5.836   0.844   4.509  0.00  0.00    -0.070 Cl
ENDROOT
TORSDOF 0
ENDMDL
