MODEL 1
REMARK minimizedAffinity 8.14757824
REMARK minimizedRMSD -1
REMARK  0 active torsions:
REMARK  status: ('A' for Active; 'I' for Inactive)
ROOT
ATOM      1  C   UNL d   1       1.805  -0.176   2.098  0.00  0.00     0.020 A 
ATOM      2  C1  UNL d   1       2.374  -0.956   1.091  0.00  0.00     0.020 A 
ATOM      3  C2  UNL d   1       2.717  -2.285   1.347  0.00  0.00     0.034 A 
ATOM      4  C3  UNL d   1       2.493  -2.839   2.613  0.00  0.00     0.017 A 
ATOM      5  C4  UNL d   1       1.922  -2.056   3.623  0.00  0.00     0.017 A 
ATOM      6  C5  UNL d   1       1.580  -0.725   3.361  0.00  0.00     0.034 A 
ATOM      7 Cl   UNL d   1       1.614  -2.669   5.209  0.00  0.00    -0.070 Cl
ATOM      8 Cl1  UNL d   1       2.941  -4.489   2.859  0.00  0.00    -0.070 Cl
ENDROOT
TORSDOF 0
ENDMDL
