MODEL 1
REMARK minimizedAffinity 11.9098577
REMARK minimizedRMSD -1
REMARK  0 active torsions:
REMARK  status: ('A' for Active; 'I' for Inactive)
ROOT
ATOM      1  C   UNL d   1      -5.620   2.627   2.916  0.00  0.00     0.020 A 
ATOM      2  C1  UNL d   1      -4.290   2.224   3.022  0.00  0.00     0.020 A 
ATOM      3  C2  UNL d   1      -3.338   2.716   2.126  0.00  0.00     0.034 A 
ATOM      4  C3  UNL d   1      -3.715   3.614   1.121  0.00  0.00     0.017 A 
ATOM      5  C4  UNL d   1      -5.051   4.018   1.016  0.00  0.00     0.017 A 
ATOM      6  C5  UNL d   1      -6.000   3.523   1.916  0.00  0.00     0.034 A 
ATOM      7 Cl   UNL d   1      -5.593   5.123  -0.198  0.00  0.00    -0.070 Cl
ATOM      8 Cl1  UNL d   1      -2.486   4.183   0.048  0.00  0.00    -0.070 Cl
ENDROOT
TORSDOF 0
ENDMDL
