MODEL 1
REMARK minimizedAffinity -1.41399324
REMARK minimizedRMSD -1
REMARK  0 active torsions:
REMARK  status: ('A' for Active; 'I' for Inactive)
ROOT
ATOM      1  C1  BNZ d   1       1.869  -0.431   0.129  0.00  0.00     0.000 A 
ATOM      2  C2  BNZ d   1       1.010  -1.497   0.124  0.00  0.00     0.000 A 
ATOM      3  C3  BNZ d   1       1.315  -2.645   0.802  0.00  0.00     0.000 A 
ATOM      4  C4  BNZ d   1       2.495  -2.739   1.448  0.00  0.00     0.000 A 
ATOM      5  C5  BNZ d   1       3.376  -1.676   1.454  0.00  0.00     0.000 A 
ATOM      6  C6  BNZ d   1       3.048  -0.509   0.804  0.00  0.00     0.000 A 
ENDROOT
TORSDOF 0
ENDMDL
