MODEL 1
REMARK minimizedAffinity -0.0407606438
REMARK minimizedRMSD -1
REMARK  0 active torsions:
REMARK  status: ('A' for Active; 'I' for Inactive)
ROOT
ATOM      1  C1  BNZ d   1      -0.028   2.376  -2.492  0.00  0.00     0.000 A 
ATOM      2  C2  BNZ d   1      -1.289   2.005  -2.111  0.00  0.00     0.000 A 
ATOM      3  C3  BNZ d   1      -2.382   2.714  -2.523  0.00  0.00     0.000 A 
ATOM      4  C4  BNZ d   1      -2.210   3.816  -3.282  0.00  0.00     0.000 A 
ATOM      5  C5  BNZ d   1      -0.944   4.208  -3.667  0.00  0.00     0.000 A 
ATOM      6  C6  BNZ d   1       0.151   3.470  -3.282  0.00  0.00     0.000 A 
ENDROOT
TORSDOF 0
ENDMDL
