MODEL 1
REMARK minimizedAffinity -0.501069605
REMARK minimizedRMSD -1
REMARK  0 active torsions:
REMARK  status: ('A' for Active; 'I' for Inactive)
ROOT
ATOM      1  C1  BNZ d   1      -0.077   1.451  -4.746  0.00  0.00     0.000 A 
ATOM      2  C2  BNZ d   1      -0.801   1.386  -3.585  0.00  0.00     0.000 A 
ATOM      3  C3  BNZ d   1      -0.624   2.312  -2.596  0.00  0.00     0.000 A 
ATOM      4  C4  BNZ d   1       0.305   3.278  -2.751  0.00  0.00     0.000 A 
ATOM      5  C5  BNZ d   1       1.050   3.352  -3.911  0.00  0.00     0.000 A 
ATOM      6  C6  BNZ d   1       0.841   2.441  -4.921  0.00  0.00     0.000 A 
ENDROOT
TORSDOF 0
ENDMDL
