MODEL 1
REMARK minimizedAffinity 1.64511132
REMARK minimizedRMSD -1
REMARK  0 active torsions:
REMARK  status: ('A' for Active; 'I' for Inactive)
ROOT
ATOM      1  C1  BNZ d   1       1.682  -3.051   1.131  0.00  0.00     0.000 A 
ATOM      2  C2  BNZ d   1       1.008  -2.934   2.317  0.00  0.00     0.000 A 
ATOM      3  C3  BNZ d   1       0.213  -1.851   2.567  0.00  0.00     0.000 A 
ATOM      4  C4  BNZ d   1       0.124  -0.868   1.648  0.00  0.00     0.000 A 
ATOM      5  C5  BNZ d   1       0.805  -0.966   0.451  0.00  0.00     0.000 A 
ATOM      6  C6  BNZ d   1       1.574  -2.077   0.187  0.00  0.00     0.000 A 
ENDROOT
TORSDOF 0
ENDMDL
