MODEL 1
REMARK minimizedAffinity 2.53638434
REMARK minimizedRMSD -1
REMARK  0 active torsions:
REMARK  status: ('A' for Active; 'I' for Inactive)
ROOT
ATOM      1  C1  BNZ d   1       1.460  -1.338   0.386  0.00  0.00     0.000 A 
ATOM      2  C2  BNZ d   1       2.319  -2.346   0.038  0.00  0.00     0.000 A 
ATOM      3  C3  BNZ d   1       2.524  -3.410   0.871  0.00  0.00     0.000 A 
ATOM      4  C4  BNZ d   1       1.901  -3.445   2.067  0.00  0.00     0.000 A 
ATOM      5  C5  BNZ d   1       1.039  -2.432   2.437  0.00  0.00     0.000 A 
ATOM      6  C6  BNZ d   1       0.805  -1.382   1.579  0.00  0.00     0.000 A 
ENDROOT
TORSDOF 0
ENDMDL
