MODEL 1
REMARK minimizedAffinity 1.22177076
REMARK minimizedRMSD -1
REMARK  0 active torsions:
REMARK  status: ('A' for Active; 'I' for Inactive)
ROOT
ATOM      1  C1  BNZ d   1       2.488  -2.107  -0.053  0.00  0.00     0.000 A 
ATOM      2  C2  BNZ d   1       1.850  -1.172   0.718  0.00  0.00     0.000 A 
ATOM      3  C3  BNZ d   1       1.069  -1.551   1.774  0.00  0.00     0.000 A 
ATOM      4  C4  BNZ d   1       0.894  -2.863   2.032  0.00  0.00     0.000 A 
ATOM      5  C5  BNZ d   1       1.522  -3.818   1.258  0.00  0.00     0.000 A 
ATOM      6  C6  BNZ d   1       2.339  -3.432   0.220  0.00  0.00     0.000 A 
ENDROOT
TORSDOF 0
ENDMDL
