MODEL 1
REMARK minimizedAffinity 1.06868565
REMARK minimizedRMSD -1
REMARK  0 active torsions:
REMARK  status: ('A' for Active; 'I' for Inactive)
ROOT
ATOM      1  C1  BNZ d   1      -0.196   2.363  -3.101  0.00  0.00     0.000 A 
ATOM      2  C2  BNZ d   1       0.713   3.387  -3.097  0.00  0.00     0.000 A 
ATOM      3  C3  BNZ d   1       1.443   3.678  -4.216  0.00  0.00     0.000 A 
ATOM      4  C4  BNZ d   1       1.292   2.921  -5.322  0.00  0.00     0.000 A 
ATOM      5  C5  BNZ d   1       0.386   1.880  -5.338  0.00  0.00     0.000 A 
ATOM      6  C6  BNZ d   1      -0.375   1.614  -4.222  0.00  0.00     0.000 A 
ENDROOT
TORSDOF 0
ENDMDL
