MODEL 1
REMARK minimizedAffinity 1.68665338
REMARK minimizedRMSD -1
REMARK  0 active torsions:
REMARK  status: ('A' for Active; 'I' for Inactive)
ROOT
ATOM      1  C1  BNZ d   1       4.880   2.061   0.922  0.00  0.00     0.000 A 
ATOM      2  C2  BNZ d   1       5.999   1.494   0.373  0.00  0.00     0.000 A 
ATOM      3  C3  BNZ d   1       5.999   0.185  -0.021  0.00  0.00     0.000 A 
ATOM      4  C4  BNZ d   1       4.895  -0.565   0.170  0.00  0.00     0.000 A 
ATOM      5  C5  BNZ d   1       3.762  -0.011   0.731  0.00  0.00     0.000 A 
ATOM      6  C6  BNZ d   1       3.753   1.317   1.091  0.00  0.00     0.000 A 
ENDROOT
TORSDOF 0
ENDMDL
