MODEL 1
REMARK minimizedAffinity 0.259546757
REMARK minimizedRMSD -1
REMARK  0 active torsions:
REMARK  status: ('A' for Active; 'I' for Inactive)
ROOT
ATOM      1  O1  BZF d   1      -4.687   4.698  -6.000  0.00  0.00    -0.204 OA
ATOM      2  C2  BZF d   1      -4.274   5.984  -5.710  0.00  0.00     0.174 A 
ATOM      3  C3  BZF d   1      -2.985   5.994  -5.312  0.00  0.00    -0.012 A 
ATOM      4  C3A BZF d   1      -2.540   4.641  -5.445  0.00  0.00    -0.107 A 
ATOM      5  C4  BZF d   1      -1.346   4.019  -5.218  0.00  0.00     0.055 A 
ATOM      6  C5  BZF d   1      -1.262   2.672  -5.375  0.00  0.00    -0.016 A 
ATOM      7  C6  BZF d   1      -2.352   1.916  -5.754  0.00  0.00     0.022 A 
ATOM      8  C7  BZF d   1      -3.557   2.489  -5.995  0.00  0.00     0.029 A 
ATOM      9  C7A BZF d   1      -3.636   3.854  -5.869  0.00  0.00     0.058 A 
ENDROOT
TORSDOF 0
ENDMDL
