MODEL 1
REMARK minimizedAffinity -0.0484086387
REMARK minimizedRMSD -1
REMARK  0 active torsions:
REMARK  status: ('A' for Active; 'I' for Inactive)
ROOT
ATOM      1  O1  BZF d   1       0.623  -0.985   0.465  0.00  0.00    -0.204 OA
ATOM      2  C2  BZF d   1       1.949  -0.635   0.299  0.00  0.00     0.174 A 
ATOM      3  C3  BZF d   1       2.105   0.702   0.379  0.00  0.00    -0.012 A 
ATOM      4  C3A BZF d   1       0.808   1.213   0.702  0.00  0.00    -0.107 A 
ATOM      5  C4  BZF d   1       0.324   2.470   0.928  0.00  0.00     0.055 A 
ATOM      6  C5  BZF d   1      -1.007   2.636   1.148  0.00  0.00    -0.016 A 
ATOM      7  C6  BZF d   1      -1.882   1.569   1.142  0.00  0.00     0.022 A 
ATOM      8  C7  BZF d   1      -1.448   0.303   0.927  0.00  0.00     0.029 A 
ATOM      9  C7A BZF d   1      -0.098   0.129   0.738  0.00  0.00     0.058 A 
ENDROOT
TORSDOF 0
ENDMDL
