MODEL 1
REMARK minimizedAffinity -0.809533238
REMARK minimizedRMSD -1
REMARK  0 active torsions:
REMARK  status: ('A' for Active; 'I' for Inactive)
ROOT
ATOM      1  O1  BZF d   1      -0.266   0.890   1.356  0.00  0.00    -0.204 OA
ATOM      2  C2  BZF d   1      -1.501   0.736   0.756  0.00  0.00     0.174 A 
ATOM      3  C3  BZF d   1      -1.363   0.372  -0.535  0.00  0.00    -0.012 A 
ATOM      4  C3A BZF d   1       0.045   0.204  -0.731  0.00  0.00    -0.107 A 
ATOM      5  C4  BZF d   1       0.806  -0.166  -1.803  0.00  0.00     0.055 A 
ATOM      6  C5  BZF d   1       2.160  -0.161  -1.684  0.00  0.00    -0.016 A 
ATOM      7  C6  BZF d   1       2.785   0.212  -0.512  0.00  0.00     0.022 A 
ATOM      8  C7  BZF d   1       2.071   0.582   0.579  0.00  0.00     0.029 A 
ATOM      9  C7A BZF d   1       0.702   0.547   0.473  0.00  0.00     0.058 A 
ENDROOT
TORSDOF 0
ENDMDL
