MODEL 1
REMARK minimizedAffinity 1.9293586
REMARK minimizedRMSD -1
REMARK  0 active torsions:
REMARK  status: ('A' for Active; 'I' for Inactive)
ROOT
ATOM      1  O1  BZF d   1       2.656   1.316   1.331  0.00  0.00    -0.204 OA
ATOM      2  C2  BZF d   1       2.915   2.529   1.940  0.00  0.00     0.174 A 
ATOM      3  C3  BZF d   1       1.806   3.295   1.971  0.00  0.00    -0.012 A 
ATOM      4  C3A BZF d   1       0.767   2.476   1.426  0.00  0.00    -0.107 A 
ATOM      5  C4  BZF d   1      -0.567   2.673   1.209  0.00  0.00     0.055 A 
ATOM      6  C5  BZF d   1      -1.286   1.699   0.592  0.00  0.00    -0.016 A 
ATOM      7  C6  BZF d   1      -0.704   0.520   0.175  0.00  0.00     0.022 A 
ATOM      8  C7  BZF d   1       0.615   0.277   0.373  0.00  0.00     0.029 A 
ATOM      9  C7A BZF d   1       1.338   1.246   1.026  0.00  0.00     0.058 A 
ENDROOT
TORSDOF 0
ENDMDL
