MODEL 1
REMARK minimizedAffinity -1.29795885
REMARK minimizedRMSD -1
REMARK  0 active torsions:
REMARK  status: ('A' for Active; 'I' for Inactive)
ROOT
ATOM      1  O1  BZF d   1       0.674  -1.008   0.791  0.00  0.00    -0.204 OA
ATOM      2  C2  BZF d   1       1.857  -0.305   0.664  0.00  0.00     0.174 A 
ATOM      3  C3  BZF d   1       1.622   1.022   0.606  0.00  0.00    -0.012 A 
ATOM      4  C3A BZF d   1       0.211   1.162   0.795  0.00  0.00    -0.107 A 
ATOM      5  C4  BZF d   1      -0.626   2.240   0.854  0.00  0.00     0.055 A 
ATOM      6  C5  BZF d   1      -1.964   2.032   0.976  0.00  0.00    -0.016 A 
ATOM      7  C6  BZF d   1      -2.498   0.761   1.037  0.00  0.00     0.022 A 
ATOM      8  C7  BZF d   1      -1.708  -0.338   0.988  0.00  0.00     0.029 A 
ATOM      9  C7A BZF d   1      -0.353  -0.131   0.897  0.00  0.00     0.058 A 
ENDROOT
TORSDOF 0
ENDMDL
