MODEL 1
REMARK minimizedAffinity 4.21242571
REMARK minimizedRMSD -1
REMARK  0 active torsions:
REMARK  status: ('A' for Active; 'I' for Inactive)
ROOT
ATOM      1  O1  BZF d   1      -4.537   5.930  -5.965  0.00  0.00    -0.204 OA
ATOM      2  C2  BZF d   1      -5.582   5.027  -5.960  0.00  0.00     0.174 A 
ATOM      3  C3  BZF d   1      -5.120   3.760  -5.982  0.00  0.00    -0.012 A 
ATOM      4  C3A BZF d   1      -3.696   3.877  -5.909  0.00  0.00    -0.107 A 
ATOM      5  C4  BZF d   1      -2.679   2.966  -5.877  0.00  0.00     0.055 A 
ATOM      6  C5  BZF d   1      -1.395   3.410  -5.879  0.00  0.00    -0.016 A 
ATOM      7  C6  BZF d   1      -1.091   4.755  -5.918  0.00  0.00     0.022 A 
ATOM      8  C7  BZF d   1      -2.066   5.696  -5.945  0.00  0.00     0.029 A 
ATOM      9  C7A BZF d   1      -3.365   5.252  -5.910  0.00  0.00     0.058 A 
ENDROOT
TORSDOF 0
ENDMDL
