MODEL 1
REMARK minimizedAffinity 1.24529421
REMARK minimizedRMSD -1
REMARK  0 active torsions:
REMARK  status: ('A' for Active; 'I' for Inactive)
ROOT
ATOM      1  O1  BZF d   1      -2.070   2.270   1.362  0.00  0.00    -0.204 OA
ATOM      2  C2  BZF d   1      -2.675   1.095   0.961  0.00  0.00     0.174 A 
ATOM      3  C3  BZF d   1      -1.751   0.181   0.598  0.00  0.00    -0.012 A 
ATOM      4  C3A BZF d   1      -0.488   0.793   0.873  0.00  0.00    -0.107 A 
ATOM      5  C4  BZF d   1       0.806   0.377   0.738  0.00  0.00     0.055 A 
ATOM      6  C5  BZF d   1       1.812   1.244   1.028  0.00  0.00    -0.016 A 
ATOM      7  C6  BZF d   1       1.561   2.534   1.448  0.00  0.00     0.022 A 
ATOM      8  C7  BZF d   1       0.294   2.990   1.601  0.00  0.00     0.029 A 
ATOM      9  C7A BZF d   1      -0.725   2.106   1.341  0.00  0.00     0.058 A 
ENDROOT
TORSDOF 0
ENDMDL
