MODEL 1
REMARK minimizedAffinity 4.0436058
REMARK minimizedRMSD -1
REMARK  0 active torsions:
REMARK  status: ('A' for Active; 'I' for Inactive)
ROOT
ATOM      1  O1  BZF d   1      -1.247   3.395   0.540  0.00  0.00    -0.204 OA
ATOM      2  C2  BZF d   1       0.126   3.393   0.690  0.00  0.00     0.174 A 
ATOM      3  C3  BZF d   1       0.573   2.155   0.985  0.00  0.00    -0.012 A 
ATOM      4  C3A BZF d   1      -0.583   1.314   0.931  0.00  0.00    -0.107 A 
ATOM      5  C4  BZF d   1      -0.781  -0.024   1.116  0.00  0.00     0.055 A 
ATOM      6  C5  BZF d   1      -2.046  -0.518   1.065  0.00  0.00    -0.016 A 
ATOM      7  C6  BZF d   1      -3.135   0.296   0.836  0.00  0.00     0.022 A 
ATOM      8  C7  BZF d   1      -2.988   1.630   0.641  0.00  0.00     0.029 A 
ATOM      9  C7A BZF d   1      -1.708   2.127   0.660  0.00  0.00     0.058 A 
ENDROOT
TORSDOF 0
ENDMDL
