MODEL 1
REMARK minimizedAffinity 2.06732392
REMARK minimizedRMSD -1
REMARK  0 active torsions:
REMARK  status: ('A' for Active; 'I' for Inactive)
ROOT
ATOM      1  O1  BZF d   1      -1.593   5.574  -5.085  0.00  0.00    -0.204 OA
ATOM      2  C2  BZF d   1      -2.897   6.000  -5.243  0.00  0.00     0.174 A 
ATOM      3  C3  BZF d   1      -3.684   4.987  -5.662  0.00  0.00    -0.012 A 
ATOM      4  C3A BZF d   1      -2.835   3.836  -5.684  0.00  0.00    -0.107 A 
ATOM      5  C4  BZF d   1      -3.041   2.523  -6.000  0.00  0.00     0.055 A 
ATOM      6  C5  BZF d   1      -1.985   1.668  -5.989  0.00  0.00    -0.016 A 
ATOM      7  C6  BZF d   1      -0.711   2.091  -5.673  0.00  0.00     0.022 A 
ATOM      8  C7  BZF d   1      -0.458   3.382  -5.348  0.00  0.00     0.029 A 
ATOM      9  C7A BZF d   1      -1.529   4.242  -5.326  0.00  0.00     0.058 A 
ENDROOT
TORSDOF 0
ENDMDL
