MODEL 1
REMARK minimizedAffinity 2.42401385
REMARK minimizedRMSD -1
REMARK  0 active torsions:
REMARK  status: ('A' for Active; 'I' for Inactive)
ROOT
ATOM      1  O1  BZF d   1       0.471  -1.206   0.893  0.00  0.00    -0.204 OA
ATOM      2  C2  BZF d   1       1.724  -0.672   0.659  0.00  0.00     0.174 A 
ATOM      3  C3  BZF d   1       1.661   0.672   0.570  0.00  0.00    -0.012 A 
ATOM      4  C3A BZF d   1       0.299   1.005   0.852  0.00  0.00    -0.107 A 
ATOM      5  C4  BZF d   1      -0.382   2.187   0.930  0.00  0.00     0.055 A 
ATOM      6  C5  BZF d   1      -1.723   2.163   1.153  0.00  0.00    -0.016 A 
ATOM      7  C6  BZF d   1      -2.414   0.977   1.297  0.00  0.00     0.022 A 
ATOM      8  C7  BZF d   1      -1.781  -0.219   1.232  0.00  0.00     0.029 A 
ATOM      9  C7A BZF d   1      -0.421  -0.197   1.040  0.00  0.00     0.058 A 
ENDROOT
TORSDOF 0
ENDMDL
