MODEL 1
REMARK minimizedAffinity -0.587796211
REMARK minimizedRMSD -1
REMARK  0 active torsions:
REMARK  status: ('A' for Active; 'I' for Inactive)
ROOT
ATOM      1  O1  BZF d   1      -5.281   4.699  -5.698  0.00  0.00    -0.204 OA
ATOM      2  C2  BZF d   1      -5.510   3.370  -6.000  0.00  0.00     0.174 A 
ATOM      3  C3  BZF d   1      -4.356   2.672  -5.990  0.00  0.00    -0.012 A 
ATOM      4  C3A BZF d   1      -3.355   3.605  -5.571  0.00  0.00    -0.107 A 
ATOM      5  C4  BZF d   1      -2.011   3.504  -5.353  0.00  0.00     0.055 A 
ATOM      6  C5  BZF d   1      -1.311   4.620  -5.019  0.00  0.00    -0.016 A 
ATOM      7  C6  BZF d   1      -1.921   5.852  -4.900  0.00  0.00     0.022 A 
ATOM      8  C7  BZF d   1      -3.253   6.000  -5.102  0.00  0.00     0.029 A 
ATOM      9  C7A BZF d   1      -3.969   4.868  -5.406  0.00  0.00     0.058 A 
ENDROOT
TORSDOF 0
ENDMDL
