MODEL 1
REMARK minimizedAffinity 2.29500413
REMARK minimizedRMSD -1
REMARK  0 active torsions:
REMARK  status: ('A' for Active; 'I' for Inactive)
ROOT
ATOM      1  O1  BZF d   1       2.763   1.788   1.414  0.00  0.00    -0.204 OA
ATOM      2  C2  BZF d   1       3.077   2.441   2.590  0.00  0.00     0.174 A 
ATOM      3  C3  BZF d   1       1.979   3.008   3.130  0.00  0.00    -0.012 A 
ATOM      4  C3A BZF d   1       0.895   2.612   2.283  0.00  0.00    -0.107 A 
ATOM      5  C4  BZF d   1      -0.450   2.847   2.307  0.00  0.00     0.055 A 
ATOM      6  C5  BZF d   1      -1.221   2.377   1.292  0.00  0.00    -0.016 A 
ATOM      7  C6  BZF d   1      -0.680   1.673   0.235  0.00  0.00     0.022 A 
ATOM      8  C7  BZF d   1       0.648   1.411   0.170  0.00  0.00     0.029 A 
ATOM      9  C7A BZF d   1       1.425   1.856   1.212  0.00  0.00     0.058 A 
ENDROOT
TORSDOF 0
ENDMDL
