MODEL 1
REMARK minimizedAffinity 6.91940117
REMARK minimizedRMSD -1
REMARK  0 active torsions:
REMARK  status: ('A' for Active; 'I' for Inactive)
ROOT
ATOM      1  O1  BZF d   1      -4.207  -3.936  -1.140  0.00  0.00    -0.204 OA
ATOM      2  C2  BZF d   1      -4.460  -5.251  -0.802  0.00  0.00     0.174 A 
ATOM      3  C3  BZF d   1      -3.343  -5.998  -0.917  0.00  0.00    -0.012 A 
ATOM      4  C3A BZF d   1      -2.307  -5.074  -1.264  0.00  0.00    -0.107 A 
ATOM      5  C4  BZF d   1      -0.969  -5.210  -1.499  0.00  0.00     0.055 A 
ATOM      6  C5  BZF d   1      -0.253  -4.122  -1.888  0.00  0.00    -0.016 A 
ATOM      7  C6  BZF d   1      -0.843  -2.887  -2.056  0.00  0.00     0.022 A 
ATOM      8  C7  BZF d   1      -2.167  -2.702  -1.830  0.00  0.00     0.029 A 
ATOM      9  C7A BZF d   1      -2.886  -3.792  -1.405  0.00  0.00     0.058 A 
ENDROOT
TORSDOF 0
ENDMDL
