MODEL 1
REMARK minimizedAffinity 7.90936947
REMARK minimizedRMSD -1
REMARK  0 active torsions:
REMARK  status: ('A' for Active; 'I' for Inactive)
ROOT
ATOM      1  O1  BZF d   1       0.936  -0.099   0.535  0.00  0.00    -0.204 OA
ATOM      2  C2  BZF d   1       1.855   0.888   0.834  0.00  0.00     0.174 A 
ATOM      3  C3  BZF d   1       1.237   2.069   1.040  0.00  0.00    -0.012 A 
ATOM      4  C3A BZF d   1      -0.162   1.783   0.949  0.00  0.00    -0.107 A 
ATOM      5  C4  BZF d   1      -1.287   2.547   1.078  0.00  0.00     0.055 A 
ATOM      6  C5  BZF d   1      -2.501   1.977   0.858  0.00  0.00    -0.016 A 
ATOM      7  C6  BZF d   1      -2.626   0.650   0.503  0.00  0.00     0.022 A 
ATOM      8  C7  BZF d   1      -1.539  -0.149   0.367  0.00  0.00     0.029 A 
ATOM      9  C7A BZF d   1      -0.313   0.416   0.621  0.00  0.00     0.058 A 
ENDROOT
TORSDOF 0
ENDMDL
