MODEL 1
REMARK minimizedAffinity 10.7742615
REMARK minimizedRMSD -1
REMARK  0 active torsions:
REMARK  status: ('A' for Active; 'I' for Inactive)
ROOT
ATOM      1  O1  BZF d   1      -0.304  -0.649   0.615  0.00  0.00    -0.204 OA
ATOM      2  C2  BZF d   1       0.965  -0.105   0.581  0.00  0.00     0.174 A 
ATOM      3  C3  BZF d   1       0.910   1.241   0.643  0.00  0.00    -0.012 A 
ATOM      4  C3A BZF d   1      -0.475   1.554   0.814  0.00  0.00    -0.107 A 
ATOM      5  C4  BZF d   1      -1.163   2.725   0.956  0.00  0.00     0.055 A 
ATOM      6  C5  BZF d   1      -2.519   2.690   1.030  0.00  0.00    -0.016 A 
ATOM      7  C6  BZF d   1      -3.220   1.504   0.960  0.00  0.00     0.022 A 
ATOM      8  C7  BZF d   1      -2.581   0.316   0.824  0.00  0.00     0.029 A 
ATOM      9  C7A BZF d   1      -1.209   0.345   0.782  0.00  0.00     0.058 A 
ENDROOT
TORSDOF 0
ENDMDL
