MODEL 1
REMARK minimizedAffinity 12.333703
REMARK minimizedRMSD -1
REMARK  0 active torsions:
REMARK  status: ('A' for Active; 'I' for Inactive)
ROOT
ATOM      1  O1  BZF d   1       2.032   1.978  -4.538  0.00  0.00    -0.204 OA
ATOM      2  C2  BZF d   1       0.768   2.534  -4.488  0.00  0.00     0.174 A 
ATOM      3  C3  BZF d   1       0.007   1.908  -3.567  0.00  0.00    -0.012 A 
ATOM      4  C3A BZF d   1       0.876   0.959  -2.942  0.00  0.00    -0.107 A 
ATOM      5  C4  BZF d   1       0.706   0.049  -1.938  0.00  0.00     0.055 A 
ATOM      6  C5  BZF d   1       1.735  -0.777  -1.615  0.00  0.00    -0.016 A 
ATOM      7  C6  BZF d   1       2.944  -0.725  -2.276  0.00  0.00     0.022 A 
ATOM      8  C7  BZF d   1       3.162   0.165  -3.276  0.00  0.00     0.029 A 
ATOM      9  C7A BZF d   1       2.135   1.024  -3.583  0.00  0.00     0.058 A 
ENDROOT
TORSDOF 0
ENDMDL
