MODEL 1
REMARK minimizedAffinity 17.8016796
REMARK minimizedRMSD -1
REMARK  0 active torsions:
REMARK  status: ('A' for Active; 'I' for Inactive)
ROOT
ATOM      1  O1  BZF d   1       5.315  -0.374  -3.408  0.00  0.00    -0.204 OA
ATOM      2  C2  BZF d   1       5.997  -1.257  -2.594  0.00  0.00     0.174 A 
ATOM      3  C3  BZF d   1       5.173  -1.791  -1.670  0.00  0.00    -0.012 A 
ATOM      4  C3A BZF d   1       3.875  -1.274  -1.980  0.00  0.00    -0.107 A 
ATOM      5  C4  BZF d   1       2.638  -1.452  -1.430  0.00  0.00     0.055 A 
ATOM      6  C5  BZF d   1       1.588  -0.745  -1.925  0.00  0.00    -0.016 A 
ATOM      7  C6  BZF d   1       1.740   0.149  -2.964  0.00  0.00     0.022 A 
ATOM      8  C7  BZF d   1       2.946   0.355  -3.545  0.00  0.00     0.029 A 
ATOM      9  C7A BZF d   1       4.003  -0.382  -3.069  0.00  0.00     0.058 A 
ENDROOT
TORSDOF 0
ENDMDL
