MODEL 1
REMARK minimizedAffinity -1.19097984
REMARK minimizedRMSD -1
REMARK  1 active torsions:
REMARK  status: ('A' for Active; 'I' for Inactive)
REMARK    1  A    between atoms: N_2  and  C1_3 
ROOT
ATOM      1  C1  UNL d   1      -1.027  -0.168   0.726  0.00  0.00     0.143 A 
ATOM      2  C2  UNL d   1      -0.409  -1.311   0.207  0.00  0.00    -0.057 A 
ATOM      3  C3  UNL d   1       0.510  -1.226  -0.845  0.00  0.00     0.033 A 
ATOM      4  C4  UNL d   1       0.807   0.006  -1.419  0.00  0.00    -0.042 A 
ATOM      5  C5  UNL d   1       0.187   1.153  -0.936  0.00  0.00     0.033 A 
ATOM      6  C6  UNL d   1      -0.725   1.062   0.120  0.00  0.00    -0.057 A 
ENDROOT
BRANCH   1   7
ATOM      7  N   UNL d   1      -2.022  -0.198   1.705  0.00  0.00    -0.732 N 
ATOM      8  C   UNL d   1      -1.905   0.609   2.901  0.00  0.00     0.284 C 
ATOM      9  H3  UNL d   1      -2.958  -0.217   1.307  0.00  0.00     0.395 HD
ENDBRANCH   1   7
TORSDOF 1
ENDMDL
