MODEL 1
REMARK minimizedAffinity -4.44633389
REMARK minimizedRMSD -1
REMARK  1 active torsions:
REMARK  status: ('A' for Active; 'I' for Inactive)
REMARK    1  A    between atoms: N_2  and  C1_3 
ROOT
ATOM      1  C1  UNL d   1      -0.658  -0.204   2.203  0.00  0.00     0.143 A 
ATOM      2  C2  UNL d   1       0.047  -1.400   2.027  0.00  0.00    -0.057 A 
ATOM      3  C3  UNL d   1       0.299  -1.913   0.749  0.00  0.00     0.033 A 
ATOM      4  C4  UNL d   1      -0.176  -1.252  -0.378  0.00  0.00    -0.042 A 
ATOM      5  C5  UNL d   1      -0.901  -0.075  -0.227  0.00  0.00     0.033 A 
ATOM      6  C6  UNL d   1      -1.143   0.436   1.052  0.00  0.00    -0.057 A 
ENDROOT
BRANCH   1   7
ATOM      7  N   UNL d   1      -1.025   0.306   3.451  0.00  0.00    -0.732 N 
ATOM      8  C   UNL d   1      -1.432   1.688   3.591  0.00  0.00     0.284 C 
ATOM      9  H3  UNL d   1      -1.588  -0.349   3.988  0.00  0.00     0.395 HD
ENDBRANCH   1   7
TORSDOF 1
ENDMDL
