MODEL 1
REMARK minimizedAffinity -1.84617257
REMARK minimizedRMSD -1
REMARK  1 active torsions:
REMARK  status: ('A' for Active; 'I' for Inactive)
REMARK    1  A    between atoms: N_2  and  C1_3 
ROOT
ATOM      1  C1  UNL d   1      -0.292  -0.041   0.243  0.00  0.00     0.143 A 
ATOM      2  C2  UNL d   1       0.214   0.850  -0.709  0.00  0.00    -0.057 A 
ATOM      3  C3  UNL d   1       1.261   0.484  -1.563  0.00  0.00     0.033 A 
ATOM      4  C4  UNL d   1       1.843  -0.775  -1.459  0.00  0.00    -0.042 A 
ATOM      5  C5  UNL d   1       1.374  -1.669  -0.502  0.00  0.00     0.033 A 
ATOM      6  C6  UNL d   1       0.323  -1.299   0.343  0.00  0.00    -0.057 A 
ENDROOT
BRANCH   1   7
ATOM      7  N   UNL d   1      -1.265   0.298   1.186  0.00  0.00    -0.732 N 
ATOM      8  C   UNL d   1      -0.891   0.630   2.545  0.00  0.00     0.284 C 
ATOM      9  H3  UNL d   1      -1.991   0.895   0.798  0.00  0.00     0.395 HD
ENDBRANCH   1   7
TORSDOF 1
ENDMDL
