MODEL 1
REMARK minimizedAffinity -3.90231299
REMARK minimizedRMSD -1
REMARK  1 active torsions:
REMARK  status: ('A' for Active; 'I' for Inactive)
REMARK    1  A    between atoms: N_2  and  C1_3 
ROOT
ATOM      1  C1  UNL d   1      -0.024   0.182  -0.660  0.00  0.00     0.143 A 
ATOM      2  C2  UNL d   1       0.541  -1.087  -0.493  0.00  0.00    -0.057 A 
ATOM      3  C3  UNL d   1       1.667  -1.482  -1.225  0.00  0.00     0.033 A 
ATOM      4  C4  UNL d   1       2.233  -0.622  -2.161  0.00  0.00    -0.042 A 
ATOM      5  C5  UNL d   1       1.672   0.634  -2.361  0.00  0.00     0.033 A 
ATOM      6  C6  UNL d   1       0.552   1.026  -1.623  0.00  0.00    -0.057 A 
ENDROOT
BRANCH   1   7
ATOM      7  N   UNL d   1      -1.202   0.597  -0.034  0.00  0.00    -0.732 N 
ATOM      8  C   UNL d   1      -1.327   0.552   1.407  0.00  0.00     0.284 C 
ATOM      9  H3  UNL d   1      -1.593   1.435  -0.459  0.00  0.00     0.395 HD
ENDBRANCH   1   7
TORSDOF 1
ENDMDL
