MODEL 1
REMARK minimizedAffinity -2.56492639
REMARK minimizedRMSD -1
REMARK  1 active torsions:
REMARK  status: ('A' for Active; 'I' for Inactive)
REMARK    1  A    between atoms: N_2  and  C1_3 
ROOT
ATOM      1  C1  UNL d   1      -0.761  -0.237   0.405  0.00  0.00     0.143 A 
ATOM      2  C2  UNL d   1      -0.027   0.683  -0.351  0.00  0.00    -0.057 A 
ATOM      3  C3  UNL d   1       1.076   0.280  -1.113  0.00  0.00     0.033 A 
ATOM      4  C4  UNL d   1       1.485  -1.049  -1.109  0.00  0.00    -0.042 A 
ATOM      5  C5  UNL d   1       0.785  -1.977  -0.344  0.00  0.00     0.033 A 
ATOM      6  C6  UNL d   1      -0.320  -1.570   0.409  0.00  0.00    -0.057 A 
ENDROOT
BRANCH   1   7
ATOM      7  N   UNL d   1      -1.807   0.117   1.260  0.00  0.00    -0.732 N 
ATOM      8  C   UNL d   1      -1.561   0.944   2.423  0.00  0.00     0.284 C 
ATOM      9  H3  UNL d   1      -2.659   0.353   0.755  0.00  0.00     0.395 HD
ENDBRANCH   1   7
TORSDOF 1
ENDMDL
