MODEL 1
REMARK minimizedAffinity -1.92631674
REMARK minimizedRMSD -1
REMARK  1 active torsions:
REMARK  status: ('A' for Active; 'I' for Inactive)
REMARK    1  A    between atoms: N_2  and  C1_3 
ROOT
ATOM      1  C1  UNL d   1       1.577  -0.009  -1.624  0.00  0.00     0.143 A 
ATOM      2  C2  UNL d   1       0.469   0.390  -0.868  0.00  0.00    -0.057 A 
ATOM      3  C3  UNL d   1      -0.105  -0.461   0.084  0.00  0.00     0.033 A 
ATOM      4  C4  UNL d   1       0.401  -1.742   0.277  0.00  0.00    -0.042 A 
ATOM      5  C5  UNL d   1       1.486  -2.169  -0.481  0.00  0.00     0.033 A 
ATOM      6  C6  UNL d   1       2.060  -1.312  -1.425  0.00  0.00    -0.057 A 
ENDROOT
BRANCH   1   7
ATOM      7  N   UNL d   1       2.131   0.754  -2.654  0.00  0.00    -0.732 N 
ATOM      8  C   UNL d   1       1.483   1.967  -3.104  0.00  0.00     0.284 C 
ATOM      9  H3  UNL d   1       3.144   0.825  -2.583  0.00  0.00     0.395 HD
ENDBRANCH   1   7
TORSDOF 1
ENDMDL
