MODEL 1
REMARK minimizedAffinity 0.417423666
REMARK minimizedRMSD -1
REMARK  1 active torsions:
REMARK  status: ('A' for Active; 'I' for Inactive)
REMARK    1  A    between atoms: N_2  and  C1_3 
ROOT
ATOM      1  C1  UNL d   1      -0.162  -0.161   0.155  0.00  0.00     0.143 A 
ATOM      2  C2  UNL d   1      -0.169  -1.448   0.704  0.00  0.00    -0.057 A 
ATOM      3  C3  UNL d   1       0.667  -2.454   0.206  0.00  0.00     0.033 A 
ATOM      4  C4  UNL d   1       1.507  -2.198  -0.873  0.00  0.00    -0.042 A 
ATOM      5  C5  UNL d   1       1.513  -0.934  -1.450  0.00  0.00     0.033 A 
ATOM      6  C6  UNL d   1       0.680   0.069  -0.944  0.00  0.00    -0.057 A 
ENDROOT
BRANCH   1   7
ATOM      7  N   UNL d   1      -1.041   0.854   0.541  0.00  0.00    -0.732 N 
ATOM      8  C   UNL d   1      -1.883   0.696   1.708  0.00  0.00     0.284 C 
ATOM      9  H3  UNL d   1      -0.630   1.780   0.448  0.00  0.00     0.395 HD
ENDBRANCH   1   7
TORSDOF 1
ENDMDL
