MODEL 1
REMARK minimizedAffinity -1.19393218
REMARK minimizedRMSD -1
REMARK  1 active torsions:
REMARK  status: ('A' for Active; 'I' for Inactive)
REMARK    1  A    between atoms: N_2  and  C1_3 
ROOT
ATOM      1  C1  UNL d   1      -0.972   0.154   0.665  0.00  0.00     0.143 A 
ATOM      2  C2  UNL d   1      -0.112   1.045   0.013  0.00  0.00    -0.057 A 
ATOM      3  C3  UNL d   1       0.984   0.585  -0.727  0.00  0.00     0.033 A 
ATOM      4  C4  UNL d   1       1.258  -0.776  -0.804  0.00  0.00    -0.042 A 
ATOM      5  C5  UNL d   1       0.431  -1.678  -0.143  0.00  0.00     0.033 A 
ATOM      6  C6  UNL d   1      -0.666  -1.214   0.589  0.00  0.00    -0.057 A 
ENDROOT
BRANCH   1   7
ATOM      7  N   UNL d   1      -2.020   0.554   1.497  0.00  0.00    -0.732 N 
ATOM      8  C   UNL d   1      -1.798   1.520   2.551  0.00  0.00     0.284 C 
ATOM      9  H3  UNL d   1      -2.891   0.687   0.988  0.00  0.00     0.395 HD
ENDBRANCH   1   7
TORSDOF 1
ENDMDL
