MODEL 1
REMARK minimizedAffinity -3.21610165
REMARK minimizedRMSD -1
REMARK  1 active torsions:
REMARK  status: ('A' for Active; 'I' for Inactive)
REMARK    1  A    between atoms: N_2  and  C1_3 
ROOT
ATOM      1  C1  UNL d   1      -0.318   0.092   0.003  0.00  0.00     0.143 A 
ATOM      2  C2  UNL d   1       0.352  -1.130   0.121  0.00  0.00    -0.057 A 
ATOM      3  C3  UNL d   1       1.430  -1.451  -0.712  0.00  0.00     0.033 A 
ATOM      4  C4  UNL d   1       1.840  -0.564  -1.702  0.00  0.00    -0.042 A 
ATOM      5  C5  UNL d   1       1.173   0.646  -1.855  0.00  0.00     0.033 A 
ATOM      6  C6  UNL d   1       0.101   0.964  -1.015  0.00  0.00    -0.057 A 
ENDROOT
BRANCH   1   7
ATOM      7  N   UNL d   1      -1.459   0.429   0.735  0.00  0.00    -0.732 N 
ATOM      8  C   UNL d   1      -1.345   1.137   1.993  0.00  0.00     0.284 C 
ATOM      9  H3  UNL d   1      -2.220   0.753   0.143  0.00  0.00     0.395 HD
ENDBRANCH   1   7
TORSDOF 1
ENDMDL
