MODEL 1
REMARK minimizedAffinity -3.40873408
REMARK minimizedRMSD -1
REMARK  1 active torsions:
REMARK  status: ('A' for Active; 'I' for Inactive)
REMARK    1  A    between atoms: N_2  and  C1_3 
ROOT
ATOM      1  C1  UNL d   1      -0.301  -0.256  -0.093  0.00  0.00     0.143 A 
ATOM      2  C2  UNL d   1       0.439  -1.425   0.113  0.00  0.00    -0.057 A 
ATOM      3  C3  UNL d   1       1.623  -1.668  -0.594  0.00  0.00     0.033 A 
ATOM      4  C4  UNL d   1       2.073  -0.757  -1.543  0.00  0.00    -0.042 A 
ATOM      5  C5  UNL d   1       1.341   0.401  -1.781  0.00  0.00     0.033 A 
ATOM      6  C6  UNL d   1       0.163   0.641  -1.068  0.00  0.00    -0.057 A 
ENDROOT
BRANCH   1   7
ATOM      7  N   UNL d   1      -1.538  -0.002   0.507  0.00  0.00    -0.732 N 
ATOM      8  C   UNL d   1      -1.612   0.654   1.795  0.00  0.00     0.284 C 
ATOM      9  H3  UNL d   1      -2.236   0.314  -0.162  0.00  0.00     0.395 HD
ENDBRANCH   1   7
TORSDOF 1
ENDMDL
