MODEL 1
REMARK minimizedAffinity -2.90817118
REMARK minimizedRMSD -1
REMARK  1 active torsions:
REMARK  status: ('A' for Active; 'I' for Inactive)
REMARK    1  A    between atoms: N_2  and  C1_3 
ROOT
ATOM      1  C1  UNL d   1       0.675   1.166  -1.935  0.00  0.00     0.143 A 
ATOM      2  C2  UNL d   1       1.508   1.063  -3.054  0.00  0.00    -0.057 A 
ATOM      3  C3  UNL d   1       2.264  -0.092  -3.293  0.00  0.00     0.033 A 
ATOM      4  C4  UNL d   1       2.222  -1.156  -2.397  0.00  0.00    -0.042 A 
ATOM      5  C5  UNL d   1       1.419  -1.065  -1.265  0.00  0.00     0.033 A 
ATOM      6  C6  UNL d   1       0.662   0.087  -1.036  0.00  0.00    -0.057 A 
ENDROOT
BRANCH   1   7
ATOM      7  N   UNL d   1      -0.025   2.324  -1.591  0.00  0.00    -0.732 N 
ATOM      8  C   UNL d   1      -1.136   2.267  -0.665  0.00  0.00     0.284 C 
ATOM      9  H3  UNL d   1       0.589   3.123  -1.453  0.00  0.00     0.395 HD
ENDBRANCH   1   7
TORSDOF 1
ENDMDL
