MODEL 1
REMARK minimizedAffinity -3.10414529
REMARK minimizedRMSD -1
REMARK  1 active torsions:
REMARK  status: ('A' for Active; 'I' for Inactive)
REMARK    1  A    between atoms: N_2  and  C1_3 
ROOT
ATOM      1  C1  UNL d   1      -1.244  -0.320   1.206  0.00  0.00     0.143 A 
ATOM      2  C2  UNL d   1      -0.764  -1.632   1.131  0.00  0.00    -0.057 A 
ATOM      3  C3  UNL d   1       0.157  -2.013   0.147  0.00  0.00     0.033 A 
ATOM      4  C4  UNL d   1       0.593  -1.093  -0.800  0.00  0.00    -0.042 A 
ATOM      5  C5  UNL d   1       0.110   0.211  -0.760  0.00  0.00     0.033 A 
ATOM      6  C6  UNL d   1      -0.804   0.587   0.229  0.00  0.00    -0.057 A 
ENDROOT
BRANCH   1   7
ATOM      7  N   UNL d   1      -2.234   0.096   2.099  0.00  0.00    -0.732 N 
ATOM      8  C   UNL d   1      -1.885   0.822   3.301  0.00  0.00     0.284 C 
ATOM      9  H3  UNL d   1      -3.061   0.451   1.624  0.00  0.00     0.395 HD
ENDBRANCH   1   7
TORSDOF 1
ENDMDL
