MODEL 1
REMARK minimizedAffinity -4.42042065
REMARK minimizedRMSD -1
REMARK  1 active torsions:
REMARK  status: ('A' for Active; 'I' for Inactive)
REMARK    1  A    between atoms: N_2  and  C1_3 
ROOT
ATOM      1  C1  UNL d   1      -0.497   0.112  -0.394  0.00  0.00     0.143 A 
ATOM      2  C2  UNL d   1       0.554   0.777  -1.036  0.00  0.00    -0.057 A 
ATOM      3  C3  UNL d   1       1.699   0.089  -1.456  0.00  0.00     0.033 A 
ATOM      4  C4  UNL d   1       1.827  -1.274  -1.214  0.00  0.00    -0.042 A 
ATOM      5  C5  UNL d   1       0.806  -1.951  -0.555  0.00  0.00     0.033 A 
ATOM      6  C6  UNL d   1      -0.338  -1.260  -0.145  0.00  0.00    -0.057 A 
ENDROOT
BRANCH   1   7
ATOM      7  N   UNL d   1      -1.618   0.757   0.134  0.00  0.00    -0.732 N 
ATOM      8  C   UNL d   1      -2.087   0.446   1.468  0.00  0.00     0.284 C 
ATOM      9  H3  UNL d   1      -1.638   1.749  -0.093  0.00  0.00     0.395 HD
ENDBRANCH   1   7
TORSDOF 1
ENDMDL
