MODEL 1
REMARK minimizedAffinity 0.297411352
REMARK minimizedRMSD -1
REMARK  1 active torsions:
REMARK  status: ('A' for Active; 'I' for Inactive)
REMARK    1  A    between atoms: N_2  and  C1_3 
ROOT
ATOM      1  C1  UNL d   1      -1.812   0.753   1.376  0.00  0.00     0.143 A 
ATOM      2  C2  UNL d   1      -2.251  -0.298   2.189  0.00  0.00    -0.057 A 
ATOM      3  C3  UNL d   1      -2.307  -0.164   3.581  0.00  0.00     0.033 A 
ATOM      4  C4  UNL d   1      -1.894   1.016   4.190  0.00  0.00    -0.042 A 
ATOM      5  C5  UNL d   1      -1.431   2.065   3.404  0.00  0.00     0.033 A 
ATOM      6  C6  UNL d   1      -1.384   1.929   2.013  0.00  0.00    -0.057 A 
ENDROOT
BRANCH   1   7
ATOM      7  N   UNL d   1      -1.642   0.649  -0.006  0.00  0.00    -0.732 N 
ATOM      8  C   UNL d   1      -0.325   0.759  -0.597  0.00  0.00     0.284 C 
ATOM      9  H3  UNL d   1      -2.221  -0.081  -0.415  0.00  0.00     0.395 HD
ENDBRANCH   1   7
TORSDOF 1
ENDMDL
