MODEL 1
REMARK minimizedAffinity -2.58523631
REMARK minimizedRMSD -1
REMARK  1 active torsions:
REMARK  status: ('A' for Active; 'I' for Inactive)
REMARK    1  A    between atoms: N_2  and  C1_3 
ROOT
ATOM      1  C1  UNL d   1       1.337   0.046  -1.760  0.00  0.00     0.143 A 
ATOM      2  C2  UNL d   1       2.186  -1.014  -1.421  0.00  0.00    -0.057 A 
ATOM      3  C3  UNL d   1       1.888  -1.870  -0.354  0.00  0.00     0.033 A 
ATOM      4  C4  UNL d   1       0.747  -1.663   0.414  0.00  0.00    -0.042 A 
ATOM      5  C5  UNL d   1      -0.098  -0.601   0.111  0.00  0.00     0.033 A 
ATOM      6  C6  UNL d   1       0.201   0.246  -0.960  0.00  0.00    -0.057 A 
ENDROOT
BRANCH   1   7
ATOM      7  N   UNL d   1       1.628   0.990  -2.747  0.00  0.00    -0.732 N 
ATOM      8  C   UNL d   1       1.037   2.310  -2.701  0.00  0.00     0.284 C 
ATOM      9  H3  UNL d   1       2.610   0.984  -3.013  0.00  0.00     0.395 HD
ENDBRANCH   1   7
TORSDOF 1
ENDMDL
