MODEL 1
REMARK minimizedAffinity -0.944931924
REMARK minimizedRMSD -1
REMARK  0 active torsions:
REMARK  status: ('A' for Active; 'I' for Inactive)
ROOT
ATOM      1  C   UNL d   1       2.639  -1.340   2.207  0.00  0.00     0.124 A 
ATOM      2  C1  UNL d   1       2.924  -0.660   1.031  0.00  0.00     0.062 A 
ATOM      3  C2  UNL d   1       1.899  -0.318   0.153  0.00  0.00     0.162 A 
ATOM      4  C3  UNL d   1       0.578  -0.655   0.449  0.00  0.00    -0.034 A 
ATOM      5  C4  UNL d   1       0.299  -1.339   1.633  0.00  0.00     0.162 A 
ATOM      6  C5  UNL d   1       1.327  -1.679   2.507  0.00  0.00     0.062 A 
ATOM      7  F   UNL d   1       1.050  -2.336   3.642  0.00  0.00    -0.097 F 
ATOM      8  F1  UNL d   1      -0.960  -1.678   1.948  0.00  0.00    -0.096 F 
ATOM      9  I   UNL d   1      -0.957  -0.146  -0.860  0.00  0.00    -0.060 I 
ATOM     10  F2  UNL d   1       2.204   0.339  -0.976  0.00  0.00    -0.096 F 
ATOM     11  F3  UNL d   1       4.191  -0.332   0.738  0.00  0.00    -0.097 F 
ATOM     12  F4  UNL d   1       3.627  -1.668   3.049  0.00  0.00    -0.092 F 
ENDROOT
TORSDOF 0
ENDMDL
