MODEL 1
REMARK minimizedAffinity 8.77476883
REMARK minimizedRMSD -1
REMARK  0 active torsions:
REMARK  status: ('A' for Active; 'I' for Inactive)
ROOT
ATOM      1  C   UNL d   1      -1.785   4.833   1.806  0.00  0.00     0.124 A 
ATOM      2  C1  UNL d   1      -0.627   4.839   1.041  0.00  0.00     0.062 A 
ATOM      3  C2  UNL d   1      -0.101   3.645   0.556  0.00  0.00     0.162 A 
ATOM      4  C3  UNL d   1      -0.734   2.433   0.835  0.00  0.00    -0.034 A 
ATOM      5  C4  UNL d   1      -1.897   2.435   1.607  0.00  0.00     0.162 A 
ATOM      6  C5  UNL d   1      -2.419   3.631   2.088  0.00  0.00     0.062 A 
ATOM      7  F   UNL d   1      -3.537   3.623   2.828  0.00  0.00    -0.097 F 
ATOM      8  F1  UNL d   1      -2.531   1.288   1.894  0.00  0.00    -0.096 F 
ATOM      9  I   UNL d   1       0.049   0.645   0.113  0.00  0.00    -0.060 I 
ATOM     10  F2  UNL d   1       1.019   3.681  -0.181  0.00  0.00    -0.096 F 
ATOM     11  F3  UNL d   1      -0.012   5.999   0.767  0.00  0.00    -0.097 F 
ATOM     12  F4  UNL d   1      -2.288   5.983   2.272  0.00  0.00    -0.092 F 
ENDROOT
TORSDOF 0
ENDMDL
