MODEL 1
REMARK minimizedAffinity 4.22652626
REMARK minimizedRMSD -1
REMARK  0 active torsions:
REMARK  status: ('A' for Active; 'I' for Inactive)
ROOT
ATOM      1  C   UNL d   1       0.789  -2.085   0.736  0.00  0.00     0.124 A 
ATOM      2  C1  UNL d   1       2.022  -1.457   0.636  0.00  0.00     0.062 A 
ATOM      3  C2  UNL d   1       2.093  -0.086   0.406  0.00  0.00     0.162 A 
ATOM      4  C3  UNL d   1       0.927   0.667   0.276  0.00  0.00    -0.034 A 
ATOM      5  C4  UNL d   1      -0.311   0.028   0.378  0.00  0.00     0.162 A 
ATOM      6  C5  UNL d   1      -0.376  -1.342   0.607  0.00  0.00     0.062 A 
ATOM      7  F   UNL d   1      -1.569  -1.947   0.704  0.00  0.00    -0.097 F 
ATOM      8  F1  UNL d   1      -1.452   0.722   0.258  0.00  0.00    -0.096 F 
ATOM      9  I   UNL d   1       1.029   2.717  -0.068  0.00  0.00    -0.060 I 
ATOM     10  F2  UNL d   1       3.299   0.494   0.313  0.00  0.00    -0.096 F 
ATOM     11  F3  UNL d   1       3.149  -2.173   0.759  0.00  0.00    -0.097 F 
ATOM     12  F4  UNL d   1       0.723  -3.405   0.957  0.00  0.00    -0.092 F 
ENDROOT
TORSDOF 0
ENDMDL
