MODEL 1
REMARK minimizedAffinity 2.75722098
REMARK minimizedRMSD -1
REMARK  0 active torsions:
REMARK  status: ('A' for Active; 'I' for Inactive)
ROOT
ATOM      1  C   UNL d   1       2.818   0.435   1.487  0.00  0.00     0.124 A 
ATOM      2  C1  UNL d   1       1.852   0.261   0.505  0.00  0.00     0.062 A 
ATOM      3  C2  UNL d   1       0.699   1.040   0.511  0.00  0.00     0.162 A 
ATOM      4  C3  UNL d   1       0.505   2.003   1.502  0.00  0.00    -0.034 A 
ATOM      5  C4  UNL d   1       1.480   2.172   2.487  0.00  0.00     0.162 A 
ATOM      6  C5  UNL d   1       2.631   1.390   2.477  0.00  0.00     0.062 A 
ATOM      7  F   UNL d   1       3.562   1.560   3.426  0.00  0.00    -0.097 F 
ATOM      8  F1  UNL d   1       1.326   3.088   3.454  0.00  0.00    -0.096 F 
ATOM      9  I   UNL d   1      -1.217   3.171   1.514  0.00  0.00    -0.060 I 
ATOM     10  F2  UNL d   1      -0.217   0.850  -0.450  0.00  0.00    -0.096 F 
ATOM     11  F3  UNL d   1       2.030  -0.662  -0.451  0.00  0.00    -0.097 F 
ATOM     12  F4  UNL d   1       3.926  -0.317   1.480  0.00  0.00    -0.092 F 
ENDROOT
TORSDOF 0
ENDMDL
