MODEL 1
REMARK minimizedAffinity 5.05994606
REMARK minimizedRMSD -1
REMARK  0 active torsions:
REMARK  status: ('A' for Active; 'I' for Inactive)
ROOT
ATOM      1  C   UNL d   1       2.324  -0.916   0.971  0.00  0.00     0.124 A 
ATOM      2  C1  UNL d   1       2.296   0.469   1.049  0.00  0.00     0.062 A 
ATOM      3  C2  UNL d   1       1.079   1.146   1.049  0.00  0.00     0.162 A 
ATOM      4  C3  UNL d   1      -0.120   0.437   0.970  0.00  0.00    -0.034 A 
ATOM      5  C4  UNL d   1      -0.083  -0.956   0.890  0.00  0.00     0.162 A 
ATOM      6  C5  UNL d   1       1.135  -1.627   0.891  0.00  0.00     0.062 A 
ATOM      7  F   UNL d   1       1.161  -2.966   0.815  0.00  0.00    -0.097 F 
ATOM      8  F1  UNL d   1      -1.217  -1.669   0.814  0.00  0.00    -0.096 F 
ATOM      9  I   UNL d   1      -1.941   1.444   0.969  0.00  0.00    -0.060 I 
ATOM     10  F2  UNL d   1       1.081   2.485   1.126  0.00  0.00    -0.096 F 
ATOM     11  F3  UNL d   1       3.443   1.159   1.125  0.00  0.00    -0.097 F 
ATOM     12  F4  UNL d   1       3.496  -1.564   0.970  0.00  0.00    -0.092 F 
ENDROOT
TORSDOF 0
ENDMDL
