MODEL 1
REMARK minimizedAffinity -3.75042391
REMARK minimizedRMSD -1
REMARK  0 active torsions:
REMARK  status: ('A' for Active; 'I' for Inactive)
ROOT
ATOM      1  C   UNL d   1      -1.908  -0.956  -0.398  0.00  0.00     0.124 A 
ATOM      2  C1  UNL d   1      -1.406  -1.534   0.760  0.00  0.00     0.062 A 
ATOM      3  C2  UNL d   1      -0.092  -1.291   1.151  0.00  0.00     0.162 A 
ATOM      4  C3  UNL d   1       0.729  -0.464   0.385  0.00  0.00    -0.034 A 
ATOM      5  C4  UNL d   1       0.217   0.114  -0.779  0.00  0.00     0.162 A 
ATOM      6  C5  UNL d   1      -1.096  -0.133  -1.166  0.00  0.00     0.062 A 
ATOM      7  F   UNL d   1      -1.580   0.427  -2.285  0.00  0.00    -0.097 F 
ATOM      8  F1  UNL d   1       0.979   0.914  -1.539  0.00  0.00    -0.096 F 
ATOM      9  I   UNL d   1       2.693  -0.097   0.967  0.00  0.00    -0.060 I 
ATOM     10  F2  UNL d   1       0.366  -1.863   2.275  0.00  0.00    -0.096 F 
ATOM     11  F3  UNL d   1      -2.187  -2.331   1.503  0.00  0.00    -0.097 F 
ATOM     12  F4  UNL d   1      -3.171  -1.193  -0.773  0.00  0.00    -0.092 F 
ENDROOT
TORSDOF 0
ENDMDL
