MODEL 1
REMARK minimizedAffinity -2.02832961
REMARK minimizedRMSD -1
REMARK  0 active torsions:
REMARK  status: ('A' for Active; 'I' for Inactive)
ROOT
ATOM      1  C   UNL d   1       3.124  -0.379   1.345  0.00  0.00     0.124 A 
ATOM      2  C1  UNL d   1       2.632  -1.389   0.530  0.00  0.00     0.062 A 
ATOM      3  C2  UNL d   1       1.439  -1.211  -0.163  0.00  0.00     0.162 A 
ATOM      4  C3  UNL d   1       0.728  -0.017  -0.045  0.00  0.00    -0.034 A 
ATOM      5  C4  UNL d   1       1.228   0.994   0.777  0.00  0.00     0.162 A 
ATOM      6  C5  UNL d   1       2.421   0.812   1.468  0.00  0.00     0.062 A 
ATOM      7  F   UNL d   1       2.894   1.789   2.255  0.00  0.00    -0.097 F 
ATOM      8  F1  UNL d   1       0.570   2.155   0.913  0.00  0.00    -0.096 F 
ATOM      9  I   UNL d   1      -1.057   0.253  -1.080  0.00  0.00    -0.060 I 
ATOM     10  F2  UNL d   1       0.988  -2.205  -0.943  0.00  0.00    -0.096 F 
ATOM     11  F3  UNL d   1       3.309  -2.541   0.411  0.00  0.00    -0.097 F 
ATOM     12  F4  UNL d   1       4.272  -0.553   2.012  0.00  0.00    -0.092 F 
ENDROOT
TORSDOF 0
ENDMDL
