MODEL 1
REMARK minimizedAffinity -2.00461316
REMARK minimizedRMSD -1
REMARK  0 active torsions:
REMARK  status: ('A' for Active; 'I' for Inactive)
ROOT
ATOM      1  C   UNL d   1       0.456  -0.444   0.241  0.00  0.00     0.124 A 
ATOM      2  C1  UNL d   1      -0.855  -0.300   0.674  0.00  0.00     0.062 A 
ATOM      3  C2  UNL d   1      -1.334   0.952   1.049  0.00  0.00     0.162 A 
ATOM      4  C3  UNL d   1      -0.502   2.071   0.991  0.00  0.00    -0.034 A 
ATOM      5  C4  UNL d   1       0.815   1.917   0.555  0.00  0.00     0.162 A 
ATOM      6  C5  UNL d   1       1.289   0.663   0.181  0.00  0.00     0.062 A 
ATOM      7  F   UNL d   1       2.556   0.525  -0.237  0.00  0.00    -0.097 F 
ATOM      8  F1  UNL d   1       1.642   2.971   0.487  0.00  0.00    -0.096 F 
ATOM      9  I   UNL d   1      -1.214   3.944   1.551  0.00  0.00    -0.060 I 
ATOM     10  F2  UNL d   1      -2.604   1.063   1.464  0.00  0.00    -0.096 F 
ATOM     11  F3  UNL d   1      -1.662  -1.369   0.734  0.00  0.00    -0.097 F 
ATOM     12  F4  UNL d   1       0.914  -1.650  -0.118  0.00  0.00    -0.092 F 
ENDROOT
TORSDOF 0
ENDMDL
