MODEL 1
REMARK minimizedAffinity 2.73007178
REMARK minimizedRMSD -1
REMARK  0 active torsions:
REMARK  status: ('A' for Active; 'I' for Inactive)
ROOT
ATOM      1  C   UNL d   1       2.960  -0.064   1.576  0.00  0.00     0.124 A 
ATOM      2  C1  UNL d   1       2.367  -1.146   0.940  0.00  0.00     0.062 A 
ATOM      3  C2  UNL d   1       1.136  -0.997   0.308  0.00  0.00     0.162 A 
ATOM      4  C3  UNL d   1       0.489   0.239   0.308  0.00  0.00    -0.034 A 
ATOM      5  C4  UNL d   1       1.092   1.322   0.950  0.00  0.00     0.162 A 
ATOM      6  C5  UNL d   1       2.322   1.168   1.580  0.00  0.00     0.062 A 
ATOM      7  F   UNL d   1       2.894   2.215   2.194  0.00  0.00    -0.097 F 
ATOM      8  F1  UNL d   1       0.498   2.524   0.969  0.00  0.00    -0.096 F 
ATOM      9  I   UNL d   1      -1.352   0.465  -0.636  0.00  0.00    -0.060 I 
ATOM     10  F2  UNL d   1       0.586  -2.060  -0.299  0.00  0.00    -0.096 F 
ATOM     11  F3  UNL d   1       2.981  -2.338   0.935  0.00  0.00    -0.097 F 
ATOM     12  F4  UNL d   1       4.144  -0.210   2.184  0.00  0.00    -0.092 F 
ENDROOT
TORSDOF 0
ENDMDL
