MODEL 1
REMARK minimizedAffinity -0.286864996
REMARK minimizedRMSD -1
REMARK  0 active torsions:
REMARK  status: ('A' for Active; 'I' for Inactive)
ROOT
ATOM      1  C   UNL d   1       2.141  -1.210   0.712  0.00  0.00     0.124 A 
ATOM      2  C1  UNL d   1       2.293   0.160   0.547  0.00  0.00     0.062 A 
ATOM      3  C2  UNL d   1       1.175   0.977   0.410  0.00  0.00     0.162 A 
ATOM      4  C3  UNL d   1      -0.106   0.427   0.438  0.00  0.00    -0.034 A 
ATOM      5  C4  UNL d   1      -0.252  -0.951   0.603  0.00  0.00     0.162 A 
ATOM      6  C5  UNL d   1       0.869  -1.764   0.739  0.00  0.00     0.062 A 
ATOM      7  F   UNL d   1       0.719  -3.087   0.899  0.00  0.00    -0.097 F 
ATOM      8  F1  UNL d   1      -1.470  -1.513   0.634  0.00  0.00    -0.096 F 
ATOM      9  I   UNL d   1      -1.781   1.646   0.233  0.00  0.00    -0.060 I 
ATOM     10  F2  UNL d   1       1.353   2.298   0.252  0.00  0.00    -0.096 F 
ATOM     11  F3  UNL d   1       3.521   0.698   0.519  0.00  0.00    -0.097 F 
ATOM     12  F4  UNL d   1       3.218  -1.994   0.842  0.00  0.00    -0.092 F 
ENDROOT
TORSDOF 0
ENDMDL
