MODEL 1
REMARK minimizedAffinity 0.161589384
REMARK minimizedRMSD -1
REMARK  0 active torsions:
REMARK  status: ('A' for Active; 'I' for Inactive)
ROOT
ATOM      1  C   UNL d   1       1.655   0.570   0.791  0.00  0.00     0.124 A 
ATOM      2  C1  UNL d   1       0.514   1.360   0.767  0.00  0.00     0.062 A 
ATOM      3  C2  UNL d   1      -0.590   0.972   0.014  0.00  0.00     0.162 A 
ATOM      4  C3  UNL d   1      -0.559  -0.214  -0.721  0.00  0.00    -0.034 A 
ATOM      5  C4  UNL d   1       0.593  -1.002  -0.693  0.00  0.00     0.162 A 
ATOM      6  C5  UNL d   1       1.694  -0.610   0.062  0.00  0.00     0.062 A 
ATOM      7  F   UNL d   1       2.795  -1.374   0.084  0.00  0.00    -0.097 F 
ATOM      8  F1  UNL d   1       0.657  -2.148  -1.387  0.00  0.00    -0.096 F 
ATOM      9  I   UNL d   1      -2.208  -0.798  -1.849  0.00  0.00    -0.060 I 
ATOM     10  F2  UNL d   1      -1.679   1.754   0.009  0.00  0.00    -0.096 F 
ATOM     11  F3  UNL d   1       0.475   2.501   1.470  0.00  0.00    -0.097 F 
ATOM     12  F4  UNL d   1       2.717   0.947   1.516  0.00  0.00    -0.092 F 
ENDROOT
TORSDOF 0
ENDMDL
