MODEL 1
REMARK minimizedAffinity -4.82685947
REMARK minimizedRMSD -1
REMARK  1 active torsions:
REMARK  status: ('A' for Active; 'I' for Inactive)
REMARK    1  A    between atoms: C1_2  and  C2_3 
ROOT
ATOM      1  C2  UNL d   1      -4.718  -0.315  -0.223  0.00  0.00    -0.077 A 
ATOM      2  C3  UNL d   1      -5.003   0.066   1.096  0.00  0.00     0.002 A 
ATOM      3  C4  UNL d   1      -4.093   0.838   1.821  0.00  0.00     0.002 A 
ATOM      4  C5  UNL d   1      -2.894   1.238   1.234  0.00  0.00    -0.004 A 
ATOM      5  C6  UNL d   1      -2.600   0.862  -0.076  0.00  0.00     0.002 A 
ATOM      6  C7  UNL d   1      -3.509   0.090  -0.801  0.00  0.00     0.002 A 
ENDROOT
BRANCH   1   7
ATOM      7  C1  UNL d   1      -5.720  -1.106  -1.023  0.00  0.00     0.055 C 
ATOM      8  C   UNL d   1      -5.736  -0.666  -2.479  0.00  0.00     0.019 C 
ENDBRANCH   1   7
TORSDOF 1
ENDMDL
