MODEL 1
REMARK minimizedAffinity -5.05001688
REMARK minimizedRMSD -1
REMARK  1 active torsions:
REMARK  status: ('A' for Active; 'I' for Inactive)
REMARK    1  A    between atoms: C1_2  and  C2_3 
ROOT
ATOM      1  C2  UNL d   1       0.749   0.523   0.210  0.00  0.00    -0.077 A 
ATOM      2  C3  UNL d   1       1.868   1.302   0.539  0.00  0.00     0.002 A 
ATOM      3  C4  UNL d   1       3.050   0.694   0.967  0.00  0.00     0.002 A 
ATOM      4  C5  UNL d   1       3.126  -0.693   1.065  0.00  0.00    -0.004 A 
ATOM      5  C6  UNL d   1       2.019  -1.476   0.743  0.00  0.00     0.002 A 
ATOM      6  C7  UNL d   1       0.836  -0.871   0.316  0.00  0.00     0.002 A 
ENDROOT
BRANCH   1   7
ATOM      7  C1  UNL d   1      -0.511   1.173  -0.298  0.00  0.00     0.055 C 
ATOM      8  C   UNL d   1      -1.728   0.713   0.491  0.00  0.00     0.019 C 
ENDBRANCH   1   7
TORSDOF 1
ENDMDL
