MODEL 1
REMARK minimizedAffinity -2.81670284
REMARK minimizedRMSD -1
REMARK  1 active torsions:
REMARK  status: ('A' for Active; 'I' for Inactive)
REMARK    1  A    between atoms: C1_2  and  C2_3 
ROOT
ATOM      1  C2  UNL d   1       2.450  -0.021  -0.298  0.00  0.00    -0.077 A 
ATOM      2  C3  UNL d   1       1.137   0.457  -0.183  0.00  0.00     0.002 A 
ATOM      3  C4  UNL d   1       0.068  -0.433  -0.063  0.00  0.00     0.002 A 
ATOM      4  C5  UNL d   1       0.302  -1.807  -0.052  0.00  0.00    -0.004 A 
ATOM      5  C6  UNL d   1       1.604  -2.293  -0.167  0.00  0.00     0.002 A 
ATOM      6  C7  UNL d   1       2.673  -1.404  -0.289  0.00  0.00     0.002 A 
ENDROOT
BRANCH   1   7
ATOM      7  C1  UNL d   1       3.608   0.938  -0.378  0.00  0.00     0.055 C 
ATOM      8  C   UNL d   1       3.172   2.360  -0.053  0.00  0.00     0.019 C 
ENDBRANCH   1   7
TORSDOF 1
ENDMDL
