MODEL 1
REMARK minimizedAffinity -4.53022289
REMARK minimizedRMSD -1
REMARK  1 active torsions:
REMARK  status: ('A' for Active; 'I' for Inactive)
REMARK    1  A    between atoms: C1_2  and  C2_3 
ROOT
ATOM      1  C2  UNL d   1       0.068   0.144  -0.084  0.00  0.00    -0.077 A 
ATOM      2  C3  UNL d   1       0.052  -1.205  -0.467  0.00  0.00     0.002 A 
ATOM      3  C4  UNL d   1       1.218  -1.970  -0.406  0.00  0.00     0.002 A 
ATOM      4  C5  UNL d   1       2.406  -1.398   0.042  0.00  0.00    -0.004 A 
ATOM      5  C6  UNL d   1       2.433  -0.057   0.424  0.00  0.00     0.002 A 
ATOM      6  C7  UNL d   1       1.269   0.710   0.362  0.00  0.00     0.002 A 
ENDROOT
BRANCH   1   7
ATOM      7  C1  UNL d   1      -1.199   0.958  -0.102  0.00  0.00     0.055 C 
ATOM      8  C   UNL d   1      -2.366   0.180   0.489  0.00  0.00     0.019 C 
ENDBRANCH   1   7
TORSDOF 1
ENDMDL
