MODEL 1
REMARK minimizedAffinity -4.96044827
REMARK minimizedRMSD -1
REMARK  1 active torsions:
REMARK  status: ('A' for Active; 'I' for Inactive)
REMARK    1  A    between atoms: C3_4  and  O_7 
ROOT
ATOM      1  C   UNL d   1       0.489   0.530   0.296  0.00  0.00    -0.033 A 
ATOM      2  C1  UNL d   1       0.367  -0.596  -0.521  0.00  0.00     0.039 A 
ATOM      3  C2  UNL d   1       0.904  -0.586  -1.810  0.00  0.00    -0.080 A 
ATOM      4  C3  UNL d   1       1.560   0.553  -2.269  0.00  0.00     0.150 A 
ATOM      5  C4  UNL d   1       1.688   1.676  -1.459  0.00  0.00    -0.007 A 
ATOM      6  C5  UNL d   1       1.151   1.666  -0.172  0.00  0.00     0.039 A 
ENDROOT
BRANCH   4   7
ATOM      7  O   UNL d   1       2.096   0.611  -3.521  0.00  0.00    -0.526 OA
ATOM      8  H5  UNL d   1       1.906  -0.227  -3.976  0.00  0.00     0.418 HD
ENDBRANCH   4   7
TORSDOF 1
ENDMDL
