MODEL 1
REMARK minimizedAffinity -3.69871283
REMARK minimizedRMSD -1
REMARK  1 active torsions:
REMARK  status: ('A' for Active; 'I' for Inactive)
REMARK    1  A    between atoms: C3_4  and  O_7 
ROOT
ATOM      1  C   UNL d   1       0.207   0.009   0.853  0.00  0.00    -0.033 A 
ATOM      2  C1  UNL d   1       0.767   1.226   0.461  0.00  0.00     0.039 A 
ATOM      3  C2  UNL d   1       1.233   1.393  -0.845  0.00  0.00    -0.080 A 
ATOM      4  C3  UNL d   1       1.134   0.338  -1.746  0.00  0.00     0.150 A 
ATOM      5  C4  UNL d   1       0.574  -0.877  -1.363  0.00  0.00    -0.007 A 
ATOM      6  C5  UNL d   1       0.109  -1.042  -0.059  0.00  0.00     0.039 A 
ENDROOT
BRANCH   4   7
ATOM      7  O   UNL d   1       1.580   0.452  -3.030  0.00  0.00    -0.526 OA
ATOM      8  H5  UNL d   1       1.968   1.336  -3.143  0.00  0.00     0.418 HD
ENDBRANCH   4   7
TORSDOF 1
ENDMDL
