MODEL 1
REMARK minimizedAffinity -3.66185713
REMARK minimizedRMSD -1
REMARK  1 active torsions:
REMARK  status: ('A' for Active; 'I' for Inactive)
REMARK    1  A    between atoms: C3_4  and  O_7 
ROOT
ATOM      1  C   UNL d   1      -0.484  -0.522   1.361  0.00  0.00    -0.033 A 
ATOM      2  C1  UNL d   1      -0.081   0.779   1.053  0.00  0.00     0.039 A 
ATOM      3  C2  UNL d   1       0.663   1.026  -0.103  0.00  0.00    -0.080 A 
ATOM      4  C3  UNL d   1       0.994  -0.035  -0.942  0.00  0.00     0.150 A 
ATOM      5  C4  UNL d   1       0.592  -1.332  -0.643  0.00  0.00    -0.007 A 
ATOM      6  C5  UNL d   1      -0.149  -1.577   0.512  0.00  0.00     0.039 A 
ENDROOT
BRANCH   4   7
ATOM      7  O   UNL d   1       1.722   0.157  -2.079  0.00  0.00    -0.526 OA
ATOM      8  H5  UNL d   1       1.954   1.098  -2.141  0.00  0.00     0.418 HD
ENDBRANCH   4   7
TORSDOF 1
ENDMDL
