MODEL 1
REMARK minimizedAffinity -5.17205143
REMARK minimizedRMSD -1
REMARK  1 active torsions:
REMARK  status: ('A' for Active; 'I' for Inactive)
REMARK    1  A    between atoms: C3_4  and  O_7 
ROOT
ATOM      1  C   UNL d   1       0.124   0.657   0.602  0.00  0.00    -0.033 A 
ATOM      2  C1  UNL d   1       0.805   1.736   0.033  0.00  0.00     0.039 A 
ATOM      3  C2  UNL d   1       1.339   1.627  -1.252  0.00  0.00    -0.080 A 
ATOM      4  C3  UNL d   1       1.185   0.436  -1.958  0.00  0.00     0.150 A 
ATOM      5  C4  UNL d   1       0.505  -0.641  -1.399  0.00  0.00    -0.007 A 
ATOM      6  C5  UNL d   1      -0.027  -0.530  -0.115  0.00  0.00     0.039 A 
ENDROOT
BRANCH   4   7
ATOM      7  O   UNL d   1       1.693   0.281  -3.213  0.00  0.00    -0.526 OA
ATOM      8  H5  UNL d   1       2.162   1.096  -3.458  0.00  0.00     0.418 HD
ENDBRANCH   4   7
TORSDOF 1
ENDMDL
