MODEL 1
REMARK minimizedAffinity -5.05122566
REMARK minimizedRMSD -1
REMARK  1 active torsions:
REMARK  status: ('A' for Active; 'I' for Inactive)
REMARK    1  A    between atoms: C3_4  and  O_7 
ROOT
ATOM      1  C   UNL d   1       0.749   1.215   0.450  0.00  0.00    -0.033 A 
ATOM      2  C1  UNL d   1       0.524  -0.012  -0.177  0.00  0.00     0.039 A 
ATOM      3  C2  UNL d   1       0.843  -0.178  -1.526  0.00  0.00    -0.080 A 
ATOM      4  C3  UNL d   1       1.387   0.889  -2.236  0.00  0.00     0.150 A 
ATOM      5  C4  UNL d   1       1.617   2.113  -1.617  0.00  0.00    -0.007 A 
ATOM      6  C5  UNL d   1       1.297   2.277  -0.270  0.00  0.00     0.039 A 
ENDROOT
BRANCH   4   7
ATOM      7  O   UNL d   1       1.710   0.776  -3.555  0.00  0.00    -0.526 OA
ATOM      8  H5  UNL d   1       1.469  -0.117  -3.856  0.00  0.00     0.418 HD
ENDBRANCH   4   7
TORSDOF 1
ENDMDL
