MODEL 1
REMARK minimizedAffinity -4.36311913
REMARK minimizedRMSD -1
REMARK  1 active torsions:
REMARK  status: ('A' for Active; 'I' for Inactive)
REMARK    1  A    between atoms: C3_4  and  O_7 
ROOT
ATOM      1  C   UNL d   1       0.749   0.857  -0.396  0.00  0.00    -0.033 A 
ATOM      2  C1  UNL d   1       2.073   1.197  -0.684  0.00  0.00     0.039 A 
ATOM      3  C2  UNL d   1       2.620   0.885  -1.930  0.00  0.00    -0.080 A 
ATOM      4  C3  UNL d   1       1.835   0.236  -2.878  0.00  0.00     0.150 A 
ATOM      5  C4  UNL d   1       0.515  -0.102  -2.599  0.00  0.00    -0.007 A 
ATOM      6  C5  UNL d   1      -0.030   0.209  -1.354  0.00  0.00     0.039 A 
ENDROOT
BRANCH   4   7
ATOM      7  O   UNL d   1       2.327  -0.093  -4.106  0.00  0.00    -0.526 OA
ATOM      8  H5  UNL d   1       3.260   0.176  -4.146  0.00  0.00     0.418 HD
ENDBRANCH   4   7
TORSDOF 1
ENDMDL
