MODEL 1
REMARK minimizedAffinity -3.78070259
REMARK minimizedRMSD -1
REMARK  1 active torsions:
REMARK  status: ('A' for Active; 'I' for Inactive)
REMARK    1  A    between atoms: C3_4  and  O_7 
ROOT
ATOM      1  C   UNL d   1      -0.132  -0.155  -1.602  0.00  0.00    -0.033 A 
ATOM      2  C1  UNL d   1       0.293   0.640  -0.536  0.00  0.00     0.039 A 
ATOM      3  C2  UNL d   1       1.602   1.125  -0.503  0.00  0.00    -0.080 A 
ATOM      4  C3  UNL d   1       2.475   0.808  -1.540  0.00  0.00     0.150 A 
ATOM      5  C4  UNL d   1       2.057   0.020  -2.607  0.00  0.00    -0.007 A 
ATOM      6  C5  UNL d   1       0.750  -0.464  -2.639  0.00  0.00     0.039 A 
ENDROOT
BRANCH   4   7
ATOM      7  O   UNL d   1       3.763   1.255  -1.549  0.00  0.00    -0.526 OA
ATOM      8  H5  UNL d   1       3.918   1.763  -0.735  0.00  0.00     0.418 HD
ENDBRANCH   4   7
TORSDOF 1
ENDMDL
