MODEL 1
REMARK minimizedAffinity -4.09382248
REMARK minimizedRMSD -1
REMARK  1 active torsions:
REMARK  status: ('A' for Active; 'I' for Inactive)
REMARK    1  A    between atoms: C3_4  and  O_7 
ROOT
ATOM      1  C   UNL d   1       0.361   0.168   0.427  0.00  0.00    -0.033 A 
ATOM      2  C1  UNL d   1       1.013   1.362   0.111  0.00  0.00     0.039 A 
ATOM      3  C2  UNL d   1       1.486   1.578  -1.185  0.00  0.00    -0.080 A 
ATOM      4  C3  UNL d   1       1.300   0.595  -2.153  0.00  0.00     0.150 A 
ATOM      5  C4  UNL d   1       0.647  -0.594  -1.846  0.00  0.00    -0.007 A 
ATOM      6  C5  UNL d   1       0.177  -0.809  -0.551  0.00  0.00     0.039 A 
ENDROOT
BRANCH   4   7
ATOM      7  O   UNL d   1       1.748   0.759  -3.430  0.00  0.00    -0.526 OA
ATOM      8  H5  UNL d   1       2.204   1.616  -3.489  0.00  0.00     0.418 HD
ENDBRANCH   4   7
TORSDOF 1
ENDMDL
