MODEL 1
REMARK minimizedAffinity -4.14599657
REMARK minimizedRMSD -1
REMARK  1 active torsions:
REMARK  status: ('A' for Active; 'I' for Inactive)
REMARK    1  A    between atoms: C3_4  and  O_7 
ROOT
ATOM      1  C   UNL d   1       0.466   1.118   0.811  0.00  0.00    -0.033 A 
ATOM      2  C1  UNL d   1       1.506   1.862   0.250  0.00  0.00     0.039 A 
ATOM      3  C2  UNL d   1       1.974   1.556  -1.030  0.00  0.00    -0.080 A 
ATOM      4  C3  UNL d   1       1.393   0.507  -1.737  0.00  0.00     0.150 A 
ATOM      5  C4  UNL d   1       0.355  -0.236  -1.185  0.00  0.00    -0.007 A 
ATOM      6  C5  UNL d   1      -0.110   0.070   0.093  0.00  0.00     0.039 A 
ENDROOT
BRANCH   4   7
ATOM      7  O   UNL d   1       1.819   0.168  -2.987  0.00  0.00    -0.526 OA
ATOM      8  H5  UNL d   1       2.561   0.748  -3.227  0.00  0.00     0.418 HD
ENDBRANCH   4   7
TORSDOF 1
ENDMDL
