MODEL 1
REMARK minimizedAffinity -4.96025848
REMARK minimizedRMSD -1
REMARK  1 active torsions:
REMARK  status: ('A' for Active; 'I' for Inactive)
REMARK    1  A    between atoms: C3_4  and  O_7 
ROOT
ATOM      1  C   UNL d   1       1.625  -0.067  -2.192  0.00  0.00    -0.033 A 
ATOM      2  C1  UNL d   1       1.576   1.090  -1.412  0.00  0.00     0.039 A 
ATOM      3  C2  UNL d   1       0.851   1.099  -0.219  0.00  0.00    -0.080 A 
ATOM      4  C3  UNL d   1       0.182  -0.054   0.183  0.00  0.00     0.150 A 
ATOM      5  C4  UNL d   1       0.230  -1.211  -0.587  0.00  0.00    -0.007 A 
ATOM      6  C5  UNL d   1       0.953  -1.218  -1.779  0.00  0.00     0.039 A 
ENDROOT
BRANCH   4   7
ATOM      7  O   UNL d   1      -0.543  -0.091   1.337  0.00  0.00    -0.526 OA
ATOM      8  H5  UNL d   1      -0.510   0.788   1.750  0.00  0.00     0.418 HD
ENDBRANCH   4   7
TORSDOF 1
ENDMDL
