MODEL 1
REMARK minimizedAffinity -3.23828578
REMARK minimizedRMSD -1
REMARK  1 active torsions:
REMARK  status: ('A' for Active; 'I' for Inactive)
REMARK    1  A    between atoms: C3_4  and  O_7 
ROOT
ATOM      1  C   UNL d   1       0.424   0.244   0.405  0.00  0.00    -0.033 A 
ATOM      2  C1  UNL d   1       0.252  -0.935  -0.322  0.00  0.00     0.039 A 
ATOM      3  C2  UNL d   1       0.782  -1.048  -1.609  0.00  0.00    -0.080 A 
ATOM      4  C3  UNL d   1       1.482   0.024  -2.156  0.00  0.00     0.150 A 
ATOM      5  C4  UNL d   1       1.661   1.200  -1.435  0.00  0.00    -0.007 A 
ATOM      6  C5  UNL d   1       1.130   1.311  -0.151  0.00  0.00     0.039 A 
ENDROOT
BRANCH   4   7
ATOM      7  O   UNL d   1       2.013  -0.037  -3.410  0.00  0.00    -0.526 OA
ATOM      8  H5  UNL d   1       1.786  -0.898  -3.798  0.00  0.00     0.418 HD
ENDBRANCH   4   7
TORSDOF 1
ENDMDL
