MODEL 1
REMARK minimizedAffinity -4.84142017
REMARK minimizedRMSD -1
REMARK  1 active torsions:
REMARK  status: ('A' for Active; 'I' for Inactive)
REMARK    1  A    between atoms: C3_4  and  O_7 
ROOT
ATOM      1  C   UNL d   1       0.183   1.112   0.649  0.00  0.00    -0.033 A 
ATOM      2  C1  UNL d   1      -0.153  -0.076  -0.004  0.00  0.00     0.039 A 
ATOM      3  C2  UNL d   1       0.276  -0.300  -1.314  0.00  0.00    -0.080 A 
ATOM      4  C3  UNL d   1       1.040   0.670  -1.958  0.00  0.00     0.150 A 
ATOM      5  C4  UNL d   1       1.381   1.853  -1.312  0.00  0.00    -0.007 A 
ATOM      6  C5  UNL d   1       0.951   2.076  -0.004  0.00  0.00     0.039 A 
ENDROOT
BRANCH   4   7
ATOM      7  O   UNL d   1       1.478   0.498  -3.237  0.00  0.00    -0.526 OA
ATOM      8  H5  UNL d   1       1.142  -0.352  -3.566  0.00  0.00     0.418 HD
ENDBRANCH   4   7
TORSDOF 1
ENDMDL
