MODEL 1
REMARK minimizedAffinity -3.39459395
REMARK minimizedRMSD -1
REMARK  1 active torsions:
REMARK  status: ('A' for Active; 'I' for Inactive)
REMARK    1  A    between atoms: C3_4  and  O_7 
ROOT
ATOM      1  C   UNL d   1      -0.034  -0.135   1.154  0.00  0.00    -0.033 A 
ATOM      2  C1  UNL d   1       0.389   1.195   1.148  0.00  0.00     0.039 A 
ATOM      3  C2  UNL d   1       1.152   1.682   0.085  0.00  0.00    -0.080 A 
ATOM      4  C3  UNL d   1       1.482   0.830  -0.966  0.00  0.00     0.150 A 
ATOM      5  C4  UNL d   1       1.059  -0.495  -0.968  0.00  0.00    -0.007 A 
ATOM      6  C5  UNL d   1       0.299  -0.980   0.095  0.00  0.00     0.039 A 
ENDROOT
BRANCH   4   7
ATOM      7  O   UNL d   1       2.227   1.259  -2.023  0.00  0.00    -0.526 OA
ATOM      8  H5  UNL d   1       2.472   2.187  -1.872  0.00  0.00     0.418 HD
ENDBRANCH   4   7
TORSDOF 1
ENDMDL
