MODEL 1
REMARK minimizedAffinity 3.36964989
REMARK minimizedRMSD -1
REMARK  0 active torsions:
REMARK  status: ('A' for Active; 'I' for Inactive)
ROOT
ATOM      1  C   UNL d   1       2.626  -1.484   4.076  0.00  0.00     0.124 A 
ATOM      2  C1  UNL d   1       1.416  -1.216   3.451  0.00  0.00     0.062 A 
ATOM      3  C2  UNL d   1       1.396  -0.659   2.175  0.00  0.00     0.162 A 
ATOM      4  C3  UNL d   1       2.590  -0.366   1.516  0.00  0.00    -0.034 A 
ATOM      5  C4  UNL d   1       3.802  -0.636   2.153  0.00  0.00     0.162 A 
ATOM      6  C5  UNL d   1       3.817  -1.193   3.427  0.00  0.00     0.062 A 
ATOM      7  F   UNL d   1       4.987  -1.451   4.030  0.00  0.00    -0.097 F 
ATOM      8  F1  UNL d   1       4.969  -0.366   1.548  0.00  0.00    -0.096 F 
ATOM      9  I   UNL d   1       2.563   0.468  -0.390  0.00  0.00    -0.060 I 
ATOM     10  F2  UNL d   1       0.212  -0.412   1.595  0.00  0.00    -0.096 F 
ATOM     11  F3  UNL d   1       0.263  -1.495   4.076  0.00  0.00    -0.097 F 
ATOM     12  F4  UNL d   1       2.643  -2.019   5.304  0.00  0.00    -0.092 F 
ENDROOT
TORSDOF 0
ENDMDL
