MODEL 1
REMARK minimizedAffinity -1.80866134
REMARK minimizedRMSD -1
REMARK  0 active torsions:
REMARK  status: ('A' for Active; 'I' for Inactive)
ROOT
ATOM      1  C   UNL d   1       3.925  -1.177   3.907  0.00  0.00     0.124 A 
ATOM      2  C1  UNL d   1       4.136  -0.589   2.668  0.00  0.00     0.062 A 
ATOM      3  C2  UNL d   1       3.091  -0.489   1.754  0.00  0.00     0.162 A 
ATOM      4  C3  UNL d   1       1.825  -0.977   2.076  0.00  0.00    -0.034 A 
ATOM      5  C4  UNL d   1       1.620  -1.568   3.324  0.00  0.00     0.162 A 
ATOM      6  C5  UNL d   1       2.668  -1.666   4.234  0.00  0.00     0.062 A 
ATOM      7  F   UNL d   1       2.462  -2.235   5.431  0.00  0.00    -0.097 F 
ATOM      8  F1  UNL d   1       0.416  -2.048   3.666  0.00  0.00    -0.096 F 
ATOM      9  I   UNL d   1       0.260  -0.829   0.711  0.00  0.00    -0.060 I 
ATOM     10  F2  UNL d   1       3.324   0.084   0.563  0.00  0.00    -0.096 F 
ATOM     11  F3  UNL d   1       5.350  -0.117   2.350  0.00  0.00    -0.097 F 
ATOM     12  F4  UNL d   1       4.932  -1.274   4.785  0.00  0.00    -0.092 F 
ENDROOT
TORSDOF 0
ENDMDL
