MODEL 1
REMARK minimizedAffinity -1.94522166
REMARK minimizedRMSD -1
REMARK  0 active torsions:
REMARK  status: ('A' for Active; 'I' for Inactive)
ROOT
ATOM      1  C   UNL d   1      -1.893   1.983  -3.591  0.00  0.00     0.124 A 
ATOM      2  C1  UNL d   1      -3.235   2.337  -3.615  0.00  0.00     0.062 A 
ATOM      3  C2  UNL d   1      -4.061   2.024  -2.540  0.00  0.00     0.162 A 
ATOM      4  C3  UNL d   1      -3.547   1.354  -1.429  0.00  0.00    -0.034 A 
ATOM      5  C4  UNL d   1      -2.197   1.000  -1.412  0.00  0.00     0.162 A 
ATOM      6  C5  UNL d   1      -1.375   1.315  -2.490  0.00  0.00     0.062 A 
ATOM      7  F   UNL d   1      -0.079   0.973  -2.464  0.00  0.00    -0.097 F 
ATOM      8  F1  UNL d   1      -1.670   0.355  -0.361  0.00  0.00    -0.096 F 
ATOM      9  I   UNL d   1      -4.779   0.884   0.181  0.00  0.00    -0.060 I 
ATOM     10  F2  UNL d   1      -5.353   2.378  -2.590  0.00  0.00    -0.096 F 
ATOM     11  F3  UNL d   1      -3.737   2.982  -4.678  0.00  0.00    -0.097 F 
ATOM     12  F4  UNL d   1      -1.100   2.285  -4.627  0.00  0.00    -0.092 F 
ENDROOT
TORSDOF 0
ENDMDL
