MODEL 1
REMARK minimizedAffinity 4.00440979
REMARK minimizedRMSD -1
REMARK  0 active torsions:
REMARK  status: ('A' for Active; 'I' for Inactive)
ROOT
ATOM      1  C   UNL d   1       0.699  -1.385   1.078  0.00  0.00     0.124 A 
ATOM      2  C1  UNL d   1       1.478  -0.336   0.612  0.00  0.00     0.062 A 
ATOM      3  C2  UNL d   1       2.736  -0.100   1.161  0.00  0.00     0.162 A 
ATOM      4  C3  UNL d   1       3.222  -0.916   2.182  0.00  0.00    -0.034 A 
ATOM      5  C4  UNL d   1       2.432  -1.970   2.646  0.00  0.00     0.162 A 
ATOM      6  C5  UNL d   1       1.176  -2.201   2.094  0.00  0.00     0.062 A 
ATOM      7  F   UNL d   1       0.425  -3.216   2.546  0.00  0.00    -0.097 F 
ATOM      8  F1  UNL d   1       2.869  -2.774   3.627  0.00  0.00    -0.096 F 
ATOM      9  I   UNL d   1       5.101  -0.567   3.006  0.00  0.00    -0.060 I 
ATOM     10  F2  UNL d   1       3.467   0.922   0.691  0.00  0.00    -0.096 F 
ATOM     11  F3  UNL d   1       1.019   0.454  -0.369  0.00  0.00    -0.097 F 
ATOM     12  F4  UNL d   1      -0.511  -1.609   0.549  0.00  0.00    -0.092 F 
ENDROOT
TORSDOF 0
ENDMDL
