MODEL 1
REMARK minimizedAffinity 5.88297415
REMARK minimizedRMSD -1
REMARK  0 active torsions:
REMARK  status: ('A' for Active; 'I' for Inactive)
ROOT
ATOM      1  C   UNL d   1       1.175   0.631  -0.205  0.00  0.00     0.124 A 
ATOM      2  C1  UNL d   1       0.243   0.010   0.615  0.00  0.00     0.062 A 
ATOM      3  C2  UNL d   1       0.664  -0.820   1.650  0.00  0.00     0.162 A 
ATOM      4  C3  UNL d   1       2.025  -1.034   1.871  0.00  0.00    -0.034 A 
ATOM      5  C4  UNL d   1       2.956  -0.407   1.041  0.00  0.00     0.162 A 
ATOM      6  C5  UNL d   1       2.530   0.422   0.009  0.00  0.00     0.062 A 
ATOM      7  F   UNL d   1       3.432   1.020  -0.783  0.00  0.00    -0.097 F 
ATOM      8  F1  UNL d   1       4.272  -0.591   1.226  0.00  0.00    -0.096 F 
ATOM      9  I   UNL d   1       2.658  -2.275   3.417  0.00  0.00    -0.060 I 
ATOM     10  F2  UNL d   1      -0.258  -1.407   2.427  0.00  0.00    -0.096 F 
ATOM     11  F3  UNL d   1      -1.067   0.210   0.410  0.00  0.00    -0.097 F 
ATOM     12  F4  UNL d   1       0.767   1.429  -1.200  0.00  0.00    -0.092 F 
ENDROOT
TORSDOF 0
ENDMDL
