MODEL 1
REMARK minimizedAffinity 7.02904129
REMARK minimizedRMSD -1
REMARK  0 active torsions:
REMARK  status: ('A' for Active; 'I' for Inactive)
ROOT
ATOM      1  C   UNL d   1      -2.895  -0.253  -0.506  0.00  0.00     0.124 A 
ATOM      2  C1  UNL d   1      -1.523  -0.223  -0.713  0.00  0.00     0.062 A 
ATOM      3  C2  UNL d   1      -0.966   0.708  -1.585  0.00  0.00     0.162 A 
ATOM      4  C3  UNL d   1      -1.782   1.619  -2.257  0.00  0.00    -0.034 A 
ATOM      5  C4  UNL d   1      -3.161   1.582  -2.044  0.00  0.00     0.162 A 
ATOM      6  C5  UNL d   1      -3.713   0.650  -1.172  0.00  0.00     0.062 A 
ATOM      7  F   UNL d   1      -5.039   0.623  -0.973  0.00  0.00    -0.097 F 
ATOM      8  F1  UNL d   1      -3.975   2.443  -2.673  0.00  0.00    -0.096 F 
ATOM      9  I   UNL d   1      -0.954   3.013  -3.561  0.00  0.00    -0.060 I 
ATOM     10  F2  UNL d   1       0.363   0.714  -1.766  0.00  0.00    -0.096 F 
ATOM     11  F3  UNL d   1      -0.731  -1.095  -0.072  0.00  0.00    -0.097 F 
ATOM     12  F4  UNL d   1      -3.428  -1.150   0.333  0.00  0.00    -0.092 F 
ENDROOT
TORSDOF 0
ENDMDL
