MODEL 1
REMARK minimizedAffinity 6.74116898
REMARK minimizedRMSD -1
REMARK  0 active torsions:
REMARK  status: ('A' for Active; 'I' for Inactive)
ROOT
ATOM      1  C   UNL d   1       3.563  -0.670   1.977  0.00  0.00     0.124 A 
ATOM      2  C1  UNL d   1       3.126  -0.354   0.698  0.00  0.00     0.062 A 
ATOM      3  C2  UNL d   1       1.764  -0.306   0.415  0.00  0.00     0.162 A 
ATOM      4  C3  UNL d   1       0.828  -0.573   1.414  0.00  0.00    -0.034 A 
ATOM      5  C4  UNL d   1       1.275  -0.892   2.698  0.00  0.00     0.162 A 
ATOM      6  C5  UNL d   1       2.637  -0.938   2.976  0.00  0.00     0.062 A 
ATOM      7  F   UNL d   1       3.056  -1.244   4.212  0.00  0.00    -0.097 F 
ATOM      8  F1  UNL d   1       0.401  -1.154   3.681  0.00  0.00    -0.096 F 
ATOM      9  I   UNL d   1      -1.209  -0.502   0.995  0.00  0.00    -0.060 I 
ATOM     10  F2  UNL d   1       1.371   0.002  -0.830  0.00  0.00    -0.096 F 
ATOM     11  F3  UNL d   1       4.019  -0.095  -0.268  0.00  0.00    -0.097 F 
ATOM     12  F4  UNL d   1       4.874  -0.717   2.247  0.00  0.00    -0.092 F 
ENDROOT
TORSDOF 0
ENDMDL
