MODEL 1
REMARK minimizedAffinity 14.6939363
REMARK minimizedRMSD -1
REMARK  0 active torsions:
REMARK  status: ('A' for Active; 'I' for Inactive)
ROOT
ATOM      1  C   UNL d   1       4.340  -1.294   3.824  0.00  0.00     0.124 A 
ATOM      2  C1  UNL d   1       4.705  -0.894   2.546  0.00  0.00     0.062 A 
ATOM      3  C2  UNL d   1       3.736  -0.723   1.562  0.00  0.00     0.162 A 
ATOM      4  C3  UNL d   1       2.390  -0.951   1.853  0.00  0.00    -0.034 A 
ATOM      5  C4  UNL d   1       2.031  -1.354   3.140  0.00  0.00     0.162 A 
ATOM      6  C5  UNL d   1       3.004  -1.523   4.120  0.00  0.00     0.062 A 
ATOM      7  F   UNL d   1       2.649  -1.909   5.354  0.00  0.00    -0.097 F 
ATOM      8  F1  UNL d   1       0.747  -1.581   3.454  0.00  0.00    -0.096 F 
ATOM      9  I   UNL d   1       0.937  -0.697   0.385  0.00  0.00    -0.060 I 
ATOM     10  F2  UNL d   1       4.117  -0.337   0.336  0.00  0.00    -0.096 F 
ATOM     11  F3  UNL d   1       5.996  -0.673   2.257  0.00  0.00    -0.097 F 
ATOM     12  F4  UNL d   1       5.275  -1.458   4.769  0.00  0.00    -0.092 F 
ENDROOT
TORSDOF 0
ENDMDL
