MODEL 1
REMARK minimizedAffinity 1.29535663
REMARK minimizedRMSD -1
REMARK  0 active torsions:
REMARK  status: ('A' for Active; 'I' for Inactive)
ROOT
ATOM      1  C   UNL d   1       1.258   1.166   0.256  0.00  0.00     0.124 A 
ATOM      2  C1  UNL d   1       2.307   0.569  -0.429  0.00  0.00     0.062 A 
ATOM      3  C2  UNL d   1       3.449   1.303  -0.738  0.00  0.00     0.162 A 
ATOM      4  C3  UNL d   1       3.548   2.642  -0.361  0.00  0.00    -0.034 A 
ATOM      5  C4  UNL d   1       2.488   3.236   0.327  0.00  0.00     0.162 A 
ATOM      6  C5  UNL d   1       1.349   2.499   0.633  0.00  0.00     0.062 A 
ATOM      7  F   UNL d   1       0.337   3.077   1.295  0.00  0.00    -0.097 F 
ATOM      8  F1  UNL d   1       2.551   4.522   0.704  0.00  0.00    -0.096 F 
ATOM      9  I   UNL d   1       5.254   3.742  -0.821  0.00  0.00    -0.060 I 
ATOM     10  F2  UNL d   1       4.447   0.700  -1.401  0.00  0.00    -0.096 F 
ATOM     11  F3  UNL d   1       2.220  -0.717  -0.796  0.00  0.00    -0.097 F 
ATOM     12  F4  UNL d   1       0.160   0.459   0.550  0.00  0.00    -0.092 F 
ENDROOT
TORSDOF 0
ENDMDL
