MODEL 1
REMARK minimizedAffinity 12.3762283
REMARK minimizedRMSD -1
REMARK  0 active torsions:
REMARK  status: ('A' for Active; 'I' for Inactive)
ROOT
ATOM      1  C   UNL d   1       3.794  -1.230   3.078  0.00  0.00     0.124 A 
ATOM      2  C1  UNL d   1       2.433  -1.456   3.231  0.00  0.00     0.062 A 
ATOM      3  C2  UNL d   1       1.552  -1.147   2.200  0.00  0.00     0.162 A 
ATOM      4  C3  UNL d   1       2.028  -0.608   1.005  0.00  0.00    -0.034 A 
ATOM      5  C4  UNL d   1       3.398  -0.382   0.858  0.00  0.00     0.162 A 
ATOM      6  C5  UNL d   1       4.275  -0.693   1.892  0.00  0.00     0.062 A 
ATOM      7  F   UNL d   1       5.589  -0.474   1.742  0.00  0.00    -0.097 F 
ATOM      8  F1  UNL d   1       3.890   0.135  -0.278  0.00  0.00    -0.096 F 
ATOM      9  I   UNL d   1       0.713  -0.143  -0.540  0.00  0.00    -0.060 I 
ATOM     10  F2  UNL d   1       0.242  -1.376   2.376  0.00  0.00    -0.096 F 
ATOM     11  F3  UNL d   1       1.966  -1.974   4.377  0.00  0.00    -0.097 F 
ATOM     12  F4  UNL d   1       4.640  -1.528   4.073  0.00  0.00    -0.092 F 
ENDROOT
TORSDOF 0
ENDMDL
