MODEL 1
REMARK minimizedAffinity 11.358119
REMARK minimizedRMSD -1
REMARK  0 active torsions:
REMARK  status: ('A' for Active; 'I' for Inactive)
ROOT
ATOM      1  C   UNL d   1       0.592  -1.181   0.902  0.00  0.00     0.124 A 
ATOM      2  C1  UNL d   1       0.872  -1.371   2.248  0.00  0.00     0.062 A 
ATOM      3  C2  UNL d   1       2.181  -1.274   2.711  0.00  0.00     0.162 A 
ATOM      4  C3  UNL d   1       3.221  -0.984   1.827  0.00  0.00    -0.034 A 
ATOM      5  C4  UNL d   1       2.931  -0.795   0.475  0.00  0.00     0.162 A 
ATOM      6  C5  UNL d   1       1.622  -0.893   0.017  0.00  0.00     0.062 A 
ATOM      7  F   UNL d   1       1.353  -0.710  -1.284  0.00  0.00    -0.097 F 
ATOM      8  F1  UNL d   1       3.907  -0.515  -0.402  0.00  0.00    -0.096 F 
ATOM      9  I   UNL d   1       5.179  -0.837   2.516  0.00  0.00    -0.060 I 
ATOM     10  F2  UNL d   1       2.423  -1.462   4.017  0.00  0.00    -0.096 F 
ATOM     11  F3  UNL d   1      -0.120  -1.651   3.105  0.00  0.00    -0.097 F 
ATOM     12  F4  UNL d   1      -0.668  -1.277   0.459  0.00  0.00    -0.092 F 
ENDROOT
TORSDOF 0
ENDMDL
