MODEL 1
REMARK minimizedAffinity 12.7393188
REMARK minimizedRMSD -1
REMARK  0 active torsions:
REMARK  status: ('A' for Active; 'I' for Inactive)
ROOT
ATOM      1  C   UNL d   1       3.216  -0.834   1.119  0.00  0.00     0.124 A 
ATOM      2  C1  UNL d   1       2.673  -0.259  -0.022  0.00  0.00     0.062 A 
ATOM      3  C2  UNL d   1       1.316   0.047  -0.074  0.00  0.00     0.162 A 
ATOM      4  C3  UNL d   1       0.492  -0.221   1.019  0.00  0.00    -0.034 A 
ATOM      5  C4  UNL d   1       1.044  -0.801   2.162  0.00  0.00     0.162 A 
ATOM      6  C5  UNL d   1       2.401  -1.105   2.209  0.00  0.00     0.062 A 
ATOM      7  F   UNL d   1       2.923  -1.660   3.312  0.00  0.00    -0.097 F 
ATOM      8  F1  UNL d   1       0.280  -1.072   3.231  0.00  0.00    -0.096 F 
ATOM      9  I   UNL d   1      -1.537   0.235   0.944  0.00  0.00    -0.060 I 
ATOM     10  F2  UNL d   1       0.819   0.602  -1.190  0.00  0.00    -0.096 F 
ATOM     11  F3  UNL d   1       3.458   0.002  -1.077  0.00  0.00    -0.097 F 
ATOM     12  F4  UNL d   1       4.521  -1.129   1.166  0.00  0.00    -0.092 F 
ENDROOT
TORSDOF 0
ENDMDL
