MODEL 1
REMARK minimizedAffinity 14.4066715
REMARK minimizedRMSD -1
REMARK  0 active torsions:
REMARK  status: ('A' for Active; 'I' for Inactive)
ROOT
ATOM      1  C   UNL d   1       0.063   0.069   0.799  0.00  0.00     0.124 A 
ATOM      2  C1  UNL d   1       0.814  -1.075   0.569  0.00  0.00     0.062 A 
ATOM      3  C2  UNL d   1       0.190  -2.315   0.475  0.00  0.00     0.162 A 
ATOM      4  C3  UNL d   1      -1.195  -2.418   0.610  0.00  0.00    -0.034 A 
ATOM      5  C4  UNL d   1      -1.944  -1.263   0.842  0.00  0.00     0.162 A 
ATOM      6  C5  UNL d   1      -1.315  -0.026   0.935  0.00  0.00     0.062 A 
ATOM      7  F   UNL d   1      -2.043   1.078   1.157  0.00  0.00    -0.097 F 
ATOM      8  F1  UNL d   1      -3.277  -1.326   0.976  0.00  0.00    -0.096 F 
ATOM      9  I   UNL d   1      -2.132  -4.271   0.470  0.00  0.00    -0.060 I 
ATOM     10  F2  UNL d   1       0.941  -3.404   0.252  0.00  0.00    -0.096 F 
ATOM     11  F3  UNL d   1       2.146  -0.986   0.438  0.00  0.00    -0.097 F 
ATOM     12  F4  UNL d   1       0.666   1.261   0.890  0.00  0.00    -0.092 F 
ENDROOT
TORSDOF 0
ENDMDL
