MODEL 1
REMARK minimizedAffinity 12.5819283
REMARK minimizedRMSD -1
REMARK  0 active torsions:
REMARK  status: ('A' for Active; 'I' for Inactive)
ROOT
ATOM      1  C   UNL d   1      -1.841   1.229  -0.916  0.00  0.00     0.124 A 
ATOM      2  C1  UNL d   1      -0.800   0.918  -1.779  0.00  0.00     0.062 A 
ATOM      3  C2  UNL d   1       0.352   0.305  -1.295  0.00  0.00     0.162 A 
ATOM      4  C3  UNL d   1       0.469  -0.002   0.061  0.00  0.00    -0.034 A 
ATOM      5  C4  UNL d   1      -0.582   0.315   0.923  0.00  0.00     0.162 A 
ATOM      6  C5  UNL d   1      -1.731   0.928   0.434  0.00  0.00     0.062 A 
ATOM      7  F   UNL d   1      -2.736   1.228   1.270  0.00  0.00    -0.097 F 
ATOM      8  F1  UNL d   1      -0.503   0.034   2.232  0.00  0.00    -0.096 F 
ATOM      9  I   UNL d   1       2.190  -0.918   0.789  0.00  0.00    -0.060 I 
ATOM     10  F2  UNL d   1       1.342   0.016  -2.153  0.00  0.00    -0.096 F 
ATOM     11  F3  UNL d   1      -0.904   1.210  -3.084  0.00  0.00    -0.097 F 
ATOM     12  F4  UNL d   1      -2.948   1.820  -1.384  0.00  0.00    -0.092 F 
ENDROOT
TORSDOF 0
ENDMDL
