MODEL 1
REMARK minimizedAffinity 17.2138405
REMARK minimizedRMSD -1
REMARK  0 active torsions:
REMARK  status: ('A' for Active; 'I' for Inactive)
ROOT
ATOM      1  C   UNL d   1      -3.337   1.165  -3.266  0.00  0.00     0.124 A 
ATOM      2  C1  UNL d   1      -2.154   1.886  -3.347  0.00  0.00     0.062 A 
ATOM      3  C2  UNL d   1      -1.091   1.585  -2.500  0.00  0.00     0.162 A 
ATOM      4  C3  UNL d   1      -1.206   0.555  -1.565  0.00  0.00    -0.034 A 
ATOM      5  C4  UNL d   1      -2.400  -0.165  -1.489  0.00  0.00     0.162 A 
ATOM      6  C5  UNL d   1      -3.459   0.141  -2.338  0.00  0.00     0.062 A 
ATOM      7  F   UNL d   1      -4.602  -0.557  -2.258  0.00  0.00    -0.097 F 
ATOM      8  F1  UNL d   1      -2.544  -1.160  -0.602  0.00  0.00    -0.096 F 
ATOM      9  I   UNL d   1       0.381   0.101  -0.298  0.00  0.00    -0.060 I 
ATOM     10  F2  UNL d   1       0.040   2.298  -2.600  0.00  0.00    -0.096 F 
ATOM     11  F3  UNL d   1      -2.034   2.877  -4.242  0.00  0.00    -0.097 F 
ATOM     12  F4  UNL d   1      -4.359   1.458  -4.081  0.00  0.00    -0.092 F 
ENDROOT
TORSDOF 0
ENDMDL
