MODEL 1
REMARK minimizedAffinity 4.30544329
REMARK minimizedRMSD -1
REMARK  0 active torsions:
REMARK  status: ('A' for Active; 'I' for Inactive)
ROOT
ATOM      1  N1  IND d   1      -4.032   5.931   1.958  0.00  0.00    -0.196 N 
ATOM      2  C2  IND d   1      -5.393   5.844   1.860  0.00  0.00     0.054 A 
ATOM      3  C3  IND d   1      -5.945   5.719   3.088  0.00  0.00    -0.031 A 
ATOM      4  C4  IND d   1      -4.814   5.737   5.400  0.00  0.00     0.051 A 
ATOM      5  C5  IND d   1      -3.585   5.758   5.998  0.00  0.00    -0.031 A 
ATOM      6  C6  IND d   1      -2.419   5.842   5.265  0.00  0.00     0.015 A 
ATOM      7  C7  IND d   1      -2.439   5.920   3.901  0.00  0.00    -0.016 A 
ATOM      8  C8  IND d   1      -3.684   5.892   3.290  0.00  0.00    -0.047 A 
ATOM      9  C9  IND d   1      -4.869   5.764   4.027  0.00  0.00    -0.096 A 
ATOM     10  HN1 IND d   1      -3.485   5.999   1.298  0.00  0.00     0.298 HD
ENDROOT
TORSDOF 0
ENDMDL
