MODEL 1
REMARK minimizedAffinity -0.890458524
REMARK minimizedRMSD -1
REMARK  0 active torsions:
REMARK  status: ('A' for Active; 'I' for Inactive)
ROOT
ATOM      1  N1  IND d   1      -4.730   5.841   4.640  0.00  0.00    -0.196 N 
ATOM      2  C2  IND d   1      -4.982   5.887   3.297  0.00  0.00     0.054 A 
ATOM      3  C3  IND d   1      -3.825   5.985   2.605  0.00  0.00    -0.031 A 
ATOM      4  C4  IND d   1      -1.399   5.986   3.465  0.00  0.00     0.051 A 
ATOM      5  C5  IND d   1      -0.664   5.999   4.618  0.00  0.00    -0.031 A 
ATOM      6  C6  IND d   1      -1.260   5.957   5.862  0.00  0.00     0.015 A 
ATOM      7  C7  IND d   1      -2.617   5.888   6.000  0.00  0.00    -0.016 A 
ATOM      8  C8  IND d   1      -3.366   5.881   4.832  0.00  0.00    -0.047 A 
ATOM      9  C9  IND d   1      -2.770   5.967   3.567  0.00  0.00    -0.096 A 
ATOM     10  HN1 IND d   1      -5.323   5.795   5.261  0.00  0.00     0.298 HD
ENDROOT
TORSDOF 0
ENDMDL
