MODEL 1
REMARK minimizedAffinity -2.63208079
REMARK minimizedRMSD -1
REMARK  0 active torsions:
REMARK  status: ('A' for Active; 'I' for Inactive)
ROOT
ATOM      1  N1  IND d   1       3.865  -1.517   5.315  0.00  0.00    -0.196 N 
ATOM      2  C2  IND d   1       4.996  -0.824   5.645  0.00  0.00     0.054 A 
ATOM      3  C3  IND d   1       5.985  -1.677   5.994  0.00  0.00    -0.031 A 
ATOM      4  C4  IND d   1       5.999  -4.251   5.999  0.00  0.00     0.051 A 
ATOM      5  C5  IND d   1       5.186  -5.333   5.810  0.00  0.00    -0.031 A 
ATOM      6  C6  IND d   1       3.865  -5.196   5.436  0.00  0.00     0.015 A 
ATOM      7  C7  IND d   1       3.309  -3.966   5.225  0.00  0.00    -0.016 A 
ATOM      8  C8  IND d   1       4.129  -2.865   5.423  0.00  0.00    -0.047 A 
ATOM      9  C9  IND d   1       5.459  -2.997   5.844  0.00  0.00    -0.096 A 
ATOM     10  HN1 IND d   1       3.114  -1.170   5.080  0.00  0.00     0.298 HD
ENDROOT
TORSDOF 0
ENDMDL
