MODEL 1
REMARK minimizedAffinity 3.64293003
REMARK minimizedRMSD -1
REMARK  0 active torsions:
REMARK  status: ('A' for Active; 'I' for Inactive)
ROOT
ATOM      1  N1  IND d   1      -2.265   5.929   4.718  0.00  0.00    -0.196 N 
ATOM      2  C2  IND d   1      -2.741   5.957   6.000  0.00  0.00     0.054 A 
ATOM      3  C3  IND d   1      -4.092   6.000   5.999  0.00  0.00    -0.031 A 
ATOM      4  C4  IND d   1      -5.730   5.929   4.015  0.00  0.00     0.051 A 
ATOM      5  C5  IND d   1      -5.768   5.939   2.649  0.00  0.00    -0.031 A 
ATOM      6  C6  IND d   1      -4.617   5.943   1.887  0.00  0.00     0.015 A 
ATOM      7  C7  IND d   1      -3.380   5.926   2.466  0.00  0.00    -0.016 A 
ATOM      8  C8  IND d   1      -3.337   5.923   3.853  0.00  0.00    -0.047 A 
ATOM      9  C9  IND d   1      -4.502   5.962   4.631  0.00  0.00    -0.096 A 
ATOM     10  HN1 IND d   1      -1.436   5.916   4.491  0.00  0.00     0.298 HD
ENDROOT
TORSDOF 0
ENDMDL
