MODEL 1
REMARK minimizedAffinity -2.82243609
REMARK minimizedRMSD -1
REMARK  0 active torsions:
REMARK  status: ('A' for Active; 'I' for Inactive)
ROOT
ATOM      1  N1  IND d   1       3.876  -1.601   4.855  0.00  0.00    -0.196 N 
ATOM      2  C2  IND d   1       5.010  -0.866   5.061  0.00  0.00     0.054 A 
ATOM      3  C3  IND d   1       5.995  -1.650   5.553  0.00  0.00    -0.031 A 
ATOM      4  C4  IND d   1       6.000  -4.185   6.000  0.00  0.00     0.051 A 
ATOM      5  C5  IND d   1       5.183  -5.280   5.999  0.00  0.00    -0.031 A 
ATOM      6  C6  IND d   1       3.862  -5.204   5.605  0.00  0.00     0.015 A 
ATOM      7  C7  IND d   1       3.310  -4.027   5.186  0.00  0.00    -0.016 A 
ATOM      8  C8  IND d   1       4.135  -2.911   5.193  0.00  0.00    -0.047 A 
ATOM      9  C9  IND d   1       5.464  -2.973   5.631  0.00  0.00    -0.096 A 
ATOM     10  HN1 IND d   1       3.127  -1.297   4.563  0.00  0.00     0.298 HD
ENDROOT
TORSDOF 0
ENDMDL
