MODEL 1
REMARK minimizedAffinity 1.15763795
REMARK minimizedRMSD -1
REMARK  0 active torsions:
REMARK  status: ('A' for Active; 'I' for Inactive)
ROOT
ATOM      1  N1  IND d   1      -1.549   5.980   4.667  0.00  0.00    -0.196 N 
ATOM      2  C2  IND d   1      -2.053   5.925   5.936  0.00  0.00     0.054 A 
ATOM      3  C3  IND d   1      -3.403   5.853   5.904  0.00  0.00    -0.031 A 
ATOM      4  C4  IND d   1      -4.985   5.711   3.878  0.00  0.00     0.051 A 
ATOM      5  C5  IND d   1      -4.994   5.763   2.513  0.00  0.00    -0.031 A 
ATOM      6  C6  IND d   1      -3.832   5.890   1.780  0.00  0.00     0.015 A 
ATOM      7  C7  IND d   1      -2.610   5.959   2.389  0.00  0.00    -0.016 A 
ATOM      8  C8  IND d   1      -2.598   5.913   3.776  0.00  0.00    -0.047 A 
ATOM      9  C9  IND d   1      -3.778   5.827   4.526  0.00  0.00    -0.096 A 
ATOM     10  HN1 IND d   1      -0.717   6.046   4.459  0.00  0.00     0.298 HD
ENDROOT
TORSDOF 0
ENDMDL
