MODEL 1
REMARK minimizedAffinity 6.72517347
REMARK minimizedRMSD -1
REMARK  0 active torsions:
REMARK  status: ('A' for Active; 'I' for Inactive)
ROOT
ATOM      1  N1  IND d   1       4.451   1.436  -4.846  0.00  0.00    -0.196 N 
ATOM      2  C2  IND d   1       4.307   2.169  -5.991  0.00  0.00     0.054 A 
ATOM      3  C3  IND d   1       3.124   2.823  -5.984  0.00  0.00    -0.031 A 
ATOM      4  C4  IND d   1       1.316   2.915  -4.154  0.00  0.00     0.051 A 
ATOM      5  C5  IND d   1       0.982   2.380  -2.942  0.00  0.00    -0.031 A 
ATOM      6  C6  IND d   1       1.806   1.487  -2.288  0.00  0.00     0.015 A 
ATOM      7  C7  IND d   1       3.004   1.102  -2.819  0.00  0.00    -0.016 A 
ATOM      8  C8  IND d   1       3.343   1.638  -4.053  0.00  0.00    -0.047 A 
ATOM      9  C9  IND d   1       2.492   2.512  -4.742  0.00  0.00    -0.096 A 
ATOM     10  HN1 IND d   1       5.121   0.932  -4.654  0.00  0.00     0.298 HD
ENDROOT
TORSDOF 0
ENDMDL
