MODEL 1
REMARK minimizedAffinity 0.635728121
REMARK minimizedRMSD -1
REMARK  0 active torsions:
REMARK  status: ('A' for Active; 'I' for Inactive)
ROOT
ATOM      1  N1  IND d   1       3.060   3.317  -5.534  0.00  0.00    -0.196 N 
ATOM      2  C2  IND d   1       4.119   2.589  -6.000  0.00  0.00     0.054 A 
ATOM      3  C3  IND d   1       4.286   1.473  -5.255  0.00  0.00    -0.031 A 
ATOM      4  C4  IND d   1       2.875   0.592  -3.290  0.00  0.00     0.051 A 
ATOM      5  C5  IND d   1       1.828   0.929  -2.480  0.00  0.00    -0.031 A 
ATOM      6  C6  IND d   1       1.121   2.102  -2.651  0.00  0.00     0.015 A 
ATOM      7  C7  IND d   1       1.430   2.980  -3.652  0.00  0.00    -0.016 A 
ATOM      8  C8  IND d   1       2.498   2.644  -4.472  0.00  0.00    -0.047 A 
ATOM      9  C9  IND d   1       3.246   1.476  -4.276  0.00  0.00    -0.096 A 
ATOM     10  HN1 IND d   1       2.790   4.069  -5.852  0.00  0.00     0.298 HD
ENDROOT
TORSDOF 0
ENDMDL
