MODEL 1
REMARK minimizedAffinity -0.508169115
REMARK minimizedRMSD -1
REMARK  0 active torsions:
REMARK  status: ('A' for Active; 'I' for Inactive)
ROOT
ATOM      1  N1  IND d   1      -4.493   5.972   2.570  0.00  0.00    -0.196 N 
ATOM      2  C2  IND d   1      -5.752   5.952   3.103  0.00  0.00     0.054 A 
ATOM      3  C3  IND d   1      -5.690   5.920   4.453  0.00  0.00    -0.031 A 
ATOM      4  C4  IND d   1      -3.633   5.996   5.999  0.00  0.00     0.051 A 
ATOM      5  C5  IND d   1      -2.267   5.982   5.975  0.00  0.00    -0.031 A 
ATOM      6  C6  IND d   1      -1.558   5.967   4.790  0.00  0.00     0.015 A 
ATOM      7  C7  IND d   1      -2.193   5.976   3.581  0.00  0.00    -0.016 A 
ATOM      8  C8  IND d   1      -3.580   5.983   3.601  0.00  0.00    -0.047 A 
ATOM      9  C9  IND d   1      -4.305   5.956   4.800  0.00  0.00    -0.096 A 
ATOM     10  HN1 IND d   1      -4.304   5.977   1.731  0.00  0.00     0.298 HD
ENDROOT
TORSDOF 0
ENDMDL
