MODEL 1
REMARK minimizedAffinity 5.87453938
REMARK minimizedRMSD -1
REMARK  0 active torsions:
REMARK  status: ('A' for Active; 'I' for Inactive)
ROOT
ATOM      1  N1  IND d   1       0.571   1.589  -2.236  0.00  0.00    -0.196 N 
ATOM      2  C2  IND d   1       1.035   0.337  -1.939  0.00  0.00     0.054 A 
ATOM      3  C3  IND d   1       2.217   0.116  -2.557  0.00  0.00    -0.031 A 
ATOM      4  C4  IND d   1       3.622   1.702  -4.018  0.00  0.00     0.051 A 
ATOM      5  C5  IND d   1       3.594   2.938  -4.600  0.00  0.00    -0.031 A 
ATOM      6  C6  IND d   1       2.537   3.806  -4.418  0.00  0.00     0.015 A 
ATOM      7  C7  IND d   1       1.469   3.473  -3.634  0.00  0.00    -0.016 A 
ATOM      8  C8  IND d   1       1.490   2.216  -3.047  0.00  0.00    -0.047 A 
ATOM      9  C9  IND d   1       2.541   1.315  -3.262  0.00  0.00    -0.096 A 
ATOM     10  HN1 IND d   1      -0.170   1.927  -1.961  0.00  0.00     0.298 HD
ENDROOT
TORSDOF 0
ENDMDL
