MODEL 1
REMARK minimizedAffinity 2.66046333
REMARK minimizedRMSD -1
REMARK  0 active torsions:
REMARK  status: ('A' for Active; 'I' for Inactive)
ROOT
ATOM      1  N1  IND d   1      -2.270   6.000   4.754  0.00  0.00    -0.196 N 
ATOM      2  C2  IND d   1      -2.832   6.000   6.000  0.00  0.00     0.054 A 
ATOM      3  C3  IND d   1      -4.110   5.562   5.939  0.00  0.00    -0.031 A 
ATOM      4  C4  IND d   1      -5.448   4.698   3.917  0.00  0.00     0.051 A 
ATOM      5  C5  IND d   1      -5.371   4.542   2.562  0.00  0.00    -0.031 A 
ATOM      6  C6  IND d   1      -4.233   4.868   1.854  0.00  0.00     0.015 A 
ATOM      7  C7  IND d   1      -3.120   5.353   2.479  0.00  0.00    -0.016 A 
ATOM      8  C8  IND d   1      -3.196   5.520   3.855  0.00  0.00    -0.047 A 
ATOM      9  C9  IND d   1      -4.364   5.231   4.573  0.00  0.00    -0.096 A 
ATOM     10  HN1 IND d   1      -1.471   6.256   4.564  0.00  0.00     0.298 HD
ENDROOT
TORSDOF 0
ENDMDL
