MODEL 1
REMARK minimizedAffinity 4.76992035
REMARK minimizedRMSD -1
REMARK  0 active torsions:
REMARK  status: ('A' for Active; 'I' for Inactive)
ROOT
ATOM      1  N1  IND d   1       1.826   0.461  -1.417  0.00  0.00    -0.196 N 
ATOM      2  C2  IND d   1       1.641  -0.748  -2.027  0.00  0.00     0.054 A 
ATOM      3  C3  IND d   1       1.468  -0.582  -3.357  0.00  0.00    -0.031 A 
ATOM      4  C4  IND d   1       1.553   1.574  -4.761  0.00  0.00     0.051 A 
ATOM      5  C5  IND d   1       1.659   2.931  -4.645  0.00  0.00    -0.031 A 
ATOM      6  C6  IND d   1       1.832   3.547  -3.423  0.00  0.00     0.015 A 
ATOM      7  C7  IND d   1       1.918   2.824  -2.267  0.00  0.00    -0.016 A 
ATOM      8  C8  IND d   1       1.804   1.446  -2.380  0.00  0.00    -0.047 A 
ATOM      9  C9  IND d   1       1.585   0.818  -3.613  0.00  0.00    -0.096 A 
ATOM     10  HN1 IND d   1       1.938   0.586  -0.574  0.00  0.00     0.298 HD
ENDROOT
TORSDOF 0
ENDMDL
