MODEL 1
REMARK minimizedAffinity 1.36148095
REMARK minimizedRMSD -1
REMARK  0 active torsions:
REMARK  status: ('A' for Active; 'I' for Inactive)
ROOT
ATOM      1  N1  IND d   1       1.341   0.228  -0.357  0.00  0.00    -0.196 N 
ATOM      2  C2  IND d   1       1.613  -0.982  -0.933  0.00  0.00     0.054 A 
ATOM      3  C3  IND d   1       1.927  -0.821  -2.238  0.00  0.00    -0.031 A 
ATOM      4  C4  IND d   1       2.154   1.344  -3.612  0.00  0.00     0.051 A 
ATOM      5  C5  IND d   1       1.969   2.696  -3.530  0.00  0.00    -0.031 A 
ATOM      6  C6  IND d   1       1.559   3.307  -2.363  0.00  0.00     0.015 A 
ATOM      7  C7  IND d   1       1.329   2.586  -1.225  0.00  0.00    -0.016 A 
ATOM      8  C8  IND d   1       1.510   1.213  -1.306  0.00  0.00    -0.047 A 
ATOM      9  C9  IND d   1       1.884   0.582  -2.499  0.00  0.00    -0.096 A 
ATOM     10  HN1 IND d   1       1.104   0.353   0.460  0.00  0.00     0.298 HD
ENDROOT
TORSDOF 0
ENDMDL
