MODEL 1
REMARK minimizedAffinity -1.6778065
REMARK minimizedRMSD -1
REMARK  0 active torsions:
REMARK  status: ('A' for Active; 'I' for Inactive)
ROOT
ATOM      1  N1  IND d   1      -2.160   5.822   4.714  0.00  0.00    -0.196 N 
ATOM      2  C2  IND d   1      -2.631   5.868   5.997  0.00  0.00     0.054 A 
ATOM      3  C3  IND d   1      -3.978   5.973   6.000  0.00  0.00    -0.031 A 
ATOM      4  C4  IND d   1      -5.622   5.984   4.019  0.00  0.00     0.051 A 
ATOM      5  C5  IND d   1      -5.663   5.999   2.653  0.00  0.00    -0.031 A 
ATOM      6  C6  IND d   1      -4.515   5.953   1.889  0.00  0.00     0.015 A 
ATOM      7  C7  IND d   1      -3.278   5.877   2.465  0.00  0.00    -0.016 A 
ATOM      8  C8  IND d   1      -3.233   5.868   3.852  0.00  0.00    -0.047 A 
ATOM      9  C9  IND d   1      -4.392   5.958   4.633  0.00  0.00    -0.096 A 
ATOM     10  HN1 IND d   1      -1.333   5.772   4.485  0.00  0.00     0.298 HD
ENDROOT
TORSDOF 0
ENDMDL
