MODEL 1
REMARK minimizedAffinity 4.53202677
REMARK minimizedRMSD -1
REMARK  0 active torsions:
REMARK  status: ('A' for Active; 'I' for Inactive)
ROOT
ATOM      1  N1  IND d   1       5.420  -1.561   5.251  0.00  0.00    -0.196 N 
ATOM      2  C2  IND d   1       4.245  -0.889   5.061  0.00  0.00     0.054 A 
ATOM      3  C3  IND d   1       3.196  -1.734   5.174  0.00  0.00    -0.031 A 
ATOM      4  C4  IND d   1       3.171  -4.239   5.767  0.00  0.00     0.051 A 
ATOM      5  C5  IND d   1       4.001  -5.301   5.994  0.00  0.00    -0.031 A 
ATOM      6  C6  IND d   1       5.375  -5.167   5.986  0.00  0.00     0.015 A 
ATOM      7  C7  IND d   1       5.971  -3.959   5.763  0.00  0.00    -0.016 A 
ATOM      8  C8  IND d   1       5.132  -2.880   5.526  0.00  0.00    -0.047 A 
ATOM      9  C9  IND d   1       3.738  -3.018   5.490  0.00  0.00    -0.096 A 
ATOM     10  HN1 IND d   1       6.207  -1.218   5.206  0.00  0.00     0.298 HD
ENDROOT
TORSDOF 0
ENDMDL
