MODEL 1
REMARK minimizedAffinity 1.17349422
REMARK minimizedRMSD -1
REMARK  0 active torsions:
REMARK  status: ('A' for Active; 'I' for Inactive)
ROOT
ATOM      1  N1  IND d   1       0.729   0.944  -4.733  0.00  0.00    -0.196 N 
ATOM      2  C2  IND d   1       0.798   0.225  -3.572  0.00  0.00     0.054 A 
ATOM      3  C3  IND d   1       1.354   0.970  -2.591  0.00  0.00    -0.031 A 
ATOM      4  C4  IND d   1       2.129   3.425  -2.640  0.00  0.00     0.051 A 
ATOM      5  C5  IND d   1       2.299   4.484  -3.487  0.00  0.00    -0.031 A 
ATOM      6  C6  IND d   1       1.945   4.416  -4.819  0.00  0.00     0.015 A 
ATOM      7  C7  IND d   1       1.395   3.286  -5.353  0.00  0.00    -0.016 A 
ATOM      8  C8  IND d   1       1.227   2.206  -4.498  0.00  0.00    -0.047 A 
ATOM      9  C9  IND d   1       1.623   2.255  -3.155  0.00  0.00    -0.096 A 
ATOM     10  HN1 IND d   1       0.426   0.655  -5.484  0.00  0.00     0.298 HD
ENDROOT
TORSDOF 0
ENDMDL
