MODEL 1
REMARK minimizedAffinity 3.09567857
REMARK minimizedRMSD -1
REMARK  0 active torsions:
REMARK  status: ('A' for Active; 'I' for Inactive)
ROOT
ATOM      1  N1  IND d   1      -2.649   5.982   5.143  0.00  0.00    -0.196 N 
ATOM      2  C2  IND d   1      -3.717   6.000   5.997  0.00  0.00     0.054 A 
ATOM      3  C3  IND d   1      -4.875   5.935   5.303  0.00  0.00    -0.031 A 
ATOM      4  C4  IND d   1      -5.252   5.692   2.768  0.00  0.00     0.051 A 
ATOM      5  C5  IND d   1      -4.582   5.670   1.577  0.00  0.00    -0.031 A 
ATOM      6  C6  IND d   1      -3.206   5.749   1.513  0.00  0.00     0.015 A 
ATOM      7  C7  IND d   1      -2.444   5.843   2.643  0.00  0.00    -0.016 A 
ATOM      8  C8  IND d   1      -3.121   5.873   3.854  0.00  0.00    -0.047 A 
ATOM      9  C9  IND d   1      -4.520   5.836   3.923  0.00  0.00    -0.096 A 
ATOM     10  HN1 IND d   1      -1.822   6.031   5.373  0.00  0.00     0.298 HD
ENDROOT
TORSDOF 0
ENDMDL
