MODEL 1
REMARK minimizedAffinity 13.3031664
REMARK minimizedRMSD -1
REMARK  0 active torsions:
REMARK  status: ('A' for Active; 'I' for Inactive)
ROOT
ATOM      1  C1  DEN d   1      -0.813   2.305   4.478  0.00  0.00     0.130 A 
ATOM      2  C2  DEN d   1      -0.188   2.622   5.759  0.00  0.00    -0.031 A 
ATOM      3  C3  DEN d   1       0.982   1.737   5.928  0.00  0.00     0.027 A 
ATOM      4  C4  DEN d   1       1.884  -0.082   4.337  0.00  0.00     0.027 A 
ATOM      5  C5  DEN d   1       1.681  -0.722   3.134  0.00  0.00    -0.003 A 
ATOM      6  C6  DEN d   1       0.622  -0.425   2.318  0.00  0.00     0.001 A 
ATOM      7  C7  DEN d   1      -0.250   0.570   2.673  0.00  0.00     0.017 A 
ATOM      8  C8  DEN d   1      -0.056   1.216   3.887  0.00  0.00    -0.094 A 
ATOM      9  C9  DEN d   1       1.028   0.909   4.693  0.00  0.00    -0.072 A 
ENDROOT
TORSDOF 0
ENDMDL
