MODEL 1
REMARK minimizedAffinity 11.0151148
REMARK minimizedRMSD -1
REMARK  0 active torsions:
REMARK  status: ('A' for Active; 'I' for Inactive)
ROOT
ATOM      1  C1  DEN d   1       3.704   4.632   0.906  0.00  0.00     0.130 A 
ATOM      2  C2  DEN d   1       4.192   5.998   1.077  0.00  0.00    -0.031 A 
ATOM      3  C3  DEN d   1       5.180   5.996   2.175  0.00  0.00     0.027 A 
ATOM      4  C4  DEN d   1       6.000   4.020   3.616  0.00  0.00     0.027 A 
ATOM      5  C5  DEN d   1       5.865   2.669   3.850  0.00  0.00    -0.003 A 
ATOM      6  C6  DEN d   1       4.983   1.891   3.148  0.00  0.00     0.001 A 
ATOM      7  C7  DEN d   1       4.233   2.449   2.147  0.00  0.00     0.017 A 
ATOM      8  C8  DEN d   1       4.358   3.812   1.910  0.00  0.00    -0.094 A 
ATOM      9  C9  DEN d   1       5.265   4.579   2.622  0.00  0.00    -0.072 A 
ENDROOT
TORSDOF 0
ENDMDL
