MODEL 1
REMARK minimizedAffinity 18.790329
REMARK minimizedRMSD -1
REMARK  0 active torsions:
REMARK  status: ('A' for Active; 'I' for Inactive)
ROOT
ATOM      1  C1  DEN d   1      -2.467  -0.248   2.010  0.00  0.00     0.130 A 
ATOM      2  C2  DEN d   1      -3.349  -1.335   2.425  0.00  0.00    -0.031 A 
ATOM      3  C3  DEN d   1      -2.543  -2.311   3.186  0.00  0.00     0.027 A 
ATOM      4  C4  DEN d   1      -0.030  -2.242   3.763  0.00  0.00     0.027 A 
ATOM      5  C5  DEN d   1       1.135  -1.523   3.617  0.00  0.00    -0.003 A 
ATOM      6  C6  DEN d   1       1.189  -0.356   2.902  0.00  0.00     0.001 A 
ATOM      7  C7  DEN d   1       0.045   0.151   2.344  0.00  0.00     0.017 A 
ATOM      8  C8  DEN d   1      -1.132  -0.572   2.481  0.00  0.00    -0.094 A 
ATOM      9  C9  DEN d   1      -1.168  -1.743   3.217  0.00  0.00    -0.072 A 
ENDROOT
TORSDOF 0
ENDMDL
