MODEL 1
REMARK minimizedAffinity 10.6749649
REMARK minimizedRMSD -1
REMARK  0 active torsions:
REMARK  status: ('A' for Active; 'I' for Inactive)
ROOT
ATOM      1  C1  DEN d   1       1.771  -0.906   3.718  0.00  0.00     0.130 A 
ATOM      2  C2  DEN d   1       2.612   0.132   4.309  0.00  0.00    -0.031 A 
ATOM      3  C3  DEN d   1       1.809   1.367   4.412  0.00  0.00     0.027 A 
ATOM      4  C4  DEN d   1      -0.643   1.770   3.722  0.00  0.00     0.027 A 
ATOM      5  C5  DEN d   1      -1.762   1.191   3.164  0.00  0.00    -0.003 A 
ATOM      6  C6  DEN d   1      -1.771  -0.106   2.724  0.00  0.00     0.001 A 
ATOM      7  C7  DEN d   1      -0.652  -0.882   2.876  0.00  0.00     0.017 A 
ATOM      8  C8  DEN d   1       0.482  -0.303   3.431  0.00  0.00    -0.094 A 
ATOM      9  C9  DEN d   1       0.467   1.006   3.881  0.00  0.00    -0.072 A 
ENDROOT
TORSDOF 0
ENDMDL
