MODEL 1
REMARK minimizedAffinity 70.3818817
REMARK minimizedRMSD -1
REMARK  0 active torsions:
REMARK  status: ('A' for Active; 'I' for Inactive)
ROOT
ATOM      1  C1  DEN d   1       0.752   1.118   5.996  0.00  0.00     0.130 A 
ATOM      2  C2  DEN d   1      -0.064   2.329   6.000  0.00  0.00    -0.031 A 
ATOM      3  C3  DEN d   1      -0.723   2.440   4.683  0.00  0.00     0.027 A 
ATOM      4  C4  DEN d   1      -0.564   0.860   2.651  0.00  0.00     0.027 A 
ATOM      5  C5  DEN d   1       0.015  -0.293   2.168  0.00  0.00    -0.003 A 
ATOM      6  C6  DEN d   1       0.900  -1.032   2.909  0.00  0.00     0.001 A 
ATOM      7  C7  DEN d   1       1.196  -0.650   4.191  0.00  0.00     0.017 A 
ATOM      8  C8  DEN d   1       0.622   0.515   4.682  0.00  0.00    -0.094 A 
ATOM      9  C9  DEN d   1      -0.279   1.241   3.922  0.00  0.00    -0.072 A 
ENDROOT
TORSDOF 0
ENDMDL
