MODEL 1
REMARK minimizedAffinity 15.6728735
REMARK minimizedRMSD -1
REMARK  0 active torsions:
REMARK  status: ('A' for Active; 'I' for Inactive)
ROOT
ATOM      1  C1  DEN d   1       0.227   2.105   3.289  0.00  0.00     0.130 A 
ATOM      2  C2  DEN d   1      -1.094   1.924   2.693  0.00  0.00    -0.031 A 
ATOM      3  C3  DEN d   1      -1.257   0.492   2.371  0.00  0.00     0.027 A 
ATOM      4  C4  DEN d   1       0.396  -1.453   2.741  0.00  0.00     0.027 A 
ATOM      5  C5  DEN d   1       1.648  -1.789   3.205  0.00  0.00    -0.003 A 
ATOM      6  C6  DEN d   1       2.521  -0.853   3.694  0.00  0.00     0.001 A 
ATOM      7  C7  DEN d   1       2.135   0.459   3.772  0.00  0.00     0.017 A 
ATOM      8  C8  DEN d   1       0.877   0.806   3.299  0.00  0.00    -0.094 A 
ATOM      9  C9  DEN d   1       0.004  -0.156   2.820  0.00  0.00    -0.072 A 
ENDROOT
TORSDOF 0
ENDMDL
