MODEL 1
REMARK minimizedAffinity -4.2329545
REMARK minimizedRMSD -1
REMARK  0 active torsions:
REMARK  status: ('A' for Active; 'I' for Inactive)
ROOT
ATOM      1  C   UNL d   1       1.871  -1.771  -0.407  0.00  0.00     0.078 C 
ATOM      2  C1  UNL d   1       0.810  -1.048   0.367  0.00  0.00    -0.077 A 
ATOM      3  C2  UNL d   1       0.073  -0.010  -0.217  0.00  0.00    -0.001 A 
ATOM      4  C3  UNL d   1      -0.906   0.661   0.518  0.00  0.00     0.003 A 
ATOM      5  C4  UNL d   1      -1.155   0.303   1.842  0.00  0.00    -0.005 A 
ATOM      6  C5  UNL d   1      -0.426  -0.727   2.431  0.00  0.00     0.003 A 
ATOM      7  C6  UNL d   1       0.553  -1.399   1.698  0.00  0.00    -0.001 A 
ENDROOT
TORSDOF 0
ENDMDL
