MODEL 1
REMARK minimizedAffinity -3.73958564
REMARK minimizedRMSD -1
REMARK  0 active torsions:
REMARK  status: ('A' for Active; 'I' for Inactive)
ROOT
ATOM      1  C   UNL d   1       0.380  -0.740   1.775  0.00  0.00     0.078 C 
ATOM      2  C1  UNL d   1       0.114   0.033   0.518  0.00  0.00    -0.077 A 
ATOM      3  C2  UNL d   1      -0.401  -0.597  -0.621  0.00  0.00    -0.001 A 
ATOM      4  C3  UNL d   1      -0.634   0.134  -1.788  0.00  0.00     0.003 A 
ATOM      5  C4  UNL d   1      -0.353   1.498  -1.826  0.00  0.00    -0.005 A 
ATOM      6  C5  UNL d   1       0.162   2.134  -0.698  0.00  0.00     0.003 A 
ATOM      7  C6  UNL d   1       0.395   1.405   0.469  0.00  0.00    -0.001 A 
ENDROOT
TORSDOF 0
ENDMDL
