MODEL 1
REMARK minimizedAffinity -3.60221052
REMARK minimizedRMSD -1
REMARK  0 active torsions:
REMARK  status: ('A' for Active; 'I' for Inactive)
ROOT
ATOM      1  C   UNL d   1      -0.607   1.164  -1.409  0.00  0.00     0.078 C 
ATOM      2  C1  UNL d   1      -0.404   0.387  -0.142  0.00  0.00    -0.077 A 
ATOM      3  C2  UNL d   1      -1.006   0.791   1.056  0.00  0.00    -0.001 A 
ATOM      4  C3  UNL d   1      -0.800   0.064   2.230  0.00  0.00     0.003 A 
ATOM      5  C4  UNL d   1       0.009  -1.070   2.217  0.00  0.00    -0.005 A 
ATOM      6  C5  UNL d   1       0.614  -1.479   1.030  0.00  0.00     0.003 A 
ATOM      7  C6  UNL d   1       0.409  -0.753  -0.144  0.00  0.00    -0.001 A 
ENDROOT
TORSDOF 0
ENDMDL
