MODEL 1
REMARK minimizedAffinity -3.10749555
REMARK minimizedRMSD -1
REMARK  0 active torsions:
REMARK  status: ('A' for Active; 'I' for Inactive)
ROOT
ATOM      1  C   UNL d   1      -0.951   2.606  -2.506  0.00  0.00     0.078 C 
ATOM      2  C1  UNL d   1      -0.736   1.527  -1.487  0.00  0.00    -0.077 A 
ATOM      3  C2  UNL d   1      -0.658   0.181  -1.867  0.00  0.00    -0.001 A 
ATOM      4  C3  UNL d   1      -0.467  -0.814  -0.907  0.00  0.00     0.003 A 
ATOM      5  C4  UNL d   1      -0.354  -0.474   0.440  0.00  0.00    -0.005 A 
ATOM      6  C5  UNL d   1      -0.432   0.862   0.827  0.00  0.00     0.003 A 
ATOM      7  C6  UNL d   1      -0.623   1.858  -0.132  0.00  0.00    -0.001 A 
ENDROOT
TORSDOF 0
ENDMDL
