MODEL 1
REMARK minimizedAffinity 8.9704504
REMARK minimizedRMSD -1
REMARK  0 active torsions:
REMARK  status: ('A' for Active; 'I' for Inactive)
ROOT
ATOM      1  N1  IND d   1      -2.708   4.097  -3.811  0.00  0.00    -0.196 N 
ATOM      2  C2  IND d   1      -3.159   3.027  -3.089  0.00  0.00     0.054 A 
ATOM      3  C3  IND d   1      -2.295   1.993  -3.192  0.00  0.00    -0.031 A 
ATOM      4  C4  IND d   1      -0.029   1.869  -4.408  0.00  0.00     0.051 A 
ATOM      5  C5  IND d   1       0.790   2.584  -5.236  0.00  0.00    -0.031 A 
ATOM      6  C6  IND d   1       0.480   3.867  -5.637  0.00  0.00     0.015 A 
ATOM      7  C7  IND d   1      -0.661   4.490  -5.214  0.00  0.00    -0.016 A 
ATOM      8  C8  IND d   1      -1.498   3.764  -4.379  0.00  0.00    -0.047 A 
ATOM      9  C9  IND d   1      -1.209   2.446  -4.002  0.00  0.00    -0.096 A 
ATOM     10  HN1 IND d   1      -3.112   4.851  -3.896  0.00  0.00     0.298 HD
ENDROOT
TORSDOF 0
ENDMDL
