MODEL 1
REMARK minimizedAffinity 3.98680067
REMARK minimizedRMSD -1
REMARK  0 active torsions:
REMARK  status: ('A' for Active; 'I' for Inactive)
ROOT
ATOM      1  N1  IND d   1      -1.500   4.500  -5.479  0.00  0.00    -0.196 N 
ATOM      2  C2  IND d   1      -0.293   3.876  -5.625  0.00  0.00     0.054 A 
ATOM      3  C3  IND d   1      -0.260   2.739  -4.894  0.00  0.00    -0.031 A 
ATOM      4  C4  IND d   1      -2.109   1.657  -3.467  0.00  0.00     0.051 A 
ATOM      5  C5  IND d   1      -3.375   1.875  -2.999  0.00  0.00    -0.031 A 
ATOM      6  C6  IND d   1      -4.096   3.000  -3.344  0.00  0.00     0.015 A 
ATOM      7  C7  IND d   1      -3.580   3.948  -4.181  0.00  0.00    -0.016 A 
ATOM      8  C8  IND d   1      -2.292   3.734  -4.652  0.00  0.00    -0.047 A 
ATOM      9  C9  IND d   1      -1.540   2.615  -4.272  0.00  0.00    -0.096 A 
ATOM     10  HN1 IND d   1      -1.727   5.246  -5.842  0.00  0.00     0.298 HD
ENDROOT
TORSDOF 0
ENDMDL
