MODEL 1
REMARK minimizedAffinity 10.5101261
REMARK minimizedRMSD -1
REMARK  0 active torsions:
REMARK  status: ('A' for Active; 'I' for Inactive)
ROOT
ATOM      1  N1  IND d   1      -1.077  -3.647   0.905  0.00  0.00    -0.196 N 
ATOM      2  C2  IND d   1      -1.613  -2.760   1.795  0.00  0.00     0.054 A 
ATOM      3  C3  IND d   1      -0.682  -1.858   2.179  0.00  0.00    -0.031 A 
ATOM      4  C4  IND d   1       1.755  -1.589   1.394  0.00  0.00     0.051 A 
ATOM      5  C5  IND d   1       2.708  -2.184   0.617  0.00  0.00    -0.031 A 
ATOM      6  C6  IND d   1       2.442  -3.319  -0.122  0.00  0.00     0.015 A 
ATOM      7  C7  IND d   1       1.205  -3.897  -0.119  0.00  0.00    -0.016 A 
ATOM      8  C8  IND d   1       0.236  -3.299   0.675  0.00  0.00    -0.047 A 
ATOM      9  C9  IND d   1       0.512  -2.172   1.460  0.00  0.00    -0.096 A 
ATOM     10  HN1 IND d   1      -1.490  -4.312   0.548  0.00  0.00     0.298 HD
ENDROOT
TORSDOF 0
ENDMDL
