MODEL 1
REMARK minimizedAffinity 5.97608471
REMARK minimizedRMSD -1
REMARK  0 active torsions:
REMARK  status: ('A' for Active; 'I' for Inactive)
ROOT
ATOM      1  N1  IND d   1      -1.241   4.875  -5.540  0.00  0.00    -0.196 N 
ATOM      2  C2  IND d   1      -0.024   4.454  -5.999  0.00  0.00     0.054 A 
ATOM      3  C3  IND d   1       0.246   3.210  -5.543  0.00  0.00    -0.031 A 
ATOM      4  C4  IND d   1      -1.210   1.640  -4.114  0.00  0.00     0.051 A 
ATOM      5  C5  IND d   1      -2.389   1.596  -3.423  0.00  0.00    -0.031 A 
ATOM      6  C6  IND d   1      -3.264   2.663  -3.404  0.00  0.00     0.015 A 
ATOM      7  C7  IND d   1      -2.997   3.815  -4.088  0.00  0.00    -0.016 A 
ATOM      8  C8  IND d   1      -1.798   3.866  -4.785  0.00  0.00    -0.047 A 
ATOM      9  C9  IND d   1      -0.886   2.803  -4.773  0.00  0.00    -0.096 A 
ATOM     10  HN1 IND d   1      -1.598   5.641  -5.697  0.00  0.00     0.298 HD
ENDROOT
TORSDOF 0
ENDMDL
