MODEL 1
REMARK minimizedAffinity 6.43179464
REMARK minimizedRMSD -1
REMARK  0 active torsions:
REMARK  status: ('A' for Active; 'I' for Inactive)
ROOT
ATOM      1  N1  IND d   1      -1.052  -3.375   0.314  0.00  0.00    -0.196 N 
ATOM      2  C2  IND d   1      -1.585  -3.301   1.571  0.00  0.00     0.054 A 
ATOM      3  C3  IND d   1      -0.601  -3.240   2.496  0.00  0.00    -0.031 A 
ATOM      4  C4  IND d   1       1.950  -3.143   2.167  0.00  0.00     0.051 A 
ATOM      5  C5  IND d   1       2.916  -3.219   1.202  0.00  0.00    -0.031 A 
ATOM      6  C6  IND d   1       2.601  -3.350  -0.135  0.00  0.00     0.015 A 
ATOM      7  C7  IND d   1       1.304  -3.400  -0.560  0.00  0.00    -0.016 A 
ATOM      8  C8  IND d   1       0.321  -3.331   0.417  0.00  0.00    -0.047 A 
ATOM      9  C9  IND d   1       0.635  -3.240   1.779  0.00  0.00    -0.096 A 
ATOM     10  HN1 IND d   1      -1.499  -3.439  -0.418  0.00  0.00     0.298 HD
ENDROOT
TORSDOF 0
ENDMDL
