MODEL 1
REMARK minimizedAffinity 4.49094534
REMARK minimizedRMSD -1
REMARK  0 active torsions:
REMARK  status: ('A' for Active; 'I' for Inactive)
ROOT
ATOM      1  N1  IND d   1      -3.563   4.074  -3.595  0.00  0.00    -0.196 N 
ATOM      2  C2  IND d   1      -3.964   3.085  -2.740  0.00  0.00     0.054 A 
ATOM      3  C3  IND d   1      -3.022   2.118  -2.664  0.00  0.00    -0.031 A 
ATOM      4  C4  IND d   1      -0.703   2.003  -3.777  0.00  0.00     0.051 A 
ATOM      5  C5  IND d   1       0.095   2.656  -4.674  0.00  0.00    -0.031 A 
ATOM      6  C6  IND d   1      -0.292   3.840  -5.267  0.00  0.00     0.015 A 
ATOM      7  C7  IND d   1      -1.493   4.424  -4.975  0.00  0.00    -0.016 A 
ATOM      8  C8  IND d   1      -2.309   3.760  -4.070  0.00  0.00    -0.047 A 
ATOM      9  C9  IND d   1      -1.939   2.536  -3.497  0.00  0.00    -0.096 A 
ATOM     10  HN1 IND d   1      -4.018   4.773  -3.801  0.00  0.00     0.298 HD
ENDROOT
TORSDOF 0
ENDMDL
