MODEL 1
REMARK minimizedAffinity 9.3214798
REMARK minimizedRMSD -1
REMARK  0 active torsions:
REMARK  status: ('A' for Active; 'I' for Inactive)
ROOT
ATOM      1  N1  IND d   1      -1.469   3.708  -3.148  0.00  0.00    -0.196 N 
ATOM      2  C2  IND d   1      -2.080   3.164  -4.244  0.00  0.00     0.054 A 
ATOM      3  C3  IND d   1      -3.137   2.411  -3.866  0.00  0.00    -0.031 A 
ATOM      4  C4  IND d   1      -4.106   2.013  -1.515  0.00  0.00     0.051 A 
ATOM      5  C5  IND d   1      -3.868   2.271  -0.194  0.00  0.00    -0.031 A 
ATOM      6  C6  IND d   1      -2.798   3.039   0.218  0.00  0.00     0.015 A 
ATOM      7  C7  IND d   1      -1.929   3.590  -0.681  0.00  0.00    -0.016 A 
ATOM      8  C8  IND d   1      -2.163   3.324  -2.023  0.00  0.00    -0.047 A 
ATOM      9  C9  IND d   1      -3.223   2.510  -2.444  0.00  0.00    -0.096 A 
ATOM     10  HN1 IND d   1      -0.768   4.207  -3.161  0.00  0.00     0.298 HD
ENDROOT
TORSDOF 0
ENDMDL
