MODEL 1
REMARK minimizedAffinity 0.315240085
REMARK minimizedRMSD -1
REMARK  0 active torsions:
REMARK  status: ('A' for Active; 'I' for Inactive)
ROOT
ATOM      1  C   UNL d   1      -2.111   0.899   3.444  0.00  0.00     0.124 A 
ATOM      2  C1  UNL d   1      -2.612  -0.001   2.513  0.00  0.00     0.062 A 
ATOM      3  C2  UNL d   1      -1.875  -0.313   1.375  0.00  0.00     0.162 A 
ATOM      4  C3  UNL d   1      -0.628   0.275   1.160  0.00  0.00    -0.034 A 
ATOM      5  C4  UNL d   1      -0.132   1.180   2.100  0.00  0.00     0.162 A 
ATOM      6  C5  UNL d   1      -0.872   1.489   3.236  0.00  0.00     0.062 A 
ATOM      7  F   UNL d   1      -0.387   2.359   4.134  0.00  0.00    -0.097 F 
ATOM      8  F1  UNL d   1       1.063   1.764   1.925  0.00  0.00    -0.096 F 
ATOM      9  I   UNL d   1       0.477  -0.188  -0.542  0.00  0.00    -0.060 I 
ATOM     10  F2  UNL d   1      -2.383  -1.186   0.492  0.00  0.00    -0.096 F 
ATOM     11  F3  UNL d   1      -3.809  -0.572   2.711  0.00  0.00    -0.097 F 
ATOM     12  F4  UNL d   1      -2.823   1.198   4.538  0.00  0.00    -0.092 F 
ENDROOT
TORSDOF 0
ENDMDL
