MODEL 1
REMARK minimizedAffinity -1.61050713
REMARK minimizedRMSD -1
REMARK  0 active torsions:
REMARK  status: ('A' for Active; 'I' for Inactive)
ROOT
ATOM      1  C   UNL d   1       1.263  -0.237  -1.866  0.00  0.00     0.124 A 
ATOM      2  C1  UNL d   1       0.493   0.915  -1.783  0.00  0.00     0.062 A 
ATOM      3  C2  UNL d   1      -0.429   1.068  -0.751  0.00  0.00     0.162 A 
ATOM      4  C3  UNL d   1      -0.585   0.066   0.206  0.00  0.00    -0.034 A 
ATOM      5  C4  UNL d   1       0.192  -1.090   0.116  0.00  0.00     0.162 A 
ATOM      6  C5  UNL d   1       1.112  -1.238  -0.917  0.00  0.00     0.062 A 
ATOM      7  F   UNL d   1       1.855  -2.352  -0.996  0.00  0.00    -0.097 F 
ATOM      8  F1  UNL d   1       0.067  -2.073   1.020  0.00  0.00    -0.096 F 
ATOM      9  I   UNL d   1      -1.963   0.291   1.750  0.00  0.00    -0.060 I 
ATOM     10  F2  UNL d   1      -1.159   2.192  -0.696  0.00  0.00    -0.096 F 
ATOM     11  F3  UNL d   1       0.637   1.884  -2.699  0.00  0.00    -0.097 F 
ATOM     12  F4  UNL d   1       2.149  -0.381  -2.860  0.00  0.00    -0.092 F 
ENDROOT
TORSDOF 0
ENDMDL
