MODEL 1
REMARK minimizedAffinity 1.25428987
REMARK minimizedRMSD -1
REMARK  0 active torsions:
REMARK  status: ('A' for Active; 'I' for Inactive)
ROOT
ATOM      1  C   UNL d   1       1.247  -0.370  -1.826  0.00  0.00     0.124 A 
ATOM      2  C1  UNL d   1       0.502   0.790  -1.663  0.00  0.00     0.062 A 
ATOM      3  C2  UNL d   1      -0.456   0.870  -0.656  0.00  0.00     0.162 A 
ATOM      4  C3  UNL d   1      -0.673  -0.211   0.197  0.00  0.00    -0.034 A 
ATOM      5  C4  UNL d   1       0.080  -1.375   0.026  0.00  0.00     0.162 A 
ATOM      6  C5  UNL d   1       1.036  -1.451  -0.982  0.00  0.00     0.062 A 
ATOM      7  F   UNL d   1       1.755  -2.572  -1.138  0.00  0.00    -0.097 F 
ATOM      8  F1  UNL d   1      -0.103  -2.433   0.829  0.00  0.00    -0.096 F 
ATOM      9  I   UNL d   1      -2.103  -0.094   1.704  0.00  0.00    -0.060 I 
ATOM     10  F2  UNL d   1      -1.161   2.003  -0.522  0.00  0.00    -0.096 F 
ATOM     11  F3  UNL d   1       0.703   1.835  -2.479  0.00  0.00    -0.097 F 
ATOM     12  F4  UNL d   1       2.167  -0.445  -2.797  0.00  0.00    -0.092 F 
ENDROOT
TORSDOF 0
ENDMDL
