MODEL 1
REMARK minimizedAffinity 1.53047454
REMARK minimizedRMSD -1
REMARK  0 active torsions:
REMARK  status: ('A' for Active; 'I' for Inactive)
ROOT
ATOM      1  C   UNL d   1       1.340  -0.091  -1.786  0.00  0.00     0.124 A 
ATOM      2  C1  UNL d   1       0.548   1.029  -1.573  0.00  0.00     0.062 A 
ATOM      3  C2  UNL d   1      -0.287   1.094  -0.461  0.00  0.00     0.162 A 
ATOM      4  C3  UNL d   1      -0.333   0.036   0.448  0.00  0.00    -0.034 A 
ATOM      5  C4  UNL d   1       0.466  -1.087   0.226  0.00  0.00     0.162 A 
ATOM      6  C5  UNL d   1       1.298  -1.147  -0.887  0.00  0.00     0.062 A 
ATOM      7  F   UNL d   1       2.063  -2.230  -1.092  0.00  0.00    -0.097 F 
ATOM      8  F1  UNL d   1       0.446  -2.121   1.079  0.00  0.00    -0.096 F 
ATOM      9  I   UNL d   1      -1.579   0.130   2.112  0.00  0.00    -0.060 I 
ATOM     10  F2  UNL d   1      -1.041   2.188  -0.279  0.00  0.00    -0.096 F 
ATOM     11  F3  UNL d   1       0.586   2.050  -2.440  0.00  0.00    -0.097 F 
ATOM     12  F4  UNL d   1       2.141  -0.152  -2.857  0.00  0.00    -0.092 F 
ENDROOT
TORSDOF 0
ENDMDL
