MODEL 1
REMARK minimizedAffinity -1.27339768
REMARK minimizedRMSD -1
REMARK  0 active torsions:
REMARK  status: ('A' for Active; 'I' for Inactive)
ROOT
ATOM      1  C   UNL d   1       2.226  -0.110  -1.855  0.00  0.00     0.124 A 
ATOM      2  C1  UNL d   1       1.704   1.091  -1.396  0.00  0.00     0.062 A 
ATOM      3  C2  UNL d   1       0.695   1.095  -0.438  0.00  0.00     0.162 A 
ATOM      4  C3  UNL d   1       0.202  -0.106   0.070  0.00  0.00    -0.034 A 
ATOM      5  C4  UNL d   1       0.731  -1.311  -0.396  0.00  0.00     0.162 A 
ATOM      6  C5  UNL d   1       1.740  -1.310  -1.355  0.00  0.00     0.062 A 
ATOM      7  F   UNL d   1       2.243  -2.472  -1.796  0.00  0.00    -0.097 F 
ATOM      8  F1  UNL d   1       0.280  -2.485   0.071  0.00  0.00    -0.096 F 
ATOM      9  I   UNL d   1      -1.307  -0.104   1.504  0.00  0.00    -0.060 I 
ATOM     10  F2  UNL d   1       0.209   2.271  -0.013  0.00  0.00    -0.096 F 
ATOM     11  F3  UNL d   1       2.172   2.251  -1.879  0.00  0.00    -0.097 F 
ATOM     12  F4  UNL d   1       3.197  -0.112  -2.778  0.00  0.00    -0.092 F 
ENDROOT
TORSDOF 0
ENDMDL
