MODEL 1
REMARK minimizedAffinity -2.14828181
REMARK minimizedRMSD -1
REMARK  0 active torsions:
REMARK  status: ('A' for Active; 'I' for Inactive)
ROOT
ATOM      1  C   UNL d   1       1.797  -0.308  -1.840  0.00  0.00     0.124 A 
ATOM      2  C1  UNL d   1       1.609  -1.363  -0.958  0.00  0.00     0.062 A 
ATOM      3  C2  UNL d   1       0.591  -1.311  -0.011  0.00  0.00     0.162 A 
ATOM      4  C3  UNL d   1      -0.249  -0.199   0.058  0.00  0.00    -0.034 A 
ATOM      5  C4  UNL d   1      -0.053   0.859  -0.831  0.00  0.00     0.162 A 
ATOM      6  C5  UNL d   1       0.966   0.802  -1.776  0.00  0.00     0.062 A 
ATOM      7  F   UNL d   1       1.146   1.822  -2.627  0.00  0.00    -0.097 F 
ATOM      8  F1  UNL d   1      -0.843   1.942  -0.792  0.00  0.00    -0.096 F 
ATOM      9  I   UNL d   1      -1.773  -0.117   1.473  0.00  0.00    -0.060 I 
ATOM     10  F2  UNL d   1       0.432  -2.345   0.828  0.00  0.00    -0.096 F 
ATOM     11  F3  UNL d   1       2.412  -2.436  -1.018  0.00  0.00    -0.097 F 
ATOM     12  F4  UNL d   1       2.779  -0.360  -2.750  0.00  0.00    -0.092 F 
ENDROOT
TORSDOF 0
ENDMDL
