MODEL 1
REMARK minimizedAffinity 20.941021
REMARK minimizedRMSD -1
REMARK  0 active torsions:
REMARK  status: ('A' for Active; 'I' for Inactive)
ROOT
ATOM      1  C   UNL d   1      -1.812   1.246   3.826  0.00  0.00     0.124 A 
ATOM      2  C1  UNL d   1      -0.871   1.851   3.004  0.00  0.00     0.062 A 
ATOM      3  C2  UNL d   1      -0.441   1.214   1.844  0.00  0.00     0.162 A 
ATOM      4  C3  UNL d   1      -0.953  -0.036   1.496  0.00  0.00    -0.034 A 
ATOM      5  C4  UNL d   1      -1.899  -0.639   2.328  0.00  0.00     0.162 A 
ATOM      6  C5  UNL d   1      -2.325   0.002   3.487  0.00  0.00     0.062 A 
ATOM      7  F   UNL d   1      -3.234  -0.584   4.279  0.00  0.00    -0.097 F 
ATOM      8  F1  UNL d   1      -2.412  -1.840   2.024  0.00  0.00    -0.096 F 
ATOM      9  I   UNL d   1      -0.314  -0.992  -0.238  0.00  0.00    -0.060 I 
ATOM     10  F2  UNL d   1       0.469   1.823   1.069  0.00  0.00    -0.096 F 
ATOM     11  F3  UNL d   1      -0.373   3.053   3.330  0.00  0.00    -0.097 F 
ATOM     12  F4  UNL d   1      -2.223   1.861   4.942  0.00  0.00    -0.092 F 
ENDROOT
TORSDOF 0
ENDMDL
