MODEL 1
REMARK minimizedAffinity -1.00866127
REMARK minimizedRMSD -1
REMARK  0 active torsions:
REMARK  status: ('A' for Active; 'I' for Inactive)
ROOT
ATOM      1  C   UNL d   1       1.878  -0.493  -1.311  0.00  0.00     0.124 A 
ATOM      2  C1  UNL d   1       1.690  -1.339  -0.226  0.00  0.00     0.062 A 
ATOM      3  C2  UNL d   1       0.590  -1.172   0.610  0.00  0.00     0.162 A 
ATOM      4  C3  UNL d   1      -0.333  -0.156   0.364  0.00  0.00    -0.034 A 
ATOM      5  C4  UNL d   1      -0.138   0.692  -0.729  0.00  0.00     0.162 A 
ATOM      6  C5  UNL d   1       0.964   0.521  -1.561  0.00  0.00     0.062 A 
ATOM      7  F   UNL d   1       1.143   1.339  -2.608  0.00  0.00    -0.097 F 
ATOM      8  F1  UNL d   1      -1.005   1.679  -0.994  0.00  0.00    -0.096 F 
ATOM      9  I   UNL d   1      -1.980   0.097   1.611  0.00  0.00    -0.060 I 
ATOM     10  F2  UNL d   1       0.434  -2.004   1.650  0.00  0.00    -0.096 F 
ATOM     11  F3  UNL d   1       2.572  -2.319   0.018  0.00  0.00    -0.097 F 
ATOM     12  F4  UNL d   1       2.938  -0.655  -2.113  0.00  0.00    -0.092 F 
ENDROOT
TORSDOF 0
ENDMDL
