MODEL 1
REMARK minimizedAffinity -2.58205295
REMARK minimizedRMSD -1
REMARK  0 active torsions:
REMARK  status: ('A' for Active; 'I' for Inactive)
ROOT
ATOM      1  C   UNL d   1       2.283  -0.170  -2.621  0.00  0.00     0.124 A 
ATOM      2  C1  UNL d   1       1.588   1.031  -2.631  0.00  0.00     0.062 A 
ATOM      3  C2  UNL d   1       0.602   1.277  -1.680  0.00  0.00     0.162 A 
ATOM      4  C3  UNL d   1       0.305   0.319  -0.710  0.00  0.00    -0.034 A 
ATOM      5  C4  UNL d   1       1.008  -0.887  -0.707  0.00  0.00     0.162 A 
ATOM      6  C5  UNL d   1       1.993  -1.128  -1.659  0.00  0.00     0.062 A 
ATOM      7  F   UNL d   1       2.664  -2.289  -1.647  0.00  0.00    -0.097 F 
ATOM      8  F1  UNL d   1       0.748  -1.829   0.212  0.00  0.00    -0.096 F 
ATOM      9  I   UNL d   1      -1.169   0.683   0.713  0.00  0.00    -0.060 I 
ATOM     10  F2  UNL d   1      -0.054   2.446  -1.714  0.00  0.00    -0.096 F 
ATOM     11  F3  UNL d   1       1.866   1.957  -3.560  0.00  0.00    -0.097 F 
ATOM     12  F4  UNL d   1       3.231  -0.405  -3.537  0.00  0.00    -0.092 F 
ENDROOT
TORSDOF 0
ENDMDL
