MODEL 1
REMARK minimizedAffinity 2.30950451
REMARK minimizedRMSD -1
REMARK  0 active torsions:
REMARK  status: ('A' for Active; 'I' for Inactive)
ROOT
ATOM      1  C   UNL d   1       1.384   0.186  -2.664  0.00  0.00     0.124 A 
ATOM      2  C1  UNL d   1       0.689   1.348  -2.356  0.00  0.00     0.062 A 
ATOM      3  C2  UNL d   1      -0.154   1.387  -1.249  0.00  0.00     0.162 A 
ATOM      4  C3  UNL d   1      -0.307   0.261  -0.440  0.00  0.00    -0.034 A 
ATOM      5  C4  UNL d   1       0.394  -0.904  -0.757  0.00  0.00     0.162 A 
ATOM      6  C5  UNL d   1       1.236  -0.938  -1.864  0.00  0.00     0.062 A 
ATOM      7  F   UNL d   1       1.906  -2.062  -2.160  0.00  0.00    -0.097 F 
ATOM      8  F1  UNL d   1       0.271  -2.005  -0.001  0.00  0.00    -0.096 F 
ATOM      9  I   UNL d   1      -1.566   0.315   1.215  0.00  0.00    -0.060 I 
ATOM     10  F2  UNL d   1      -0.812   2.523  -0.975  0.00  0.00    -0.096 F 
ATOM     11  F3  UNL d   1       0.830   2.436  -3.127  0.00  0.00    -0.097 F 
ATOM     12  F4  UNL d   1       2.193   0.151  -3.730  0.00  0.00    -0.092 F 
ENDROOT
TORSDOF 0
ENDMDL
