MODEL 1
REMARK minimizedAffinity -3.64481473
REMARK minimizedRMSD -1
REMARK  0 active torsions:
REMARK  status: ('A' for Active; 'I' for Inactive)
ROOT
ATOM      1  C   UNL d   1       2.704   0.664  -1.814  0.00  0.00     0.124 A 
ATOM      2  C1  UNL d   1       2.399  -0.443  -1.034  0.00  0.00     0.062 A 
ATOM      3  C2  UNL d   1       1.176  -0.519  -0.375  0.00  0.00     0.162 A 
ATOM      4  C3  UNL d   1       0.247   0.515  -0.493  0.00  0.00    -0.034 A 
ATOM      5  C4  UNL d   1       0.561   1.626  -1.278  0.00  0.00     0.162 A 
ATOM      6  C5  UNL d   1       1.785   1.697  -1.935  0.00  0.00     0.062 A 
ATOM      7  F   UNL d   1       2.078   2.768  -2.688  0.00  0.00    -0.097 F 
ATOM      8  F1  UNL d   1      -0.309   2.638  -1.413  0.00  0.00    -0.096 F 
ATOM      9  I   UNL d   1      -1.583   0.405   0.492  0.00  0.00    -0.060 I 
ATOM     10  F2  UNL d   1       0.908  -1.600   0.372  0.00  0.00    -0.096 F 
ATOM     11  F3  UNL d   1       3.285  -1.442  -0.915  0.00  0.00    -0.097 F 
ATOM     12  F4  UNL d   1       3.882   0.735  -2.446  0.00  0.00    -0.092 F 
ENDROOT
TORSDOF 0
ENDMDL
