MODEL 1
REMARK minimizedAffinity -1.80204272
REMARK minimizedRMSD -1
REMARK  0 active torsions:
REMARK  status: ('A' for Active; 'I' for Inactive)
ROOT
ATOM      1  C   UNL d   1       1.487   0.130  -1.953  0.00  0.00     0.124 A 
ATOM      2  C1  UNL d   1       0.638   1.214  -1.782  0.00  0.00     0.062 A 
ATOM      3  C2  UNL d   1      -0.347   1.184  -0.799  0.00  0.00     0.162 A 
ATOM      4  C3  UNL d   1      -0.488   0.065   0.022  0.00  0.00    -0.034 A 
ATOM      5  C4  UNL d   1       0.370  -1.022  -0.157  0.00  0.00     0.162 A 
ATOM      6  C5  UNL d   1       1.353  -0.987  -1.140  0.00  0.00     0.062 A 
ATOM      7  F   UNL d   1       2.172  -2.035  -1.304  0.00  0.00    -0.097 F 
ATOM      8  F1  UNL d   1       0.263  -2.114   0.615  0.00  0.00    -0.096 F 
ATOM      9  I   UNL d   1      -1.959   0.015   1.493  0.00  0.00    -0.060 I 
ATOM     10  F2  UNL d   1      -1.154   2.246  -0.655  0.00  0.00    -0.096 F 
ATOM     11  F3  UNL d   1       0.765   2.294  -2.566  0.00  0.00    -0.097 F 
ATOM     12  F4  UNL d   1       2.433   0.162  -2.900  0.00  0.00    -0.092 F 
ENDROOT
TORSDOF 0
ENDMDL
