MODEL 1
REMARK minimizedAffinity -1.46541512
REMARK minimizedRMSD -1
REMARK  0 active torsions:
REMARK  status: ('A' for Active; 'I' for Inactive)
ROOT
ATOM      1  C   UNL d   1       1.344  -0.005  -2.497  0.00  0.00     0.124 A 
ATOM      2  C1  UNL d   1       1.279  -0.957  -1.489  0.00  0.00     0.062 A 
ATOM      3  C2  UNL d   1       0.419  -0.775  -0.409  0.00  0.00     0.162 A 
ATOM      4  C3  UNL d   1      -0.384   0.363  -0.333  0.00  0.00    -0.034 A 
ATOM      5  C4  UNL d   1      -0.312   1.316  -1.350  0.00  0.00     0.162 A 
ATOM      6  C5  UNL d   1       0.549   1.130  -2.427  0.00  0.00     0.062 A 
ATOM      7  F   UNL d   1       0.610   2.051  -3.400  0.00  0.00    -0.097 F 
ATOM      8  F1  UNL d   1      -1.070   2.422  -1.308  0.00  0.00    -0.096 F 
ATOM      9  I   UNL d   1      -1.671   0.638   1.280  0.00  0.00    -0.060 I 
ATOM     10  F2  UNL d   1       0.376  -1.711   0.550  0.00  0.00    -0.096 F 
ATOM     11  F3  UNL d   1       2.047  -2.054  -1.554  0.00  0.00    -0.097 F 
ATOM     12  F4  UNL d   1       2.173  -0.182  -3.534  0.00  0.00    -0.092 F 
ENDROOT
TORSDOF 0
ENDMDL
