MODEL 1
REMARK minimizedAffinity -3.93928027
REMARK minimizedRMSD -1
REMARK  0 active torsions:
REMARK  status: ('A' for Active; 'I' for Inactive)
ROOT
ATOM      1  C   UNL d   1       1.701  -0.443  -2.054  0.00  0.00     0.124 A 
ATOM      2  C1  UNL d   1       1.154  -1.425  -1.239  0.00  0.00     0.062 A 
ATOM      3  C2  UNL d   1       0.193  -1.090  -0.289  0.00  0.00     0.162 A 
ATOM      4  C3  UNL d   1      -0.229   0.232  -0.150  0.00  0.00    -0.034 A 
ATOM      5  C4  UNL d   1       0.326   1.213  -0.973  0.00  0.00     0.162 A 
ATOM      6  C5  UNL d   1       1.287   0.874  -1.921  0.00  0.00     0.062 A 
ATOM      7  F   UNL d   1       1.814   1.824  -2.707  0.00  0.00    -0.097 F 
ATOM      8  F1  UNL d   1      -0.056   2.494  -0.866  0.00  0.00    -0.096 F 
ATOM      9  I   UNL d   1      -1.665   0.736   1.269  0.00  0.00    -0.060 I 
ATOM     10  F2  UNL d   1      -0.318  -2.059   0.485  0.00  0.00    -0.096 F 
ATOM     11  F3  UNL d   1       1.554  -2.698  -1.366  0.00  0.00    -0.097 F 
ATOM     12  F4  UNL d   1       2.626  -0.768  -2.967  0.00  0.00    -0.092 F 
ENDROOT
TORSDOF 0
ENDMDL
