MODEL 1
REMARK minimizedAffinity -2.02296138
REMARK minimizedRMSD -1
REMARK  0 active torsions:
REMARK  status: ('A' for Active; 'I' for Inactive)
ROOT
ATOM      1  C   UNL d   1       1.631  -0.034  -2.126  0.00  0.00     0.124 A 
ATOM      2  C1  UNL d   1       0.904   1.148  -2.096  0.00  0.00     0.062 A 
ATOM      3  C2  UNL d   1      -0.101   1.328  -1.150  0.00  0.00     0.162 A 
ATOM      4  C3  UNL d   1      -0.386   0.322  -0.226  0.00  0.00    -0.034 A 
ATOM      5  C4  UNL d   1       0.349  -0.864  -0.263  0.00  0.00     0.162 A 
ATOM      6  C5  UNL d   1       1.353  -1.039  -1.210  0.00  0.00     0.062 A 
ATOM      7  F   UNL d   1       2.054  -2.182  -1.238  0.00  0.00    -0.097 F 
ATOM      8  F1  UNL d   1       0.102  -1.851   0.611  0.00  0.00    -0.096 F 
ATOM      9  I   UNL d   1      -1.888   0.587   1.189  0.00  0.00    -0.060 I 
ATOM     10  F2  UNL d   1      -0.787   2.480  -1.144  0.00  0.00    -0.096 F 
ATOM     11  F3  UNL d   1       1.170   2.120  -2.981  0.00  0.00    -0.097 F 
ATOM     12  F4  UNL d   1       2.597  -0.204  -3.038  0.00  0.00    -0.092 F 
ENDROOT
TORSDOF 0
ENDMDL
