MODEL 1
REMARK minimizedAffinity -0.874828041
REMARK minimizedRMSD -1
REMARK  0 active torsions:
REMARK  status: ('A' for Active; 'I' for Inactive)
ROOT
ATOM      1  C   UNL d   1       0.404  -0.457   0.596  0.00  0.00     0.124 A 
ATOM      2  C1  UNL d   1       0.475  -0.594   1.975  0.00  0.00     0.062 A 
ATOM      3  C2  UNL d   1      -0.444   0.060   2.791  0.00  0.00     0.162 A 
ATOM      4  C3  UNL d   1      -1.442   0.856   2.230  0.00  0.00    -0.034 A 
ATOM      5  C4  UNL d   1      -1.506   0.990   0.842  0.00  0.00     0.162 A 
ATOM      6  C5  UNL d   1      -0.586   0.334   0.031  0.00  0.00     0.062 A 
ATOM      7  F   UNL d   1      -0.655   0.468  -1.302  0.00  0.00    -0.097 F 
ATOM      8  F1  UNL d   1      -2.453   1.748   0.269  0.00  0.00    -0.096 F 
ATOM      9  I   UNL d   1      -2.818   1.836   3.447  0.00  0.00    -0.060 I 
ATOM     10  F2  UNL d   1      -0.352  -0.090   4.121  0.00  0.00    -0.096 F 
ATOM     11  F3  UNL d   1       1.431  -1.357   2.524  0.00  0.00    -0.097 F 
ATOM     12  F4  UNL d   1       1.290  -1.087  -0.187  0.00  0.00    -0.092 F 
ENDROOT
TORSDOF 0
ENDMDL
