MODEL 1
REMARK minimizedAffinity -0.517536163
REMARK minimizedRMSD -1
REMARK  0 active torsions:
REMARK  status: ('A' for Active; 'I' for Inactive)
ROOT
ATOM      1  C   UNL d   1       2.676  -1.058  -3.567  0.00  0.00     0.124 A 
ATOM      2  C1  UNL d   1       2.786   0.326  -3.549  0.00  0.00     0.062 A 
ATOM      3  C2  UNL d   1       2.208   1.061  -2.518  0.00  0.00     0.162 A 
ATOM      4  C3  UNL d   1       1.514   0.415  -1.496  0.00  0.00    -0.034 A 
ATOM      5  C4  UNL d   1       1.407  -0.977  -1.521  0.00  0.00     0.162 A 
ATOM      6  C5  UNL d   1       1.986  -1.708  -2.553  0.00  0.00     0.062 A 
ATOM      7  F   UNL d   1       1.878  -3.044  -2.568  0.00  0.00    -0.097 F 
ATOM      8  F1  UNL d   1       0.747  -1.631  -0.553  0.00  0.00    -0.096 F 
ATOM      9  I   UNL d   1       0.648   1.511   0.047  0.00  0.00    -0.060 I 
ATOM     10  F2  UNL d   1       2.331   2.397  -2.527  0.00  0.00    -0.096 F 
ATOM     11  F3  UNL d   1       3.451   0.956  -4.528  0.00  0.00    -0.097 F 
ATOM     12  F4  UNL d   1       3.232  -1.763  -4.560  0.00  0.00    -0.092 F 
ENDROOT
TORSDOF 0
ENDMDL
