MODEL 1
REMARK minimizedAffinity 2.52317667
REMARK minimizedRMSD -1
REMARK  0 active torsions:
REMARK  status: ('A' for Active; 'I' for Inactive)
ROOT
ATOM      1  C   UNL d   1       0.387  -0.548  -0.772  0.00  0.00     0.124 A 
ATOM      2  C1  UNL d   1       1.671  -1.065  -0.873  0.00  0.00     0.062 A 
ATOM      3  C2  UNL d   1       1.976  -2.298  -0.304  0.00  0.00     0.162 A 
ATOM      4  C3  UNL d   1       0.994  -3.024   0.370  0.00  0.00    -0.034 A 
ATOM      5  C4  UNL d   1      -0.295  -2.498   0.468  0.00  0.00     0.162 A 
ATOM      6  C5  UNL d   1      -0.595  -1.265  -0.103  0.00  0.00     0.062 A 
ATOM      7  F   UNL d   1      -1.836  -0.767  -0.004  0.00  0.00    -0.097 F 
ATOM      8  F1  UNL d   1      -1.263  -3.169   1.108  0.00  0.00    -0.096 F 
ATOM      9  I   UNL d   1       1.445  -4.869   1.222  0.00  0.00    -0.060 I 
ATOM     10  F2  UNL d   1       3.225  -2.773  -0.416  0.00  0.00    -0.096 F 
ATOM     11  F3  UNL d   1       2.622  -0.374  -1.518  0.00  0.00    -0.097 F 
ATOM     12  F4  UNL d   1       0.096   0.639  -1.320  0.00  0.00    -0.092 F 
ENDROOT
TORSDOF 0
ENDMDL
