MODEL 1
REMARK minimizedAffinity 9.18672466
REMARK minimizedRMSD -1
REMARK  0 active torsions:
REMARK  status: ('A' for Active; 'I' for Inactive)
ROOT
ATOM      1  C   UNL d   1       0.324  -1.488  -0.652  0.00  0.00     0.124 A 
ATOM      2  C1  UNL d   1      -0.760  -2.294  -0.330  0.00  0.00     0.062 A 
ATOM      3  C2  UNL d   1      -0.559  -3.521   0.294  0.00  0.00     0.162 A 
ATOM      4  C3  UNL d   1       0.732  -3.951   0.602  0.00  0.00    -0.034 A 
ATOM      5  C4  UNL d   1       1.817  -3.136   0.275  0.00  0.00     0.162 A 
ATOM      6  C5  UNL d   1       1.611  -1.909  -0.349  0.00  0.00     0.062 A 
ATOM      7  F   UNL d   1       2.659  -1.133  -0.659  0.00  0.00    -0.097 F 
ATOM      8  F1  UNL d   1       3.072  -3.518   0.557  0.00  0.00    -0.096 F 
ATOM      9  I   UNL d   1       1.037  -5.786   1.535  0.00  0.00    -0.060 I 
ATOM     10  F2  UNL d   1      -1.624  -4.279   0.593  0.00  0.00    -0.096 F 
ATOM     11  F3  UNL d   1      -2.004  -1.889  -0.623  0.00  0.00    -0.097 F 
ATOM     12  F4  UNL d   1       0.128  -0.308  -1.253  0.00  0.00    -0.092 F 
ENDROOT
TORSDOF 0
ENDMDL
