MODEL 1
REMARK minimizedAffinity -2.06984687
REMARK minimizedRMSD -1
REMARK  0 active torsions:
REMARK  status: ('A' for Active; 'I' for Inactive)
ROOT
ATOM      1  C   UNL d   1       0.336  -1.322  -0.540  0.00  0.00     0.124 A 
ATOM      2  C1  UNL d   1       1.589  -1.918  -0.580  0.00  0.00     0.062 A 
ATOM      3  C2  UNL d   1       1.753  -3.234  -0.157  0.00  0.00     0.162 A 
ATOM      4  C3  UNL d   1       0.660  -3.964   0.309  0.00  0.00    -0.034 A 
ATOM      5  C4  UNL d   1      -0.597  -3.358   0.348  0.00  0.00     0.162 A 
ATOM      6  C5  UNL d   1      -0.755  -2.042  -0.076  0.00  0.00     0.062 A 
ATOM      7  F   UNL d   1      -1.967  -1.469  -0.036  0.00  0.00    -0.097 F 
ATOM      8  F1  UNL d   1      -1.670  -4.031   0.790  0.00  0.00    -0.096 F 
ATOM      9  I   UNL d   1       0.900  -5.932   0.943  0.00  0.00    -0.060 I 
ATOM     10  F2  UNL d   1       2.975  -3.784  -0.207  0.00  0.00    -0.096 F 
ATOM     11  F3  UNL d   1       2.646  -1.224  -1.027  0.00  0.00    -0.097 F 
ATOM     12  F4  UNL d   1       0.182  -0.056  -0.947  0.00  0.00    -0.092 F 
ENDROOT
TORSDOF 0
ENDMDL
