MODEL 1
REMARK minimizedAffinity 5.1156745
REMARK minimizedRMSD -1
REMARK  0 active torsions:
REMARK  status: ('A' for Active; 'I' for Inactive)
ROOT
ATOM      1  C   UNL d   1       0.551  -0.701  -1.063  0.00  0.00     0.124 A 
ATOM      2  C1  UNL d   1       1.850  -1.156  -0.882  0.00  0.00     0.062 A 
ATOM      3  C2  UNL d   1       2.082  -2.385  -0.271  0.00  0.00     0.162 A 
ATOM      4  C3  UNL d   1       1.013  -3.169   0.161  0.00  0.00    -0.034 A 
ATOM      5  C4  UNL d   1      -0.290  -2.705  -0.024  0.00  0.00     0.162 A 
ATOM      6  C5  UNL d   1      -0.518  -1.476  -0.635  0.00  0.00     0.062 A 
ATOM      7  F   UNL d   1      -1.773  -1.039  -0.810  0.00  0.00    -0.097 F 
ATOM      8  F1  UNL d   1      -1.342  -3.434   0.379  0.00  0.00    -0.096 F 
ATOM      9  I   UNL d   1       1.357  -5.008   1.074  0.00  0.00    -0.060 I 
ATOM     10  F2  UNL d   1       3.348  -2.799  -0.109  0.00  0.00    -0.096 F 
ATOM     11  F3  UNL d   1       2.884  -0.408  -1.294  0.00  0.00    -0.097 F 
ATOM     12  F4  UNL d   1       0.330   0.482  -1.650  0.00  0.00    -0.092 F 
ENDROOT
TORSDOF 0
ENDMDL
