MODEL 1
REMARK minimizedAffinity 0.931619346
REMARK minimizedRMSD -1
REMARK  0 active torsions:
REMARK  status: ('A' for Active; 'I' for Inactive)
ROOT
ATOM      1  C   UNL d   1      -0.180  -0.031  -0.886  0.00  0.00     0.124 A 
ATOM      2  C1  UNL d   1      -1.067  -1.051  -0.569  0.00  0.00     0.062 A 
ATOM      3  C2  UNL d   1      -0.594  -2.331  -0.297  0.00  0.00     0.162 A 
ATOM      4  C3  UNL d   1       0.774  -2.600  -0.341  0.00  0.00    -0.034 A 
ATOM      5  C4  UNL d   1       1.660  -1.570  -0.661  0.00  0.00     0.162 A 
ATOM      6  C5  UNL d   1       1.182  -0.292  -0.932  0.00  0.00     0.062 A 
ATOM      7  F   UNL d   1       2.041   0.691  -1.238  0.00  0.00    -0.097 F 
ATOM      8  F1  UNL d   1       2.981  -1.794  -0.711  0.00  0.00    -0.096 F 
ATOM      9  I   UNL d   1       1.485  -4.514   0.065  0.00  0.00    -0.060 I 
ATOM     10  F2  UNL d   1      -1.475  -3.297   0.006  0.00  0.00    -0.096 F 
ATOM     11  F3  UNL d   1      -2.384  -0.802  -0.525  0.00  0.00    -0.097 F 
ATOM     12  F4  UNL d   1      -0.638   1.200  -1.148  0.00  0.00    -0.092 F 
ENDROOT
TORSDOF 0
ENDMDL
