MODEL 1
REMARK minimizedAffinity 17.5385151
REMARK minimizedRMSD -1
REMARK  0 active torsions:
REMARK  status: ('A' for Active; 'I' for Inactive)
ROOT
ATOM      1  C   UNL d   1       0.352  -4.520   0.604  0.00  0.00     0.124 A 
ATOM      2  C1  UNL d   1       1.546  -3.871   0.322  0.00  0.00     0.062 A 
ATOM      3  C2  UNL d   1       1.579  -2.839  -0.612  0.00  0.00     0.162 A 
ATOM      4  C3  UNL d   1       0.412  -2.448  -1.269  0.00  0.00    -0.034 A 
ATOM      5  C4  UNL d   1      -0.785  -3.106  -0.981  0.00  0.00     0.162 A 
ATOM      6  C5  UNL d   1      -0.812  -4.137  -0.048  0.00  0.00     0.062 A 
ATOM      7  F   UNL d   1      -1.967  -4.762   0.223  0.00  0.00    -0.097 F 
ATOM      8  F1  UNL d   1      -1.924  -2.755  -1.595  0.00  0.00    -0.096 F 
ATOM      9  I   UNL d   1       0.457  -0.905  -2.666  0.00  0.00    -0.060 I 
ATOM     10  F2  UNL d   1       2.747  -2.230  -0.864  0.00  0.00    -0.096 F 
ATOM     11  F3  UNL d   1       2.672  -4.240   0.949  0.00  0.00    -0.097 F 
ATOM     12  F4  UNL d   1       0.323  -5.513   1.501  0.00  0.00    -0.092 F 
ENDROOT
TORSDOF 0
ENDMDL
