MODEL 1
REMARK minimizedAffinity 15.8257627
REMARK minimizedRMSD -1
REMARK  0 active torsions:
REMARK  status: ('A' for Active; 'I' for Inactive)
ROOT
ATOM      1  C   UNL d   1       0.290  -0.569  -1.015  0.00  0.00     0.124 A 
ATOM      2  C1  UNL d   1      -0.580  -1.624  -0.775  0.00  0.00     0.062 A 
ATOM      3  C2  UNL d   1      -0.087  -2.855  -0.352  0.00  0.00     0.162 A 
ATOM      4  C3  UNL d   1       1.283  -3.039  -0.165  0.00  0.00    -0.034 A 
ATOM      5  C4  UNL d   1       2.152  -1.974  -0.410  0.00  0.00     0.162 A 
ATOM      6  C5  UNL d   1       1.655  -0.745  -0.833  0.00  0.00     0.062 A 
ATOM      7  F   UNL d   1       2.497   0.272  -1.065  0.00  0.00    -0.097 F 
ATOM      8  F1  UNL d   1       3.475  -2.116  -0.241  0.00  0.00    -0.096 F 
ATOM      9  I   UNL d   1       2.023  -4.878   0.467  0.00  0.00    -0.060 I 
ATOM     10  F2  UNL d   1      -0.951  -3.856  -0.126  0.00  0.00    -0.096 F 
ATOM     11  F3  UNL d   1      -1.899  -1.457  -0.951  0.00  0.00    -0.097 F 
ATOM     12  F4  UNL d   1      -0.186   0.614  -1.423  0.00  0.00    -0.092 F 
ENDROOT
TORSDOF 0
ENDMDL
