MODEL 1
REMARK minimizedAffinity 4.43534565
REMARK minimizedRMSD -1
REMARK  0 active torsions:
REMARK  status: ('A' for Active; 'I' for Inactive)
ROOT
ATOM      1  C   UNL d   1      -1.620  -4.452   0.088  0.00  0.00     0.124 A 
ATOM      2  C1  UNL d   1      -1.939  -3.796  -1.093  0.00  0.00     0.062 A 
ATOM      3  C2  UNL d   1      -1.243  -2.650  -1.468  0.00  0.00     0.162 A 
ATOM      4  C3  UNL d   1      -0.220  -2.153  -0.661  0.00  0.00    -0.034 A 
ATOM      5  C4  UNL d   1       0.094  -2.817   0.527  0.00  0.00     0.162 A 
ATOM      6  C5  UNL d   1      -0.604  -3.962   0.897  0.00  0.00     0.062 A 
ATOM      7  F   UNL d   1      -0.295  -4.594   2.038  0.00  0.00    -0.097 F 
ATOM      8  F1  UNL d   1       1.072  -2.366   1.326  0.00  0.00    -0.096 F 
ATOM      9  I   UNL d   1       0.823  -0.440  -1.217  0.00  0.00    -0.060 I 
ATOM     10  F2  UNL d   1      -1.572  -2.038  -2.615  0.00  0.00    -0.096 F 
ATOM     11  F3  UNL d   1      -2.921  -4.267  -1.876  0.00  0.00    -0.097 F 
ATOM     12  F4  UNL d   1      -2.292  -5.553   0.447  0.00  0.00    -0.092 F 
ENDROOT
TORSDOF 0
ENDMDL
