MODEL 1
REMARK minimizedAffinity 2.68320394
REMARK minimizedRMSD -1
REMARK  0 active torsions:
REMARK  status: ('A' for Active; 'I' for Inactive)
ROOT
ATOM      1  C   UNL d   1       0.461  -2.371  -0.034  0.00  0.00     0.124 A 
ATOM      2  C1  UNL d   1       1.780  -2.626   0.318  0.00  0.00     0.062 A 
ATOM      3  C2  UNL d   1       2.789  -1.749  -0.069  0.00  0.00     0.162 A 
ATOM      4  C3  UNL d   1       2.484  -0.609  -0.812  0.00  0.00    -0.034 A 
ATOM      5  C4  UNL d   1       1.156  -0.360  -1.163  0.00  0.00     0.162 A 
ATOM      6  C5  UNL d   1       0.151  -1.239  -0.774  0.00  0.00     0.062 A 
ATOM      7  F   UNL d   1      -1.122  -0.991  -1.115  0.00  0.00    -0.097 F 
ATOM      8  F1  UNL d   1       0.828   0.727  -1.877  0.00  0.00    -0.096 F 
ATOM      9  I   UNL d   1       3.991   0.704  -1.394  0.00  0.00    -0.060 I 
ATOM     10  F2  UNL d   1       4.054  -2.020   0.285  0.00  0.00    -0.096 F 
ATOM     11  F3  UNL d   1       2.082  -3.719   1.032  0.00  0.00    -0.097 F 
ATOM     12  F4  UNL d   1      -0.508  -3.216   0.340  0.00  0.00    -0.092 F 
ENDROOT
TORSDOF 0
ENDMDL
