MODEL 1
REMARK minimizedAffinity -3.89071012
REMARK minimizedRMSD -1
REMARK  0 active torsions:
REMARK  status: ('A' for Active; 'I' for Inactive)
ROOT
ATOM      1  C   UNL d   1       0.714  -0.863  -0.471  0.00  0.00     0.124 A 
ATOM      2  C1  UNL d   1       1.967  -1.286  -0.053  0.00  0.00     0.062 A 
ATOM      3  C2  UNL d   1       2.177  -2.618   0.291  0.00  0.00     0.162 A 
ATOM      4  C3  UNL d   1       1.131  -3.538   0.218  0.00  0.00    -0.034 A 
ATOM      5  C4  UNL d   1      -0.128  -3.104  -0.203  0.00  0.00     0.162 A 
ATOM      6  C5  UNL d   1      -0.332  -1.771  -0.546  0.00  0.00     0.062 A 
ATOM      7  F   UNL d   1      -1.545  -1.364  -0.950  0.00  0.00    -0.097 F 
ATOM      8  F1  UNL d   1      -1.156  -3.961  -0.285  0.00  0.00    -0.096 F 
ATOM      9  I   UNL d   1       1.441  -5.530   0.732  0.00  0.00    -0.060 I 
ATOM     10  F2  UNL d   1       3.399  -3.000   0.692  0.00  0.00    -0.096 F 
ATOM     11  F3  UNL d   1       2.979  -0.410   0.021  0.00  0.00    -0.097 F 
ATOM     12  F4  UNL d   1       0.514   0.420  -0.801  0.00  0.00    -0.092 F 
ENDROOT
TORSDOF 0
ENDMDL
