MODEL 1
REMARK minimizedAffinity 2.19333053
REMARK minimizedRMSD -1
REMARK  0 active torsions:
REMARK  status: ('A' for Active; 'I' for Inactive)
ROOT
ATOM      1  C   UNL d   1       0.117  -0.750  -0.812  0.00  0.00     0.124 A 
ATOM      2  C1  UNL d   1       1.456  -1.107  -0.738  0.00  0.00     0.062 A 
ATOM      3  C2  UNL d   1       1.822  -2.356  -0.246  0.00  0.00     0.162 A 
ATOM      4  C3  UNL d   1       0.846  -3.260   0.175  0.00  0.00    -0.034 A 
ATOM      5  C4  UNL d   1      -0.499  -2.894   0.098  0.00  0.00     0.162 A 
ATOM      6  C5  UNL d   1      -0.859  -1.644  -0.394  0.00  0.00     0.062 A 
ATOM      7  F   UNL d   1      -2.153  -1.302  -0.465  0.00  0.00    -0.097 F 
ATOM      8  F1  UNL d   1      -1.462  -3.739   0.494  0.00  0.00    -0.096 F 
ATOM      9  I   UNL d   1       1.389  -5.129   0.911  0.00  0.00    -0.060 I 
ATOM     10  F2  UNL d   1       3.124  -2.674  -0.186  0.00  0.00    -0.096 F 
ATOM     11  F3  UNL d   1       2.401  -0.245  -1.140  0.00  0.00    -0.097 F 
ATOM     12  F4  UNL d   1      -0.232   0.453  -1.285  0.00  0.00    -0.092 F 
ENDROOT
TORSDOF 0
ENDMDL
