MODEL 1
REMARK minimizedAffinity 7.10437393
REMARK minimizedRMSD -1
REMARK  0 active torsions:
REMARK  status: ('A' for Active; 'I' for Inactive)
ROOT
ATOM      1  C   UNL d   1       0.517  -1.555  -1.686  0.00  0.00     0.124 A 
ATOM      2  C1  UNL d   1       1.772  -1.742  -1.124  0.00  0.00     0.062 A 
ATOM      3  C2  UNL d   1       1.976  -2.749  -0.185  0.00  0.00     0.162 A 
ATOM      4  C3  UNL d   1       0.921  -3.578   0.197  0.00  0.00    -0.034 A 
ATOM      5  C4  UNL d   1      -0.338  -3.384  -0.373  0.00  0.00     0.162 A 
ATOM      6  C5  UNL d   1      -0.537  -2.376  -1.310  0.00  0.00     0.062 A 
ATOM      7  F   UNL d   1      -1.750  -2.197  -1.853  0.00  0.00    -0.097 F 
ATOM      8  F1  UNL d   1      -1.374  -4.163  -0.028  0.00  0.00    -0.096 F 
ATOM      9  I   UNL d   1       1.221  -5.086   1.600  0.00  0.00    -0.060 I 
ATOM     10  F2  UNL d   1       3.199  -2.907   0.342  0.00  0.00    -0.096 F 
ATOM     11  F3  UNL d   1       2.792  -0.949  -1.485  0.00  0.00    -0.097 F 
ATOM     12  F4  UNL d   1       0.324  -0.584  -2.589  0.00  0.00    -0.092 F 
ENDROOT
TORSDOF 0
ENDMDL
