MODEL 1
REMARK minimizedAffinity -3.91154933
REMARK minimizedRMSD -1
REMARK  0 active torsions:
REMARK  status: ('A' for Active; 'I' for Inactive)
ROOT
ATOM      1  C   UNL d   1       0.361  -0.801  -0.668  0.00  0.00     0.124 A 
ATOM      2  C1  UNL d   1      -0.723  -1.592  -0.313  0.00  0.00     0.062 A 
ATOM      3  C2  UNL d   1      -0.518  -2.866   0.209  0.00  0.00     0.162 A 
ATOM      4  C3  UNL d   1       0.777  -3.356   0.381  0.00  0.00    -0.034 A 
ATOM      5  C4  UNL d   1       1.862  -2.555   0.021  0.00  0.00     0.162 A 
ATOM      6  C5  UNL d   1       1.652  -1.282  -0.500  0.00  0.00     0.062 A 
ATOM      7  F   UNL d   1       2.700  -0.519  -0.841  0.00  0.00    -0.097 F 
ATOM      8  F1  UNL d   1       3.119  -2.995   0.174  0.00  0.00    -0.096 F 
ATOM      9  I   UNL d   1       1.087  -5.261   1.161  0.00  0.00    -0.060 I 
ATOM     10  F2  UNL d   1      -1.583  -3.610   0.542  0.00  0.00    -0.096 F 
ATOM     11  F3  UNL d   1      -1.971  -1.130  -0.475  0.00  0.00    -0.097 F 
ATOM     12  F4  UNL d   1       0.161   0.424  -1.171  0.00  0.00    -0.092 F 
ENDROOT
TORSDOF 0
ENDMDL
