MODEL 1
REMARK minimizedAffinity -0.134342477
REMARK minimizedRMSD -1
REMARK  0 active torsions:
REMARK  status: ('A' for Active; 'I' for Inactive)
ROOT
ATOM      1  C   UNL d   1       0.636  -1.206  -1.142  0.00  0.00     0.124 A 
ATOM      2  C1  UNL d   1      -0.355  -2.107  -0.778  0.00  0.00     0.062 A 
ATOM      3  C2  UNL d   1      -0.029  -3.253  -0.059  0.00  0.00     0.162 A 
ATOM      4  C3  UNL d   1       1.295  -3.505   0.302  0.00  0.00    -0.034 A 
ATOM      5  C4  UNL d   1       2.286  -2.594  -0.069  0.00  0.00     0.162 A 
ATOM      6  C5  UNL d   1       1.955  -1.450  -0.788  0.00  0.00     0.062 A 
ATOM      7  F   UNL d   1       2.914  -0.581  -1.139  0.00  0.00    -0.097 F 
ATOM      8  F1  UNL d   1       3.569  -2.806   0.261  0.00  0.00    -0.096 F 
ATOM      9  I   UNL d   1       1.786  -5.217   1.377  0.00  0.00    -0.060 I 
ATOM     10  F2  UNL d   1      -1.007  -4.106   0.281  0.00  0.00    -0.096 F 
ATOM     11  F3  UNL d   1      -1.631  -1.873  -1.119  0.00  0.00    -0.097 F 
ATOM     12  F4  UNL d   1       0.319  -0.104  -1.835  0.00  0.00    -0.092 F 
ENDROOT
TORSDOF 0
ENDMDL
