MODEL 1
REMARK minimizedAffinity -2.37174797
REMARK minimizedRMSD -1
REMARK  0 active torsions:
REMARK  status: ('A' for Active; 'I' for Inactive)
ROOT
ATOM      1  C   UNL d   1       0.047  -1.084  -0.489  0.00  0.00     0.124 A 
ATOM      2  C1  UNL d   1      -0.876  -1.949   0.082  0.00  0.00     0.062 A 
ATOM      3  C2  UNL d   1      -0.478  -3.211   0.516  0.00  0.00     0.162 A 
ATOM      4  C3  UNL d   1       0.850  -3.615   0.381  0.00  0.00    -0.034 A 
ATOM      5  C4  UNL d   1       1.773  -2.740  -0.194  0.00  0.00     0.162 A 
ATOM      6  C5  UNL d   1       1.370  -1.480  -0.626  0.00  0.00     0.062 A 
ATOM      7  F   UNL d   1       2.264  -0.646  -1.178  0.00  0.00    -0.097 F 
ATOM      8  F1  UNL d   1       3.058  -3.096  -0.339  0.00  0.00    -0.096 F 
ATOM      9  I   UNL d   1       1.448  -5.500   1.029  0.00  0.00    -0.060 I 
ATOM     10  F2  UNL d   1      -1.392  -4.026   1.064  0.00  0.00    -0.096 F 
ATOM     11  F3  UNL d   1      -2.155  -1.570   0.215  0.00  0.00    -0.097 F 
ATOM     12  F4  UNL d   1      -0.338   0.128  -0.906  0.00  0.00    -0.092 F 
ENDROOT
TORSDOF 0
ENDMDL
