MODEL 1
REMARK minimizedAffinity 2.72049022
REMARK minimizedRMSD -1
REMARK  0 active torsions:
REMARK  status: ('A' for Active; 'I' for Inactive)
ROOT
ATOM      1  C   UNL d   1       0.309  -4.792   1.270  0.00  0.00     0.124 A 
ATOM      2  C1  UNL d   1      -0.791  -3.955   1.152  0.00  0.00     0.062 A 
ATOM      3  C2  UNL d   1      -0.656  -2.700   0.565  0.00  0.00     0.162 A 
ATOM      4  C3  UNL d   1       0.584  -2.275   0.089  0.00  0.00    -0.034 A 
ATOM      5  C4  UNL d   1       1.687  -3.123   0.212  0.00  0.00     0.162 A 
ATOM      6  C5  UNL d   1       1.547  -4.376   0.800  0.00  0.00     0.062 A 
ATOM      7  F   UNL d   1       2.611  -5.184   0.913  0.00  0.00    -0.097 F 
ATOM      8  F1  UNL d   1       2.894  -2.746  -0.234  0.00  0.00    -0.096 F 
ATOM      9  I   UNL d   1       0.790  -0.400  -0.789  0.00  0.00    -0.060 I 
ATOM     10  F2  UNL d   1      -1.737  -1.912   0.464  0.00  0.00    -0.096 F 
ATOM     11  F3  UNL d   1      -1.988  -4.355   1.606  0.00  0.00    -0.097 F 
ATOM     12  F4  UNL d   1       0.177  -5.999   1.836  0.00  0.00    -0.092 F 
ENDROOT
TORSDOF 0
ENDMDL
