MODEL 1
REMARK minimizedAffinity 2.67409468
REMARK minimizedRMSD -1
REMARK  1 active torsions:
REMARK  status: ('A' for Active; 'I' for Inactive)
REMARK    1  A    between atoms: C1_2  and  C2_3 
ROOT
ATOM      1  C2  UNL d   1       2.667  -1.401  -2.362  0.00  0.00    -0.073 A 
ATOM      2  C3  UNL d   1       3.827  -1.337  -1.581  0.00  0.00    -0.002 A 
ATOM      3  C4  UNL d   1       3.984  -0.323  -0.635  0.00  0.00     0.004 A 
ATOM      4  C5  UNL d   1       2.982   0.630  -0.454  0.00  0.00    -0.004 A 
ATOM      5  C6  UNL d   1       1.810   0.575  -1.216  0.00  0.00    -0.075 A 
ATOM      6  C7  UNL d   1       0.723   1.594  -1.035  0.00  0.00     0.076 C 
ATOM      7  C8  UNL d   1       1.661  -0.444  -2.166  0.00  0.00     0.001 A 
ENDROOT
BRANCH   1   8
ATOM      8  C1  UNL d   1       2.490  -2.497  -3.381  0.00  0.00     0.053 C 
ATOM      9  C   UNL d   1       1.623  -2.055  -4.549  0.00  0.00     0.018 C 
ENDBRANCH   1   8
TORSDOF 1
ENDMDL
