MODEL 1
REMARK minimizedAffinity -2.39225984
REMARK minimizedRMSD -1
REMARK  1 active torsions:
REMARK  status: ('A' for Active; 'I' for Inactive)
REMARK    1  A    between atoms: C1_2  and  C2_3 
ROOT
ATOM      1  C2  UNL d   1      -0.394   0.406   1.602  0.00  0.00    -0.073 A 
ATOM      2  C3  UNL d   1       0.250  -0.820   1.402  0.00  0.00    -0.002 A 
ATOM      3  C4  UNL d   1       0.683  -1.190   0.128  0.00  0.00     0.004 A 
ATOM      4  C5  UNL d   1       0.484  -0.335  -0.956  0.00  0.00    -0.004 A 
ATOM      5  C6  UNL d   1      -0.148   0.900  -0.774  0.00  0.00    -0.075 A 
ATOM      6  C7  UNL d   1      -0.372   1.829  -1.931  0.00  0.00     0.076 C 
ATOM      7  C8  UNL d   1      -0.582   1.262   0.508  0.00  0.00     0.001 A 
ENDROOT
BRANCH   1   8
ATOM      8  C1  UNL d   1      -0.858   0.811   2.977  0.00  0.00     0.053 C 
ATOM      9  C   UNL d   1      -2.371   0.743   3.112  0.00  0.00     0.018 C 
ENDBRANCH   1   8
TORSDOF 1
ENDMDL
