MODEL 1
REMARK minimizedAffinity 6.03135347
REMARK minimizedRMSD -1
REMARK  1 active torsions:
REMARK  status: ('A' for Active; 'I' for Inactive)
REMARK    1  A    between atoms: C1_2  and  C2_3 
ROOT
ATOM      1  C2  UNL d   1       1.490   1.301  -0.511  0.00  0.00    -0.073 A 
ATOM      2  C3  UNL d   1       1.613   1.929   0.734  0.00  0.00    -0.002 A 
ATOM      3  C4  UNL d   1       0.528   1.973   1.611  0.00  0.00     0.004 A 
ATOM      4  C5  UNL d   1      -0.686   1.386   1.256  0.00  0.00    -0.004 A 
ATOM      5  C6  UNL d   1      -0.825   0.743   0.022  0.00  0.00    -0.075 A 
ATOM      6  C7  UNL d   1      -2.125   0.108  -0.376  0.00  0.00     0.076 C 
ATOM      7  C8  UNL d   1       0.268   0.705  -0.855  0.00  0.00     0.001 A 
ENDROOT
BRANCH   1   8
ATOM      8  C1  UNL d   1       2.660   1.245  -1.458  0.00  0.00     0.053 C 
ATOM      9  C   UNL d   1       2.242   1.508  -2.896  0.00  0.00     0.018 C 
ENDBRANCH   1   8
TORSDOF 1
ENDMDL
