MODEL 1
REMARK minimizedAffinity 10.0844574
REMARK minimizedRMSD -1
REMARK  1 active torsions:
REMARK  status: ('A' for Active; 'I' for Inactive)
REMARK    1  A    between atoms: C1_2  and  C2_3 
ROOT
ATOM      1  C2  UNL d   1       0.510   0.075  -1.139  0.00  0.00    -0.073 A 
ATOM      2  C3  UNL d   1      -0.227   1.137  -0.602  0.00  0.00    -0.002 A 
ATOM      3  C4  UNL d   1      -1.530   0.932  -0.147  0.00  0.00     0.004 A 
ATOM      4  C5  UNL d   1      -2.107  -0.336  -0.218  0.00  0.00    -0.004 A 
ATOM      5  C6  UNL d   1      -1.383  -1.413  -0.740  0.00  0.00    -0.075 A 
ATOM      6  C7  UNL d   1      -1.990  -2.782  -0.825  0.00  0.00     0.076 C 
ATOM      7  C8  UNL d   1      -0.076  -1.198  -1.197  0.00  0.00     0.001 A 
ENDROOT
BRANCH   1   8
ATOM      8  C1  UNL d   1       1.920   0.290  -1.625  0.00  0.00     0.053 C 
ATOM      9  C   UNL d   1       2.037   1.526  -2.503  0.00  0.00     0.018 C 
ENDBRANCH   1   8
TORSDOF 1
ENDMDL
