MODEL 1
REMARK minimizedAffinity 9.60188198
REMARK minimizedRMSD -1
REMARK  1 active torsions:
REMARK  status: ('A' for Active; 'I' for Inactive)
REMARK    1  A    between atoms: C1_2  and  C2_3 
ROOT
ATOM      1  C2  UNL d   1       2.370   2.454  -2.987  0.00  0.00    -0.073 A 
ATOM      2  C3  UNL d   1       1.042   2.703  -3.352  0.00  0.00    -0.002 A 
ATOM      3  C4  UNL d   1       0.590   4.013  -3.517  0.00  0.00     0.004 A 
ATOM      4  C5  UNL d   1       1.461   5.086  -3.327  0.00  0.00    -0.004 A 
ATOM      5  C6  UNL d   1       2.795   4.857  -2.975  0.00  0.00    -0.075 A 
ATOM      6  C7  UNL d   1       3.744   6.000  -2.764  0.00  0.00     0.076 C 
ATOM      7  C8  UNL d   1       3.241   3.539  -2.807  0.00  0.00     0.001 A 
ENDROOT
BRANCH   1   8
ATOM      8  C1  UNL d   1       2.864   1.042  -2.814  0.00  0.00     0.053 C 
ATOM      9  C   UNL d   1       2.318   0.398  -1.549  0.00  0.00     0.018 C 
ENDBRANCH   1   8
TORSDOF 1
ENDMDL
