MODEL 1
REMARK minimizedAffinity 4.27907276
REMARK minimizedRMSD -1
REMARK  1 active torsions:
REMARK  status: ('A' for Active; 'I' for Inactive)
REMARK    1  A    between atoms: C1_2  and  C2_3 
ROOT
ATOM      1  C2  UNL d   1       0.627  -1.043  -1.154  0.00  0.00    -0.073 A 
ATOM      2  C3  UNL d   1       0.206   0.214  -0.707  0.00  0.00    -0.002 A 
ATOM      3  C4  UNL d   1      -1.120   0.418  -0.321  0.00  0.00     0.004 A 
ATOM      4  C5  UNL d   1      -2.035  -0.634  -0.371  0.00  0.00    -0.004 A 
ATOM      5  C6  UNL d   1      -1.630  -1.901  -0.803  0.00  0.00    -0.075 A 
ATOM      6  C7  UNL d   1      -2.603  -3.042  -0.865  0.00  0.00     0.076 C 
ATOM      7  C8  UNL d   1      -0.298  -2.097  -1.192  0.00  0.00     0.001 A 
ENDROOT
BRANCH   1   8
ATOM      8  C1  UNL d   1       2.059  -1.270  -1.565  0.00  0.00     0.053 C 
ATOM      9  C   UNL d   1       2.675  -0.028  -2.191  0.00  0.00     0.018 C 
ENDBRANCH   1   8
TORSDOF 1
ENDMDL
