MODEL 1
REMARK minimizedAffinity 4.04800558
REMARK minimizedRMSD -1
REMARK  1 active torsions:
REMARK  status: ('A' for Active; 'I' for Inactive)
REMARK    1  A    between atoms: C1_2  and  C2_3 
ROOT
ATOM      1  C2  UNL d   1      -0.240  -2.524  -1.194  0.00  0.00    -0.073 A 
ATOM      2  C3  UNL d   1       0.219  -3.479  -2.108  0.00  0.00    -0.002 A 
ATOM      3  C4  UNL d   1       1.508  -3.389  -2.634  0.00  0.00     0.004 A 
ATOM      4  C5  UNL d   1       2.353  -2.349  -2.248  0.00  0.00    -0.004 A 
ATOM      5  C6  UNL d   1       1.918  -1.392  -1.326  0.00  0.00    -0.075 A 
ATOM      6  C7  UNL d   1       2.814  -0.266  -0.902  0.00  0.00     0.076 C 
ATOM      7  C8  UNL d   1       0.621  -1.487  -0.804  0.00  0.00     0.001 A 
ENDROOT
BRANCH   1   8
ATOM      8  C1  UNL d   1      -1.629  -2.620  -0.617  0.00  0.00     0.053 C 
ATOM      9  C   UNL d   1      -2.421  -1.339  -0.823  0.00  0.00     0.018 C 
ENDBRANCH   1   8
TORSDOF 1
ENDMDL
