MODEL 1
REMARK minimizedAffinity 10.6035385
REMARK minimizedRMSD -1
REMARK  1 active torsions:
REMARK  status: ('A' for Active; 'I' for Inactive)
REMARK    1  A    between atoms: C1_2  and  C2_3 
ROOT
ATOM      1  C2  UNL d   1      -1.160   0.496  -0.116  0.00  0.00    -0.073 A 
ATOM      2  C3  UNL d   1      -1.095   1.317   1.016  0.00  0.00    -0.002 A 
ATOM      3  C4  UNL d   1       0.083   1.999   1.325  0.00  0.00     0.004 A 
ATOM      4  C5  UNL d   1       1.204   1.873   0.504  0.00  0.00    -0.004 A 
ATOM      5  C6  UNL d   1       1.154   1.066  -0.637  0.00  0.00    -0.075 A 
ATOM      6  C7  UNL d   1       2.352   0.918  -1.530  0.00  0.00     0.076 C 
ATOM      7  C8  UNL d   1      -0.031   0.382  -0.940  0.00  0.00     0.001 A 
ENDROOT
BRANCH   1   8
ATOM      8  C1  UNL d   1      -2.431  -0.238  -0.457  0.00  0.00     0.053 C 
ATOM      9  C   UNL d   1      -2.181  -1.711  -0.738  0.00  0.00     0.018 C 
ENDBRANCH   1   8
TORSDOF 1
ENDMDL
