MODEL 1
REMARK minimizedAffinity 3.95516062
REMARK minimizedRMSD -1
REMARK  1 active torsions:
REMARK  status: ('A' for Active; 'I' for Inactive)
REMARK    1  A    between atoms: C1_2  and  C2_3 
ROOT
ATOM      1  C2  UNL d   1       0.407   1.697  -1.625  0.00  0.00    -0.073 A 
ATOM      2  C3  UNL d   1       1.005   2.442  -2.647  0.00  0.00    -0.002 A 
ATOM      3  C4  UNL d   1       2.182   1.996  -3.249  0.00  0.00     0.004 A 
ATOM      4  C5  UNL d   1       2.769   0.799  -2.840  0.00  0.00    -0.004 A 
ATOM      5  C6  UNL d   1       2.180   0.034  -1.828  0.00  0.00    -0.075 A 
ATOM      6  C7  UNL d   1       2.800  -1.256  -1.376  0.00  0.00     0.076 C 
ATOM      7  C8  UNL d   1       0.999   0.490  -1.227  0.00  0.00     0.001 A 
ENDROOT
BRANCH   1   8
ATOM      8  C1  UNL d   1      -0.868   2.171  -0.977  0.00  0.00     0.053 C 
ATOM      9  C   UNL d   1      -1.592   1.048  -0.252  0.00  0.00     0.018 C 
ENDBRANCH   1   8
TORSDOF 1
ENDMDL
