MODEL 1
REMARK minimizedAffinity 3.33747745
REMARK minimizedRMSD -1
REMARK  1 active torsions:
REMARK  status: ('A' for Active; 'I' for Inactive)
REMARK    1  A    between atoms: C1_2  and  C2_3 
ROOT
ATOM      1  C2  UNL d   1       2.185   0.482  -2.568  0.00  0.00    -0.073 A 
ATOM      2  C3  UNL d   1       3.020  -0.565  -2.163  0.00  0.00    -0.002 A 
ATOM      3  C4  UNL d   1       2.592  -1.474  -1.194  0.00  0.00     0.004 A 
ATOM      4  C5  UNL d   1       1.325  -1.350  -0.626  0.00  0.00    -0.004 A 
ATOM      5  C6  UNL d   1       0.471  -0.317  -1.026  0.00  0.00    -0.075 A 
ATOM      6  C7  UNL d   1      -0.895  -0.168  -0.423  0.00  0.00     0.076 C 
ATOM      7  C8  UNL d   1       0.908   0.594  -1.997  0.00  0.00     0.001 A 
ENDROOT
BRANCH   1   8
ATOM      8  C1  UNL d   1       2.640   1.462  -3.618  0.00  0.00     0.053 C 
ATOM      9  C   UNL d   1       1.709   2.660  -3.721  0.00  0.00     0.018 C 
ENDBRANCH   1   8
TORSDOF 1
ENDMDL
