MODEL 1
REMARK minimizedAffinity 2.11481714
REMARK minimizedRMSD -1
REMARK  1 active torsions:
REMARK  status: ('A' for Active; 'I' for Inactive)
REMARK    1  A    between atoms: N_2  and  C1_3 
ROOT
ATOM      1  C1  UNL d   1       0.419   1.091   1.010  0.00  0.00     0.143 A 
ATOM      2  C2  UNL d   1      -0.478   2.154   0.866  0.00  0.00    -0.057 A 
ATOM      3  C3  UNL d   1      -1.808   1.936   0.485  0.00  0.00     0.033 A 
ATOM      4  C4  UNL d   1      -2.257   0.648   0.212  0.00  0.00    -0.042 A 
ATOM      5  C5  UNL d   1      -1.375  -0.422   0.324  0.00  0.00     0.033 A 
ATOM      6  C6  UNL d   1      -0.051  -0.198   0.711  0.00  0.00    -0.057 A 
ENDROOT
BRANCH   1   7
ATOM      7  N   UNL d   1       1.778   1.253   1.290  0.00  0.00    -0.732 N 
ATOM      8  C   UNL d   1       2.764   0.382   0.686  0.00  0.00     0.284 C 
ATOM      9  H3  UNL d   1       2.054   2.232   1.325  0.00  0.00     0.395 HD
ENDBRANCH   1   7
TORSDOF 1
ENDMDL
