MODEL 1
REMARK minimizedAffinity -1.42494154
REMARK minimizedRMSD -1
REMARK  1 active torsions:
REMARK  status: ('A' for Active; 'I' for Inactive)
REMARK    1  A    between atoms: N_2  and  C1_3 
ROOT
ATOM      1  C1  UNL d   1       0.192   1.479   0.140  0.00  0.00     0.143 A 
ATOM      2  C2  UNL d   1      -0.326   2.745   0.435  0.00  0.00    -0.057 A 
ATOM      3  C3  UNL d   1       0.496   3.770   0.919  0.00  0.00     0.033 A 
ATOM      4  C4  UNL d   1       1.848   3.538   1.144  0.00  0.00    -0.042 A 
ATOM      5  C5  UNL d   1       2.380   2.280   0.882  0.00  0.00     0.033 A 
ATOM      6  C6  UNL d   1       1.556   1.262   0.393  0.00  0.00    -0.057 A 
ENDROOT
BRANCH   1   7
ATOM      7  N   UNL d   1      -0.591   0.390  -0.250  0.00  0.00    -0.732 N 
ATOM      8  C   UNL d   1       0.008  -0.752  -0.907  0.00  0.00     0.284 C 
ATOM      9  H3  UNL d   1      -1.294   0.148   0.446  0.00  0.00     0.395 HD
ENDBRANCH   1   7
TORSDOF 1
ENDMDL
