MODEL 1
REMARK minimizedAffinity -4.03943634
REMARK minimizedRMSD -1
REMARK  1 active torsions:
REMARK  status: ('A' for Active; 'I' for Inactive)
REMARK    1  A    between atoms: N_2  and  C1_3 
ROOT
ATOM      1  C1  UNL d   1      -0.100   1.463   0.244  0.00  0.00     0.143 A 
ATOM      2  C2  UNL d   1       1.210   1.428  -0.246  0.00  0.00    -0.057 A 
ATOM      3  C3  UNL d   1       2.087   2.501  -0.048  0.00  0.00     0.033 A 
ATOM      4  C4  UNL d   1       1.659   3.644   0.619  0.00  0.00    -0.042 A 
ATOM      5  C5  UNL d   1       0.353   3.711   1.091  0.00  0.00     0.033 A 
ATOM      6  C6  UNL d   1      -0.516   2.633   0.897  0.00  0.00    -0.057 A 
ENDROOT
BRANCH   1   7
ATOM      7  N   UNL d   1      -1.050   0.469  -0.006  0.00  0.00    -0.732 N 
ATOM      8  C   UNL d   1      -0.694  -0.931   0.085  0.00  0.00     0.284 C 
ATOM      9  H3  UNL d   1      -1.960   0.693   0.391  0.00  0.00     0.395 HD
ENDBRANCH   1   7
TORSDOF 1
ENDMDL
