MODEL 1
REMARK minimizedAffinity -4.91447592
REMARK minimizedRMSD -1
REMARK  1 active torsions:
REMARK  status: ('A' for Active; 'I' for Inactive)
REMARK    1  A    between atoms: N_2  and  C1_3 
ROOT
ATOM      1  C1  UNL d   1       0.538   0.646  -0.080  0.00  0.00     0.143 A 
ATOM      2  C2  UNL d   1       1.771   1.204   0.270  0.00  0.00    -0.057 A 
ATOM      3  C3  UNL d   1       1.914   2.583   0.471  0.00  0.00     0.033 A 
ATOM      4  C4  UNL d   1       0.827   3.433   0.294  0.00  0.00    -0.042 A 
ATOM      5  C5  UNL d   1      -0.403   2.903  -0.078  0.00  0.00     0.033 A 
ATOM      6  C6  UNL d   1      -0.540   1.524  -0.270  0.00  0.00    -0.057 A 
ENDROOT
BRANCH   1   7
ATOM      7  N   UNL d   1       0.355  -0.705  -0.389  0.00  0.00    -0.732 N 
ATOM      8  C   UNL d   1       0.380  -1.709   0.652  0.00  0.00     0.284 C 
ATOM      9  H3  UNL d   1      -0.371  -0.848  -1.088  0.00  0.00     0.395 HD
ENDBRANCH   1   7
TORSDOF 1
ENDMDL
