MODEL 1
REMARK minimizedAffinity -3.86762023
REMARK minimizedRMSD -1
REMARK  1 active torsions:
REMARK  status: ('A' for Active; 'I' for Inactive)
REMARK    1  A    between atoms: N_2  and  C1_3 
ROOT
ATOM      1  C1  UNL d   1       0.814   1.103  -0.053  0.00  0.00     0.143 A 
ATOM      2  C2  UNL d   1       0.206   2.323   0.266  0.00  0.00    -0.057 A 
ATOM      3  C3  UNL d   1       0.965   3.484   0.455  0.00  0.00     0.033 A 
ATOM      4  C4  UNL d   1       2.352   3.440   0.358  0.00  0.00    -0.042 A 
ATOM      5  C5  UNL d   1       2.979   2.234   0.066  0.00  0.00     0.033 A 
ATOM      6  C6  UNL d   1       2.215   1.079  -0.128  0.00  0.00    -0.057 A 
ENDROOT
BRANCH   1   7
ATOM      7  N   UNL d   1       0.123  -0.106  -0.156  0.00  0.00    -0.732 N 
ATOM      8  C   UNL d   1      -0.955  -0.420   0.758  0.00  0.00     0.284 C 
ATOM      9  H3  UNL d   1      -0.062  -0.367  -1.122  0.00  0.00     0.395 HD
ENDBRANCH   1   7
TORSDOF 1
ENDMDL
