MODEL 1
REMARK minimizedAffinity -4.90935564
REMARK minimizedRMSD -1
REMARK  1 active torsions:
REMARK  status: ('A' for Active; 'I' for Inactive)
REMARK    1  A    between atoms: N_2  and  C1_3 
ROOT
ATOM      1  C1  UNL d   1       0.534   0.765   0.025  0.00  0.00     0.143 A 
ATOM      2  C2  UNL d   1      -0.494   1.689   0.238  0.00  0.00    -0.057 A 
ATOM      3  C3  UNL d   1      -0.237   3.064   0.283  0.00  0.00     0.033 A 
ATOM      4  C4  UNL d   1       1.063   3.540   0.144  0.00  0.00    -0.042 A 
ATOM      5  C5  UNL d   1       2.105   2.638  -0.043  0.00  0.00     0.033 A 
ATOM      6  C6  UNL d   1       1.840   1.266  -0.094  0.00  0.00    -0.057 A 
ENDROOT
BRANCH   1   7
ATOM      7  N   UNL d   1       0.356  -0.620   0.068  0.00  0.00    -0.732 N 
ATOM      8  C   UNL d   1      -0.578  -1.272  -0.825  0.00  0.00     0.284 C 
ATOM      9  H3  UNL d   1       1.234  -1.121   0.189  0.00  0.00     0.395 HD
ENDBRANCH   1   7
TORSDOF 1
ENDMDL
