MODEL 1
REMARK minimizedAffinity 0.623588741
REMARK minimizedRMSD -1
REMARK  1 active torsions:
REMARK  status: ('A' for Active; 'I' for Inactive)
REMARK    1  A    between atoms: N_2  and  C1_3 
ROOT
ATOM      1  C1  UNL d   1      -1.145  -1.555  -0.256  0.00  0.00     0.143 A 
ATOM      2  C2  UNL d   1      -2.227  -0.703  -0.011  0.00  0.00    -0.057 A 
ATOM      3  C3  UNL d   1      -2.035   0.585   0.503  0.00  0.00     0.033 A 
ATOM      4  C4  UNL d   1      -0.755   1.035   0.808  0.00  0.00    -0.042 A 
ATOM      5  C5  UNL d   1       0.333   0.196   0.596  0.00  0.00     0.033 A 
ATOM      6  C6  UNL d   1       0.136  -1.087   0.077  0.00  0.00    -0.057 A 
ENDROOT
BRANCH   1   7
ATOM      7  N   UNL d   1      -1.279  -2.882  -0.673  0.00  0.00    -0.732 N 
ATOM      8  C   UNL d   1      -1.150  -3.232  -2.072  0.00  0.00     0.284 C 
ATOM      9  H3  UNL d   1      -0.827  -3.536  -0.038  0.00  0.00     0.395 HD
ENDBRANCH   1   7
TORSDOF 1
ENDMDL
