MODEL 1
REMARK minimizedAffinity -5.09030342
REMARK minimizedRMSD -1
REMARK  1 active torsions:
REMARK  status: ('A' for Active; 'I' for Inactive)
REMARK    1  A    between atoms: N_2  and  C1_3 
ROOT
ATOM      1  C1  UNL d   1       0.114   0.957   0.355  0.00  0.00     0.143 A 
ATOM      2  C2  UNL d   1      -0.450   2.237   0.314  0.00  0.00    -0.057 A 
ATOM      3  C3  UNL d   1       0.352   3.384   0.294  0.00  0.00     0.033 A 
ATOM      4  C4  UNL d   1       1.738   3.272   0.344  0.00  0.00    -0.042 A 
ATOM      5  C5  UNL d   1       2.320   2.011   0.410  0.00  0.00     0.033 A 
ATOM      6  C6  UNL d   1       1.513   0.869   0.423  0.00  0.00    -0.057 A 
ENDROOT
BRANCH   1   7
ATOM      7  N   UNL d   1      -0.631  -0.218   0.476  0.00  0.00    -0.732 N 
ATOM      8  C   UNL d   1      -0.127  -1.469  -0.049  0.00  0.00     0.284 C 
ATOM      9  H3  UNL d   1      -1.082  -0.300   1.384  0.00  0.00     0.395 HD
ENDBRANCH   1   7
TORSDOF 1
ENDMDL
