MODEL 1
REMARK minimizedAffinity 6.35517645
REMARK minimizedRMSD -1
REMARK  2 active torsions:
REMARK  status: ('A' for Active; 'I' for Inactive)
REMARK    1  A    between atoms: C2'_3  and  C1'_4 
REMARK    2  A    between atoms: C1'_4  and  C1_5 
ROOT
ATOM      1  C1  I4B d   1      -1.123  -4.026  -3.257  0.00  0.00    -0.075 A 
ATOM      2  C2  I4B d   1      -1.408  -3.241  -4.347  0.00  0.00     0.003 A 
ATOM      3  C3  I4B d   1      -1.846  -3.833  -5.557  0.00  0.00     0.002 A 
ATOM      4  C4  I4B d   1      -1.935  -5.208  -5.647  0.00  0.00    -0.004 A 
ATOM      5  C5  I4B d   1      -1.668  -6.000  -4.534  0.00  0.00     0.002 A 
ATOM      6  C6  I4B d   1      -1.271  -5.405  -3.328  0.00  0.00     0.003 A 
ENDROOT
BRANCH   1   7
ATOM      7  C1' I4B d   1      -0.632  -3.370  -2.006  0.00  0.00     0.060 C 
BRANCH   7   8
ATOM      8  C2' I4B d   1      -1.083  -1.924  -2.029  0.00  0.00    -0.013 C 
ATOM      9  C4' I4B d   1      -0.964  -1.294  -0.666  0.00  0.00     0.013 C 
ATOM     10  C3' I4B d   1      -0.247  -1.194  -3.038  0.00  0.00     0.013 C 
ENDBRANCH   7   8
ENDBRANCH   1   7
TORSDOF 2
ENDMDL
