MODEL 1
REMARK minimizedAffinity 11.1333647
REMARK minimizedRMSD -1
REMARK  2 active torsions:
REMARK  status: ('A' for Active; 'I' for Inactive)
REMARK    1  A    between atoms: C2'_3  and  C1'_4 
REMARK    2  A    between atoms: C1'_4  and  C1_5 
ROOT
ATOM      1  C1  I4B d   1       0.243  -3.049  -5.437  0.00  0.00    -0.075 A 
ATOM      2  C2  I4B d   1      -0.397  -1.851  -5.233  0.00  0.00     0.003 A 
ATOM      3  C3  I4B d   1       0.304  -0.754  -4.676  0.00  0.00     0.002 A 
ATOM      4  C4  I4B d   1       1.621  -0.913  -4.293  0.00  0.00    -0.004 A 
ATOM      5  C5  I4B d   1       2.274  -2.120  -4.522  0.00  0.00     0.002 A 
ATOM      6  C6  I4B d   1       1.585  -3.191  -5.108  0.00  0.00     0.003 A 
ENDROOT
BRANCH   1   7
ATOM      7  C1' I4B d   1      -0.536  -4.196  -5.996  0.00  0.00     0.060 C 
BRANCH   7   8
ATOM      8  C2' I4B d   1      -1.781  -4.371  -5.151  0.00  0.00    -0.013 C 
ATOM      9  C4' I4B d   1      -3.026  -4.331  -5.998  0.00  0.00     0.013 C 
ATOM     10  C3' I4B d   1      -1.665  -5.676  -4.421  0.00  0.00     0.013 C 
ENDBRANCH   7   8
ENDBRANCH   1   7
TORSDOF 2
ENDMDL
