MODEL 1
REMARK minimizedAffinity 6.81860542
REMARK minimizedRMSD -1
REMARK  2 active torsions:
REMARK  status: ('A' for Active; 'I' for Inactive)
REMARK    1  A    between atoms: C2'_3  and  C1'_4 
REMARK    2  A    between atoms: C1'_4  and  C1_5 
ROOT
ATOM      1  C1  I4B d   1       0.241  -0.451   2.632  0.00  0.00    -0.075 A 
ATOM      2  C2  I4B d   1      -0.570  -1.266   1.882  0.00  0.00     0.003 A 
ATOM      3  C3  I4B d   1      -1.806  -0.783   1.388  0.00  0.00     0.002 A 
ATOM      4  C4  I4B d   1      -2.212   0.496   1.709  0.00  0.00    -0.004 A 
ATOM      5  C5  I4B d   1      -1.379   1.328   2.451  0.00  0.00     0.002 A 
ATOM      6  C6  I4B d   1      -0.139   0.856   2.905  0.00  0.00     0.003 A 
ENDROOT
BRANCH   1   7
ATOM      7  C1' I4B d   1       1.524  -1.005   3.165  0.00  0.00     0.060 C 
BRANCH   7   8
ATOM      8  C2' I4B d   1       1.566  -0.735   4.655  0.00  0.00    -0.013 C 
ATOM      9  C4' I4B d   1       1.560  -2.019   5.442  0.00  0.00     0.013 C 
ATOM     10  C3' I4B d   1       2.796   0.073   4.946  0.00  0.00     0.013 C 
ENDBRANCH   7   8
ENDBRANCH   1   7
TORSDOF 2
ENDMDL
