MODEL 1
REMARK minimizedAffinity 12.4822216
REMARK minimizedRMSD -1
REMARK  2 active torsions:
REMARK  status: ('A' for Active; 'I' for Inactive)
REMARK    1  A    between atoms: C2'_3  and  C1'_4 
REMARK    2  A    between atoms: C1'_4  and  C1_5 
ROOT
ATOM      1  C1  I4B d   1       0.334  -1.438   0.352  0.00  0.00    -0.075 A 
ATOM      2  C2  I4B d   1       1.271  -1.955   1.212  0.00  0.00     0.003 A 
ATOM      3  C3  I4B d   1       1.562  -1.294   2.430  0.00  0.00     0.002 A 
ATOM      4  C4  I4B d   1       0.933  -0.101   2.723  0.00  0.00    -0.004 A 
ATOM      5  C5  I4B d   1      -0.033   0.409   1.861  0.00  0.00     0.002 A 
ATOM      6  C6  I4B d   1      -0.344  -0.270   0.674  0.00  0.00     0.003 A 
ENDROOT
BRANCH   1   7
ATOM      7  C1' I4B d   1       0.075  -2.144  -0.941  0.00  0.00     0.060 C 
BRANCH   7   8
ATOM      8  C2' I4B d   1      -0.830  -1.265  -1.780  0.00  0.00    -0.013 C 
ATOM      9  C4' I4B d   1      -0.092  -0.691  -2.960  0.00  0.00     0.013 C 
ATOM     10  C3' I4B d   1      -1.999  -2.094  -2.223  0.00  0.00     0.013 C 
ENDBRANCH   7   8
ENDBRANCH   1   7
TORSDOF 2
ENDMDL
