MODEL 1
REMARK minimizedAffinity 2.71111083
REMARK minimizedRMSD -1
REMARK  0 active torsions:
REMARK  status: ('A' for Active; 'I' for Inactive)
ROOT
ATOM      1  C1  DEN d   1       5.999   5.332  -2.329  0.00  0.00     0.130 A 
ATOM      2  C2  DEN d   1       4.933   5.485  -1.343  0.00  0.00    -0.031 A 
ATOM      3  C3  DEN d   1       3.670   5.725  -2.069  0.00  0.00     0.027 A 
ATOM      4  C4  DEN d   1       3.263   5.870  -4.612  0.00  0.00     0.027 A 
ATOM      5  C5  DEN d   1       3.864   5.816  -5.850  0.00  0.00    -0.003 A 
ATOM      6  C6  DEN d   1       5.213   5.632  -5.999  0.00  0.00     0.001 A 
ATOM      7  C7  DEN d   1       6.000   5.451  -4.892  0.00  0.00     0.017 A 
ATOM      8  C8  DEN d   1       5.402   5.511  -3.640  0.00  0.00    -0.094 A 
ATOM      9  C9  DEN d   1       4.035   5.685  -3.511  0.00  0.00    -0.072 A 
ENDROOT
TORSDOF 0
ENDMDL
