MODEL 1
REMARK minimizedAffinity 2.48637342
REMARK minimizedRMSD -1
REMARK  0 active torsions:
REMARK  status: ('A' for Active; 'I' for Inactive)
ROOT
ATOM      1  C1  DEN d   1       3.741   3.798  -4.706  0.00  0.00     0.130 A 
ATOM      2  C2  DEN d   1       4.909   3.765  -5.583  0.00  0.00    -0.031 A 
ATOM      3  C3  DEN d   1       6.000   4.506  -4.918  0.00  0.00     0.027 A 
ATOM      4  C4  DEN d   1       5.995   5.688  -2.625  0.00  0.00     0.027 A 
ATOM      5  C5  DEN d   1       5.230   5.996  -1.523  0.00  0.00    -0.003 A 
ATOM      6  C6  DEN d   1       3.915   5.626  -1.420  0.00  0.00     0.001 A 
ATOM      7  C7  DEN d   1       3.339   4.885  -2.418  0.00  0.00     0.017 A 
ATOM      8  C8  DEN d   1       4.102   4.577  -3.536  0.00  0.00    -0.094 A 
ATOM      9  C9  DEN d   1       5.433   4.951  -3.616  0.00  0.00    -0.072 A 
ENDROOT
TORSDOF 0
ENDMDL
