MODEL 1
REMARK minimizedAffinity 10.7133188
REMARK minimizedRMSD -1
REMARK  0 active torsions:
REMARK  status: ('A' for Active; 'I' for Inactive)
ROOT
ATOM      1  C1  DEN d   1       2.342  -1.860  -4.672  0.00  0.00     0.130 A 
ATOM      2  C2  DEN d   1       3.594  -2.373  -4.124  0.00  0.00    -0.031 A 
ATOM      3  C3  DEN d   1       3.375  -2.683  -2.697  0.00  0.00     0.027 A 
ATOM      4  C4  DEN d   1       1.229  -2.425  -1.291  0.00  0.00     0.027 A 
ATOM      5  C5  DEN d   1      -0.087  -2.018  -1.316  0.00  0.00    -0.003 A 
ATOM      6  C6  DEN d   1      -0.671  -1.503  -2.442  0.00  0.00     0.001 A 
ATOM      7  C7  DEN d   1       0.050  -1.422  -3.604  0.00  0.00     0.017 A 
ATOM      8  C8  DEN d   1       1.379  -1.823  -3.585  0.00  0.00    -0.094 A 
ATOM      9  C9  DEN d   1       1.948  -2.353  -2.440  0.00  0.00    -0.072 A 
ENDROOT
TORSDOF 0
ENDMDL
