MODEL 1
REMARK minimizedAffinity 28.5312939
REMARK minimizedRMSD -1
REMARK  0 active torsions:
REMARK  status: ('A' for Active; 'I' for Inactive)
ROOT
ATOM      1  C1  DEN d   1      -0.554  -2.698  -0.571  0.00  0.00     0.130 A 
ATOM      2  C2  DEN d   1       0.723  -2.209  -0.060  0.00  0.00    -0.031 A 
ATOM      3  C3  DEN d   1       1.457  -1.591  -1.183  0.00  0.00     0.027 A 
ATOM      4  C4  DEN d   1       0.740  -1.342  -3.648  0.00  0.00     0.027 A 
ATOM      5  C5  DEN d   1      -0.255  -1.613  -4.561  0.00  0.00    -0.003 A 
ATOM      6  C6  DEN d   1      -1.396  -2.289  -4.218  0.00  0.00     0.001 A 
ATOM      7  C7  DEN d   1      -1.589  -2.678  -2.918  0.00  0.00     0.017 A 
ATOM      8  C8  DEN d   1      -0.587  -2.415  -1.994  0.00  0.00    -0.094 A 
ATOM      9  C9  DEN d   1       0.554  -1.719  -2.358  0.00  0.00    -0.072 A 
ENDROOT
TORSDOF 0
ENDMDL
