MODEL 1
REMARK minimizedAffinity 1.55139983
REMARK minimizedRMSD -1
REMARK  0 active torsions:
REMARK  status: ('A' for Active; 'I' for Inactive)
ROOT
ATOM      1  C1  DEN d   1      -2.247  -2.459   0.167  0.00  0.00     0.130 A 
ATOM      2  C2  DEN d   1      -3.525  -2.243  -0.505  0.00  0.00    -0.031 A 
ATOM      3  C3  DEN d   1      -3.259  -2.060  -1.946  0.00  0.00     0.027 A 
ATOM      4  C4  DEN d   1      -1.003  -2.094  -3.196  0.00  0.00     0.027 A 
ATOM      5  C5  DEN d   1       0.359  -2.230  -3.049  0.00  0.00    -0.003 A 
ATOM      6  C6  DEN d   1       0.947  -2.417  -1.826  0.00  0.00     0.001 A 
ATOM      7  C7  DEN d   1       0.165  -2.517  -0.706  0.00  0.00     0.017 A 
ATOM      8  C8  DEN d   1      -1.209  -2.373  -0.845  0.00  0.00    -0.094 A 
ATOM      9  C9  DEN d   1      -1.785  -2.198  -2.091  0.00  0.00    -0.072 A 
ENDROOT
TORSDOF 0
ENDMDL
