MODEL 1
REMARK minimizedAffinity 15.0961971
REMARK minimizedRMSD -1
REMARK  0 active torsions:
REMARK  status: ('A' for Active; 'I' for Inactive)
ROOT
ATOM      1  C1  DEN d   1      -0.025  -2.714   0.163  0.00  0.00     0.130 A 
ATOM      2  C2  DEN d   1      -1.336  -2.109   0.381  0.00  0.00    -0.031 A 
ATOM      3  C3  DEN d   1      -1.745  -1.441  -0.871  0.00  0.00     0.027 A 
ATOM      4  C4  DEN d   1      -0.485  -1.291  -3.116  0.00  0.00     0.027 A 
ATOM      5  C5  DEN d   1       0.670  -1.640  -3.781  0.00  0.00    -0.003 A 
ATOM      6  C6  DEN d   1       1.681  -2.337  -3.173  0.00  0.00     0.001 A 
ATOM      7  C7  DEN d   1       1.536  -2.746  -1.873  0.00  0.00     0.017 A 
ATOM      8  C8  DEN d   1       0.378  -2.391  -1.194  0.00  0.00    -0.094 A 
ATOM      9  C9  DEN d   1      -0.637  -1.697  -1.830  0.00  0.00    -0.072 A 
ENDROOT
TORSDOF 0
ENDMDL
