MODEL 1
REMARK minimizedAffinity 21.614996
REMARK minimizedRMSD -1
REMARK  0 active torsions:
REMARK  status: ('A' for Active; 'I' for Inactive)
ROOT
ATOM      1  C1  DEN d   1       6.000  -2.838   5.559  0.00  0.00     0.130 A 
ATOM      2  C2  DEN d   1       5.997  -4.231   6.000  0.00  0.00    -0.031 A 
ATOM      3  C3  DEN d   1       4.790  -4.881   5.450  0.00  0.00     0.027 A 
ATOM      4  C4  DEN d   1       2.938  -3.873   3.965  0.00  0.00     0.027 A 
ATOM      5  C5  DEN d   1       2.500  -2.727   3.340  0.00  0.00    -0.003 A 
ATOM      6  C6  DEN d   1       3.174  -1.539   3.438  0.00  0.00     0.001 A 
ATOM      7  C7  DEN d   1       4.348  -1.480   4.141  0.00  0.00     0.017 A 
ATOM      8  C8  DEN d   1       4.793  -2.630   4.780  0.00  0.00    -0.094 A 
ATOM      9  C9  DEN d   1       4.103  -3.825   4.659  0.00  0.00    -0.072 A 
ENDROOT
TORSDOF 0
ENDMDL
