MODEL 1
REMARK minimizedAffinity 15.9320545
REMARK minimizedRMSD -1
REMARK  0 active torsions:
REMARK  status: ('A' for Active; 'I' for Inactive)
ROOT
ATOM      1  C1  DEN d   1       0.222  -3.020   0.749  0.00  0.00     0.130 A 
ATOM      2  C2  DEN d   1       0.631  -4.396   0.483  0.00  0.00    -0.031 A 
ATOM      3  C3  DEN d   1       0.477  -4.648  -0.964  0.00  0.00     0.027 A 
ATOM      4  C4  DEN d   1      -0.347  -3.046  -2.810  0.00  0.00     0.027 A 
ATOM      5  C5  DEN d   1      -0.818  -1.778  -3.068  0.00  0.00    -0.003 A 
ATOM      6  C6  DEN d   1      -1.006  -0.853  -2.075  0.00  0.00     0.001 A 
ATOM      7  C7  DEN d   1      -0.678  -1.168  -0.783  0.00  0.00     0.017 A 
ATOM      8  C8  DEN d   1      -0.210  -2.448  -0.514  0.00  0.00    -0.094 A 
ATOM      9  C9  DEN d   1      -0.015  -3.364  -1.533  0.00  0.00    -0.072 A 
ENDROOT
TORSDOF 0
ENDMDL
