MODEL 1
REMARK minimizedAffinity 8.96457767
REMARK minimizedRMSD -1
REMARK  0 active torsions:
REMARK  status: ('A' for Active; 'I' for Inactive)
ROOT
ATOM      1  C1  DEN d   1      -1.039  -3.214  -3.708  0.00  0.00     0.130 A 
ATOM      2  C2  DEN d   1      -2.393  -2.812  -4.079  0.00  0.00    -0.031 A 
ATOM      3  C3  DEN d   1      -2.961  -2.032  -2.961  0.00  0.00     0.027 A 
ATOM      4  C4  DEN d   1      -1.879  -1.405  -0.705  0.00  0.00     0.027 A 
ATOM      5  C5  DEN d   1      -0.747  -1.531   0.070  0.00  0.00    -0.003 A 
ATOM      6  C6  DEN d   1       0.345  -2.248  -0.342  0.00  0.00     0.001 A 
ATOM      7  C7  DEN d   1       0.345  -2.831  -1.582  0.00  0.00     0.017 A 
ATOM      8  C8  DEN d   1      -0.795  -2.715  -2.366  0.00  0.00    -0.094 A 
ATOM      9  C9  DEN d   1      -1.883  -1.976  -1.937  0.00  0.00    -0.072 A 
ENDROOT
TORSDOF 0
ENDMDL
