MODEL 1
REMARK minimizedAffinity 19.3797054
REMARK minimizedRMSD -1
REMARK  0 active torsions:
REMARK  status: ('A' for Active; 'I' for Inactive)
ROOT
ATOM      1  C1  DEN d   1      -4.445  -5.901  -5.883  0.00  0.00     0.130 A 
ATOM      2  C2  DEN d   1      -5.706  -5.790  -5.154  0.00  0.00    -0.031 A 
ATOM      3  C3  DEN d   1      -5.686  -4.522  -4.397  0.00  0.00     0.027 A 
ATOM      4  C4  DEN d   1      -3.837  -2.727  -4.287  0.00  0.00     0.027 A 
ATOM      5  C5  DEN d   1      -2.577  -2.385  -4.726  0.00  0.00    -0.003 A 
ATOM      6  C6  DEN d   1      -1.844  -3.199  -5.548  0.00  0.00     0.001 A 
ATOM      7  C7  DEN d   1      -2.383  -4.377  -5.993  0.00  0.00     0.017 A 
ATOM      8  C8  DEN d   1      -3.650  -4.733  -5.548  0.00  0.00    -0.094 A 
ATOM      9  C9  DEN d   1      -4.380  -3.890  -4.727  0.00  0.00    -0.072 A 
ENDROOT
TORSDOF 0
ENDMDL
