MODEL 1
REMARK minimizedAffinity 16.1080608
REMARK minimizedRMSD -1
REMARK  0 active torsions:
REMARK  status: ('A' for Active; 'I' for Inactive)
ROOT
ATOM      1  C1  DEN d   1      -0.809  -0.447  -0.326  0.00  0.00     0.130 A 
ATOM      2  C2  DEN d   1      -1.253   0.310  -1.493  0.00  0.00    -0.031 A 
ATOM      3  C3  DEN d   1      -1.023  -0.521  -2.692  0.00  0.00     0.027 A 
ATOM      4  C4  DEN d   1      -0.032  -2.896  -2.853  0.00  0.00     0.027 A 
ATOM      5  C5  DEN d   1       0.501  -3.942  -2.132  0.00  0.00    -0.003 A 
ATOM      6  C6  DEN d   1       0.664  -3.883  -0.773  0.00  0.00     0.001 A 
ATOM      7  C7  DEN d   1       0.249  -2.772  -0.087  0.00  0.00     0.017 A 
ATOM      8  C8  DEN d   1      -0.282  -1.711  -0.808  0.00  0.00    -0.094 A 
ATOM      9  C9  DEN d   1      -0.450  -1.795  -2.180  0.00  0.00    -0.072 A 
ENDROOT
TORSDOF 0
ENDMDL
