MODEL 1
REMARK minimizedAffinity 12.6466379
REMARK minimizedRMSD -1
REMARK  0 active torsions:
REMARK  status: ('A' for Active; 'I' for Inactive)
ROOT
ATOM      1  C1  DEN d   1       1.908   3.974  -2.105  0.00  0.00     0.130 A 
ATOM      2  C2  DEN d   1       1.507   5.019  -3.043  0.00  0.00    -0.031 A 
ATOM      3  C3  DEN d   1       0.679   5.998  -2.310  0.00  0.00     0.027 A 
ATOM      4  C4  DEN d   1      -0.013   6.000   0.175  0.00  0.00     0.027 A 
ATOM      5  C5  DEN d   1       0.077   5.313   1.366  0.00  0.00    -0.003 A 
ATOM      6  C6  DEN d   1       0.749   4.125   1.475  0.00  0.00     0.001 A 
ATOM      7  C7  DEN d   1       1.397   3.609   0.383  0.00  0.00     0.017 A 
ATOM      8  C8  DEN d   1       1.305   4.292  -0.823  0.00  0.00    -0.094 A 
ATOM      9  C9  DEN d   1       0.631   5.498  -0.909  0.00  0.00    -0.072 A 
ENDROOT
TORSDOF 0
ENDMDL
