MODEL 1
REMARK minimizedAffinity 17.3720798
REMARK minimizedRMSD -1
REMARK  0 active torsions:
REMARK  status: ('A' for Active; 'I' for Inactive)
ROOT
ATOM      1  C1  DEN d   1       4.612   0.646  -4.883  0.00  0.00     0.130 A 
ATOM      2  C2  DEN d   1       5.858   0.702  -4.123  0.00  0.00    -0.031 A 
ATOM      3  C3  DEN d   1       6.000  -0.569  -3.386  0.00  0.00     0.027 A 
ATOM      4  C4  DEN d   1       4.423  -2.610  -3.351  0.00  0.00     0.027 A 
ATOM      5  C5  DEN d   1       3.236  -3.120  -3.828  0.00  0.00    -0.003 A 
ATOM      6  C6  DEN d   1       2.414  -2.403  -4.657  0.00  0.00     0.001 A 
ATOM      7  C7  DEN d   1       2.791  -1.152  -5.071  0.00  0.00     0.017 A 
ATOM      8  C8  DEN d   1       3.983  -0.629  -4.587  0.00  0.00    -0.094 A 
ATOM      9  C9  DEN d   1       4.806  -1.374  -3.760  0.00  0.00    -0.072 A 
ENDROOT
TORSDOF 0
ENDMDL
