MODEL 1
REMARK minimizedAffinity 3.06769419
REMARK minimizedRMSD -1
REMARK  0 active torsions:
REMARK  status: ('A' for Active; 'I' for Inactive)
ROOT
ATOM      1  C1  DEN d   1       0.805  -2.404  -2.208  0.00  0.00     0.130 A 
ATOM      2  C2  DEN d   1      -0.377  -1.904  -1.512  0.00  0.00    -0.031 A 
ATOM      3  C3  DEN d   1      -1.497  -1.878  -2.475  0.00  0.00     0.027 A 
ATOM      4  C4  DEN d   1      -1.514  -2.564  -4.961  0.00  0.00     0.027 A 
ATOM      5  C5  DEN d   1      -0.745  -3.040  -6.000  0.00  0.00    -0.003 A 
ATOM      6  C6  DEN d   1       0.592  -3.302  -5.858  0.00  0.00     0.001 A 
ATOM      7  C7  DEN d   1       1.191  -3.134  -4.637  0.00  0.00     0.017 A 
ATOM      8  C8  DEN d   1       0.423  -2.648  -3.587  0.00  0.00    -0.094 A 
ATOM      9  C9  DEN d   1      -0.930  -2.400  -3.748  0.00  0.00    -0.072 A 
ENDROOT
TORSDOF 0
ENDMDL
