MODEL 1
REMARK minimizedAffinity 13.4229727
REMARK minimizedRMSD -1
REMARK  0 active torsions:
REMARK  status: ('A' for Active; 'I' for Inactive)
ROOT
ATOM      1  C1  DEN d   1       0.247  -2.584   0.031  0.00  0.00     0.130 A 
ATOM      2  C2  DEN d   1      -0.775  -1.680   0.551  0.00  0.00    -0.031 A 
ATOM      3  C3  DEN d   1      -1.659  -1.298  -0.569  0.00  0.00     0.027 A 
ATOM      4  C4  DEN d   1      -1.548  -2.018  -3.043  0.00  0.00     0.027 A 
ATOM      5  C5  DEN d   1      -0.848  -2.767  -3.964  0.00  0.00    -0.003 A 
ATOM      6  C6  DEN d   1       0.275  -3.474  -3.628  0.00  0.00     0.001 A 
ATOM      7  C7  DEN d   1       0.708  -3.484  -2.328  0.00  0.00     0.017 A 
ATOM      8  C8  DEN d   1       0.012  -2.725  -1.395  0.00  0.00    -0.094 A 
ATOM      9  C9  DEN d   1      -1.129  -2.027  -1.752  0.00  0.00    -0.072 A 
ENDROOT
TORSDOF 0
ENDMDL
