MODEL 1
REMARK minimizedAffinity 19.2320805
REMARK minimizedRMSD -1
REMARK  0 active torsions:
REMARK  status: ('A' for Active; 'I' for Inactive)
ROOT
ATOM      1  C1  DEN d   1       4.963  -2.309  -2.483  0.00  0.00     0.130 A 
ATOM      2  C2  DEN d   1       4.652  -3.645  -2.985  0.00  0.00    -0.031 A 
ATOM      3  C3  DEN d   1       4.454  -3.549  -4.445  0.00  0.00     0.027 A 
ATOM      4  C4  DEN d   1       4.605  -1.475  -5.971  0.00  0.00     0.027 A 
ATOM      5  C5  DEN d   1       4.832  -0.117  -6.000  0.00  0.00    -0.003 A 
ATOM      6  C6  DEN d   1       5.082   0.606  -4.863  0.00  0.00     0.001 A 
ATOM      7  C7  DEN d   1       5.157  -0.034  -3.654  0.00  0.00     0.017 A 
ATOM      8  C8  DEN d   1       4.923  -1.403  -3.617  0.00  0.00    -0.094 A 
ATOM      9  C9  DEN d   1       4.683  -2.117  -4.778  0.00  0.00    -0.072 A 
ENDROOT
TORSDOF 0
ENDMDL
