MODEL 1
REMARK minimizedAffinity 16.2690258
REMARK minimizedRMSD -1
REMARK  0 active torsions:
REMARK  status: ('A' for Active; 'I' for Inactive)
ROOT
ATOM      1  C1  DEN d   1      -2.682  -2.714  -3.907  0.00  0.00     0.130 A 
ATOM      2  C2  DEN d   1      -2.328  -3.796  -4.821  0.00  0.00    -0.031 A 
ATOM      3  C3  DEN d   1      -0.945  -4.216  -4.517  0.00  0.00     0.027 A 
ATOM      4  C4  DEN d   1       0.670  -3.305  -2.725  0.00  0.00     0.027 A 
ATOM      5  C5  DEN d   1       0.822  -2.378  -1.717  0.00  0.00    -0.003 A 
ATOM      6  C6  DEN d   1      -0.163  -1.483  -1.394  0.00  0.00     0.001 A 
ATOM      7  C7  DEN d   1      -1.362  -1.526  -2.055  0.00  0.00     0.017 A 
ATOM      8  C8  DEN d   1      -1.520  -2.452  -3.077  0.00  0.00    -0.094 A 
ATOM      9  C9  DEN d   1      -0.516  -3.357  -3.381  0.00  0.00    -0.072 A 
ENDROOT
TORSDOF 0
ENDMDL
