MODEL 1
REMARK minimizedAffinity -3.54738855
REMARK minimizedRMSD -1
REMARK  0 active torsions:
REMARK  status: ('A' for Active; 'I' for Inactive)
ROOT
ATOM      1  C1  DEN d   1      -3.165  -6.000  -5.993  0.00  0.00     0.130 A 
ATOM      2  C2  DEN d   1      -1.900  -5.800  -5.290  0.00  0.00    -0.031 A 
ATOM      3  C3  DEN d   1      -2.034  -4.597  -4.443  0.00  0.00     0.027 A 
ATOM      4  C4  DEN d   1      -4.066  -3.037  -4.151  0.00  0.00     0.027 A 
ATOM      5  C5  DEN d   1      -5.362  -2.795  -4.550  0.00  0.00    -0.003 A 
ATOM      6  C6  DEN d   1      -6.000  -3.577  -5.475  0.00  0.00     0.001 A 
ATOM      7  C7  DEN d   1      -5.357  -4.668  -6.000  0.00  0.00     0.017 A 
ATOM      8  C8  DEN d   1      -4.048  -4.914  -5.608  0.00  0.00    -0.094 A 
ATOM      9  C9  DEN d   1      -3.425  -4.118  -4.662  0.00  0.00    -0.072 A 
ENDROOT
TORSDOF 0
ENDMDL
