MODEL 1
REMARK minimizedAffinity -1.03257716
REMARK minimizedRMSD -1
REMARK  0 active torsions:
REMARK  status: ('A' for Active; 'I' for Inactive)
ROOT
ATOM      1  C1  DEN d   1      -4.443  -3.547  -2.954  0.00  0.00     0.130 A 
ATOM      2  C2  DEN d   1      -5.805  -3.290  -3.414  0.00  0.00    -0.031 A 
ATOM      3  C3  DEN d   1      -5.999  -4.007  -4.690  0.00  0.00     0.027 A 
ATOM      4  C4  DEN d   1      -4.334  -5.487  -5.989  0.00  0.00     0.027 A 
ATOM      5  C5  DEN d   1      -3.052  -5.991  -6.000  0.00  0.00    -0.003 A 
ATOM      6  C6  DEN d   1      -2.141  -5.691  -5.022  0.00  0.00     0.001 A 
ATOM      7  C7  DEN d   1      -2.513  -4.900  -3.967  0.00  0.00     0.017 A 
ATOM      8  C8  DEN d   1      -3.801  -4.382  -3.953  0.00  0.00    -0.094 A 
ATOM      9  C9  DEN d   1      -4.711  -4.707  -4.945  0.00  0.00    -0.072 A 
ENDROOT
TORSDOF 0
ENDMDL
