MODEL 1
REMARK minimizedAffinity -3.90556717
REMARK minimizedRMSD -1
REMARK  0 active torsions:
REMARK  status: ('A' for Active; 'I' for Inactive)
ROOT
ATOM      1  C1  DEN d   1      -4.785  -1.286  -5.999  0.00  0.00     0.130 A 
ATOM      2  C2  DEN d   1      -5.956  -1.127  -5.141  0.00  0.00    -0.031 A 
ATOM      3  C3  DEN d   1      -5.912  -2.183  -4.110  0.00  0.00     0.027 A 
ATOM      4  C4  DEN d   1      -4.153  -4.036  -3.758  0.00  0.00     0.027 A 
ATOM      5  C5  DEN d   1      -2.985  -4.581  -4.242  0.00  0.00    -0.003 A 
ATOM      6  C6  DEN d   1      -2.358  -4.091  -5.357  0.00  0.00     0.001 A 
ATOM      7  C7  DEN d   1      -2.872  -2.996  -5.999  0.00  0.00     0.017 A 
ATOM      8  C8  DEN d   1      -4.054  -2.445  -5.521  0.00  0.00    -0.094 A 
ATOM      9  C9  DEN d   1      -4.666  -2.947  -4.385  0.00  0.00    -0.072 A 
ENDROOT
TORSDOF 0
ENDMDL
