MODEL 1
REMARK minimizedAffinity -0.566459417
REMARK minimizedRMSD -1
REMARK  0 active torsions:
REMARK  status: ('A' for Active; 'I' for Inactive)
ROOT
ATOM      1  C1  DEN d   1      -1.787  -5.887  -3.763  0.00  0.00     0.130 A 
ATOM      2  C2  DEN d   1      -0.893  -5.970  -4.915  0.00  0.00    -0.031 A 
ATOM      3  C3  DEN d   1      -1.463  -5.141  -5.996  0.00  0.00     0.027 A 
ATOM      4  C4  DEN d   1      -3.629  -3.740  -5.995  0.00  0.00     0.027 A 
ATOM      5  C5  DEN d   1      -4.725  -3.368  -5.249  0.00  0.00    -0.003 A 
ATOM      6  C6  DEN d   1      -4.934  -3.832  -3.977  0.00  0.00     0.001 A 
ATOM      7  C7  DEN d   1      -4.010  -4.661  -3.397  0.00  0.00     0.017 A 
ATOM      8  C8  DEN d   1      -2.907  -5.047  -4.146  0.00  0.00    -0.094 A 
ATOM      9  C9  DEN d   1      -2.707  -4.557  -5.425  0.00  0.00    -0.072 A 
ENDROOT
TORSDOF 0
ENDMDL
