MODEL 1
REMARK minimizedAffinity -1.94032025
REMARK minimizedRMSD -1
REMARK  0 active torsions:
REMARK  status: ('A' for Active; 'I' for Inactive)
ROOT
ATOM      1  C1  DEN d   1      -5.073  -2.520  -3.823  0.00  0.00     0.130 A 
ATOM      2  C2  DEN d   1      -6.000  -2.186  -4.901  0.00  0.00    -0.031 A 
ATOM      3  C3  DEN d   1      -5.875  -3.221  -5.947  0.00  0.00     0.027 A 
ATOM      4  C4  DEN d   1      -4.347  -5.299  -6.000  0.00  0.00     0.027 A 
ATOM      5  C5  DEN d   1      -3.377  -5.996  -5.314  0.00  0.00    -0.003 A 
ATOM      6  C6  DEN d   1      -2.884  -5.569  -4.110  0.00  0.00     0.001 A 
ATOM      7  C7  DEN d   1      -3.392  -4.436  -3.532  0.00  0.00     0.017 A 
ATOM      8  C8  DEN d   1      -4.365  -3.723  -4.220  0.00  0.00    -0.094 A 
ATOM      9  C9  DEN d   1      -4.859  -4.178  -5.431  0.00  0.00    -0.072 A 
ENDROOT
TORSDOF 0
ENDMDL
