MODEL 1
REMARK minimizedAffinity -2.91151929
REMARK minimizedRMSD -1
REMARK  0 active torsions:
REMARK  status: ('A' for Active; 'I' for Inactive)
ROOT
ATOM      1  C1  DEN d   1      -2.720  -4.653  -3.647  0.00  0.00     0.130 A 
ATOM      2  C2  DEN d   1      -2.154  -5.233  -4.862  0.00  0.00    -0.031 A 
ATOM      3  C3  DEN d   1      -3.003  -4.828  -6.000  0.00  0.00     0.027 A 
ATOM      4  C4  DEN d   1      -5.127  -3.364  -5.999  0.00  0.00     0.027 A 
ATOM      5  C5  DEN d   1      -6.000  -2.653  -5.206  0.00  0.00    -0.003 A 
ATOM      6  C6  DEN d   1      -5.862  -2.588  -3.844  0.00  0.00     0.001 A 
ATOM      7  C7  DEN d   1      -4.800  -3.208  -3.239  0.00  0.00     0.017 A 
ATOM      8  C8  DEN d   1      -3.920  -3.933  -4.032  0.00  0.00    -0.094 A 
ATOM      9  C9  DEN d   1      -4.070  -3.976  -5.408  0.00  0.00    -0.072 A 
ENDROOT
TORSDOF 0
ENDMDL
