MODEL 1
REMARK minimizedAffinity -2.90474129
REMARK minimizedRMSD -1
REMARK  0 active torsions:
REMARK  status: ('A' for Active; 'I' for Inactive)
ROOT
ATOM      1  C1  DEN d   1      -2.018  -4.166  -4.541  0.00  0.00     0.130 A 
ATOM      2  C2  DEN d   1      -1.365  -5.230  -5.299  0.00  0.00    -0.031 A 
ATOM      3  C3  DEN d   1      -2.412  -6.000  -6.000  0.00  0.00     0.027 A 
ATOM      4  C4  DEN d   1      -4.967  -5.648  -5.987  0.00  0.00     0.027 A 
ATOM      5  C5  DEN d   1      -5.992  -4.880  -5.480  0.00  0.00    -0.003 A 
ATOM      6  C6  DEN d   1      -5.769  -3.850  -4.605  0.00  0.00     0.001 A 
ATOM      7  C7  DEN d   1      -4.486  -3.531  -4.246  0.00  0.00     0.017 A 
ATOM      8  C8  DEN d   1      -3.448  -4.306  -4.747  0.00  0.00    -0.094 A 
ATOM      9  C9  DEN d   1      -3.693  -5.335  -5.640  0.00  0.00    -0.072 A 
ENDROOT
TORSDOF 0
ENDMDL
