MODEL 1
REMARK minimizedAffinity -2.33622146
REMARK minimizedRMSD -1
REMARK  0 active torsions:
REMARK  status: ('A' for Active; 'I' for Inactive)
ROOT
ATOM      1  C1  DEN d   1      -4.777  -2.822  -5.999  0.00  0.00     0.130 A 
ATOM      2  C2  DEN d   1      -5.945  -2.944  -5.132  0.00  0.00    -0.031 A 
ATOM      3  C3  DEN d   1      -5.639  -3.945  -4.091  0.00  0.00     0.027 A 
ATOM      4  C4  DEN d   1      -3.478  -5.308  -3.736  0.00  0.00     0.027 A 
ATOM      5  C5  DEN d   1      -2.215  -5.557  -4.226  0.00  0.00    -0.003 A 
ATOM      6  C6  DEN d   1      -1.733  -4.942  -5.351  0.00  0.00     0.001 A 
ATOM      7  C7  DEN d   1      -2.504  -4.013  -5.999  0.00  0.00     0.017 A 
ATOM      8  C8  DEN d   1      -3.781  -3.762  -5.516  0.00  0.00    -0.094 A 
ATOM      9  C9  DEN d   1      -4.245  -4.385  -4.370  0.00  0.00    -0.072 A 
ENDROOT
TORSDOF 0
ENDMDL
