MODEL 1
REMARK minimizedAffinity 2.98319769
REMARK minimizedRMSD -1
REMARK  0 active torsions:
REMARK  status: ('A' for Active; 'I' for Inactive)
ROOT
ATOM      1  C1  DEN d   1       3.449   1.307  -4.143  0.00  0.00     0.130 A 
ATOM      2  C2  DEN d   1       3.908   1.070  -2.777  0.00  0.00    -0.031 A 
ATOM      3  C3  DEN d   1       2.811   1.433  -1.857  0.00  0.00     0.027 A 
ATOM      4  C4  DEN d   1       0.458   2.329  -2.413  0.00  0.00     0.027 A 
ATOM      5  C5  DEN d   1      -0.389   2.704  -3.432  0.00  0.00    -0.003 A 
ATOM      6  C6  DEN d   1      -0.007   2.673  -4.747  0.00  0.00     0.001 A 
ATOM      7  C7  DEN d   1       1.240   2.214  -5.081  0.00  0.00     0.017 A 
ATOM      8  C8  DEN d   1       2.101   1.841  -4.058  0.00  0.00    -0.094 A 
ATOM      9  C9  DEN d   1       1.692   1.868  -2.736  0.00  0.00    -0.072 A 
ENDROOT
TORSDOF 0
ENDMDL
