MODEL 1
REMARK minimizedAffinity 2.8816359
REMARK minimizedRMSD -1
REMARK  0 active torsions:
REMARK  status: ('A' for Active; 'I' for Inactive)
ROOT
ATOM      1  C1  DEN d   1      -4.583  -3.897  -3.312  0.00  0.00     0.130 A 
ATOM      2  C2  DEN d   1      -4.990  -2.712  -4.064  0.00  0.00    -0.031 A 
ATOM      3  C3  DEN d   1      -4.119  -2.605  -5.252  0.00  0.00     0.027 A 
ATOM      4  C4  DEN d   1      -2.196  -4.152  -6.000  0.00  0.00     0.027 A 
ATOM      5  C5  DEN d   1      -1.473  -5.280  -5.678  0.00  0.00    -0.003 A 
ATOM      6  C6  DEN d   1      -1.711  -6.000  -4.538  0.00  0.00     0.001 A 
ATOM      7  C7  DEN d   1      -2.728  -5.626  -3.699  0.00  0.00     0.017 A 
ATOM      8  C8  DEN d   1      -3.457  -4.486  -4.013  0.00  0.00    -0.094 A 
ATOM      9  C9  DEN d   1      -3.208  -3.779  -5.177  0.00  0.00    -0.072 A 
ENDROOT
TORSDOF 0
ENDMDL
