MODEL 1
REMARK minimizedAffinity -2.32847166
REMARK minimizedRMSD -1
REMARK  0 active torsions:
REMARK  status: ('A' for Active; 'I' for Inactive)
ROOT
ATOM      1  C1  DEN d   1      -2.390  -4.796  -3.513  0.00  0.00     0.130 A 
ATOM      2  C2  DEN d   1      -1.713  -5.638  -4.496  0.00  0.00    -0.031 A 
ATOM      3  C3  DEN d   1      -2.622  -5.819  -5.646  0.00  0.00     0.027 A 
ATOM      4  C4  DEN d   1      -4.998  -4.878  -5.999  0.00  0.00     0.027 A 
ATOM      5  C5  DEN d   1      -6.000  -4.120  -5.436  0.00  0.00    -0.003 A 
ATOM      6  C6  DEN d   1      -5.883  -3.566  -4.189  0.00  0.00     0.001 A 
ATOM      7  C7  DEN d   1      -4.721  -3.725  -3.481  0.00  0.00     0.017 A 
ATOM      8  C8  DEN d   1      -3.709  -4.495  -4.039  0.00  0.00    -0.094 A 
ATOM      9  C9  DEN d   1      -3.841  -5.036  -5.307  0.00  0.00    -0.072 A 
ENDROOT
TORSDOF 0
ENDMDL
