MODEL 1
REMARK minimizedAffinity 2.78084612
REMARK minimizedRMSD -1
REMARK  0 active torsions:
REMARK  status: ('A' for Active; 'I' for Inactive)
ROOT
ATOM      1  C1  DEN d   1      -3.103  -4.909  -2.234  0.00  0.00     0.130 A 
ATOM      2  C2  DEN d   1      -1.914  -5.132  -1.415  0.00  0.00    -0.031 A 
ATOM      3  C3  DEN d   1      -0.830  -5.599  -2.302  0.00  0.00     0.027 A 
ATOM      4  C4  DEN d   1      -0.874  -5.993  -4.850  0.00  0.00     0.027 A 
ATOM      5  C5  DEN d   1      -1.663  -5.951  -5.979  0.00  0.00    -0.003 A 
ATOM      6  C6  DEN d   1      -2.985  -5.595  -5.934  0.00  0.00     0.001 A 
ATOM      7  C7  DEN d   1      -3.547  -5.222  -4.741  0.00  0.00     0.017 A 
ATOM      8  C8  DEN d   1      -2.760  -5.269  -3.598  0.00  0.00    -0.094 A 
ATOM      9  C9  DEN d   1      -1.422  -5.620  -3.666  0.00  0.00    -0.072 A 
ENDROOT
TORSDOF 0
ENDMDL
