MODEL 1
REMARK minimizedAffinity -0.756278038
REMARK minimizedRMSD -1
REMARK  0 active torsions:
REMARK  status: ('A' for Active; 'I' for Inactive)
ROOT
ATOM      1  C1  DEN d   1      -2.352  -4.961  -4.024  0.00  0.00     0.130 A 
ATOM      2  C2  DEN d   1      -2.094  -5.990  -5.028  0.00  0.00    -0.031 A 
ATOM      3  C3  DEN d   1      -3.223  -5.992  -5.980  0.00  0.00     0.027 A 
ATOM      4  C4  DEN d   1      -5.332  -4.508  -6.000  0.00  0.00     0.027 A 
ATOM      5  C5  DEN d   1      -6.000  -3.498  -5.344  0.00  0.00    -0.003 A 
ATOM      6  C6  DEN d   1      -5.520  -2.933  -4.192  0.00  0.00     0.001 A 
ATOM      7  C7  DEN d   1      -4.315  -3.343  -3.686  0.00  0.00     0.017 A 
ATOM      8  C8  DEN d   1      -3.639  -4.366  -4.338  0.00  0.00    -0.094 A 
ATOM      9  C9  DEN d   1      -4.135  -4.916  -5.508  0.00  0.00    -0.072 A 
ENDROOT
TORSDOF 0
ENDMDL
