MODEL 1
REMARK minimizedAffinity -1.53281915
REMARK minimizedRMSD -1
REMARK  0 active torsions:
REMARK  status: ('A' for Active; 'I' for Inactive)
ROOT
ATOM      1  C1  DEN d   1      -5.168  -3.515  -3.681  0.00  0.00     0.130 A 
ATOM      2  C2  DEN d   1      -5.999  -3.303  -4.863  0.00  0.00    -0.031 A 
ATOM      3  C3  DEN d   1      -5.400  -4.057  -5.983  0.00  0.00     0.027 A 
ATOM      4  C4  DEN d   1      -3.281  -5.527  -6.000  0.00  0.00     0.027 A 
ATOM      5  C5  DEN d   1      -2.237  -6.000  -5.236  0.00  0.00    -0.003 A 
ATOM      6  C6  DEN d   1      -2.079  -5.654  -3.920  0.00  0.00     0.001 A 
ATOM      7  C7  DEN d   1      -3.005  -4.846  -3.315  0.00  0.00     0.017 A 
ATOM      8  C8  DEN d   1      -4.056  -4.359  -4.081  0.00  0.00    -0.094 A 
ATOM      9  C9  DEN d   1      -4.205  -4.731  -5.406  0.00  0.00    -0.072 A 
ENDROOT
TORSDOF 0
ENDMDL
