MODEL 1
REMARK minimizedAffinity -2.24985242
REMARK minimizedRMSD -1
REMARK  0 active torsions:
REMARK  status: ('A' for Active; 'I' for Inactive)
ROOT
ATOM      1  C1  DEN d   1      -4.982  -3.726  -6.000  0.00  0.00     0.130 A 
ATOM      2  C2  DEN d   1      -5.810  -3.205  -4.916  0.00  0.00    -0.031 A 
ATOM      3  C3  DEN d   1      -5.174  -3.576  -3.636  0.00  0.00     0.027 A 
ATOM      4  C4  DEN d   1      -2.996  -4.897  -3.230  0.00  0.00     0.027 A 
ATOM      5  C5  DEN d   1      -1.953  -5.556  -3.841  0.00  0.00    -0.003 A 
ATOM      6  C6  DEN d   1      -1.864  -5.680  -5.202  0.00  0.00     0.001 A 
ATOM      7  C7  DEN d   1      -2.814  -5.098  -6.000  0.00  0.00     0.017 A 
ATOM      8  C8  DEN d   1      -3.873  -4.437  -5.390  0.00  0.00    -0.094 A 
ATOM      9  C9  DEN d   1      -3.938  -4.313  -4.013  0.00  0.00    -0.072 A 
ENDROOT
TORSDOF 0
ENDMDL
