MODEL 1
REMARK minimizedAffinity -2.32507682
REMARK minimizedRMSD -1
REMARK  0 active torsions:
REMARK  status: ('A' for Active; 'I' for Inactive)
ROOT
ATOM      1  C1  DEN d   1      -1.973  -4.123  -4.611  0.00  0.00     0.130 A 
ATOM      2  C2  DEN d   1      -1.348  -5.230  -5.330  0.00  0.00    -0.031 A 
ATOM      3  C3  DEN d   1      -2.416  -6.000  -6.000  0.00  0.00     0.027 A 
ATOM      4  C4  DEN d   1      -4.961  -5.583  -5.999  0.00  0.00     0.027 A 
ATOM      5  C5  DEN d   1      -5.965  -4.770  -5.521  0.00  0.00    -0.003 A 
ATOM      6  C6  DEN d   1      -5.715  -3.714  -4.685  0.00  0.00     0.001 A 
ATOM      7  C7  DEN d   1      -4.424  -3.415  -4.338  0.00  0.00     0.017 A 
ATOM      8  C8  DEN d   1      -3.407  -4.234  -4.810  0.00  0.00    -0.094 A 
ATOM      9  C9  DEN d   1      -3.679  -5.289  -5.664  0.00  0.00    -0.072 A 
ENDROOT
TORSDOF 0
ENDMDL
