MODEL 1
REMARK minimizedAffinity -1.60921013
REMARK minimizedRMSD -1
REMARK  0 active torsions:
REMARK  status: ('A' for Active; 'I' for Inactive)
ROOT
ATOM      1  C   UNL d   1      -0.539   1.497   0.853  0.00  0.00     0.124 A 
ATOM      2  C1  UNL d   1       0.428   1.536  -0.142  0.00  0.00     0.062 A 
ATOM      3  C2  UNL d   1       0.865   0.358  -0.741  0.00  0.00     0.162 A 
ATOM      4  C3  UNL d   1       0.334  -0.870  -0.347  0.00  0.00    -0.034 A 
ATOM      5  C4  UNL d   1      -0.638  -0.902   0.655  0.00  0.00     0.162 A 
ATOM      6  C5  UNL d   1      -1.071   0.279   1.250  0.00  0.00     0.062 A 
ATOM      7  F   UNL d   1      -2.006   0.239   2.211  0.00  0.00    -0.097 F 
ATOM      8  F1  UNL d   1      -1.170  -2.066   1.058  0.00  0.00    -0.096 F 
ATOM      9  I   UNL d   1       0.984  -2.634  -1.239  0.00  0.00    -0.060 I 
ATOM     10  F2  UNL d   1       1.800   0.426  -1.699  0.00  0.00    -0.096 F 
ATOM     11  F3  UNL d   1       0.944   2.712  -0.527  0.00  0.00    -0.097 F 
ATOM     12  F4  UNL d   1      -0.957   2.632   1.428  0.00  0.00    -0.092 F 
ENDROOT
TORSDOF 0
ENDMDL
