MODEL 1
REMARK minimizedAffinity 1.97161973
REMARK minimizedRMSD -1
REMARK  0 active torsions:
REMARK  status: ('A' for Active; 'I' for Inactive)
ROOT
ATOM      1  C   UNL d   1      -1.062   0.393   2.494  0.00  0.00     0.124 A 
ATOM      2  C1  UNL d   1      -0.964   1.356   1.500  0.00  0.00     0.062 A 
ATOM      3  C2  UNL d   1      -0.203   1.111   0.360  0.00  0.00     0.162 A 
ATOM      4  C3  UNL d   1       0.464  -0.105   0.208  0.00  0.00    -0.034 A 
ATOM      5  C4  UNL d   1       0.361  -1.068   1.213  0.00  0.00     0.162 A 
ATOM      6  C5  UNL d   1      -0.400  -0.818   2.350  0.00  0.00     0.062 A 
ATOM      7  F   UNL d   1      -0.494  -1.750   3.309  0.00  0.00    -0.097 F 
ATOM      8  F1  UNL d   1       0.989  -2.248   1.098  0.00  0.00    -0.096 F 
ATOM      9  I   UNL d   1       1.601  -0.476  -1.495  0.00  0.00    -0.060 I 
ATOM     10  F2  UNL d   1      -0.126   2.060  -0.584  0.00  0.00    -0.096 F 
ATOM     11  F3  UNL d   1      -1.601   2.528   1.638  0.00  0.00    -0.097 F 
ATOM     12  F4  UNL d   1      -1.793   0.632   3.591  0.00  0.00    -0.092 F 
ENDROOT
TORSDOF 0
ENDMDL
