MODEL 1
REMARK minimizedAffinity 2.27455735
REMARK minimizedRMSD -1
REMARK  0 active torsions:
REMARK  status: ('A' for Active; 'I' for Inactive)
ROOT
ATOM      1  C   UNL d   1      -0.618   1.825   1.101  0.00  0.00     0.124 A 
ATOM      2  C1  UNL d   1      -0.071   1.835  -0.174  0.00  0.00     0.062 A 
ATOM      3  C2  UNL d   1       0.485   0.675  -0.706  0.00  0.00     0.162 A 
ATOM      4  C3  UNL d   1       0.497  -0.505   0.037  0.00  0.00    -0.034 A 
ATOM      5  C4  UNL d   1      -0.054  -0.507   1.320  0.00  0.00     0.162 A 
ATOM      6  C5  UNL d   1      -0.609   0.654   1.847  0.00  0.00     0.062 A 
ATOM      7  F   UNL d   1      -1.137   0.643   3.080  0.00  0.00    -0.097 F 
ATOM      8  F1  UNL d   1      -0.060  -1.624   2.062  0.00  0.00    -0.096 F 
ATOM      9  I   UNL d   1       1.328  -2.241  -0.755  0.00  0.00    -0.060 I 
ATOM     10  F2  UNL d   1       1.006   0.714  -1.941  0.00  0.00    -0.096 F 
ATOM     11  F3  UNL d   1      -0.078   2.964  -0.896  0.00  0.00    -0.097 F 
ATOM     12  F4  UNL d   1      -1.152   2.942   1.611  0.00  0.00    -0.092 F 
ENDROOT
TORSDOF 0
ENDMDL
