MODEL 1
REMARK minimizedAffinity -2.22691393
REMARK minimizedRMSD -1
REMARK  0 active torsions:
REMARK  status: ('A' for Active; 'I' for Inactive)
ROOT
ATOM      1  C   UNL d   1       1.197  -2.669  -1.591  0.00  0.00     0.124 A 
ATOM      2  C1  UNL d   1       0.120  -1.869  -1.949  0.00  0.00     0.062 A 
ATOM      3  C2  UNL d   1      -0.424  -0.976  -1.030  0.00  0.00     0.162 A 
ATOM      4  C3  UNL d   1       0.108  -0.878   0.256  0.00  0.00    -0.034 A 
ATOM      5  C4  UNL d   1       1.190  -1.687   0.608  0.00  0.00     0.162 A 
ATOM      6  C5  UNL d   1       1.730  -2.578  -0.314  0.00  0.00     0.062 A 
ATOM      7  F   UNL d   1       2.770  -3.350   0.033  0.00  0.00    -0.097 F 
ATOM      8  F1  UNL d   1       1.726  -1.619   1.836  0.00  0.00    -0.096 F 
ATOM      9  I   UNL d   1      -0.703   0.455   1.633  0.00  0.00    -0.060 I 
ATOM     10  F2  UNL d   1      -1.463  -0.215  -1.402  0.00  0.00    -0.096 F 
ATOM     11  F3  UNL d   1      -0.398  -1.956  -3.182  0.00  0.00    -0.097 F 
ATOM     12  F4  UNL d   1       1.718  -3.528  -2.477  0.00  0.00    -0.092 F 
ENDROOT
TORSDOF 0
ENDMDL
