MODEL 1
REMARK minimizedAffinity 0.298691362
REMARK minimizedRMSD -1
REMARK  0 active torsions:
REMARK  status: ('A' for Active; 'I' for Inactive)
ROOT
ATOM      1  C   UNL d   1      -0.865   1.421   0.657  0.00  0.00     0.124 A 
ATOM      2  C1  UNL d   1      -1.567   0.248   0.897  0.00  0.00     0.062 A 
ATOM      3  C2  UNL d   1      -1.185  -0.937   0.274  0.00  0.00     0.162 A 
ATOM      4  C3  UNL d   1      -0.093  -0.954  -0.595  0.00  0.00    -0.034 A 
ATOM      5  C4  UNL d   1       0.607   0.230  -0.831  0.00  0.00     0.162 A 
ATOM      6  C5  UNL d   1       0.221   1.411  -0.206  0.00  0.00     0.062 A 
ATOM      7  F   UNL d   1       0.901   2.543  -0.439  0.00  0.00    -0.097 F 
ATOM      8  F1  UNL d   1       1.662   0.248  -1.661  0.00  0.00    -0.096 F 
ATOM      9  I   UNL d   1       0.482  -2.723  -1.528  0.00  0.00    -0.060 I 
ATOM     10  F2  UNL d   1      -1.881  -2.055   0.524  0.00  0.00    -0.096 F 
ATOM     11  F3  UNL d   1      -2.618   0.255   1.730  0.00  0.00    -0.097 F 
ATOM     12  F4  UNL d   1      -1.236   2.559   1.257  0.00  0.00    -0.092 F 
ENDROOT
TORSDOF 0
ENDMDL
