MODEL 1
REMARK minimizedAffinity -1.5847218
REMARK minimizedRMSD -1
REMARK  0 active torsions:
REMARK  status: ('A' for Active; 'I' for Inactive)
ROOT
ATOM      1  C   UNL d   1       0.755  -1.626  -1.604  0.00  0.00     0.124 A 
ATOM      2  C1  UNL d   1       1.328  -0.513  -1.005  0.00  0.00     0.062 A 
ATOM      3  C2  UNL d   1       0.690   0.115   0.060  0.00  0.00     0.162 A 
ATOM      4  C3  UNL d   1      -0.530  -0.369   0.534  0.00  0.00    -0.034 A 
ATOM      5  C4  UNL d   1      -1.100  -1.488  -0.074  0.00  0.00     0.162 A 
ATOM      6  C5  UNL d   1      -0.458  -2.113  -1.138  0.00  0.00     0.062 A 
ATOM      7  F   UNL d   1      -1.014  -3.188  -1.716  0.00  0.00    -0.097 F 
ATOM      8  F1  UNL d   1      -2.272  -1.980   0.356  0.00  0.00    -0.096 F 
ATOM      9  I   UNL d   1      -1.488   0.568   2.127  0.00  0.00    -0.060 I 
ATOM     10  F2  UNL d   1       1.267   1.189   0.620  0.00  0.00    -0.096 F 
ATOM     11  F3  UNL d   1       2.500  -0.041  -1.454  0.00  0.00    -0.097 F 
ATOM     12  F4  UNL d   1       1.371  -2.229  -2.630  0.00  0.00    -0.092 F 
ENDROOT
TORSDOF 0
ENDMDL
