MODEL 1
REMARK minimizedAffinity -0.485858858
REMARK minimizedRMSD -1
REMARK  0 active torsions:
REMARK  status: ('A' for Active; 'I' for Inactive)
ROOT
ATOM      1  C   UNL d   1      -0.578   1.356   0.591  0.00  0.00     0.124 A 
ATOM      2  C1  UNL d   1      -1.116   0.147   1.009  0.00  0.00     0.062 A 
ATOM      3  C2  UNL d   1      -0.754  -1.037   0.373  0.00  0.00     0.162 A 
ATOM      4  C3  UNL d   1       0.151  -1.018  -0.688  0.00  0.00    -0.034 A 
ATOM      5  C4  UNL d   1       0.687   0.202  -1.103  0.00  0.00     0.162 A 
ATOM      6  C5  UNL d   1       0.322   1.383  -0.464  0.00  0.00     0.062 A 
ATOM      7  F   UNL d   1       0.843   2.550  -0.870  0.00  0.00    -0.097 F 
ATOM      8  F1  UNL d   1       1.560   0.257  -2.120  0.00  0.00    -0.096 F 
ATOM      9  I   UNL d   1       0.695  -2.786  -1.641  0.00  0.00    -0.060 I 
ATOM     10  F2  UNL d   1      -1.289  -2.192   0.799  0.00  0.00    -0.096 F 
ATOM     11  F3  UNL d   1      -1.987   0.118   2.028  0.00  0.00    -0.097 F 
ATOM     12  F4  UNL d   1      -0.929   2.494   1.204  0.00  0.00    -0.092 F 
ENDROOT
TORSDOF 0
ENDMDL
