MODEL 1
REMARK minimizedAffinity 6.00081158
REMARK minimizedRMSD -1
REMARK  0 active torsions:
REMARK  status: ('A' for Active; 'I' for Inactive)
ROOT
ATOM      1  C   UNL d   1       1.099  -4.310  -1.604  0.00  0.00     0.124 A 
ATOM      2  C1  UNL d   1       1.613  -3.498  -0.602  0.00  0.00     0.062 A 
ATOM      3  C2  UNL d   1       1.481  -2.115  -0.687  0.00  0.00     0.162 A 
ATOM      4  C3  UNL d   1       0.831  -1.535  -1.776  0.00  0.00    -0.034 A 
ATOM      5  C4  UNL d   1       0.317  -2.359  -2.780  0.00  0.00     0.162 A 
ATOM      6  C5  UNL d   1       0.452  -3.740  -2.691  0.00  0.00     0.062 A 
ATOM      7  F   UNL d   1      -0.044  -4.524  -3.659  0.00  0.00    -0.097 F 
ATOM      8  F1  UNL d   1      -0.313  -1.835  -3.841  0.00  0.00    -0.096 F 
ATOM      9  I   UNL d   1       0.630   0.533  -1.906  0.00  0.00    -0.060 I 
ATOM     10  F2  UNL d   1       1.986  -1.354   0.295  0.00  0.00    -0.096 F 
ATOM     11  F3  UNL d   1       2.239  -4.046   0.449  0.00  0.00    -0.097 F 
ATOM     12  F4  UNL d   1       1.229  -5.641  -1.521  0.00  0.00    -0.092 F 
ENDROOT
TORSDOF 0
ENDMDL
