MODEL 1
REMARK minimizedAffinity -0.517528832
REMARK minimizedRMSD -1
REMARK  0 active torsions:
REMARK  status: ('A' for Active; 'I' for Inactive)
ROOT
ATOM      1  C   UNL d   1      -0.272   0.776   0.253  0.00  0.00     0.124 A 
ATOM      2  C1  UNL d   1      -1.070  -0.199   0.836  0.00  0.00     0.062 A 
ATOM      3  C2  UNL d   1      -1.105  -1.484   0.304  0.00  0.00     0.162 A 
ATOM      4  C3  UNL d   1      -0.339  -1.803  -0.817  0.00  0.00    -0.034 A 
ATOM      5  C4  UNL d   1       0.460  -0.817  -1.399  0.00  0.00     0.162 A 
ATOM      6  C5  UNL d   1       0.492   0.466  -0.863  0.00  0.00     0.062 A 
ATOM      7  F   UNL d   1       1.264   1.407  -1.427  0.00  0.00    -0.097 F 
ATOM      8  F1  UNL d   1       1.209  -1.090  -2.477  0.00  0.00    -0.096 F 
ATOM      9  I   UNL d   1      -0.389  -3.724  -1.616  0.00  0.00    -0.060 I 
ATOM     10  F2  UNL d   1      -1.885  -2.406   0.887  0.00  0.00    -0.096 F 
ATOM     11  F3  UNL d   1      -1.809   0.099   1.914  0.00  0.00    -0.097 F 
ATOM     12  F4  UNL d   1      -0.240   2.013   0.767  0.00  0.00    -0.092 F 
ENDROOT
TORSDOF 0
ENDMDL
