MODEL 1
REMARK minimizedAffinity -2.94163132
REMARK minimizedRMSD -1
REMARK  0 active torsions:
REMARK  status: ('A' for Active; 'I' for Inactive)
ROOT
ATOM      1  C   UNL d   1      -0.851   2.627   1.279  0.00  0.00     0.124 A 
ATOM      2  C1  UNL d   1       0.041   2.681   0.217  0.00  0.00     0.062 A 
ATOM      3  C2  UNL d   1       0.407   1.516  -0.450  0.00  0.00     0.162 A 
ATOM      4  C3  UNL d   1      -0.120   0.285  -0.057  0.00  0.00    -0.034 A 
ATOM      5  C4  UNL d   1      -1.015   0.239   1.013  0.00  0.00     0.162 A 
ATOM      6  C5  UNL d   1      -1.378   1.407   1.676  0.00  0.00     0.062 A 
ATOM      7  F   UNL d   1      -2.240   1.352   2.702  0.00  0.00    -0.097 F 
ATOM      8  F1  UNL d   1      -1.541  -0.928   1.417  0.00  0.00    -0.096 F 
ATOM      9  I   UNL d   1       0.426  -1.460  -1.051  0.00  0.00    -0.060 I 
ATOM     10  F2  UNL d   1       1.271   1.598  -1.472  0.00  0.00    -0.096 F 
ATOM     11  F3  UNL d   1       0.552   3.860  -0.168  0.00  0.00    -0.097 F 
ATOM     12  F4  UNL d   1      -1.201   3.750   1.919  0.00  0.00    -0.092 F 
ENDROOT
TORSDOF 0
ENDMDL
