MODEL 1
REMARK minimizedAffinity -3.08825278
REMARK minimizedRMSD -1
REMARK  0 active torsions:
REMARK  status: ('A' for Active; 'I' for Inactive)
ROOT
ATOM      1  C   UNL d   1      -0.532   1.724   1.016  0.00  0.00     0.124 A 
ATOM      2  C1  UNL d   1       0.280   1.793  -0.107  0.00  0.00     0.062 A 
ATOM      3  C2  UNL d   1       0.682   0.628  -0.753  0.00  0.00     0.162 A 
ATOM      4  C3  UNL d   1       0.272  -0.618  -0.278  0.00  0.00    -0.034 A 
ATOM      5  C4  UNL d   1      -0.544  -0.679   0.853  0.00  0.00     0.162 A 
ATOM      6  C5  UNL d   1      -0.943   0.489   1.495  0.00  0.00     0.062 A 
ATOM      7  F   UNL d   1      -1.728   0.420   2.580  0.00  0.00    -0.097 F 
ATOM      8  F1  UNL d   1      -0.957  -1.860   1.337  0.00  0.00    -0.096 F 
ATOM      9  I   UNL d   1       0.871  -2.363  -1.241  0.00  0.00    -0.060 I 
ATOM     10  F2  UNL d   1       1.467   0.725  -1.836  0.00  0.00    -0.096 F 
ATOM     11  F3  UNL d   1       0.680   2.986  -0.572  0.00  0.00    -0.097 F 
ATOM     12  F4  UNL d   1      -0.917   2.847   1.636  0.00  0.00    -0.092 F 
ENDROOT
TORSDOF 0
ENDMDL
