MODEL 1
REMARK minimizedAffinity 0.125963211
REMARK minimizedRMSD -1
REMARK  0 active torsions:
REMARK  status: ('A' for Active; 'I' for Inactive)
ROOT
ATOM      1  C   UNL d   1       0.303   0.476   2.031  0.00  0.00     0.124 A 
ATOM      2  C1  UNL d   1      -0.977   0.087   1.663  0.00  0.00     0.062 A 
ATOM      3  C2  UNL d   1      -1.164  -0.791   0.600  0.00  0.00     0.162 A 
ATOM      4  C3  UNL d   1      -0.066  -1.287  -0.104  0.00  0.00    -0.034 A 
ATOM      5  C4  UNL d   1       1.219  -0.891   0.271  0.00  0.00     0.162 A 
ATOM      6  C5  UNL d   1       1.400  -0.013   1.335  0.00  0.00     0.062 A 
ATOM      7  F   UNL d   1       2.638   0.362   1.689  0.00  0.00    -0.097 F 
ATOM      8  F1  UNL d   1       2.296  -1.349  -0.383  0.00  0.00    -0.096 F 
ATOM      9  I   UNL d   1      -0.341  -2.601  -1.695  0.00  0.00    -0.060 I 
ATOM     10  F2  UNL d   1      -2.412  -1.150   0.267  0.00  0.00    -0.096 F 
ATOM     11  F3  UNL d   1      -2.038   0.559   2.334  0.00  0.00    -0.097 F 
ATOM     12  F4  UNL d   1       0.480   1.322   3.054  0.00  0.00    -0.092 F 
ENDROOT
TORSDOF 0
ENDMDL
