MODEL 1
REMARK minimizedAffinity -2.97826076
REMARK minimizedRMSD -1
REMARK  0 active torsions:
REMARK  status: ('A' for Active; 'I' for Inactive)
ROOT
ATOM      1  C   UNL d   1       1.024  -2.628  -1.727  0.00  0.00     0.124 A 
ATOM      2  C1  UNL d   1       1.579  -2.365  -0.482  0.00  0.00     0.062 A 
ATOM      3  C2  UNL d   1       1.032  -1.380   0.334  0.00  0.00     0.162 A 
ATOM      4  C3  UNL d   1      -0.079  -0.651  -0.090  0.00  0.00    -0.034 A 
ATOM      5  C4  UNL d   1      -0.632  -0.921  -1.343  0.00  0.00     0.162 A 
ATOM      6  C5  UNL d   1      -0.081  -1.906  -2.156  0.00  0.00     0.062 A 
ATOM      7  F   UNL d   1      -0.619  -2.160  -3.358  0.00  0.00    -0.097 F 
ATOM      8  F1  UNL d   1      -1.700  -0.239  -1.783  0.00  0.00    -0.096 F 
ATOM      9  I   UNL d   1      -0.900   0.823   1.128  0.00  0.00    -0.060 I 
ATOM     10  F2  UNL d   1       1.590  -1.147   1.532  0.00  0.00    -0.096 F 
ATOM     11  F3  UNL d   1       2.647  -3.061  -0.066  0.00  0.00    -0.097 F 
ATOM     12  F4  UNL d   1       1.553  -3.576  -2.511  0.00  0.00    -0.092 F 
ENDROOT
TORSDOF 0
ENDMDL
