MODEL 1
REMARK minimizedAffinity -0.0397266746
REMARK minimizedRMSD -1
REMARK  0 active torsions:
REMARK  status: ('A' for Active; 'I' for Inactive)
ROOT
ATOM      1  C   UNL d   1      -0.176   1.481   0.287  0.00  0.00     0.124 A 
ATOM      2  C1  UNL d   1       0.673   1.383  -0.807  0.00  0.00     0.062 A 
ATOM      3  C2  UNL d   1       0.777   0.184  -1.507  0.00  0.00     0.162 A 
ATOM      4  C3  UNL d   1       0.029  -0.926  -1.115  0.00  0.00    -0.034 A 
ATOM      5  C4  UNL d   1      -0.822  -0.820  -0.013  0.00  0.00     0.162 A 
ATOM      6  C5  UNL d   1      -0.922   0.380   0.683  0.00  0.00     0.062 A 
ATOM      7  F   UNL d   1      -1.742   0.473   1.740  0.00  0.00    -0.097 F 
ATOM      8  F1  UNL d   1      -1.555  -1.868   0.390  0.00  0.00    -0.096 F 
ATOM      9  I   UNL d   1       0.181  -2.720  -2.159  0.00  0.00    -0.060 I 
ATOM     10  F2  UNL d   1       1.605   0.118  -2.560  0.00  0.00    -0.096 F 
ATOM     11  F3  UNL d   1       1.396   2.445  -1.190  0.00  0.00    -0.097 F 
ATOM     12  F4  UNL d   1      -0.273   2.635   0.960  0.00  0.00    -0.092 F 
ENDROOT
TORSDOF 0
ENDMDL
