MODEL 1
REMARK minimizedAffinity 6.86297369
REMARK minimizedRMSD -1
REMARK  1 active torsions:
REMARK  status: ('A' for Active; 'I' for Inactive)
REMARK    1  A    between atoms: C1_2  and  C2_3 
ROOT
ATOM      1  C2  UNL d   1       3.510  -1.546  -1.693  0.00  0.00    -0.081 A 
ATOM      2  C3  UNL d   1       3.561  -1.067  -0.378  0.00  0.00     0.006 A 
ATOM      3  C4  UNL d   1       4.231   0.122  -0.083  0.00  0.00     0.002 A 
ATOM      4  C5  UNL d   1       4.855   0.856  -1.098  0.00  0.00    -0.080 A 
ATOM      5  C6  UNL d   1       5.553   2.149  -0.800  0.00  0.00     0.076 C 
ATOM      6  C7  UNL d   1       4.820   0.368  -2.409  0.00  0.00     0.002 A 
ATOM      7  C8  UNL d   1       4.150  -0.821  -2.705  0.00  0.00     0.006 A 
ENDROOT
BRANCH   1   8
ATOM      8  C1  UNL d   1       2.732  -2.794  -2.025  0.00  0.00     0.054 C 
ATOM      9  C   UNL d   1       3.152  -3.366  -3.371  0.00  0.00     0.018 C 
ENDBRANCH   1   8
TORSDOF 1
ENDMDL
