MODEL 1
REMARK minimizedAffinity 8.36257458
REMARK minimizedRMSD -1
REMARK  1 active torsions:
REMARK  status: ('A' for Active; 'I' for Inactive)
REMARK    1  A    between atoms: C1_2  and  C2_3 
ROOT
ATOM      1  C2  UNL d   1       3.894  -0.884  -0.417  0.00  0.00    -0.081 A 
ATOM      2  C3  UNL d   1       2.952   0.113  -0.701  0.00  0.00     0.006 A 
ATOM      3  C4  UNL d   1       3.365   1.419  -0.974  0.00  0.00     0.002 A 
ATOM      4  C5  UNL d   1       4.724   1.748  -0.977  0.00  0.00    -0.080 A 
ATOM      5  C6  UNL d   1       5.182   3.140  -1.299  0.00  0.00     0.076 C 
ATOM      6  C7  UNL d   1       5.664   0.756  -0.676  0.00  0.00     0.002 A 
ATOM      7  C8  UNL d   1       5.252  -0.550  -0.402  0.00  0.00     0.006 A 
ENDROOT
BRANCH   1   8
ATOM      8  C1  UNL d   1       3.456  -2.308  -0.186  0.00  0.00     0.054 C 
ATOM      9  C   UNL d   1       2.603  -2.819  -1.338  0.00  0.00     0.018 C 
ENDBRANCH   1   8
TORSDOF 1
ENDMDL
