MODEL 1
REMARK minimizedAffinity 11.5171928
REMARK minimizedRMSD -1
REMARK  1 active torsions:
REMARK  status: ('A' for Active; 'I' for Inactive)
REMARK    1  A    between atoms: C1_2  and  C2_3 
ROOT
ATOM      1  C2  UNL d   1       2.057   0.312   0.314  0.00  0.00    -0.081 A 
ATOM      2  C3  UNL d   1       1.136   0.574  -0.708  0.00  0.00     0.006 A 
ATOM      3  C4  UNL d   1      -0.134   1.071  -0.407  0.00  0.00     0.002 A 
ATOM      4  C5  UNL d   1      -0.502   1.322   0.919  0.00  0.00    -0.080 A 
ATOM      5  C6  UNL d   1      -1.852   1.885   1.253  0.00  0.00     0.076 C 
ATOM      6  C7  UNL d   1       0.411   1.045   1.941  0.00  0.00     0.002 A 
ATOM      7  C8  UNL d   1       1.681   0.547   1.641  0.00  0.00     0.006 A 
ENDROOT
BRANCH   1   8
ATOM      8  C1  UNL d   1       3.450  -0.163  -0.012  0.00  0.00     0.054 C 
ATOM      9  C   UNL d   1       4.007   0.554  -1.233  0.00  0.00     0.018 C 
ENDBRANCH   1   8
TORSDOF 1
ENDMDL
