MODEL 1
REMARK minimizedAffinity 1.47131419
REMARK minimizedRMSD -1
REMARK  1 active torsions:
REMARK  status: ('A' for Active; 'I' for Inactive)
REMARK    1  A    between atoms: C1_2  and  C2_3 
ROOT
ATOM      1  C2  UNL d   1       2.245  -1.777  -0.420  0.00  0.00    -0.081 A 
ATOM      2  C3  UNL d   1       2.105  -2.992   0.261  0.00  0.00     0.006 A 
ATOM      3  C4  UNL d   1       1.056  -3.861  -0.049  0.00  0.00     0.002 A 
ATOM      4  C5  UNL d   1       0.135  -3.533  -1.049  0.00  0.00    -0.080 A 
ATOM      5  C6  UNL d   1      -0.978  -4.471  -1.413  0.00  0.00     0.076 C 
ATOM      6  C7  UNL d   1       0.264  -2.311  -1.718  0.00  0.00     0.002 A 
ATOM      7  C8  UNL d   1       1.312  -1.442  -1.408  0.00  0.00     0.006 A 
ENDROOT
BRANCH   1   8
ATOM      8  C1  UNL d   1       3.412  -0.867  -0.133  0.00  0.00     0.054 C 
ATOM      9  C   UNL d   1       3.061   0.588  -0.412  0.00  0.00     0.018 C 
ENDBRANCH   1   8
TORSDOF 1
ENDMDL
