MODEL 1
REMARK minimizedAffinity 8.48199749
REMARK minimizedRMSD -1
REMARK  1 active torsions:
REMARK  status: ('A' for Active; 'I' for Inactive)
REMARK    1  A    between atoms: C1_2  and  C2_3 
ROOT
ATOM      1  C2  UNL d   1      -0.312   2.556   0.383  0.00  0.00    -0.081 A 
ATOM      2  C3  UNL d   1       0.951   3.159   0.317  0.00  0.00     0.006 A 
ATOM      3  C4  UNL d   1       1.315   3.921  -0.795  0.00  0.00     0.002 A 
ATOM      4  C5  UNL d   1       0.421   4.101  -1.856  0.00  0.00    -0.080 A 
ATOM      5  C6  UNL d   1       0.788   4.942  -3.042  0.00  0.00     0.076 C 
ATOM      6  C7  UNL d   1      -0.834   3.485  -1.799  0.00  0.00     0.002 A 
ATOM      7  C8  UNL d   1      -1.198   2.722  -0.687  0.00  0.00     0.006 A 
ENDROOT
BRANCH   1   8
ATOM      8  C1  UNL d   1      -0.731   1.787   1.609  0.00  0.00     0.054 C 
ATOM      9  C   UNL d   1       0.219   2.038   2.771  0.00  0.00     0.018 C 
ENDBRANCH   1   8
TORSDOF 1
ENDMDL
