MODEL 1
REMARK minimizedAffinity 3.80277419
REMARK minimizedRMSD -1
REMARK  0 active torsions:
REMARK  status: ('A' for Active; 'I' for Inactive)
ROOT
ATOM      1  C2' OXE d   1       3.710  -1.002  -1.620  0.00  0.00     0.078 C 
ATOM      2  C1' OXE d   1       2.317  -3.060  -0.313  0.00  0.00     0.078 C 
ATOM      3  C1  OXE d   1       1.857  -1.642  -0.083  0.00  0.00    -0.078 A 
ATOM      4  C2  OXE d   1       2.574  -0.638  -0.689  0.00  0.00    -0.078 A 
ATOM      5  C3  OXE d   1       2.159   0.684  -0.553  0.00  0.00     0.003 A 
ATOM      6  C4  OXE d   1       1.114   1.013   0.318  0.00  0.00    -0.002 A 
ATOM      7  C5  OXE d   1       0.396   0.009   0.977  0.00  0.00    -0.002 A 
ATOM      8  C6  OXE d   1       0.727  -1.323   0.755  0.00  0.00     0.003 A 
ENDROOT
TORSDOF 0
ENDMDL
