MODEL 1
REMARK minimizedAffinity -0.832425058
REMARK minimizedRMSD -1
REMARK  0 active torsions:
REMARK  status: ('A' for Active; 'I' for Inactive)
ROOT
ATOM      1  C2' OXE d   1       4.515  -0.497  -2.328  0.00  0.00     0.078 C 
ATOM      2  C1' OXE d   1       3.169   1.874  -1.663  0.00  0.00     0.078 C 
ATOM      3  C1  OXE d   1       2.768   0.612  -0.942  0.00  0.00    -0.078 A 
ATOM      4  C2  OXE d   1       3.399  -0.553  -1.307  0.00  0.00    -0.078 A 
ATOM      5  C3  OXE d   1       3.106  -1.736  -0.635  0.00  0.00     0.003 A 
ATOM      6  C4  OXE d   1       2.066  -1.780   0.301  0.00  0.00    -0.002 A 
ATOM      7  C5  OXE d   1       1.383  -0.613   0.659  0.00  0.00    -0.002 A 
ATOM      8  C6  OXE d   1       1.749   0.596   0.079  0.00  0.00     0.003 A 
ENDROOT
TORSDOF 0
ENDMDL
