MODEL 1
REMARK minimizedAffinity 1.2993536
REMARK minimizedRMSD -1
REMARK  0 active torsions:
REMARK  status: ('A' for Active; 'I' for Inactive)
ROOT
ATOM      1  C2' OXE d   1      -0.082  -0.601   1.054  0.00  0.00     0.078 C 
ATOM      2  C1' OXE d   1       1.709   1.550   1.259  0.00  0.00     0.078 C 
ATOM      3  C1  OXE d   1       2.092   0.399   0.363  0.00  0.00    -0.078 A 
ATOM      4  C2  OXE d   1       1.231  -0.670   0.305  0.00  0.00    -0.078 A 
ATOM      5  C3  OXE d   1       1.510  -1.734  -0.548  0.00  0.00     0.003 A 
ATOM      6  C4  OXE d   1       2.732  -1.795  -1.229  0.00  0.00    -0.002 A 
ATOM      7  C5  OXE d   1       3.641  -0.734  -1.153  0.00  0.00    -0.002 A 
ATOM      8  C6  OXE d   1       3.318   0.387  -0.396  0.00  0.00     0.003 A 
ENDROOT
TORSDOF 0
ENDMDL
