MODEL 1
REMARK minimizedAffinity 2.14798045
REMARK minimizedRMSD -1
REMARK  0 active torsions:
REMARK  status: ('A' for Active; 'I' for Inactive)
ROOT
ATOM      1  C2' OXE d   1       2.087  -3.198   0.422  0.00  0.00     0.078 C 
ATOM      2  C1' OXE d   1       4.089  -1.467  -0.514  0.00  0.00     0.078 C 
ATOM      3  C1  OXE d   1       2.746  -0.870  -0.172  0.00  0.00    -0.078 A 
ATOM      4  C2  OXE d   1       1.759  -1.731   0.241  0.00  0.00    -0.078 A 
ATOM      5  C3  OXE d   1       0.518  -1.226   0.621  0.00  0.00     0.003 A 
ATOM      6  C4  OXE d   1       0.220   0.130   0.441  0.00  0.00    -0.002 A 
ATOM      7  C5  OXE d   1       1.199   1.018  -0.016  0.00  0.00    -0.002 A 
ATOM      8  C6  OXE d   1       2.478   0.542  -0.286  0.00  0.00     0.003 A 
ENDROOT
TORSDOF 0
ENDMDL
