MODEL 1
REMARK minimizedAffinity -5.52913046
REMARK minimizedRMSD -1
REMARK  0 active torsions:
REMARK  status: ('A' for Active; 'I' for Inactive)
ROOT
ATOM      1  C2' OXE d   1      -2.047  -1.740   1.495  0.00  0.00     0.078 C 
ATOM      2  C1' OXE d   1      -1.084   0.554   2.795  0.00  0.00     0.078 C 
ATOM      3  C1  OXE d   1      -0.252  -0.022   1.677  0.00  0.00    -0.078 A 
ATOM      4  C2  OXE d   1      -0.708  -1.172   1.078  0.00  0.00    -0.078 A 
ATOM      5  C3  OXE d   1      -0.006  -1.715   0.005  0.00  0.00     0.003 A 
ATOM      6  C4  OXE d   1       1.237  -1.189  -0.368  0.00  0.00    -0.002 A 
ATOM      7  C5  OXE d   1       1.738  -0.041   0.255  0.00  0.00    -0.002 A 
ATOM      8  C6  OXE d   1       0.988   0.578   1.249  0.00  0.00     0.003 A 
ENDROOT
TORSDOF 0
ENDMDL
