MODEL 1
REMARK minimizedAffinity 0.923357487
REMARK minimizedRMSD -1
REMARK  0 active torsions:
REMARK  status: ('A' for Active; 'I' for Inactive)
ROOT
ATOM      1  C2' OXE d   1       4.445  -0.761  -1.774  0.00  0.00     0.078 C 
ATOM      2  C1' OXE d   1       3.671   1.921  -1.478  0.00  0.00     0.078 C 
ATOM      3  C1  OXE d   1       2.819   0.866  -0.818  0.00  0.00    -0.078 A 
ATOM      4  C2  OXE d   1       3.179  -0.447  -1.007  0.00  0.00    -0.078 A 
ATOM      5  C3  OXE d   1       2.458  -1.457  -0.376  0.00  0.00     0.003 A 
ATOM      6  C4  OXE d   1       1.282  -1.158   0.323  0.00  0.00    -0.002 A 
ATOM      7  C5  OXE d   1       0.876   0.169   0.494  0.00  0.00    -0.002 A 
ATOM      8  C6  OXE d   1       1.654   1.194  -0.033  0.00  0.00     0.003 A 
ENDROOT
TORSDOF 0
ENDMDL
