MODEL 1
REMARK minimizedAffinity -0.377743542
REMARK minimizedRMSD -1
REMARK  0 active torsions:
REMARK  status: ('A' for Active; 'I' for Inactive)
ROOT
ATOM      1  C2' OXE d   1       0.363  -0.684   0.851  0.00  0.00     0.078 C 
ATOM      2  C1' OXE d   1       0.971   1.804  -0.299  0.00  0.00     0.078 C 
ATOM      3  C1  OXE d   1       1.899   0.650  -0.587  0.00  0.00    -0.078 A 
ATOM      4  C2  OXE d   1       1.620  -0.552   0.018  0.00  0.00    -0.078 A 
ATOM      5  C3  OXE d   1       2.412  -1.663  -0.258  0.00  0.00     0.003 A 
ATOM      6  C4  OXE d   1       3.578  -1.529  -1.022  0.00  0.00    -0.002 A 
ATOM      7  C5  OXE d   1       3.903  -0.304  -1.614  0.00  0.00    -0.002 A 
ATOM      8  C6  OXE d   1       3.052   0.782  -1.442  0.00  0.00     0.003 A 
ENDROOT
TORSDOF 0
ENDMDL
