MODEL 1
REMARK minimizedAffinity -4.29828405
REMARK minimizedRMSD -1
REMARK  0 active torsions:
REMARK  status: ('A' for Active; 'I' for Inactive)
ROOT
ATOM      1  C2' OXE d   1       1.079   1.880  -0.258  0.00  0.00     0.078 C 
ATOM      2  C1' OXE d   1       0.420  -0.585   0.913  0.00  0.00     0.078 C 
ATOM      3  C1  OXE d   1       1.581  -0.552  -0.049  0.00  0.00    -0.078 A 
ATOM      4  C2  OXE d   1       1.867   0.649  -0.653  0.00  0.00    -0.078 A 
ATOM      5  C3  OXE d   1       2.962   0.748  -1.507  0.00  0.00     0.003 A 
ATOM      6  C4  OXE d   1       3.680  -0.397  -1.875  0.00  0.00    -0.002 A 
ATOM      7  C5  OXE d   1       3.380  -1.637  -1.302  0.00  0.00    -0.002 A 
ATOM      8  C6  OXE d   1       2.363  -1.724  -0.357  0.00  0.00     0.003 A 
ENDROOT
TORSDOF 0
ENDMDL
