MODEL 1
REMARK minimizedAffinity 6.1735673
REMARK minimizedRMSD -1
REMARK  0 active torsions:
REMARK  status: ('A' for Active; 'I' for Inactive)
ROOT
ATOM      1  C2' OXE d   1       1.967   2.356   0.782  0.00  0.00     0.078 C 
ATOM      2  C1' OXE d   1       2.090   0.773   3.097  0.00  0.00     0.078 C 
ATOM      3  C1  OXE d   1       1.855   0.076   1.780  0.00  0.00    -0.078 A 
ATOM      4  C2  OXE d   1       1.750   0.863   0.658  0.00  0.00    -0.078 A 
ATOM      5  C3  OXE d   1       1.588   0.267  -0.589  0.00  0.00     0.003 A 
ATOM      6  C4  OXE d   1       1.377  -1.113  -0.693  0.00  0.00    -0.002 A 
ATOM      7  C5  OXE d   1       1.441  -1.929   0.442  0.00  0.00    -0.002 A 
ATOM      8  C6  OXE d   1       1.721  -1.356   1.678  0.00  0.00     0.003 A 
ENDROOT
TORSDOF 0
ENDMDL
