MODEL 1
REMARK minimizedAffinity -5.12400103
REMARK minimizedRMSD -1
REMARK  0 active torsions:
REMARK  status: ('A' for Active; 'I' for Inactive)
ROOT
ATOM      1  C2' OXE d   1       4.053  -0.417  -2.247  0.00  0.00     0.078 C 
ATOM      2  C1' OXE d   1       2.926  -2.699  -1.064  0.00  0.00     0.078 C 
ATOM      3  C1  OXE d   1       2.332  -1.358  -0.711  0.00  0.00    -0.078 A 
ATOM      4  C2  OXE d   1       2.920  -0.243  -1.258  0.00  0.00    -0.078 A 
ATOM      5  C3  OXE d   1       2.378   1.014  -1.009  0.00  0.00     0.003 A 
ATOM      6  C4  OXE d   1       1.337   1.167  -0.085  0.00  0.00    -0.002 A 
ATOM      7  C5  OXE d   1       0.750   0.048   0.514  0.00  0.00    -0.002 A 
ATOM      8  C6  OXE d   1       1.207  -1.223   0.180  0.00  0.00     0.003 A 
ENDROOT
TORSDOF 0
ENDMDL
