MODEL 1
REMARK minimizedAffinity -1.49512148
REMARK minimizedRMSD -1
REMARK  0 active torsions:
REMARK  status: ('A' for Active; 'I' for Inactive)
ROOT
ATOM      1  C2' OXE d   1       3.477   1.620  -1.820  0.00  0.00     0.078 C 
ATOM      2  C1' OXE d   1       2.310   2.598   0.539  0.00  0.00     0.078 C 
ATOM      3  C1  OXE d   1       2.039   1.163   0.162  0.00  0.00    -0.078 A 
ATOM      4  C2  OXE d   1       2.576   0.707  -1.018  0.00  0.00    -0.078 A 
ATOM      5  C3  OXE d   1       2.402  -0.625  -1.385  0.00  0.00     0.003 A 
ATOM      6  C4  OXE d   1       1.558  -1.460  -0.643  0.00  0.00    -0.002 A 
ATOM      7  C5  OXE d   1       0.969  -1.004   0.541  0.00  0.00    -0.002 A 
ATOM      8  C6  OXE d   1       1.233   0.289   0.979  0.00  0.00     0.003 A 
ENDROOT
TORSDOF 0
ENDMDL
