MODEL 1
REMARK minimizedAffinity -1.23288512
REMARK minimizedRMSD -1
REMARK  0 active torsions:
REMARK  status: ('A' for Active; 'I' for Inactive)
ROOT
ATOM      1  C2' OXE d   1       4.397  -1.070  -1.041  0.00  0.00     0.078 C 
ATOM      2  C1' OXE d   1       2.526  -3.134  -0.696  0.00  0.00     0.078 C 
ATOM      3  C1  OXE d   1       2.109  -1.736  -0.317  0.00  0.00    -0.078 A 
ATOM      4  C2  OXE d   1       3.046  -0.739  -0.445  0.00  0.00    -0.078 A 
ATOM      5  C3  OXE d   1       2.696   0.578  -0.160  0.00  0.00     0.003 A 
ATOM      6  C4  OXE d   1       1.447   0.874   0.400  0.00  0.00    -0.002 A 
ATOM      7  C5  OXE d   1       0.492  -0.133   0.576  0.00  0.00    -0.002 A 
ATOM      8  C6  OXE d   1       0.791  -1.433   0.184  0.00  0.00     0.003 A 
ENDROOT
TORSDOF 0
ENDMDL
