MODEL 1
REMARK minimizedAffinity -5.90430355
REMARK minimizedRMSD -1
REMARK  0 active torsions:
REMARK  status: ('A' for Active; 'I' for Inactive)
ROOT
ATOM      1  C2' OXE d   1       4.010  -0.773  -1.834  0.00  0.00     0.078 C 
ATOM      2  C1' OXE d   1       2.845   1.768  -1.577  0.00  0.00     0.078 C 
ATOM      3  C1  OXE d   1       2.182   0.616  -0.865  0.00  0.00    -0.078 A 
ATOM      4  C2  OXE d   1       2.733  -0.632  -1.034  0.00  0.00    -0.078 A 
ATOM      5  C3  OXE d   1       2.193  -1.721  -0.356  0.00  0.00     0.003 A 
ATOM      6  C4  OXE d   1       1.005  -1.584   0.373  0.00  0.00    -0.002 A 
ATOM      7  C5  OXE d   1       0.406  -0.329   0.525  0.00  0.00    -0.002 A 
ATOM      8  C6  OXE d   1       1.005   0.786  -0.051  0.00  0.00     0.003 A 
ENDROOT
TORSDOF 0
ENDMDL
