MODEL 1
REMARK minimizedAffinity 5.62298346
REMARK minimizedRMSD -1
REMARK  0 active torsions:
REMARK  status: ('A' for Active; 'I' for Inactive)
ROOT
ATOM      1  C2' OXE d   1       2.843   1.750  -0.112  0.00  0.00     0.078 C 
ATOM      2  C1' OXE d   1       3.120  -0.961  -0.784  0.00  0.00     0.078 C 
ATOM      3  C1  OXE d   1       1.941  -0.565   0.069  0.00  0.00    -0.078 A 
ATOM      4  C2  OXE d   1       1.839   0.756   0.432  0.00  0.00    -0.078 A 
ATOM      5  C3  OXE d   1       0.741   1.185   1.173  0.00  0.00     0.003 A 
ATOM      6  C4  OXE d   1      -0.177   0.257   1.680  0.00  0.00    -0.002 A 
ATOM      7  C5  OXE d   1      -0.069  -1.099   1.355  0.00  0.00    -0.002 A 
ATOM      8  C6  OXE d   1       0.957  -1.520   0.518  0.00  0.00     0.003 A 
ENDROOT
TORSDOF 0
ENDMDL
