MODEL 1
REMARK minimizedAffinity 2.91680145
REMARK minimizedRMSD -1
REMARK  0 active torsions:
REMARK  status: ('A' for Active; 'I' for Inactive)
ROOT
ATOM      1  C2' OXE d   1       0.779  -2.161   1.268  0.00  0.00     0.078 C 
ATOM      2  C1' OXE d   1       2.381  -2.264  -1.035  0.00  0.00     0.078 C 
ATOM      3  C1  OXE d   1       2.020  -0.905  -0.489  0.00  0.00    -0.078 A 
ATOM      4  C2  OXE d   1       1.197  -0.864   0.611  0.00  0.00    -0.078 A 
ATOM      5  C3  OXE d   1       0.878   0.363   1.187  0.00  0.00     0.003 A 
ATOM      6  C4  OXE d   1       1.260   1.558   0.566  0.00  0.00    -0.002 A 
ATOM      7  C5  OXE d   1       2.065   1.539  -0.578  0.00  0.00    -0.002 A 
ATOM      8  C6  OXE d   1       2.488   0.318  -1.092  0.00  0.00     0.003 A 
ENDROOT
TORSDOF 0
ENDMDL
