MODEL 1
REMARK minimizedAffinity -3.396698
REMARK minimizedRMSD -1
REMARK  0 active torsions:
REMARK  status: ('A' for Active; 'I' for Inactive)
ROOT
ATOM      1  C2' OXE d   1       1.244   1.774  -0.281  0.00  0.00     0.078 C 
ATOM      2  C1' OXE d   1       0.575  -0.505   1.216  0.00  0.00     0.078 C 
ATOM      3  C1  OXE d   1       1.713  -0.619   0.232  0.00  0.00    -0.078 A 
ATOM      4  C2  OXE d   1       2.003   0.488  -0.530  0.00  0.00    -0.078 A 
ATOM      5  C3  OXE d   1       3.078   0.454  -1.414  0.00  0.00     0.003 A 
ATOM      6  C4  OXE d   1       3.768  -0.742  -1.645  0.00  0.00    -0.002 A 
ATOM      7  C5  OXE d   1       3.463  -1.892  -0.908  0.00  0.00    -0.002 A 
ATOM      8  C6  OXE d   1       2.468  -1.835   0.063  0.00  0.00     0.003 A 
ENDROOT
TORSDOF 0
ENDMDL
