MODEL 1
REMARK minimizedAffinity 8.05693531
REMARK minimizedRMSD -1
REMARK  0 active torsions:
REMARK  status: ('A' for Active; 'I' for Inactive)
ROOT
ATOM      1  C2' OXE d   1       0.498  -0.412   0.611  0.00  0.00     0.078 C 
ATOM      2  C1' OXE d   1       1.716   1.602  -0.920  0.00  0.00     0.078 C 
ATOM      3  C1  OXE d   1       2.313   0.218  -0.975  0.00  0.00    -0.078 A 
ATOM      4  C2  OXE d   1       1.739  -0.750  -0.187  0.00  0.00    -0.078 A 
ATOM      5  C3  OXE d   1       2.217  -2.056  -0.242  0.00  0.00     0.003 A 
ATOM      6  C4  OXE d   1       3.371  -2.359  -0.975  0.00  0.00    -0.002 A 
ATOM      7  C5  OXE d   1       3.994  -1.378  -1.754  0.00  0.00    -0.002 A 
ATOM      8  C6  OXE d   1       3.454  -0.097  -1.799  0.00  0.00     0.003 A 
ENDROOT
TORSDOF 0
ENDMDL
