MODEL 1
REMARK minimizedAffinity -5.79147911
REMARK minimizedRMSD -1
REMARK  0 active torsions:
REMARK  status: ('A' for Active; 'I' for Inactive)
ROOT
ATOM      1  C2' OXE d   1       3.334   1.697  -1.257  0.00  0.00     0.078 C 
ATOM      2  C1' OXE d   1       4.099  -0.926  -1.901  0.00  0.00     0.078 C 
ATOM      3  C1  OXE d   1       2.859  -0.740  -1.062  0.00  0.00    -0.078 A 
ATOM      4  C2  OXE d   1       2.519   0.544  -0.712  0.00  0.00    -0.078 A 
ATOM      5  C3  OXE d   1       1.355   0.776   0.014  0.00  0.00     0.003 A 
ATOM      6  C4  OXE d   1       0.612  -0.297   0.523  0.00  0.00    -0.002 A 
ATOM      7  C5  OXE d   1       0.964  -1.615   0.212  0.00  0.00    -0.002 A 
ATOM      8  C6  OXE d   1       2.058  -1.852  -0.612  0.00  0.00     0.003 A 
ENDROOT
TORSDOF 0
ENDMDL
