MODEL 1
REMARK minimizedAffinity -2.58237481
REMARK minimizedRMSD -1
REMARK  0 active torsions:
REMARK  status: ('A' for Active; 'I' for Inactive)
ROOT
ATOM      1  C2' OXE d   1       3.469   1.729  -1.210  0.00  0.00     0.078 C 
ATOM      2  C1' OXE d   1       4.042  -0.979  -1.678  0.00  0.00     0.078 C 
ATOM      3  C1  OXE d   1       2.828  -0.651  -0.846  0.00  0.00    -0.078 A 
ATOM      4  C2  OXE d   1       2.582   0.675  -0.583  0.00  0.00    -0.078 A 
ATOM      5  C3  OXE d   1       1.444   1.036   0.134  0.00  0.00     0.003 A 
ATOM      6  C4  OXE d   1       0.634   0.055   0.719  0.00  0.00    -0.002 A 
ATOM      7  C5  OXE d   1       0.890  -1.302   0.496  0.00  0.00    -0.002 A 
ATOM      8  C6  OXE d   1       1.956  -1.670  -0.317  0.00  0.00     0.003 A 
ENDROOT
TORSDOF 0
ENDMDL
