MODEL 1
REMARK minimizedAffinity 3.37276793
REMARK minimizedRMSD -1
REMARK  1 active torsions:
REMARK  status: ('A' for Active; 'I' for Inactive)
REMARK    1  A    between atoms: C1_2  and  C2_3 
ROOT
ATOM      1  C2  UNL d   1       0.351   1.569   0.387  0.00  0.00    -0.076 A 
ATOM      2  C3  UNL d   1       0.932   0.728   1.352  0.00  0.00     0.004 A 
ATOM      3  C4  UNL d   1       1.789   1.239   2.325  0.00  0.00    -0.003 A 
ATOM      4  C5  UNL d   1       2.079   2.599   2.350  0.00  0.00     0.000 A 
ATOM      5  C6  UNL d   1       1.497   3.450   1.411  0.00  0.00     0.000 A 
ATOM      6  C7  UNL d   1       0.618   2.954   0.433  0.00  0.00    -0.073 A 
ATOM      7  C8  UNL d   1       0.024   3.916  -0.559  0.00  0.00     0.078 C 
ENDROOT
BRANCH   1   8
ATOM      8  C1  UNL d   1      -0.549   0.954  -0.661  0.00  0.00     0.053 C 
ATOM      9  C   UNL d   1      -2.024   1.094  -0.317  0.00  0.00     0.018 C 
ENDBRANCH   1   8
TORSDOF 1
ENDMDL
