MODEL 1
REMARK minimizedAffinity 3.75763369
REMARK minimizedRMSD -1
REMARK  1 active torsions:
REMARK  status: ('A' for Active; 'I' for Inactive)
REMARK    1  A    between atoms: C1_2  and  C2_3 
ROOT
ATOM      1  C2  UNL d   1       3.111  -0.339  -0.041  0.00  0.00    -0.076 A 
ATOM      2  C3  UNL d   1       3.480  -1.661  -0.344  0.00  0.00     0.004 A 
ATOM      3  C4  UNL d   1       2.518  -2.656  -0.503  0.00  0.00    -0.003 A 
ATOM      4  C5  UNL d   1       1.170  -2.346  -0.364  0.00  0.00     0.000 A 
ATOM      5  C6  UNL d   1       0.784  -1.036  -0.081  0.00  0.00     0.000 A 
ATOM      6  C7  UNL d   1       1.741  -0.017   0.067  0.00  0.00    -0.073 A 
ATOM      7  C8  UNL d   1       1.269   1.377   0.377  0.00  0.00     0.078 C 
ENDROOT
BRANCH   1   8
ATOM      8  C1  UNL d   1       4.200   0.692   0.147  0.00  0.00     0.053 C 
ATOM      9  C   UNL d   1       4.614   1.349  -1.161  0.00  0.00     0.018 C 
ENDBRANCH   1   8
TORSDOF 1
ENDMDL
