MODEL 1
REMARK minimizedAffinity 4.77213764
REMARK minimizedRMSD -1
REMARK  1 active torsions:
REMARK  status: ('A' for Active; 'I' for Inactive)
REMARK    1  A    between atoms: C1_2  and  C2_3 
ROOT
ATOM      1  C2  UNL d   1       1.894  -2.423  -0.061  0.00  0.00    -0.076 A 
ATOM      2  C3  UNL d   1       1.457  -3.275   0.969  0.00  0.00     0.004 A 
ATOM      3  C4  UNL d   1       0.489  -4.249   0.732  0.00  0.00    -0.003 A 
ATOM      4  C5  UNL d   1      -0.058  -4.387  -0.539  0.00  0.00     0.000 A 
ATOM      5  C6  UNL d   1       0.376  -3.563  -1.576  0.00  0.00     0.000 A 
ATOM      6  C7  UNL d   1       1.363  -2.587  -1.358  0.00  0.00    -0.073 A 
ATOM      7  C8  UNL d   1       1.789  -1.721  -2.512  0.00  0.00     0.078 C 
ENDROOT
BRANCH   1   8
ATOM      8  C1  UNL d   1       2.927  -1.367   0.262  0.00  0.00     0.053 C 
ATOM      9  C   UNL d   1       2.343   0.037   0.268  0.00  0.00     0.018 C 
ENDBRANCH   1   8
TORSDOF 1
ENDMDL
