MODEL 1
REMARK minimizedAffinity 0.0878739357
REMARK minimizedRMSD -1
REMARK  1 active torsions:
REMARK  status: ('A' for Active; 'I' for Inactive)
REMARK    1  A    between atoms: C1_2  and  C2_3 
ROOT
ATOM      1  C2  UNL d   1      -3.940  -0.559  -0.648  0.00  0.00    -0.076 A 
ATOM      2  C3  UNL d   1      -2.654  -0.970  -1.039  0.00  0.00     0.004 A 
ATOM      3  C4  UNL d   1      -1.931  -0.254  -1.991  0.00  0.00    -0.003 A 
ATOM      4  C5  UNL d   1      -2.482   0.884  -2.569  0.00  0.00     0.000 A 
ATOM      5  C6  UNL d   1      -3.750   1.316  -2.180  0.00  0.00     0.000 A 
ATOM      6  C7  UNL d   1      -4.485   0.615  -1.209  0.00  0.00    -0.073 A 
ATOM      7  C8  UNL d   1      -5.850   1.122  -0.832  0.00  0.00     0.078 C 
ENDROOT
BRANCH   1   8
ATOM      8  C1  UNL d   1      -4.688  -1.391   0.370  0.00  0.00     0.053 C 
ATOM      9  C   UNL d   1      -5.345  -0.541   1.447  0.00  0.00     0.018 C 
ENDBRANCH   1   8
TORSDOF 1
ENDMDL
