MODEL 1
REMARK minimizedAffinity 5.73737907
REMARK minimizedRMSD -1
REMARK  1 active torsions:
REMARK  status: ('A' for Active; 'I' for Inactive)
REMARK    1  A    between atoms: C1_2  and  C2_3 
ROOT
ATOM      1  C2  UNL d   1       1.484  -1.250  -0.956  0.00  0.00    -0.076 A 
ATOM      2  C3  UNL d   1       2.652  -0.867  -0.275  0.00  0.00     0.004 A 
ATOM      3  C4  UNL d   1       3.103   0.451  -0.309  0.00  0.00    -0.003 A 
ATOM      4  C5  UNL d   1       2.393   1.408  -1.024  0.00  0.00     0.000 A 
ATOM      5  C6  UNL d   1       1.222   1.050  -1.692  0.00  0.00     0.000 A 
ATOM      6  C7  UNL d   1       0.745  -0.271  -1.654  0.00  0.00    -0.073 A 
ATOM      7  C8  UNL d   1      -0.520  -0.603  -2.398  0.00  0.00     0.078 C 
ENDROOT
BRANCH   1   8
ATOM      8  C1  UNL d   1       1.058  -2.700  -0.906  0.00  0.00     0.053 C 
ATOM      9  C   UNL d   1       2.155  -3.611  -0.379  0.00  0.00     0.018 C 
ENDBRANCH   1   8
TORSDOF 1
ENDMDL
