MODEL 1
REMARK minimizedAffinity -2.1654222
REMARK minimizedRMSD -1
REMARK  1 active torsions:
REMARK  status: ('A' for Active; 'I' for Inactive)
REMARK    1  A    between atoms: C1_2  and  C2_3 
ROOT
ATOM      1  C2  UNL d   1       0.213  -0.244  -1.364  0.00  0.00    -0.076 A 
ATOM      2  C3  UNL d   1      -0.143  -1.604  -1.403  0.00  0.00     0.004 A 
ATOM      3  C4  UNL d   1       0.832  -2.599  -1.433  0.00  0.00    -0.003 A 
ATOM      4  C5  UNL d   1       2.178  -2.252  -1.424  0.00  0.00     0.000 A 
ATOM      5  C6  UNL d   1       2.549  -0.909  -1.367  0.00  0.00     0.000 A 
ATOM      6  C7  UNL d   1       1.579   0.107  -1.320  0.00  0.00    -0.073 A 
ATOM      7  C8  UNL d   1       2.036   1.539  -1.266  0.00  0.00     0.078 C 
ENDROOT
BRANCH   1   8
ATOM      8  C1  UNL d   1      -0.888   0.793  -1.360  0.00  0.00     0.053 C 
ATOM      9  C   UNL d   1      -0.925   1.608  -2.643  0.00  0.00     0.018 C 
ENDBRANCH   1   8
TORSDOF 1
ENDMDL
