MODEL 1
REMARK minimizedAffinity -3.96727133
REMARK minimizedRMSD -1
REMARK  1 active torsions:
REMARK  status: ('A' for Active; 'I' for Inactive)
REMARK    1  A    between atoms: C1_2  and  C2_3 
ROOT
ATOM      1  C2  UNL d   1       0.183  -0.475  -0.491  0.00  0.00    -0.073 A 
ATOM      2  C3  UNL d   1       0.614   0.361  -1.527  0.00  0.00    -0.002 A 
ATOM      3  C4  UNL d   1       0.321   1.725  -1.500  0.00  0.00     0.004 A 
ATOM      4  C5  UNL d   1      -0.397   2.268  -0.435  0.00  0.00    -0.004 A 
ATOM      5  C6  UNL d   1      -0.826   1.451   0.616  0.00  0.00    -0.075 A 
ATOM      6  C7  UNL d   1      -1.602   2.019   1.768  0.00  0.00     0.076 C 
ATOM      7  C8  UNL d   1      -0.531   0.081   0.580  0.00  0.00     0.001 A 
ENDROOT
BRANCH   1   8
ATOM      8  C1  UNL d   1       0.503  -1.948  -0.512  0.00  0.00     0.053 C 
ATOM      9  C   UNL d   1      -0.465  -2.728  -1.387  0.00  0.00     0.018 C 
ENDBRANCH   1   8
TORSDOF 1
ENDMDL
