MODEL 1
REMARK minimizedAffinity -4.78597927
REMARK minimizedRMSD -1
REMARK  1 active torsions:
REMARK  status: ('A' for Active; 'I' for Inactive)
REMARK    1  A    between atoms: C1_2  and  C2_3 
ROOT
ATOM      1  C2  UNL d   1      -0.023  -0.267  -0.105  0.00  0.00    -0.073 A 
ATOM      2  C3  UNL d   1       0.802  -0.617   0.970  0.00  0.00    -0.002 A 
ATOM      3  C4  UNL d   1       0.872   0.201   2.099  0.00  0.00     0.004 A 
ATOM      4  C5  UNL d   1       0.115   1.370   2.167  0.00  0.00    -0.004 A 
ATOM      5  C6  UNL d   1      -0.724   1.730   1.108  0.00  0.00    -0.075 A 
ATOM      6  C7  UNL d   1      -1.543   2.986   1.165  0.00  0.00     0.076 C 
ATOM      7  C8  UNL d   1      -0.787   0.905  -0.023  0.00  0.00     0.001 A 
ENDROOT
BRANCH   1   8
ATOM      8  C1  UNL d   1      -0.107  -1.150  -1.323  0.00  0.00     0.053 C 
ATOM      9  C   UNL d   1       0.068  -2.620  -0.975  0.00  0.00     0.018 C 
ENDBRANCH   1   8
TORSDOF 1
ENDMDL
