MODEL 1
REMARK minimizedAffinity 0.498760402
REMARK minimizedRMSD -1
REMARK  1 active torsions:
REMARK  status: ('A' for Active; 'I' for Inactive)
REMARK    1  A    between atoms: C1_2  and  C2_3 
ROOT
ATOM      1  C2  UNL d   1       0.080  -1.993  -0.226  0.00  0.00    -0.073 A 
ATOM      2  C3  UNL d   1       0.274  -1.787   1.145  0.00  0.00    -0.002 A 
ATOM      3  C4  UNL d   1       0.419  -0.494   1.650  0.00  0.00     0.004 A 
ATOM      4  C5  UNL d   1       0.365   0.605   0.793  0.00  0.00    -0.004 A 
ATOM      5  C6  UNL d   1       0.160   0.420  -0.578  0.00  0.00    -0.075 A 
ATOM      6  C7  UNL d   1       0.102   1.592  -1.514  0.00  0.00     0.076 C 
ATOM      7  C8  UNL d   1       0.018  -0.881  -1.079  0.00  0.00     0.001 A 
ENDROOT
BRANCH   1   8
ATOM      8  C1  UNL d   1      -0.084  -3.386  -0.776  0.00  0.00     0.053 C 
ATOM      9  C   UNL d   1      -1.472  -3.611  -1.354  0.00  0.00     0.018 C 
ENDBRANCH   1   8
TORSDOF 1
ENDMDL
