MODEL 1
REMARK minimizedAffinity -2.78025579
REMARK minimizedRMSD -1
REMARK  1 active torsions:
REMARK  status: ('A' for Active; 'I' for Inactive)
REMARK    1  A    between atoms: C1_2  and  C2_3 
ROOT
ATOM      1  C2  UNL d   1       0.486  -1.627  -0.648  0.00  0.00    -0.073 A 
ATOM      2  C3  UNL d   1       0.729  -0.642  -1.612  0.00  0.00    -0.002 A 
ATOM      3  C4  UNL d   1       0.763   0.705  -1.250  0.00  0.00     0.004 A 
ATOM      4  C5  UNL d   1       0.564   1.080   0.078  0.00  0.00    -0.004 A 
ATOM      5  C6  UNL d   1       0.332   0.109   1.058  0.00  0.00    -0.075 A 
ATOM      6  C7  UNL d   1       0.113   0.496   2.491  0.00  0.00     0.076 C 
ATOM      7  C8  UNL d   1       0.296  -1.241   0.686  0.00  0.00     0.001 A 
ENDROOT
BRANCH   1   8
ATOM      8  C1  UNL d   1       0.454  -3.084  -1.034  0.00  0.00     0.053 C 
ATOM      9  C   UNL d   1      -0.812  -3.445  -1.794  0.00  0.00     0.018 C 
ENDBRANCH   1   8
TORSDOF 1
ENDMDL
