MODEL 1
REMARK minimizedAffinity 4.23012543
REMARK minimizedRMSD -1
REMARK  1 active torsions:
REMARK  status: ('A' for Active; 'I' for Inactive)
REMARK    1  A    between atoms: C1_2  and  C2_3 
ROOT
ATOM      1  C2  UNL d   1      -2.014  -1.962  -3.431  0.00  0.00    -0.073 A 
ATOM      2  C3  UNL d   1      -2.087  -2.922  -4.447  0.00  0.00    -0.002 A 
ATOM      3  C4  UNL d   1      -1.672  -4.233  -4.209  0.00  0.00     0.004 A 
ATOM      4  C5  UNL d   1      -1.187  -4.599  -2.953  0.00  0.00    -0.004 A 
ATOM      5  C6  UNL d   1      -1.118  -3.657  -1.922  0.00  0.00    -0.075 A 
ATOM      6  C7  UNL d   1      -0.597  -4.034  -0.566  0.00  0.00     0.076 C 
ATOM      7  C8  UNL d   1      -1.534  -2.341  -2.170  0.00  0.00     0.001 A 
ENDROOT
BRANCH   1   8
ATOM      8  C1  UNL d   1      -2.467  -0.547  -3.682  0.00  0.00     0.053 C 
ATOM      9  C   UNL d   1      -2.006  -0.032  -5.036  0.00  0.00     0.018 C 
ENDBRANCH   1   8
TORSDOF 1
ENDMDL
