MODEL 1
REMARK minimizedAffinity 4.55870628
REMARK minimizedRMSD -1
REMARK  1 active torsions:
REMARK  status: ('A' for Active; 'I' for Inactive)
REMARK    1  A    between atoms: N_2  and  C1_3 
ROOT
ATOM      1  C1  UNL d   1      -5.190  -5.927  -3.532  0.00  0.00     0.143 A 
ATOM      2  C2  UNL d   1      -5.855  -5.931  -4.763  0.00  0.00    -0.057 A 
ATOM      3  C3  UNL d   1      -5.158  -5.757  -5.965  0.00  0.00     0.033 A 
ATOM      4  C4  UNL d   1      -3.783  -5.547  -5.954  0.00  0.00    -0.042 A 
ATOM      5  C5  UNL d   1      -3.105  -5.515  -4.740  0.00  0.00     0.033 A 
ATOM      6  C6  UNL d   1      -3.806  -5.696  -3.544  0.00  0.00    -0.057 A 
ENDROOT
BRANCH   1   7
ATOM      7  N   UNL d   1      -5.840  -5.996  -2.297  0.00  0.00    -0.732 N 
ATOM      8  C   UNL d   1      -6.000  -4.812  -1.481  0.00  0.00     0.284 C 
ATOM      9  H3  UNL d   1      -6.661  -6.597  -2.323  0.00  0.00     0.395 HD
ENDBRANCH   1   7
TORSDOF 1
ENDMDL
