MODEL 1
REMARK minimizedAffinity 2.78192639
REMARK minimizedRMSD -1
REMARK  1 active torsions:
REMARK  status: ('A' for Active; 'I' for Inactive)
REMARK    1  A    between atoms: N_2  and  C1_3 
ROOT
ATOM      1  C1  UNL d   1       0.062   3.651   0.725  0.00  0.00     0.143 A 
ATOM      2  C2  UNL d   1      -0.684   2.954   1.681  0.00  0.00    -0.057 A 
ATOM      3  C3  UNL d   1      -0.258   2.863   3.011  0.00  0.00     0.033 A 
ATOM      4  C4  UNL d   1       0.942   3.447   3.404  0.00  0.00    -0.042 A 
ATOM      5  C5  UNL d   1       1.713   4.124   2.466  0.00  0.00     0.033 A 
ATOM      6  C6  UNL d   1       1.278   4.217   1.141  0.00  0.00    -0.057 A 
ENDROOT
BRANCH   1   7
ATOM      7  N   UNL d   1      -0.258   3.693  -0.634  0.00  0.00    -0.732 N 
ATOM      8  C   UNL d   1      -0.581   2.480  -1.353  0.00  0.00     0.284 C 
ATOM      9  H3  UNL d   1      -0.852   4.486  -0.868  0.00  0.00     0.395 HD
ENDBRANCH   1   7
TORSDOF 1
ENDMDL
