MODEL 1
REMARK minimizedAffinity 3.75619531
REMARK minimizedRMSD -1
REMARK  1 active torsions:
REMARK  status: ('A' for Active; 'I' for Inactive)
REMARK    1  A    between atoms: N_2  and  C1_3 
ROOT
ATOM      1  C1  UNL d   1       0.342   3.277   1.341  0.00  0.00     0.143 A 
ATOM      2  C2  UNL d   1       1.470   3.561   2.119  0.00  0.00    -0.057 A 
ATOM      3  C3  UNL d   1       1.722   2.871   3.311  0.00  0.00     0.033 A 
ATOM      4  C4  UNL d   1       0.833   1.902   3.762  0.00  0.00    -0.042 A 
ATOM      5  C5  UNL d   1      -0.307   1.620   3.018  0.00  0.00     0.033 A 
ATOM      6  C6  UNL d   1      -0.551   2.308   1.825  0.00  0.00    -0.057 A 
ENDROOT
BRANCH   1   7
ATOM      7  N   UNL d   1      -0.015   3.995   0.198  0.00  0.00    -0.732 N 
ATOM      8  C   UNL d   1      -0.645   3.332  -0.923  0.00  0.00     0.284 C 
ATOM      9  H3  UNL d   1      -0.414   4.905   0.420  0.00  0.00     0.395 HD
ENDBRANCH   1   7
TORSDOF 1
ENDMDL
