MODEL 1
REMARK minimizedAffinity 8.76409054
REMARK minimizedRMSD -1
REMARK  1 active torsions:
REMARK  status: ('A' for Active; 'I' for Inactive)
REMARK    1  A    between atoms: N_2  and  C1_3 
ROOT
ATOM      1  C1  UNL d   1       4.627  -3.131  -1.901  0.00  0.00     0.143 A 
ATOM      2  C2  UNL d   1       4.728  -4.418  -1.361  0.00  0.00    -0.057 A 
ATOM      3  C3  UNL d   1       4.777  -5.549  -2.185  0.00  0.00     0.033 A 
ATOM      4  C4  UNL d   1       4.696  -5.414  -3.567  0.00  0.00    -0.042 A 
ATOM      5  C5  UNL d   1       4.569  -4.147  -4.124  0.00  0.00     0.033 A 
ATOM      6  C6  UNL d   1       4.528  -3.021  -3.296  0.00  0.00    -0.057 A 
ENDROOT
BRANCH   1   7
ATOM      7  N   UNL d   1       4.475  -1.975  -1.131  0.00  0.00    -0.732 N 
ATOM      8  C   UNL d   1       3.167  -1.564  -0.669  0.00  0.00     0.284 C 
ATOM      9  H3  UNL d   1       5.213  -1.869  -0.439  0.00  0.00     0.395 HD
ENDBRANCH   1   7
TORSDOF 1
ENDMDL
