MODEL 1
REMARK minimizedAffinity -5.60846376
REMARK minimizedRMSD -1
REMARK  0 active torsions:
REMARK  status: ('A' for Active; 'I' for Inactive)
ROOT
ATOM      1  C1  DEN d   1      -1.413  -0.540   0.028  0.00  0.00     0.130 A 
ATOM      2  C2  DEN d   1      -1.119   0.172  -1.213  0.00  0.00    -0.031 A 
ATOM      3  C3  DEN d   1       0.270   0.668  -1.136  0.00  0.00     0.027 A 
ATOM      4  C4  DEN d   1       1.985   0.401   0.772  0.00  0.00     0.027 A 
ATOM      5  C5  DEN d   1       2.191  -0.115   2.033  0.00  0.00    -0.003 A 
ATOM      6  C6  DEN d   1       1.207  -0.774   2.721  0.00  0.00     0.001 A 
ATOM      7  C7  DEN d   1      -0.015  -0.973   2.135  0.00  0.00     0.017 A 
ATOM      8  C8  DEN d   1      -0.232  -0.450   0.867  0.00  0.00    -0.094 A 
ATOM      9  C9  DEN d   1       0.779   0.203   0.182  0.00  0.00    -0.072 A 
ENDROOT
TORSDOF 0
ENDMDL
