MODEL 1
REMARK minimizedAffinity -7.03121185
REMARK minimizedRMSD -1
REMARK  0 active torsions:
REMARK  status: ('A' for Active; 'I' for Inactive)
ROOT
ATOM      1  C1  DEN d   1      -0.585  -0.324  -0.890  0.00  0.00     0.130 A 
ATOM      2  C2  DEN d   1       0.280  -0.943  -1.891  0.00  0.00    -0.031 A 
ATOM      3  C3  DEN d   1       1.455  -1.504  -1.195  0.00  0.00     0.027 A 
ATOM      4  C4  DEN d   1       2.015  -1.480   1.322  0.00  0.00     0.027 A 
ATOM      5  C5  DEN d   1       1.588  -1.060   2.563  0.00  0.00    -0.003 A 
ATOM      6  C6  DEN d   1       0.434  -0.343   2.734  0.00  0.00     0.001 A 
ATOM      7  C7  DEN d   1      -0.357  -0.061   1.652  0.00  0.00     0.017 A 
ATOM      8  C8  DEN d   1       0.070  -0.474   0.397  0.00  0.00    -0.094 A 
ATOM      9  C9  DEN d   1       1.234  -1.209   0.246  0.00  0.00    -0.072 A 
ENDROOT
TORSDOF 0
ENDMDL
