MODEL 1
REMARK minimizedAffinity -5.68561077
REMARK minimizedRMSD -1
REMARK  0 active torsions:
REMARK  status: ('A' for Active; 'I' for Inactive)
ROOT
ATOM      1  C1  DEN d   1      -1.528   0.074  -0.289  0.00  0.00     0.130 A 
ATOM      2  C2  DEN d   1      -0.759  -0.083  -1.520  0.00  0.00    -0.031 A 
ATOM      3  C3  DEN d   1       0.656  -0.294  -1.152  0.00  0.00     0.027 A 
ATOM      4  C4  DEN d   1       1.723  -0.397   1.194  0.00  0.00     0.027 A 
ATOM      5  C5  DEN d   1       1.473  -0.307   2.546  0.00  0.00    -0.003 A 
ATOM      6  C6  DEN d   1       0.222  -0.053   3.042  0.00  0.00     0.001 A 
ATOM      7  C7  DEN d   1      -0.836   0.077   2.182  0.00  0.00     0.017 A 
ATOM      8  C8  DEN d   1      -0.591  -0.005   0.817  0.00  0.00    -0.094 A 
ATOM      9  C9  DEN d   1       0.679  -0.276   0.336  0.00  0.00    -0.072 A 
ENDROOT
TORSDOF 0
ENDMDL
