MODEL 1
REMARK minimizedAffinity -3.55500269
REMARK minimizedRMSD -1
REMARK  0 active torsions:
REMARK  status: ('A' for Active; 'I' for Inactive)
ROOT
ATOM      1  C1  DEN d   1       0.258  -0.374  -0.877  0.00  0.00     0.130 A 
ATOM      2  C2  DEN d   1      -1.012   0.218  -0.465  0.00  0.00    -0.031 A 
ATOM      3  C3  DEN d   1      -1.108   0.115   1.005  0.00  0.00     0.027 A 
ATOM      4  C4  DEN d   1       0.579  -0.895   2.674  0.00  0.00     0.027 A 
ATOM      5  C5  DEN d   1       1.796  -1.529   2.795  0.00  0.00    -0.003 A 
ATOM      6  C6  DEN d   1       2.564  -1.849   1.708  0.00  0.00     0.001 A 
ATOM      7  C7  DEN d   1       2.143  -1.497   0.452  0.00  0.00     0.017 A 
ATOM      8  C8  DEN d   1       0.914  -0.865   0.321  0.00  0.00    -0.094 A 
ATOM      9  C9  DEN d   1       0.158  -0.538   1.434  0.00  0.00    -0.072 A 
ENDROOT
TORSDOF 0
ENDMDL
