MODEL 1
REMARK minimizedAffinity -2.16473651
REMARK minimizedRMSD -1
REMARK  0 active torsions:
REMARK  status: ('A' for Active; 'I' for Inactive)
ROOT
ATOM      1  C1  DEN d   1      -1.611  -0.310   0.366  0.00  0.00     0.130 A 
ATOM      2  C2  DEN d   1      -1.289   0.232  -0.951  0.00  0.00    -0.031 A 
ATOM      3  C3  DEN d   1       0.180   0.347  -1.052  0.00  0.00     0.027 A 
ATOM      4  C4  DEN d   1       1.977  -0.264   0.694  0.00  0.00     0.027 A 
ATOM      5  C5  DEN d   1       2.188  -0.749   1.966  0.00  0.00    -0.003 A 
ATOM      6  C6  DEN d   1       1.155  -1.087   2.799  0.00  0.00     0.001 A 
ATOM      7  C7  DEN d   1      -0.137  -0.987   2.354  0.00  0.00     0.017 A 
ATOM      8  C8  DEN d   1      -0.357  -0.492   1.075  0.00  0.00    -0.094 A 
ATOM      9  C9  DEN d   1       0.701  -0.167   0.244  0.00  0.00    -0.072 A 
ENDROOT
TORSDOF 0
ENDMDL
