MODEL 1
REMARK minimizedAffinity 0.557913959
REMARK minimizedRMSD -1
REMARK  0 active torsions:
REMARK  status: ('A' for Active; 'I' for Inactive)
ROOT
ATOM      1  C1  DEN d   1       0.025  -1.039   1.705  0.00  0.00     0.130 A 
ATOM      2  C2  DEN d   1      -1.372  -0.652   1.875  0.00  0.00    -0.031 A 
ATOM      3  C3  DEN d   1      -1.903  -0.267   0.552  0.00  0.00     0.027 A 
ATOM      4  C4  DEN d   1      -0.704  -0.237  -1.732  0.00  0.00     0.027 A 
ATOM      5  C5  DEN d   1       0.492  -0.471  -2.375  0.00  0.00    -0.003 A 
ATOM      6  C6  DEN d   1       1.615  -0.875  -1.704  0.00  0.00     0.001 A 
ATOM      7  C7  DEN d   1       1.555  -1.101  -0.354  0.00  0.00     0.017 A 
ATOM      8  C8  DEN d   1       0.355  -0.860   0.303  0.00  0.00    -0.094 A 
ATOM      9  C9  DEN d   1      -0.773  -0.464  -0.396  0.00  0.00    -0.072 A 
ENDROOT
TORSDOF 0
ENDMDL
