MODEL 1
REMARK minimizedAffinity 10.2509012
REMARK minimizedRMSD -1
REMARK  0 active torsions:
REMARK  status: ('A' for Active; 'I' for Inactive)
ROOT
ATOM      1  C1  BNZ d   1      -2.961   1.600  -1.057  0.00  0.00     0.000 A 
ATOM      2  C2  BNZ d   1      -2.837   0.360  -1.624  0.00  0.00     0.000 A 
ATOM      3  C3  BNZ d   1      -3.088   0.170  -2.954  0.00  0.00     0.000 A 
ATOM      4  C4  BNZ d   1      -3.500   1.211  -3.706  0.00  0.00     0.000 A 
ATOM      5  C5  BNZ d   1      -3.638   2.466  -3.147  0.00  0.00     0.000 A 
ATOM      6  C6  BNZ d   1      -3.347   2.661  -1.817  0.00  0.00     0.000 A 
ENDROOT
TORSDOF 0
ENDMDL
