MODEL 1
REMARK minimizedAffinity 2.29181051
REMARK minimizedRMSD -1
REMARK  0 active torsions:
REMARK  status: ('A' for Active; 'I' for Inactive)
ROOT
ATOM      1  C1  BNZ d   1       1.307  -2.550   4.218  0.00  0.00     0.000 A 
ATOM      2  C2  BNZ d   1       2.238  -3.270   4.918  0.00  0.00     0.000 A 
ATOM      3  C3  BNZ d   1       3.535  -3.339   4.491  0.00  0.00     0.000 A 
ATOM      4  C4  BNZ d   1       3.890  -2.723   3.346  0.00  0.00     0.000 A 
ATOM      5  C5  BNZ d   1       2.961  -2.001   2.623  0.00  0.00     0.000 A 
ATOM      6  C6  BNZ d   1       1.665  -1.901   3.076  0.00  0.00     0.000 A 
ENDROOT
TORSDOF 0
ENDMDL
