MODEL 1
REMARK minimizedAffinity 0.35474667
REMARK minimizedRMSD -1
REMARK  0 active torsions:
REMARK  status: ('A' for Active; 'I' for Inactive)
ROOT
ATOM      1  C1  BNZ d   1      -5.342  -3.331  -5.149  0.00  0.00     0.000 A 
ATOM      2  C2  BNZ d   1      -4.409  -3.865  -5.998  0.00  0.00     0.000 A 
ATOM      3  C3  BNZ d   1      -4.125  -5.202  -5.974  0.00  0.00     0.000 A 
ATOM      4  C4  BNZ d   1      -4.745  -5.995  -5.076  0.00  0.00     0.000 A 
ATOM      5  C5  BNZ d   1      -5.681  -5.470  -4.208  0.00  0.00     0.000 A 
ATOM      6  C6  BNZ d   1      -5.992  -4.131  -4.261  0.00  0.00     0.000 A 
ENDROOT
TORSDOF 0
ENDMDL
