MODEL 1
REMARK minimizedAffinity 1.86004472
REMARK minimizedRMSD -1
REMARK  0 active torsions:
REMARK  status: ('A' for Active; 'I' for Inactive)
ROOT
ATOM      1  C1  BNZ d   1       6.000  -4.127   2.949  0.00  0.00     0.000 A 
ATOM      2  C2  BNZ d   1       4.878  -4.827   2.592  0.00  0.00     0.000 A 
ATOM      3  C3  BNZ d   1       3.746  -4.771   3.356  0.00  0.00     0.000 A 
ATOM      4  C4  BNZ d   1       3.749  -4.048   4.494  0.00  0.00     0.000 A 
ATOM      5  C5  BNZ d   1       4.875  -3.344   4.872  0.00  0.00     0.000 A 
ATOM      6  C6  BNZ d   1       6.000  -3.371   4.081  0.00  0.00     0.000 A 
ENDROOT
TORSDOF 0
ENDMDL
