MODEL 1
REMARK minimizedAffinity -2.74567699
REMARK minimizedRMSD -1
REMARK  1 active torsions:
REMARK  status: ('A' for Active; 'I' for Inactive)
REMARK    1  A    between atoms: C1_2  and  C2_3 
ROOT
ATOM      1  C2  UNL d   1      -1.559  -0.190   1.536  0.00  0.00    -0.073 A 
ATOM      2  C3  UNL d   1      -1.033  -1.455   1.822  0.00  0.00    -0.002 A 
ATOM      3  C4  UNL d   1       0.139  -1.889   1.202  0.00  0.00     0.004 A 
ATOM      4  C5  UNL d   1       0.801  -1.061   0.295  0.00  0.00    -0.004 A 
ATOM      5  C6  UNL d   1       0.298   0.212   0.005  0.00  0.00    -0.075 A 
ATOM      6  C7  UNL d   1       0.997   1.114  -0.969  0.00  0.00     0.076 C 
ATOM      7  C8  UNL d   1      -0.881   0.639   0.630  0.00  0.00     0.001 A 
ENDROOT
BRANCH   1   8
ATOM      8  C1  UNL d   1      -2.821   0.285   2.208  0.00  0.00     0.053 C 
ATOM      9  C   UNL d   1      -3.861   0.752   1.203  0.00  0.00     0.018 C 
ENDBRANCH   1   8
TORSDOF 1
ENDMDL
