MODEL 1
REMARK minimizedAffinity -5.81188869
REMARK minimizedRMSD -1
REMARK  1 active torsions:
REMARK  status: ('A' for Active; 'I' for Inactive)
REMARK    1  A    between atoms: C1_2  and  C2_3 
ROOT
ATOM      1  C2  UNL d   1       1.083   0.550  -0.610  0.00  0.00    -0.073 A 
ATOM      2  C3  UNL d   1       1.896   0.929  -1.684  0.00  0.00    -0.002 A 
ATOM      3  C4  UNL d   1       2.357  -0.027  -2.590  0.00  0.00     0.004 A 
ATOM      4  C5  UNL d   1       2.005  -1.368  -2.436  0.00  0.00    -0.004 A 
ATOM      5  C6  UNL d   1       1.184  -1.764  -1.376  0.00  0.00    -0.075 A 
ATOM      6  C7  UNL d   1       0.797  -3.203  -1.195  0.00  0.00     0.076 C 
ATOM      7  C8  UNL d   1       0.727  -0.799  -0.468  0.00  0.00     0.001 A 
ENDROOT
BRANCH   1   8
ATOM      8  C1  UNL d   1       0.577   1.579   0.368  0.00  0.00     0.053 C 
ATOM      9  C   UNL d   1       1.440   2.831   0.375  0.00  0.00     0.018 C 
ENDBRANCH   1   8
TORSDOF 1
ENDMDL
