MODEL 1
REMARK minimizedAffinity -1.22383416
REMARK minimizedRMSD -1
REMARK  1 active torsions:
REMARK  status: ('A' for Active; 'I' for Inactive)
REMARK    1  A    between atoms: C1_2  and  C2_3 
ROOT
ATOM      1  C2  UNL d   1      -0.110   0.267   0.329  0.00  0.00    -0.073 A 
ATOM      2  C3  UNL d   1       0.738   1.310   0.720  0.00  0.00    -0.002 A 
ATOM      3  C4  UNL d   1       1.844   1.648  -0.060  0.00  0.00     0.004 A 
ATOM      4  C5  UNL d   1       2.110   0.954  -1.241  0.00  0.00    -0.004 A 
ATOM      5  C6  UNL d   1       1.267  -0.083  -1.654  0.00  0.00    -0.075 A 
ATOM      6  C7  UNL d   1       1.540  -0.841  -2.920  0.00  0.00     0.076 C 
ATOM      7  C8  UNL d   1       0.160  -0.419  -0.863  0.00  0.00     0.001 A 
ENDROOT
BRANCH   1   8
ATOM      8  C1  UNL d   1      -1.309  -0.098   1.166  0.00  0.00     0.053 C 
ATOM      9  C   UNL d   1      -1.701   1.020   2.119  0.00  0.00     0.018 C 
ENDBRANCH   1   8
TORSDOF 1
ENDMDL
