MODEL 1
REMARK minimizedAffinity -5.8963995
REMARK minimizedRMSD -1
REMARK  1 active torsions:
REMARK  status: ('A' for Active; 'I' for Inactive)
REMARK    1  A    between atoms: C1_2  and  C2_3 
ROOT
ATOM      1  C2  UNL d   1       0.903  -0.352  -1.142  0.00  0.00    -0.073 A 
ATOM      2  C3  UNL d   1       1.575  -0.020  -2.324  0.00  0.00    -0.002 A 
ATOM      3  C4  UNL d   1       2.120  -1.020  -3.130  0.00  0.00     0.004 A 
ATOM      4  C5  UNL d   1       1.992  -2.361  -2.767  0.00  0.00    -0.004 A 
ATOM      5  C6  UNL d   1       1.313  -2.714  -1.596  0.00  0.00    -0.075 A 
ATOM      6  C7  UNL d   1       1.169  -4.151  -1.191  0.00  0.00     0.076 C 
ATOM      7  C8  UNL d   1       0.771  -1.703  -0.791  0.00  0.00     0.001 A 
ENDROOT
BRANCH   1   8
ATOM      8  C1  UNL d   1       0.307   0.725  -0.272  0.00  0.00     0.053 C 
ATOM      9  C   UNL d   1      -0.727   0.169   0.694  0.00  0.00     0.018 C 
ENDBRANCH   1   8
TORSDOF 1
ENDMDL
