MODEL 1
REMARK minimizedAffinity -5.33535385
REMARK minimizedRMSD -1
REMARK  1 active torsions:
REMARK  status: ('A' for Active; 'I' for Inactive)
REMARK    1  A    between atoms: C1_2  and  C2_3 
ROOT
ATOM      1  C2  UNL d   1       0.587  -0.130  -0.474  0.00  0.00    -0.073 A 
ATOM      2  C3  UNL d   1       1.403   0.862  -1.031  0.00  0.00    -0.002 A 
ATOM      3  C4  UNL d   1       2.250   0.560  -2.098  0.00  0.00     0.004 A 
ATOM      4  C5  UNL d   1       2.286  -0.732  -2.622  0.00  0.00    -0.004 A 
ATOM      5  C6  UNL d   1       1.470  -1.733  -2.087  0.00  0.00    -0.075 A 
ATOM      6  C7  UNL d   1       1.499  -3.129  -2.638  0.00  0.00     0.076 C 
ATOM      7  C8  UNL d   1       0.624  -1.423  -1.014  0.00  0.00     0.001 A 
ENDROOT
BRANCH   1   8
ATOM      8  C1  UNL d   1      -0.334   0.192   0.674  0.00  0.00     0.053 C 
ATOM      9  C   UNL d   1      -0.466  -0.971   1.644  0.00  0.00     0.018 C 
ENDBRANCH   1   8
TORSDOF 1
ENDMDL
