MODEL 1
REMARK minimizedAffinity -4.11316729
REMARK minimizedRMSD -1
REMARK  1 active torsions:
REMARK  status: ('A' for Active; 'I' for Inactive)
REMARK    1  A    between atoms: C1_2  and  C2_3 
ROOT
ATOM      1  C2  UNL d   1      -0.420  -0.302   0.658  0.00  0.00    -0.073 A 
ATOM      2  C3  UNL d   1      -0.312  -1.695   0.737  0.00  0.00    -0.002 A 
ATOM      3  C4  UNL d   1       0.320  -2.412  -0.279  0.00  0.00     0.004 A 
ATOM      4  C5  UNL d   1       0.856  -1.744  -1.380  0.00  0.00    -0.004 A 
ATOM      5  C6  UNL d   1       0.769  -0.351  -1.472  0.00  0.00    -0.075 A 
ATOM      6  C7  UNL d   1       1.338   0.382  -2.651  0.00  0.00     0.076 C 
ATOM      7  C8  UNL d   1       0.130   0.362  -0.448  0.00  0.00     0.001 A 
ENDROOT
BRANCH   1   8
ATOM      8  C1  UNL d   1      -1.096   0.478   1.756  0.00  0.00     0.053 C 
ATOM      9  C   UNL d   1      -2.597   0.235   1.787  0.00  0.00     0.018 C 
ENDBRANCH   1   8
TORSDOF 1
ENDMDL
