MODEL 1
REMARK minimizedAffinity -5.31258011
REMARK minimizedRMSD -1
REMARK  1 active torsions:
REMARK  status: ('A' for Active; 'I' for Inactive)
REMARK    1  A    between atoms: C1_2  and  C2_3 
ROOT
ATOM      1  C2  UNL d   1       1.307  -0.359  -1.724  0.00  0.00    -0.073 A 
ATOM      2  C3  UNL d   1       2.026   0.838  -1.813  0.00  0.00    -0.002 A 
ATOM      3  C4  UNL d   1       1.593   1.973  -1.126  0.00  0.00     0.004 A 
ATOM      4  C5  UNL d   1       0.442   1.921  -0.340  0.00  0.00    -0.004 A 
ATOM      5  C6  UNL d   1      -0.284   0.730  -0.229  0.00  0.00    -0.075 A 
ATOM      6  C7  UNL d   1      -1.525   0.658   0.611  0.00  0.00     0.076 C 
ATOM      7  C8  UNL d   1       0.156  -0.404  -0.924  0.00  0.00     0.001 A 
ENDROOT
BRANCH   1   8
ATOM      8  C1  UNL d   1       1.774  -1.589  -2.459  0.00  0.00     0.053 C 
ATOM      9  C   UNL d   1       1.207  -2.864  -1.855  0.00  0.00     0.018 C 
ENDBRANCH   1   8
TORSDOF 1
ENDMDL
