MODEL 1
REMARK minimizedAffinity -2.50389075
REMARK minimizedRMSD -1
REMARK  1 active torsions:
REMARK  status: ('A' for Active; 'I' for Inactive)
REMARK    1  A    between atoms: C1_2  and  C2_3 
ROOT
ATOM      1  C2  UNL d   1      -0.693   0.250   0.767  0.00  0.00    -0.073 A 
ATOM      2  C3  UNL d   1       0.053   1.370   0.385  0.00  0.00    -0.002 A 
ATOM      3  C4  UNL d   1       0.907   1.306  -0.717  0.00  0.00     0.004 A 
ATOM      4  C5  UNL d   1       1.018   0.126  -1.451  0.00  0.00    -0.004 A 
ATOM      5  C6  UNL d   1       0.271  -1.001  -1.093  0.00  0.00    -0.075 A 
ATOM      6  C7  UNL d   1       0.380  -2.279  -1.871  0.00  0.00     0.076 C 
ATOM      7  C8  UNL d   1      -0.582  -0.930   0.017  0.00  0.00     0.001 A 
ENDROOT
BRANCH   1   8
ATOM      8  C1  UNL d   1      -1.621   0.316   1.953  0.00  0.00     0.053 C 
ATOM      9  C   UNL d   1      -3.082   0.364   1.531  0.00  0.00     0.018 C 
ENDBRANCH   1   8
TORSDOF 1
ENDMDL
