MODEL 1
REMARK minimizedAffinity -4.35782623
REMARK minimizedRMSD -1
REMARK  1 active torsions:
REMARK  status: ('A' for Active; 'I' for Inactive)
REMARK    1  A    between atoms: C1_2  and  C2_3 
ROOT
ATOM      1  C2  UNL d   1      -0.616   0.376   1.222  0.00  0.00    -0.073 A 
ATOM      2  C3  UNL d   1       0.228   1.373   0.722  0.00  0.00    -0.002 A 
ATOM      3  C4  UNL d   1       1.060   1.112  -0.368  0.00  0.00     0.004 A 
ATOM      4  C5  UNL d   1       1.052  -0.146  -0.971  0.00  0.00    -0.004 A 
ATOM      5  C6  UNL d   1       0.207  -1.152  -0.493  0.00  0.00    -0.075 A 
ATOM      6  C7  UNL d   1       0.188  -2.511  -1.130  0.00  0.00     0.076 C 
ATOM      7  C8  UNL d   1      -0.624  -0.883   0.602  0.00  0.00     0.001 A 
ENDROOT
BRANCH   1   8
ATOM      8  C1  UNL d   1      -1.522   0.655   2.393  0.00  0.00     0.053 C 
ATOM      9  C   UNL d   1      -2.969   0.838   1.965  0.00  0.00     0.018 C 
ENDBRANCH   1   8
TORSDOF 1
ENDMDL
