MODEL 1
REMARK minimizedAffinity -3.59702039
REMARK minimizedRMSD -1
REMARK  1 active torsions:
REMARK  status: ('A' for Active; 'I' for Inactive)
REMARK    1  A    between atoms: C1_2  and  C2_3 
ROOT
ATOM      1  C2  UNL d   1      -0.083  -0.244   0.329  0.00  0.00    -0.073 A 
ATOM      2  C3  UNL d   1      -0.323  -1.610   0.511  0.00  0.00    -0.002 A 
ATOM      3  C4  UNL d   1       0.095  -2.533  -0.449  0.00  0.00     0.004 A 
ATOM      4  C5  UNL d   1       0.762  -2.101  -1.595  0.00  0.00    -0.004 A 
ATOM      5  C6  UNL d   1       1.022  -0.740  -1.789  0.00  0.00    -0.075 A 
ATOM      6  C7  UNL d   1       1.736  -0.258  -3.017  0.00  0.00     0.076 C 
ATOM      7  C8  UNL d   1       0.596   0.181  -0.822  0.00  0.00     0.001 A 
ENDROOT
BRANCH   1   8
ATOM      8  C1  UNL d   1      -0.527   0.756   1.366  0.00  0.00     0.053 C 
ATOM      9  C   UNL d   1      -1.929   0.463   1.877  0.00  0.00     0.018 C 
ENDBRANCH   1   8
TORSDOF 1
ENDMDL
