MODEL 1
REMARK minimizedAffinity -2.57908678
REMARK minimizedRMSD -1
REMARK  1 active torsions:
REMARK  status: ('A' for Active; 'I' for Inactive)
REMARK    1  A    between atoms: C1_2  and  C2_3 
ROOT
ATOM      1  C2  UNL d   1       0.844  -0.649  -1.369  0.00  0.00    -0.073 A 
ATOM      2  C3  UNL d   1       1.039  -1.957  -0.910  0.00  0.00    -0.002 A 
ATOM      3  C4  UNL d   1       0.416  -2.394   0.260  0.00  0.00     0.004 A 
ATOM      4  C5  UNL d   1      -0.412  -1.532   0.978  0.00  0.00    -0.004 A 
ATOM      5  C6  UNL d   1      -0.629  -0.225   0.529  0.00  0.00    -0.075 A 
ATOM      6  C7  UNL d   1      -1.516   0.715   1.292  0.00  0.00     0.076 C 
ATOM      7  C8  UNL d   1       0.002   0.207  -0.645  0.00  0.00     0.001 A 
ENDROOT
BRANCH   1   8
ATOM      8  C1  UNL d   1       1.509  -0.175  -2.635  0.00  0.00     0.053 C 
ATOM      9  C   UNL d   1       2.960   0.216  -2.405  0.00  0.00     0.018 C 
ENDBRANCH   1   8
TORSDOF 1
ENDMDL
