MODEL 1
REMARK minimizedAffinity -5.36973047
REMARK minimizedRMSD -1
REMARK  1 active torsions:
REMARK  status: ('A' for Active; 'I' for Inactive)
REMARK    1  A    between atoms: C1_2  and  C2_3 
ROOT
ATOM      1  C2  UNL d   1       0.039   0.036   0.331  0.00  0.00    -0.073 A 
ATOM      2  C3  UNL d   1       0.707   1.160   0.829  0.00  0.00    -0.002 A 
ATOM      3  C4  UNL d   1       1.560   1.895   0.004  0.00  0.00     0.004 A 
ATOM      4  C5  UNL d   1       1.748   1.519  -1.326  0.00  0.00    -0.004 A 
ATOM      5  C6  UNL d   1       1.079   0.406  -1.845  0.00  0.00    -0.075 A 
ATOM      6  C7  UNL d   1       1.272  -0.013  -3.273  0.00  0.00     0.076 C 
ATOM      7  C8  UNL d   1       0.227  -0.329  -1.010  0.00  0.00     0.001 A 
ENDROOT
BRANCH   1   8
ATOM      8  C1  UNL d   1      -0.888  -0.757   1.215  0.00  0.00     0.053 C 
ATOM      9  C   UNL d   1      -2.024   0.094   1.759  0.00  0.00     0.018 C 
ENDBRANCH   1   8
TORSDOF 1
ENDMDL
