MODEL 1
REMARK minimizedAffinity -2.93064833
REMARK minimizedRMSD -1
REMARK  1 active torsions:
REMARK  status: ('A' for Active; 'I' for Inactive)
REMARK    1  A    between atoms: C1_2  and  C2_3 
ROOT
ATOM      1  C2  UNL d   1       0.358   0.154  -1.586  0.00  0.00    -0.073 A 
ATOM      2  C3  UNL d   1       0.502   1.177  -0.642  0.00  0.00    -0.002 A 
ATOM      3  C4  UNL d   1       0.431   0.893   0.722  0.00  0.00     0.004 A 
ATOM      4  C5  UNL d   1       0.223  -0.416   1.157  0.00  0.00    -0.004 A 
ATOM      5  C6  UNL d   1       0.088  -1.454   0.230  0.00  0.00    -0.075 A 
ATOM      6  C7  UNL d   1      -0.139  -2.867   0.681  0.00  0.00     0.076 C 
ATOM      7  C8  UNL d   1       0.158  -1.161  -1.139  0.00  0.00     0.001 A 
ENDROOT
BRANCH   1   8
ATOM      8  C1  UNL d   1       0.440   0.454  -3.060  0.00  0.00     0.053 C 
ATOM      9  C   UNL d   1       1.853   0.292  -3.597  0.00  0.00     0.018 C 
ENDBRANCH   1   8
TORSDOF 1
ENDMDL
