MODEL 1
REMARK minimizedAffinity -4.07717657
REMARK minimizedRMSD -1
REMARK  0 active torsions:
REMARK  status: ('A' for Active; 'I' for Inactive)
ROOT
ATOM      1  C1  DEN d   1      -0.144   1.223   0.367  0.00  0.00     0.130 A 
ATOM      2  C2  DEN d   1      -1.526   1.549   0.708  0.00  0.00    -0.031 A 
ATOM      3  C3  DEN d   1      -2.258   0.282   0.906  0.00  0.00     0.027 A 
ATOM      4  C4  DEN d   1      -1.389  -2.139   0.725  0.00  0.00     0.027 A 
ATOM      5  C5  DEN d   1      -0.288  -2.919   0.449  0.00  0.00    -0.003 A 
ATOM      6  C6  DEN d   1       0.920  -2.378   0.096  0.00  0.00     0.001 A 
ATOM      7  C7  DEN d   1       1.067  -1.017   0.054  0.00  0.00     0.017 A 
ATOM      8  C8  DEN d   1      -0.041  -0.224   0.324  0.00  0.00    -0.094 A 
ATOM      9  C9  DEN d   1      -1.250  -0.790   0.690  0.00  0.00    -0.072 A 
ENDROOT
TORSDOF 0
ENDMDL
