MODEL 1
REMARK minimizedAffinity -3.19593406
REMARK minimizedRMSD -1
REMARK  0 active torsions:
REMARK  status: ('A' for Active; 'I' for Inactive)
ROOT
ATOM      1  C1  DEN d   1      -5.908  -4.042  -4.539  0.00  0.00     0.130 A 
ATOM      2  C2  DEN d   1      -5.999  -2.657  -4.994  0.00  0.00    -0.031 A 
ATOM      3  C3  DEN d   1      -4.722  -2.307  -5.647  0.00  0.00     0.027 A 
ATOM      4  C4  DEN d   1      -2.625  -3.766  -6.000  0.00  0.00     0.027 A 
ATOM      5  C5  DEN d   1      -2.070  -5.006  -5.775  0.00  0.00    -0.003 A 
ATOM      6  C6  DEN d   1      -2.737  -5.993  -5.098  0.00  0.00     0.001 A 
ATOM      7  C7  DEN d   1      -4.016  -5.771  -4.661  0.00  0.00     0.017 A 
ATOM      8  C8  DEN d   1      -4.580  -4.520  -4.877  0.00  0.00    -0.094 A 
ATOM      9  C9  DEN d   1      -3.894  -3.540  -5.575  0.00  0.00    -0.072 A 
ENDROOT
TORSDOF 0
ENDMDL
