MODEL 1
REMARK minimizedAffinity -2.52550411
REMARK minimizedRMSD -1
REMARK  0 active torsions:
REMARK  status: ('A' for Active; 'I' for Inactive)
ROOT
ATOM      1  C1  DEN d   1      -5.998  -1.284  -4.474  0.00  0.00     0.130 A 
ATOM      2  C2  DEN d   1      -6.000  -1.018  -3.038  0.00  0.00    -0.031 A 
ATOM      3  C3  DEN d   1      -5.474  -2.215  -2.352  0.00  0.00     0.027 A 
ATOM      4  C4  DEN d   1      -4.657  -4.440  -3.368  0.00  0.00     0.027 A 
ATOM      5  C5  DEN d   1      -4.476  -5.139  -4.541  0.00  0.00    -0.003 A 
ATOM      6  C6  DEN d   1      -4.819  -4.619  -5.761  0.00  0.00     0.001 A 
ATOM      7  C7  DEN d   1      -5.318  -3.346  -5.840  0.00  0.00     0.017 A 
ATOM      8  C8  DEN d   1      -5.511  -2.638  -4.661  0.00  0.00    -0.094 A 
ATOM      9  C9  DEN d   1      -5.147  -3.177  -3.438  0.00  0.00    -0.072 A 
ENDROOT
TORSDOF 0
ENDMDL
