MODEL 1
REMARK minimizedAffinity -3.93156195
REMARK minimizedRMSD -1
REMARK  0 active torsions:
REMARK  status: ('A' for Active; 'I' for Inactive)
ROOT
ATOM      1  C1  DEN d   1      -4.795  -2.401  -5.256  0.00  0.00     0.130 A 
ATOM      2  C2  DEN d   1      -5.984  -2.770  -4.493  0.00  0.00    -0.031 A 
ATOM      3  C3  DEN d   1      -5.860  -4.193  -4.117  0.00  0.00     0.027 A 
ATOM      4  C4  DEN d   1      -3.952  -5.849  -4.634  0.00  0.00     0.027 A 
ATOM      5  C5  DEN d   1      -2.735  -5.999  -5.262  0.00  0.00    -0.003 A 
ATOM      6  C6  DEN d   1      -2.141  -4.979  -5.956  0.00  0.00     0.001 A 
ATOM      7  C7  DEN d   1      -2.741  -3.748  -6.000  0.00  0.00     0.017 A 
ATOM      8  C8  DEN d   1      -3.971  -3.591  -5.375  0.00  0.00    -0.094 A 
ATOM      9  C9  DEN d   1      -4.550  -4.631  -4.668  0.00  0.00    -0.072 A 
ENDROOT
TORSDOF 0
ENDMDL
