MODEL 1
REMARK minimizedAffinity -4.44484806
REMARK minimizedRMSD -1
REMARK  0 active torsions:
REMARK  status: ('A' for Active; 'I' for Inactive)
ROOT
ATOM      1  C1  DEN d   1      -4.750  -2.498  -5.095  0.00  0.00     0.130 A 
ATOM      2  C2  DEN d   1      -6.000  -2.966  -4.501  0.00  0.00    -0.031 A 
ATOM      3  C3  DEN d   1      -5.851  -4.404  -4.199  0.00  0.00     0.027 A 
ATOM      4  C4  DEN d   1      -3.817  -5.942  -4.586  0.00  0.00     0.027 A 
ATOM      5  C5  DEN d   1      -2.531  -6.000  -5.074  0.00  0.00    -0.003 A 
ATOM      6  C6  DEN d   1      -1.911  -4.912  -5.630  0.00  0.00     0.001 A 
ATOM      7  C7  DEN d   1      -2.561  -3.707  -5.670  0.00  0.00     0.017 A 
ATOM      8  C8  DEN d   1      -3.861  -3.643  -5.187  0.00  0.00    -0.094 A 
ATOM      9  C9  DEN d   1      -4.466  -4.750  -4.617  0.00  0.00    -0.072 A 
ENDROOT
TORSDOF 0
ENDMDL
