MODEL 1
REMARK minimizedAffinity -4.86121273
REMARK minimizedRMSD -1
REMARK  0 active torsions:
REMARK  status: ('A' for Active; 'I' for Inactive)
ROOT
ATOM      1  C1  DEN d   1      -2.580  -4.166  -5.861  0.00  0.00     0.130 A 
ATOM      2  C2  DEN d   1      -2.420  -5.570  -5.489  0.00  0.00    -0.031 A 
ATOM      3  C3  DEN d   1      -3.521  -5.927  -4.572  0.00  0.00     0.027 A 
ATOM      4  C4  DEN d   1      -5.450  -4.453  -3.701  0.00  0.00     0.027 A 
ATOM      5  C5  DEN d   1      -5.999  -3.190  -3.730  0.00  0.00    -0.003 A 
ATOM      6  C6  DEN d   1      -5.433  -2.164  -4.438  0.00  0.00     0.001 A 
ATOM      7  C7  DEN d   1      -4.307  -2.394  -5.183  0.00  0.00     0.017 A 
ATOM      8  C8  DEN d   1      -3.743  -3.663  -5.153  0.00  0.00    -0.094 A 
ATOM      9  C9  DEN d   1      -4.338  -4.690  -4.441  0.00  0.00    -0.072 A 
ENDROOT
TORSDOF 0
ENDMDL
