MODEL 1
REMARK minimizedAffinity -4.22799015
REMARK minimizedRMSD -1
REMARK  0 active torsions:
REMARK  status: ('A' for Active; 'I' for Inactive)
ROOT
ATOM      1  C1  DEN d   1      -2.435  -4.416  -6.000  0.00  0.00     0.130 A 
ATOM      2  C2  DEN d   1      -2.246  -5.615  -5.189  0.00  0.00    -0.031 A 
ATOM      3  C3  DEN d   1      -3.382  -5.716  -4.251  0.00  0.00     0.027 A 
ATOM      4  C4  DEN d   1      -5.406  -4.140  -3.979  0.00  0.00     0.027 A 
ATOM      5  C5  DEN d   1      -5.997  -2.983  -4.435  0.00  0.00    -0.003 A 
ATOM      6  C6  DEN d   1      -5.430  -2.210  -5.414  0.00  0.00     0.001 A 
ATOM      7  C7  DEN d   1      -4.258  -2.610  -6.000  0.00  0.00     0.017 A 
ATOM      8  C8  DEN d   1      -3.652  -3.771  -5.540  0.00  0.00    -0.094 A 
ATOM      9  C9  DEN d   1      -4.248  -4.545  -4.558  0.00  0.00    -0.072 A 
ENDROOT
TORSDOF 0
ENDMDL
