MODEL 1
REMARK minimizedAffinity -3.91293287
REMARK minimizedRMSD -1
REMARK  0 active torsions:
REMARK  status: ('A' for Active; 'I' for Inactive)
ROOT
ATOM      1  C1  DEN d   1      -4.644  -2.484  -4.841  0.00  0.00     0.130 A 
ATOM      2  C2  DEN d   1      -5.990  -2.979  -4.567  0.00  0.00    -0.031 A 
ATOM      3  C3  DEN d   1      -5.999  -4.436  -4.807  0.00  0.00     0.027 A 
ATOM      4  C4  DEN d   1      -4.068  -5.966  -5.569  0.00  0.00     0.027 A 
ATOM      5  C5  DEN d   1      -2.741  -6.000  -5.938  0.00  0.00    -0.003 A 
ATOM      6  C6  DEN d   1      -1.971  -4.869  -6.000  0.00  0.00     0.001 A 
ATOM      7  C7  DEN d   1      -2.510  -3.661  -5.644  0.00  0.00     0.017 A 
ATOM      8  C8  DEN d   1      -3.849  -3.617  -5.278  0.00  0.00    -0.094 A 
ATOM      9  C9  DEN d   1      -4.607  -4.774  -5.210  0.00  0.00    -0.072 A 
ENDROOT
TORSDOF 0
ENDMDL
