MODEL 1
REMARK minimizedAffinity -3.61449671
REMARK minimizedRMSD -1
REMARK  0 active torsions:
REMARK  status: ('A' for Active; 'I' for Inactive)
ROOT
ATOM      1  C1  DEN d   1      -4.827  -2.251  -4.544  0.00  0.00     0.130 A 
ATOM      2  C2  DEN d   1      -5.986  -2.651  -3.752  0.00  0.00    -0.031 A 
ATOM      3  C3  DEN d   1      -5.998  -4.125  -3.672  0.00  0.00     0.027 A 
ATOM      4  C4  DEN d   1      -4.340  -5.819  -4.690  0.00  0.00     0.027 A 
ATOM      5  C5  DEN d   1      -3.203  -5.955  -5.455  0.00  0.00    -0.003 A 
ATOM      6  C6  DEN d   1      -2.552  -4.878  -5.994  0.00  0.00     0.001 A 
ATOM      7  C7  DEN d   1      -3.008  -3.611  -5.738  0.00  0.00     0.017 A 
ATOM      8  C8  DEN d   1      -4.158  -3.466  -4.973  0.00  0.00    -0.094 A 
ATOM      9  C9  DEN d   1      -4.795  -4.567  -4.427  0.00  0.00    -0.072 A 
ENDROOT
TORSDOF 0
ENDMDL
