MODEL 1
REMARK minimizedAffinity -3.19829369
REMARK minimizedRMSD -1
REMARK  0 active torsions:
REMARK  status: ('A' for Active; 'I' for Inactive)
ROOT
ATOM      1  C1  DEN d   1      -4.070  -2.739  -3.753  0.00  0.00     0.130 A 
ATOM      2  C2  DEN d   1      -5.498  -3.043  -3.695  0.00  0.00    -0.031 A 
ATOM      3  C3  DEN d   1      -5.722  -4.318  -4.406  0.00  0.00     0.027 A 
ATOM      4  C4  DEN d   1      -4.007  -5.846  -5.579  0.00  0.00     0.027 A 
ATOM      5  C5  DEN d   1      -2.677  -6.000  -5.901  0.00  0.00    -0.003 A 
ATOM      6  C6  DEN d   1      -1.731  -5.069  -5.563  0.00  0.00     0.001 A 
ATOM      7  C7  DEN d   1      -2.095  -3.963  -4.841  0.00  0.00     0.017 A 
ATOM      8  C8  DEN d   1      -3.435  -3.797  -4.518  0.00  0.00    -0.094 A 
ATOM      9  C9  DEN d   1      -4.375  -4.755  -4.859  0.00  0.00    -0.072 A 
ENDROOT
TORSDOF 0
ENDMDL
