MODEL 1
REMARK minimizedAffinity 4.21576691
REMARK minimizedRMSD -1
REMARK  0 active torsions:
REMARK  status: ('A' for Active; 'I' for Inactive)
ROOT
ATOM      1  C1  DEN d   1      -2.735  -4.555  -5.415  0.00  0.00     0.130 A 
ATOM      2  C2  DEN d   1      -1.915  -4.517  -4.208  0.00  0.00    -0.031 A 
ATOM      3  C3  DEN d   1      -2.620  -3.697  -3.202  0.00  0.00     0.027 A 
ATOM      4  C4  DEN d   1      -4.892  -2.492  -3.396  0.00  0.00     0.027 A 
ATOM      5  C5  DEN d   1      -5.953  -2.225  -4.232  0.00  0.00    -0.003 A 
ATOM      6  C6  DEN d   1      -6.000  -2.683  -5.522  0.00  0.00     0.001 A 
ATOM      7  C7  DEN d   1      -4.986  -3.471  -5.999  0.00  0.00     0.017 A 
ATOM      8  C8  DEN d   1      -3.910  -3.739  -5.164  0.00  0.00    -0.094 A 
ATOM      9  C9  DEN d   1      -3.887  -3.277  -3.859  0.00  0.00    -0.072 A 
ENDROOT
TORSDOF 0
ENDMDL
