MODEL 1
REMARK minimizedAffinity -4.38679934
REMARK minimizedRMSD -1
REMARK  0 active torsions:
REMARK  status: ('A' for Active; 'I' for Inactive)
ROOT
ATOM      1  C1  DEN d   1      -4.648  -2.430  -4.650  0.00  0.00     0.130 A 
ATOM      2  C2  DEN d   1      -6.000  -2.768  -4.211  0.00  0.00    -0.031 A 
ATOM      3  C3  DEN d   1      -5.982  -4.157  -3.709  0.00  0.00     0.027 A 
ATOM      4  C4  DEN d   1      -4.004  -5.805  -3.564  0.00  0.00     0.027 A 
ATOM      5  C5  DEN d   1      -2.663  -5.975  -3.827  0.00  0.00    -0.003 A 
ATOM      6  C6  DEN d   1      -1.903  -4.995  -4.410  0.00  0.00     0.001 A 
ATOM      7  C7  DEN d   1      -2.470  -3.784  -4.707  0.00  0.00     0.017 A 
ATOM      8  C8  DEN d   1      -3.823  -3.608  -4.451  0.00  0.00    -0.094 A 
ATOM      9  C9  DEN d   1      -4.571  -4.606  -3.851  0.00  0.00    -0.072 A 
ENDROOT
TORSDOF 0
ENDMDL
