MODEL 1
REMARK minimizedAffinity -2.413342
REMARK minimizedRMSD -1
REMARK  0 active torsions:
REMARK  status: ('A' for Active; 'I' for Inactive)
ROOT
ATOM      1  C1  DEN d   1      -2.157  -5.185  -3.794  0.00  0.00     0.130 A 
ATOM      2  C2  DEN d   1      -1.560  -5.891  -4.924  0.00  0.00    -0.031 A 
ATOM      3  C3  DEN d   1      -2.581  -6.000  -5.986  0.00  0.00     0.027 A 
ATOM      4  C4  DEN d   1      -5.013  -5.142  -5.992  0.00  0.00     0.027 A 
ATOM      5  C5  DEN d   1      -5.976  -4.491  -5.252  0.00  0.00    -0.003 A 
ATOM      6  C6  DEN d   1      -5.746  -4.059  -3.972  0.00  0.00     0.001 A 
ATOM      7  C7  DEN d   1      -4.509  -4.233  -3.410  0.00  0.00     0.017 A 
ATOM      8  C8  DEN d   1      -3.536  -4.895  -4.146  0.00  0.00    -0.094 A 
ATOM      9  C9  DEN d   1      -3.784  -5.313  -5.443  0.00  0.00    -0.072 A 
ENDROOT
TORSDOF 0
ENDMDL
