MODEL 1
REMARK minimizedAffinity -0.972955227
REMARK minimizedRMSD -1
REMARK  0 active torsions:
REMARK  status: ('A' for Active; 'I' for Inactive)
ROOT
ATOM      1  C1  DEN d   1      -2.029  -4.644  -4.162  0.00  0.00     0.130 A 
ATOM      2  C2  DEN d   1      -1.553  -5.631  -5.127  0.00  0.00    -0.031 A 
ATOM      3  C3  DEN d   1      -2.686  -5.999  -6.000  0.00  0.00     0.027 A 
ATOM      4  C4  DEN d   1      -5.117  -5.139  -5.953  0.00  0.00     0.027 A 
ATOM      5  C5  DEN d   1      -6.000  -4.303  -5.306  0.00  0.00    -0.003 A 
ATOM      6  C6  DEN d   1      -5.633  -3.555  -4.219  0.00  0.00     0.001 A 
ATOM      7  C7  DEN d   1      -4.337  -3.592  -3.775  0.00  0.00     0.017 A 
ATOM      8  C8  DEN d   1      -3.443  -4.438  -4.418  0.00  0.00    -0.094 A 
ATOM      9  C9  DEN d   1      -3.830  -5.178  -5.523  0.00  0.00    -0.072 A 
ENDROOT
TORSDOF 0
ENDMDL
