MODEL 1
REMARK minimizedAffinity -3.01075482
REMARK minimizedRMSD -1
REMARK  0 active torsions:
REMARK  status: ('A' for Active; 'I' for Inactive)
ROOT
ATOM      1  C1  DEN d   1      -4.663  -2.252  -5.335  0.00  0.00     0.130 A 
ATOM      2  C2  DEN d   1      -5.962  -2.591  -4.760  0.00  0.00    -0.031 A 
ATOM      3  C3  DEN d   1      -5.992  -4.049  -4.530  0.00  0.00     0.027 A 
ATOM      4  C4  DEN d   1      -4.162  -5.805  -5.000  0.00  0.00     0.027 A 
ATOM      5  C5  DEN d   1      -2.891  -5.997  -5.496  0.00  0.00    -0.003 A 
ATOM      6  C6  DEN d   1      -2.141  -4.967  -6.000  0.00  0.00     0.001 A 
ATOM      7  C7  DEN d   1      -2.638  -3.691  -5.978  0.00  0.00     0.017 A 
ATOM      8  C8  DEN d   1      -3.922  -3.491  -5.486  0.00  0.00    -0.094 A 
ATOM      9  C9  DEN d   1      -4.660  -4.543  -4.970  0.00  0.00    -0.072 A 
ENDROOT
TORSDOF 0
ENDMDL
