MODEL 1
REMARK minimizedAffinity -4.46856403
REMARK minimizedRMSD -1
REMARK  0 active torsions:
REMARK  status: ('A' for Active; 'I' for Inactive)
ROOT
ATOM      1  C1  DEN d   1      -1.978  -4.486  -4.871  0.00  0.00     0.130 A 
ATOM      2  C2  DEN d   1      -2.020  -5.733  -5.631  0.00  0.00    -0.031 A 
ATOM      3  C3  DEN d   1      -3.426  -6.000  -5.993  0.00  0.00     0.027 A 
ATOM      4  C4  DEN d   1      -5.532  -4.609  -5.459  0.00  0.00     0.027 A 
ATOM      5  C5  DEN d   1      -5.999  -3.477  -4.828  0.00  0.00    -0.003 A 
ATOM      6  C6  DEN d   1      -5.170  -2.627  -4.145  0.00  0.00     0.001 A 
ATOM      7  C7  DEN d   1      -3.823  -2.872  -4.114  0.00  0.00     0.017 A 
ATOM      8  C8  DEN d   1      -3.345  -4.015  -4.741  0.00  0.00    -0.094 A 
ATOM      9  C9  DEN d   1      -4.197  -4.855  -5.437  0.00  0.00    -0.072 A 
ENDROOT
TORSDOF 0
ENDMDL
