MODEL 1
REMARK minimizedAffinity -3.4099226
REMARK minimizedRMSD -1
REMARK  0 active torsions:
REMARK  status: ('A' for Active; 'I' for Inactive)
ROOT
ATOM      1  C1  DEN d   1      -4.753  -4.442  -5.995  0.00  0.00     0.130 A 
ATOM      2  C2  DEN d   1      -5.769  -4.621  -4.961  0.00  0.00    -0.031 A 
ATOM      3  C3  DEN d   1      -5.092  -5.074  -3.729  0.00  0.00     0.027 A 
ATOM      4  C4  DEN d   1      -2.582  -5.509  -3.323  0.00  0.00     0.027 A 
ATOM      5  C5  DEN d   1      -1.334  -5.505  -3.905  0.00  0.00    -0.003 A 
ATOM      6  C6  DEN d   1      -1.144  -5.183  -5.223  0.00  0.00     0.001 A 
ATOM      7  C7  DEN d   1      -2.213  -4.806  -5.991  0.00  0.00     0.017 A 
ATOM      8  C8  DEN d   1      -3.476  -4.814  -5.413  0.00  0.00    -0.094 A 
ATOM      9  C9  DEN d   1      -3.647  -5.132  -4.076  0.00  0.00    -0.072 A 
ENDROOT
TORSDOF 0
ENDMDL
