MODEL 1
REMARK minimizedAffinity -1.456002
REMARK minimizedRMSD -1
REMARK  2 active torsions:
REMARK  status: ('A' for Active; 'I' for Inactive)
REMARK    1  A    between atoms: C2'_3  and  C1'_4 
REMARK    2  A    between atoms: C1'_4  and  C1_5 
ROOT
ATOM      1  C1  I4B d   1       4.130  -4.810   4.664  0.00  0.00    -0.075 A 
ATOM      2  C2  I4B d   1       5.152  -5.051   5.549  0.00  0.00     0.003 A 
ATOM      3  C3  I4B d   1       6.000  -3.995   5.963  0.00  0.00     0.002 A 
ATOM      4  C4  I4B d   1       5.823  -2.733   5.432  0.00  0.00    -0.004 A 
ATOM      5  C5  I4B d   1       4.773  -2.486   4.553  0.00  0.00     0.002 A 
ATOM      6  C6  I4B d   1       3.913  -3.528   4.175  0.00  0.00     0.003 A 
ENDROOT
BRANCH   1   7
ATOM      7  C1' I4B d   1       3.274  -5.954   4.223  0.00  0.00     0.060 C 
BRANCH   7   8
ATOM      8  C2' I4B d   1       3.296  -5.997   2.708  0.00  0.00    -0.013 C 
ATOM      9  C4' I4B d   1       2.534  -4.838   2.120  0.00  0.00     0.013 C 
ATOM     10  C3' I4B d   1       4.728  -5.984   2.265  0.00  0.00     0.013 C 
ENDBRANCH   7   8
ENDBRANCH   1   7
TORSDOF 2
ENDMDL
