MODEL 1
REMARK minimizedAffinity 23.6846523
REMARK minimizedRMSD -1
REMARK  2 active torsions:
REMARK  status: ('A' for Active; 'I' for Inactive)
REMARK    1  A    between atoms: C2'_3  and  C1'_4 
REMARK    2  A    between atoms: C1'_4  and  C1_5 
ROOT
ATOM      1  C1  I4B d   1      -3.181   5.454   2.945  0.00  0.00    -0.075 A 
ATOM      2  C2  I4B d   1      -4.421   5.963   3.239  0.00  0.00     0.003 A 
ATOM      3  C3  I4B d   1      -5.558   5.535   2.512  0.00  0.00     0.002 A 
ATOM      4  C4  I4B d   1      -5.403   4.642   1.472  0.00  0.00    -0.004 A 
ATOM      5  C5  I4B d   1      -4.148   4.110   1.189  0.00  0.00     0.002 A 
ATOM      6  C6  I4B d   1      -3.032   4.509   1.938  0.00  0.00     0.003 A 
ENDROOT
BRANCH   1   7
ATOM      7  C1' I4B d   1      -1.997   5.952   3.711  0.00  0.00     0.060 C 
BRANCH   7   8
ATOM      8  C2' I4B d   1      -2.143   5.492   5.147  0.00  0.00    -0.013 C 
ATOM      9  C4' I4B d   1      -0.999   5.981   5.995  0.00  0.00     0.013 C 
ATOM     10  C3' I4B d   1      -3.456   5.999   5.664  0.00  0.00     0.013 C 
ENDBRANCH   7   8
ENDBRANCH   1   7
TORSDOF 2
ENDMDL
