MODEL 1
REMARK minimizedAffinity 1.06614268
REMARK minimizedRMSD -1
REMARK  2 active torsions:
REMARK  status: ('A' for Active; 'I' for Inactive)
REMARK    1  A    between atoms: C2'_3  and  C1'_4 
REMARK    2  A    between atoms: C1'_4  and  C1_5 
ROOT
ATOM      1  C1  I4B d   1       1.673   1.798  -3.407  0.00  0.00    -0.075 A 
ATOM      2  C2  I4B d   1       2.994   2.156  -3.295  0.00  0.00     0.003 A 
ATOM      3  C3  I4B d   1       3.860   1.426  -2.446  0.00  0.00     0.002 A 
ATOM      4  C4  I4B d   1       3.357   0.383  -1.695  0.00  0.00    -0.004 A 
ATOM      5  C5  I4B d   1       2.023   0.008  -1.827  0.00  0.00     0.002 A 
ATOM      6  C6  I4B d   1       1.178   0.712  -2.698  0.00  0.00     0.003 A 
ENDROOT
BRANCH   1   7
ATOM      7  C1' I4B d   1       0.778   2.612  -4.287  0.00  0.00     0.060 C 
BRANCH   7   8
ATOM      8  C2' I4B d   1       1.070   2.235  -5.725  0.00  0.00    -0.013 C 
ATOM      9  C4' I4B d   1       2.552   2.171  -5.983  0.00  0.00     0.013 C 
ATOM     10  C3' I4B d   1       0.415   0.914  -5.999  0.00  0.00     0.013 C 
ENDBRANCH   7   8
ENDBRANCH   1   7
TORSDOF 2
ENDMDL
