MODEL 1
REMARK minimizedAffinity 14.9564323
REMARK minimizedRMSD -1
REMARK  2 active torsions:
REMARK  status: ('A' for Active; 'I' for Inactive)
REMARK    1  A    between atoms: C2'_3  and  C1'_4 
REMARK    2  A    between atoms: C1'_4  and  C1_5 
ROOT
ATOM      1  C1  I4B d   1       4.863   5.006   2.642  0.00  0.00    -0.075 A 
ATOM      2  C2  I4B d   1       3.615   5.328   3.114  0.00  0.00     0.003 A 
ATOM      3  C3  I4B d   1       3.460   5.844   4.423  0.00  0.00     0.002 A 
ATOM      4  C4  I4B d   1       4.566   5.975   5.238  0.00  0.00    -0.004 A 
ATOM      5  C5  I4B d   1       5.833   5.670   4.750  0.00  0.00     0.002 A 
ATOM      6  C6  I4B d   1       5.985   5.194   3.439  0.00  0.00     0.003 A 
ENDROOT
BRANCH   1   7
ATOM      7  C1' I4B d   1       4.987   4.432   1.266  0.00  0.00     0.060 C 
BRANCH   7   8
ATOM      8  C2' I4B d   1       3.667   4.639   0.553  0.00  0.00    -0.013 C 
ATOM      9  C4' I4B d   1       3.094   5.999   0.851  0.00  0.00     0.013 C 
ATOM     10  C3' I4B d   1       3.902   4.461  -0.917  0.00  0.00     0.013 C 
ENDBRANCH   7   8
ENDBRANCH   1   7
TORSDOF 2
ENDMDL
