MODEL 1
REMARK minimizedAffinity 6.22935581
REMARK minimizedRMSD -1
REMARK  2 active torsions:
REMARK  status: ('A' for Active; 'I' for Inactive)
REMARK    1  A    between atoms: C2'_3  and  C1'_4 
REMARK    2  A    between atoms: C1'_4  and  C1_5 
ROOT
ATOM      1  C1  I4B d   1      -3.661  -0.560   1.192  0.00  0.00    -0.075 A 
ATOM      2  C2  I4B d   1      -3.357  -0.303  -0.122  0.00  0.00     0.003 A 
ATOM      3  C3  I4B d   1      -4.385  -0.248  -1.094  0.00  0.00     0.002 A 
ATOM      4  C4  I4B d   1      -5.689  -0.505  -0.720  0.00  0.00    -0.004 A 
ATOM      5  C5  I4B d   1      -5.998  -0.743   0.616  0.00  0.00     0.002 A 
ATOM      6  C6  I4B d   1      -4.980  -0.759   1.580  0.00  0.00     0.003 A 
ENDROOT
BRANCH   1   7
ATOM      7  C1' I4B d   1      -2.547  -0.643   2.186  0.00  0.00     0.060 C 
BRANCH   7   8
ATOM      8  C2' I4B d   1      -2.770   0.434   3.228  0.00  0.00    -0.013 C 
ATOM      9  C4' I4B d   1      -2.983  -0.164   4.594  0.00  0.00     0.013 C 
ATOM     10  C3' I4B d   1      -1.579   1.344   3.215  0.00  0.00     0.013 C 
ENDBRANCH   7   8
ENDBRANCH   1   7
TORSDOF 2
ENDMDL
