MODEL 1
REMARK minimizedAffinity 11.480485
REMARK minimizedRMSD -1
REMARK  2 active torsions:
REMARK  status: ('A' for Active; 'I' for Inactive)
REMARK    1  A    between atoms: C2'_3  and  C1'_4 
REMARK    2  A    between atoms: C1'_4  and  C1_5 
ROOT
ATOM      1  C1  I4B d   1      -0.829   0.593  -1.999  0.00  0.00    -0.075 A 
ATOM      2  C2  I4B d   1      -1.209  -0.442  -1.181  0.00  0.00     0.003 A 
ATOM      3  C3  I4B d   1      -2.348  -0.313  -0.350  0.00  0.00     0.002 A 
ATOM      4  C4  I4B d   1      -3.044   0.879  -0.331  0.00  0.00    -0.004 A 
ATOM      5  C5  I4B d   1      -2.671   1.919  -1.177  0.00  0.00     0.002 A 
ATOM      6  C6  I4B d   1      -1.564   1.771  -2.026  0.00  0.00     0.003 A 
ENDROOT
BRANCH   1   7
ATOM      7  C1' I4B d   1       0.399   0.435  -2.839  0.00  0.00     0.060 C 
BRANCH   7   8
ATOM      8  C2' I4B d   1       1.332  -0.522  -2.126  0.00  0.00    -0.013 C 
ATOM      9  C4' I4B d   1       1.251  -1.905  -2.718  0.00  0.00     0.013 C 
ATOM     10  C3' I4B d   1       2.723   0.029  -2.225  0.00  0.00     0.013 C 
ENDBRANCH   7   8
ENDBRANCH   1   7
TORSDOF 2
ENDMDL
