MODEL 1
REMARK minimizedAffinity 9.96028519
REMARK minimizedRMSD -1
REMARK  2 active torsions:
REMARK  status: ('A' for Active; 'I' for Inactive)
REMARK    1  A    between atoms: C2'_3  and  C1'_4 
REMARK    2  A    between atoms: C1'_4  and  C1_5 
ROOT
ATOM      1  C1  I4B d   1      -3.032   0.060   2.917  0.00  0.00    -0.075 A 
ATOM      2  C2  I4B d   1      -4.342  -0.092   2.536  0.00  0.00     0.003 A 
ATOM      3  C3  I4B d   1      -5.358  -0.228   3.513  0.00  0.00     0.002 A 
ATOM      4  C4  I4B d   1      -5.015  -0.258   4.850  0.00  0.00    -0.004 A 
ATOM      5  C5  I4B d   1      -3.689  -0.081   5.235  0.00  0.00     0.002 A 
ATOM      6  C6  I4B d   1      -2.693   0.091   4.263  0.00  0.00     0.003 A 
ENDROOT
BRANCH   1   7
ATOM      7  C1' I4B d   1      -1.982   0.168   1.858  0.00  0.00     0.060 C 
BRANCH   7   8
ATOM      8  C2' I4B d   1      -2.597  -0.269   0.544  0.00  0.00    -0.013 C 
ATOM      9  C4' I4B d   1      -1.772   0.198  -0.626  0.00  0.00     0.013 C 
ATOM     10  C3' I4B d   1      -2.713  -1.764   0.561  0.00  0.00     0.013 C 
ENDBRANCH   7   8
ENDBRANCH   1   7
TORSDOF 2
ENDMDL
