MODEL 1
REMARK minimizedAffinity 5.60867071
REMARK minimizedRMSD -1
REMARK  2 active torsions:
REMARK  status: ('A' for Active; 'I' for Inactive)
REMARK    1  A    between atoms: C2'_3  and  C1'_4 
REMARK    2  A    between atoms: C1'_4  and  C1_5 
ROOT
ATOM      1  C1  I4B d   1      -4.688   0.849   3.377  0.00  0.00    -0.075 A 
ATOM      2  C2  I4B d   1      -4.669   0.542   4.715  0.00  0.00     0.003 A 
ATOM      3  C3  I4B d   1      -5.309  -0.630   5.187  0.00  0.00     0.002 A 
ATOM      4  C4  I4B d   1      -5.994  -1.434   4.299  0.00  0.00    -0.004 A 
ATOM      5  C5  I4B d   1      -5.993  -1.134   2.940  0.00  0.00     0.002 A 
ATOM      6  C6  I4B d   1      -5.325   0.008   2.474  0.00  0.00     0.003 A 
ENDROOT
BRANCH   1   7
ATOM      7  C1' I4B d   1      -4.030   2.112   2.918  0.00  0.00     0.060 C 
BRANCH   7   8
ATOM      8  C2' I4B d   1      -2.535   1.868   2.869  0.00  0.00    -0.013 C 
ATOM      9  C4' I4B d   1      -1.834   2.544   4.017  0.00  0.00     0.013 C 
ATOM     10  C3' I4B d   1      -2.307   0.386   2.893  0.00  0.00     0.013 C 
ENDBRANCH   7   8
ENDBRANCH   1   7
TORSDOF 2
ENDMDL
