MODEL 1
REMARK minimizedAffinity -4.68709898
REMARK minimizedRMSD -1
REMARK  0 active torsions:
REMARK  status: ('A' for Active; 'I' for Inactive)
ROOT
ATOM      1  C1  BNZ d   1       0.423  -3.047   0.332  0.00  0.00     0.000 A 
ATOM      2  C2  BNZ d   1      -0.066  -1.846   0.772  0.00  0.00     0.000 A 
ATOM      3  C3  BNZ d   1       0.689  -0.710   0.689  0.00  0.00     0.000 A 
ATOM      4  C4  BNZ d   1       1.945  -0.782   0.204  0.00  0.00     0.000 A 
ATOM      5  C5  BNZ d   1       2.456  -1.988  -0.235  0.00  0.00     0.000 A 
ATOM      6  C6  BNZ d   1       1.679  -3.122  -0.186  0.00  0.00     0.000 A 
ENDROOT
TORSDOF 0
ENDMDL
