MODEL 1
REMARK minimizedAffinity -3.2106142
REMARK minimizedRMSD -1
REMARK  0 active torsions:
REMARK  status: ('A' for Active; 'I' for Inactive)
ROOT
ATOM      1  C1  BNZ d   1       2.973  -2.044   0.258  0.00  0.00     0.000 A 
ATOM      2  C2  BNZ d   1       2.060  -1.106   0.659  0.00  0.00     0.000 A 
ATOM      3  C3  BNZ d   1       0.727  -1.405   0.716  0.00  0.00     0.000 A 
ATOM      4  C4  BNZ d   1       0.306  -2.628   0.335  0.00  0.00     0.000 A 
ATOM      5  C5  BNZ d   1       1.213  -3.582  -0.080  0.00  0.00     0.000 A 
ATOM      6  C6  BNZ d   1       2.557  -3.290  -0.099  0.00  0.00     0.000 A 
ENDROOT
TORSDOF 0
ENDMDL
