MODEL 1
REMARK minimizedAffinity -4.14020729
REMARK minimizedRMSD -1
REMARK  0 active torsions:
REMARK  status: ('A' for Active; 'I' for Inactive)
ROOT
ATOM      1  C1  BNZ d   1       1.225  -3.069   0.398  0.00  0.00     0.000 A 
ATOM      2  C2  BNZ d   1       0.417  -2.055   0.838  0.00  0.00     0.000 A 
ATOM      3  C3  BNZ d   1       0.723  -0.750   0.571  0.00  0.00     0.000 A 
ATOM      4  C4  BNZ d   1       1.856  -0.458  -0.099  0.00  0.00     0.000 A 
ATOM      5  C5  BNZ d   1       2.687  -1.469  -0.541  0.00  0.00     0.000 A 
ATOM      6  C6  BNZ d   1       2.355  -2.784  -0.305  0.00  0.00     0.000 A 
ENDROOT
TORSDOF 0
ENDMDL
