MODEL 1
REMARK minimizedAffinity -3.12389088
REMARK minimizedRMSD -1
REMARK  0 active torsions:
REMARK  status: ('A' for Active; 'I' for Inactive)
ROOT
ATOM      1  C1  BNZ d   1       3.877  -2.321   0.271  0.00  0.00     0.000 A 
ATOM      2  C2  BNZ d   1       2.734  -1.774   0.790  0.00  0.00     0.000 A 
ATOM      3  C3  BNZ d   1       1.522  -2.377   0.601  0.00  0.00     0.000 A 
ATOM      4  C4  BNZ d   1       1.449  -3.502  -0.138  0.00  0.00     0.000 A 
ATOM      5  C5  BNZ d   1       2.591  -4.061  -0.676  0.00  0.00     0.000 A 
ATOM      6  C6  BNZ d   1       3.815  -3.473  -0.452  0.00  0.00     0.000 A 
ENDROOT
TORSDOF 0
ENDMDL
