MODEL 1
REMARK minimizedAffinity -1.59797966
REMARK minimizedRMSD -1
REMARK  0 active torsions:
REMARK  status: ('A' for Active; 'I' for Inactive)
ROOT
ATOM      1  C1  BNZ d   1      -3.346   1.882   1.073  0.00  0.00     0.000 A 
ATOM      2  C2  BNZ d   1      -2.269   1.791   1.914  0.00  0.00     0.000 A 
ATOM      3  C3  BNZ d   1      -1.564   0.625   2.024  0.00  0.00     0.000 A 
ATOM      4  C4  BNZ d   1      -1.961  -0.459   1.326  0.00  0.00     0.000 A 
ATOM      5  C5  BNZ d   1      -3.050  -0.385   0.481  0.00  0.00     0.000 A 
ATOM      6  C6  BNZ d   1      -3.734   0.801   0.343  0.00  0.00     0.000 A 
ENDROOT
TORSDOF 0
ENDMDL
