MODEL 1
REMARK minimizedAffinity -5.66336107
REMARK minimizedRMSD -1
REMARK  0 active torsions:
REMARK  status: ('A' for Active; 'I' for Inactive)
ROOT
ATOM      1  C1  BNZ d   1      -0.220  -3.093   0.888  0.00  0.00     0.000 A 
ATOM      2  C2  BNZ d   1      -0.585  -1.778   0.998  0.00  0.00     0.000 A 
ATOM      3  C3  BNZ d   1       0.240  -0.783   0.552  0.00  0.00     0.000 A 
ATOM      4  C4  BNZ d   1       1.443  -1.102   0.033  0.00  0.00     0.000 A 
ATOM      5  C5  BNZ d   1       1.829  -2.424  -0.076  0.00  0.00     0.000 A 
ATOM      6  C6  BNZ d   1       0.980  -3.424   0.338  0.00  0.00     0.000 A 
ENDROOT
TORSDOF 0
ENDMDL
