MODEL 1
REMARK minimizedAffinity -1.47767997
REMARK minimizedRMSD -1
REMARK  0 active torsions:
REMARK  status: ('A' for Active; 'I' for Inactive)
ROOT
ATOM      1  C1  BNZ d   1      -0.173  -2.373  -0.271  0.00  0.00     0.000 A 
ATOM      2  C2  BNZ d   1      -0.721  -1.635   0.744  0.00  0.00     0.000 A 
ATOM      3  C3  BNZ d   1       0.014  -0.683   1.394  0.00  0.00     0.000 A 
ATOM      4  C4  BNZ d   1       1.307  -0.499   1.056  0.00  0.00     0.000 A 
ATOM      5  C5  BNZ d   1       1.877  -1.242   0.042  0.00  0.00     0.000 A 
ATOM      6  C6  BNZ d   1       1.123  -2.172  -0.637  0.00  0.00     0.000 A 
ENDROOT
TORSDOF 0
ENDMDL
