MODEL 1
REMARK minimizedAffinity 0.904673755
REMARK minimizedRMSD -1
REMARK  0 active torsions:
REMARK  status: ('A' for Active; 'I' for Inactive)
ROOT
ATOM      1  C1  BNZ d   1       3.955  -2.485   0.164  0.00  0.00     0.000 A 
ATOM      2  C2  BNZ d   1       2.766  -1.840   0.377  0.00  0.00     0.000 A 
ATOM      3  C3  BNZ d   1       1.582  -2.523   0.339  0.00  0.00     0.000 A 
ATOM      4  C4  BNZ d   1       1.586  -3.840   0.049  0.00  0.00     0.000 A 
ATOM      5  C5  BNZ d   1       2.776  -4.503  -0.177  0.00  0.00     0.000 A 
ATOM      6  C6  BNZ d   1       3.968  -3.820  -0.100  0.00  0.00     0.000 A 
ENDROOT
TORSDOF 0
ENDMDL
