MODEL 1
REMARK minimizedAffinity 6.73037291
REMARK minimizedRMSD -1
REMARK  0 active torsions:
REMARK  status: ('A' for Active; 'I' for Inactive)
ROOT
ATOM      1  C1  BNZ d   1       4.586   0.037  -2.275  0.00  0.00     0.000 A 
ATOM      2  C2  BNZ d   1       3.403   0.507  -1.769  0.00  0.00     0.000 A 
ATOM      3  C3  BNZ d   1       2.369   0.838  -2.600  0.00  0.00     0.000 A 
ATOM      4  C4  BNZ d   1       2.533   0.737  -3.935  0.00  0.00     0.000 A 
ATOM      5  C5  BNZ d   1       3.723   0.274  -4.460  0.00  0.00     0.000 A 
ATOM      6  C6  BNZ d   1       4.747  -0.096  -3.619  0.00  0.00     0.000 A 
ENDROOT
TORSDOF 0
ENDMDL
