MODEL 1
REMARK minimizedAffinity -2.98887491
REMARK minimizedRMSD -1
REMARK  0 active torsions:
REMARK  status: ('A' for Active; 'I' for Inactive)
ROOT
ATOM      1  C1  BNZ d   1       1.383  -2.569  -0.163  0.00  0.00     0.000 A 
ATOM      2  C2  BNZ d   1       0.056  -2.726   0.134  0.00  0.00     0.000 A 
ATOM      3  C3  BNZ d   1      -0.642  -1.735   0.766  0.00  0.00     0.000 A 
ATOM      4  C4  BNZ d   1      -0.003  -0.606   1.135  0.00  0.00     0.000 A 
ATOM      5  C5  BNZ d   1       1.337  -0.437   0.851  0.00  0.00     0.000 A 
ATOM      6  C6  BNZ d   1       2.027  -1.420   0.180  0.00  0.00     0.000 A 
ENDROOT
TORSDOF 0
ENDMDL
