MODEL 1
REMARK minimizedAffinity -2.59838247
REMARK minimizedRMSD -1
REMARK  0 active torsions:
REMARK  status: ('A' for Active; 'I' for Inactive)
ROOT
ATOM      1  C1  BNZ d   1       2.550  -2.175  -0.028  0.00  0.00     0.000 A 
ATOM      2  C2  BNZ d   1       1.245  -2.587  -0.064  0.00  0.00     0.000 A 
ATOM      3  C3  BNZ d   1       0.289  -1.951   0.678  0.00  0.00     0.000 A 
ATOM      4  C4  BNZ d   1       0.646  -0.930   1.484  0.00  0.00     0.000 A 
ATOM      5  C5  BNZ d   1       1.959  -0.509   1.539  0.00  0.00     0.000 A 
ATOM      6  C6  BNZ d   1       2.912  -1.127   0.761  0.00  0.00     0.000 A 
ENDROOT
TORSDOF 0
ENDMDL
