MODEL 1
REMARK minimizedAffinity -1.06616616
REMARK minimizedRMSD -1
REMARK  0 active torsions:
REMARK  status: ('A' for Active; 'I' for Inactive)
ROOT
ATOM      1  C1  BNZ d   1       3.926  -3.537   0.068  0.00  0.00     0.000 A 
ATOM      2  C2  BNZ d   1       2.872  -4.411   0.054  0.00  0.00     0.000 A 
ATOM      3  C3  BNZ d   1       1.610  -3.991   0.367  0.00  0.00     0.000 A 
ATOM      4  C4  BNZ d   1       1.410  -2.708   0.733  0.00  0.00     0.000 A 
ATOM      5  C5  BNZ d   1       2.464  -1.817   0.761  0.00  0.00     0.000 A 
ATOM      6  C6  BNZ d   1       3.727  -2.235   0.407  0.00  0.00     0.000 A 
ENDROOT
TORSDOF 0
ENDMDL
