MODEL 1
REMARK minimizedAffinity 0.522879064
REMARK minimizedRMSD -1
REMARK  1 active torsions:
REMARK  status: ('A' for Active; 'I' for Inactive)
REMARK    1  A    between atoms: N_2  and  C1_3 
ROOT
ATOM      1  C1  UNL d   1       0.734  -0.820  -0.082  0.00  0.00     0.143 A 
ATOM      2  C2  UNL d   1       1.149   0.361   0.541  0.00  0.00    -0.057 A 
ATOM      3  C3  UNL d   1       0.339   1.503   0.547  0.00  0.00     0.033 A 
ATOM      4  C4  UNL d   1      -0.893   1.492  -0.098  0.00  0.00    -0.042 A 
ATOM      5  C5  UNL d   1      -1.316   0.336  -0.745  0.00  0.00     0.033 A 
ATOM      6  C6  UNL d   1      -0.505  -0.803  -0.742  0.00  0.00    -0.057 A 
ENDROOT
BRANCH   1   7
ATOM      7  N   UNL d   1       1.535  -1.958  -0.207  0.00  0.00    -0.732 N 
ATOM      8  C   UNL d   1       2.676  -1.961  -1.097  0.00  0.00     0.284 C 
ATOM      9  H3  UNL d   1       1.704  -2.414   0.687  0.00  0.00     0.395 HD
ENDBRANCH   1   7
TORSDOF 1
ENDMDL
