MODEL 1
REMARK minimizedAffinity -4.4274478
REMARK minimizedRMSD -1
REMARK  1 active torsions:
REMARK  status: ('A' for Active; 'I' for Inactive)
REMARK    1  A    between atoms: N_2  and  C1_3 
ROOT
ATOM      1  C1  UNL d   1       1.045   0.221  -0.214  0.00  0.00     0.143 A 
ATOM      2  C2  UNL d   1       2.054   1.123   0.142  0.00  0.00    -0.057 A 
ATOM      3  C3  UNL d   1       3.304   0.676   0.586  0.00  0.00     0.033 A 
ATOM      4  C4  UNL d   1       3.559  -0.686   0.710  0.00  0.00    -0.042 A 
ATOM      5  C5  UNL d   1       2.562  -1.600   0.386  0.00  0.00     0.033 A 
ATOM      6  C6  UNL d   1       1.318  -1.147  -0.063  0.00  0.00    -0.057 A 
ENDROOT
BRANCH   1   7
ATOM      7  N   UNL d   1      -0.251   0.604  -0.568  0.00  0.00    -0.732 N 
ATOM      8  C   UNL d   1      -1.348   0.441   0.363  0.00  0.00     0.284 C 
ATOM      9  H3  UNL d   1      -0.270   1.481  -1.083  0.00  0.00     0.395 HD
ENDBRANCH   1   7
TORSDOF 1
ENDMDL
