MODEL 1
REMARK minimizedAffinity -5.06582355
REMARK minimizedRMSD -1
REMARK  1 active torsions:
REMARK  status: ('A' for Active; 'I' for Inactive)
REMARK    1  A    between atoms: N_2  and  C1_3 
ROOT
ATOM      1  C1  UNL d   1       0.977  -0.659   0.024  0.00  0.00     0.143 A 
ATOM      2  C2  UNL d   1       2.341  -0.783   0.310  0.00  0.00    -0.057 A 
ATOM      3  C3  UNL d   1       3.171   0.342   0.393  0.00  0.00     0.033 A 
ATOM      4  C4  UNL d   1       2.654   1.613   0.161  0.00  0.00    -0.042 A 
ATOM      5  C5  UNL d   1       1.307   1.757  -0.149  0.00  0.00     0.033 A 
ATOM      6  C6  UNL d   1       0.482   0.631  -0.224  0.00  0.00    -0.057 A 
ENDROOT
BRANCH   1   7
ATOM      7  N   UNL d   1       0.121  -1.746  -0.169  0.00  0.00    -0.732 N 
ATOM      8  C   UNL d   1       0.093  -2.447  -1.435  0.00  0.00     0.284 C 
ATOM      9  H3  UNL d   1       0.078  -2.356   0.644  0.00  0.00     0.395 HD
ENDBRANCH   1   7
TORSDOF 1
ENDMDL
