MODEL 1
REMARK minimizedAffinity -3.44208407
REMARK minimizedRMSD -1
REMARK  1 active torsions:
REMARK  status: ('A' for Active; 'I' for Inactive)
REMARK    1  A    between atoms: N_2  and  C1_3 
ROOT
ATOM      1  C1  UNL d   1      -0.514  -0.045  -0.018  0.00  0.00     0.143 A 
ATOM      2  C2  UNL d   1      -0.553  -1.224  -0.770  0.00  0.00    -0.057 A 
ATOM      3  C3  UNL d   1       0.524  -2.119  -0.771  0.00  0.00     0.033 A 
ATOM      4  C4  UNL d   1       1.673  -1.836  -0.041  0.00  0.00    -0.042 A 
ATOM      5  C5  UNL d   1       1.743  -0.658   0.694  0.00  0.00     0.033 A 
ATOM      6  C6  UNL d   1       0.663   0.230   0.696  0.00  0.00    -0.057 A 
ENDROOT
BRANCH   1   7
ATOM      7  N   UNL d   1      -1.511   0.933  -0.053  0.00  0.00    -0.732 N 
ATOM      8  C   UNL d   1      -2.909   0.562  -0.002  0.00  0.00     0.284 C 
ATOM      9  H3  UNL d   1      -1.277   1.748   0.509  0.00  0.00     0.395 HD
ENDBRANCH   1   7
TORSDOF 1
ENDMDL
