MODEL 1
REMARK minimizedAffinity -2.92689943
REMARK minimizedRMSD -1
REMARK  1 active torsions:
REMARK  status: ('A' for Active; 'I' for Inactive)
REMARK    1  A    between atoms: N_2  and  C1_3 
ROOT
ATOM      1  C1  UNL d   1       0.311  -0.286  -0.307  0.00  0.00     0.143 A 
ATOM      2  C2  UNL d   1       0.430  -1.428  -1.107  0.00  0.00    -0.057 A 
ATOM      3  C3  UNL d   1       1.314  -2.461  -0.772  0.00  0.00     0.033 A 
ATOM      4  C4  UNL d   1       2.120  -2.356   0.357  0.00  0.00    -0.042 A 
ATOM      5  C5  UNL d   1       2.037  -1.218   1.153  0.00  0.00     0.033 A 
ATOM      6  C6  UNL d   1       1.147  -0.194   0.817  0.00  0.00    -0.057 A 
ENDROOT
BRANCH   1   7
ATOM      7  N   UNL d   1      -0.477   0.818  -0.640  0.00  0.00    -0.732 N 
ATOM      8  C   UNL d   1       0.060   2.159  -0.559  0.00  0.00     0.284 C 
ATOM      9  H3  UNL d   1      -1.054   0.650  -1.461  0.00  0.00     0.395 HD
ENDBRANCH   1   7
TORSDOF 1
ENDMDL
