MODEL 1
REMARK minimizedAffinity -4.70713377
REMARK minimizedRMSD -1
REMARK  1 active torsions:
REMARK  status: ('A' for Active; 'I' for Inactive)
REMARK    1  A    between atoms: N_2  and  C1_3 
ROOT
ATOM      1  C1  UNL d   1       0.337  -0.114  -0.081  0.00  0.00     0.143 A 
ATOM      2  C2  UNL d   1       0.687  -1.329  -0.680  0.00  0.00    -0.057 A 
ATOM      3  C3  UNL d   1       1.758  -2.093  -0.200  0.00  0.00     0.033 A 
ATOM      4  C4  UNL d   1       2.517  -1.640   0.874  0.00  0.00    -0.042 A 
ATOM      5  C5  UNL d   1       2.202  -0.423   1.469  0.00  0.00     0.033 A 
ATOM      6  C6  UNL d   1       1.128   0.332   0.989  0.00  0.00    -0.057 A 
ENDROOT
BRANCH   1   7
ATOM      7  N   UNL d   1      -0.654   0.739  -0.574  0.00  0.00    -0.732 N 
ATOM      8  C   UNL d   1      -1.986   0.727  -0.007  0.00  0.00     0.284 C 
ATOM      9  H3  UNL d   1      -0.298   1.669  -0.781  0.00  0.00     0.395 HD
ENDBRANCH   1   7
TORSDOF 1
ENDMDL
