MODEL 1
REMARK minimizedAffinity -3.75680137
REMARK minimizedRMSD -1
REMARK  1 active torsions:
REMARK  status: ('A' for Active; 'I' for Inactive)
REMARK    1  A    between atoms: N_2  and  C1_3 
ROOT
ATOM      1  C1  UNL d   1      -0.165   0.030  -0.150  0.00  0.00     0.143 A 
ATOM      2  C2  UNL d   1       0.069  -0.977  -1.092  0.00  0.00    -0.057 A 
ATOM      3  C3  UNL d   1       1.146  -1.862  -0.957  0.00  0.00     0.033 A 
ATOM      4  C4  UNL d   1       2.029  -1.735   0.110  0.00  0.00    -0.042 A 
ATOM      5  C5  UNL d   1       1.830  -0.725   1.045  0.00  0.00     0.033 A 
ATOM      6  C6  UNL d   1       0.749   0.151   0.909  0.00  0.00    -0.057 A 
ENDROOT
BRANCH   1   7
ATOM      7  N   UNL d   1      -1.160   1.002  -0.281  0.00  0.00    -0.732 N 
ATOM      8  C   UNL d   1      -2.271   1.048   0.645  0.00  0.00     0.284 C 
ATOM      9  H3  UNL d   1      -0.782   1.915  -0.524  0.00  0.00     0.395 HD
ENDBRANCH   1   7
TORSDOF 1
ENDMDL
