MODEL 1
REMARK minimizedAffinity -4.14026594
REMARK minimizedRMSD -1
REMARK  1 active torsions:
REMARK  status: ('A' for Active; 'I' for Inactive)
REMARK    1  A    between atoms: N_2  and  C1_3 
ROOT
ATOM      1  C1  UNL d   1       1.350  -0.916  -0.221  0.00  0.00     0.143 A 
ATOM      2  C2  UNL d   1       0.022  -1.167  -0.584  0.00  0.00    -0.057 A 
ATOM      3  C3  UNL d   1      -0.896  -0.122  -0.746  0.00  0.00     0.033 A 
ATOM      4  C4  UNL d   1      -0.508   1.194  -0.520  0.00  0.00    -0.042 A 
ATOM      5  C5  UNL d   1       0.800   1.465  -0.135  0.00  0.00     0.033 A 
ATOM      6  C6  UNL d   1       1.714   0.418   0.019  0.00  0.00    -0.057 A 
ENDROOT
BRANCH   1   7
ATOM      7  N   UNL d   1       2.284  -1.919   0.052  0.00  0.00    -0.732 N 
ATOM      8  C   UNL d   1       3.535  -1.602   0.707  0.00  0.00     0.284 C 
ATOM      9  H3  UNL d   1       1.848  -2.777   0.381  0.00  0.00     0.395 HD
ENDBRANCH   1   7
TORSDOF 1
ENDMDL
