MODEL 1
REMARK minimizedAffinity -4.68842268
REMARK minimizedRMSD -1
REMARK  0 active torsions:
REMARK  status: ('A' for Active; 'I' for Inactive)
ROOT
ATOM      1  C2' OXE d   1      -0.530  -2.330  -0.564  0.00  0.00     0.078 C 
ATOM      2  C1' OXE d   1      -1.286   0.331  -0.088  0.00  0.00     0.078 C 
ATOM      3  C1  OXE d   1       0.151   0.064  -0.461  0.00  0.00    -0.078 A 
ATOM      4  C2  OXE d   1       0.523  -1.246  -0.647  0.00  0.00    -0.078 A 
ATOM      5  C3  OXE d   1       1.823  -1.543  -1.046  0.00  0.00     0.003 A 
ATOM      6  C4  OXE d   1       2.793  -0.535  -1.110  0.00  0.00    -0.002 A 
ATOM      7  C5  OXE d   1       2.444   0.801  -0.886  0.00  0.00    -0.002 A 
ATOM      8  C6  OXE d   1       1.121   1.122  -0.603  0.00  0.00     0.003 A 
ENDROOT
TORSDOF 0
ENDMDL
