MODEL 1
REMARK minimizedAffinity 2.1798861
REMARK minimizedRMSD -1
REMARK  0 active torsions:
REMARK  status: ('A' for Active; 'I' for Inactive)
ROOT
ATOM      1  C2' OXE d   1       2.546  -0.523  -2.302  0.00  0.00     0.078 C 
ATOM      2  C1' OXE d   1       0.696   1.432  -1.504  0.00  0.00     0.078 C 
ATOM      3  C1  OXE d   1       0.642   0.090  -0.817  0.00  0.00    -0.078 A 
ATOM      4  C2  OXE d   1       1.520  -0.876  -1.246  0.00  0.00    -0.078 A 
ATOM      5  C3  OXE d   1       1.549  -2.113  -0.609  0.00  0.00     0.003 A 
ATOM      6  C4  OXE d   1       0.591  -2.434   0.360  0.00  0.00    -0.002 A 
ATOM      7  C5  OXE d   1      -0.338  -1.478   0.784  0.00  0.00    -0.002 A 
ATOM      8  C6  OXE d   1      -0.299  -0.200   0.237  0.00  0.00     0.003 A 
ENDROOT
TORSDOF 0
ENDMDL
