MODEL 1
REMARK minimizedAffinity -2.75926423
REMARK minimizedRMSD -1
REMARK  0 active torsions:
REMARK  status: ('A' for Active; 'I' for Inactive)
ROOT
ATOM      1  C2' OXE d   1      -0.402  -2.450   0.127  0.00  0.00     0.078 C 
ATOM      2  C1' OXE d   1      -0.747   0.314   0.483  0.00  0.00     0.078 C 
ATOM      3  C1  OXE d   1       0.511  -0.156  -0.206  0.00  0.00    -0.078 A 
ATOM      4  C2  OXE d   1       0.693  -1.512  -0.334  0.00  0.00    -0.078 A 
ATOM      5  C3  OXE d   1       1.809  -1.996  -1.009  0.00  0.00     0.003 A 
ATOM      6  C4  OXE d   1       2.822  -1.123  -1.424  0.00  0.00    -0.002 A 
ATOM      7  C5  OXE d   1       2.675   0.260  -1.267  0.00  0.00    -0.002 A 
ATOM      8  C6  OXE d   1       1.508   0.761  -0.700  0.00  0.00     0.003 A 
ENDROOT
TORSDOF 0
ENDMDL
