MODEL 1
REMARK minimizedAffinity -4.90557909
REMARK minimizedRMSD -1
REMARK  0 active torsions:
REMARK  status: ('A' for Active; 'I' for Inactive)
ROOT
ATOM      1  C2' OXE d   1       0.992  -2.434   0.022  0.00  0.00     0.078 C 
ATOM      2  C1' OXE d   1       2.968  -0.719  -0.994  0.00  0.00     0.078 C 
ATOM      3  C1  OXE d   1       1.595  -0.144  -0.754  0.00  0.00    -0.078 A 
ATOM      4  C2  OXE d   1       0.621  -1.002  -0.300  0.00  0.00    -0.078 A 
ATOM      5  C3  OXE d   1      -0.649  -0.511  -0.010  0.00  0.00     0.003 A 
ATOM      6  C4  OXE d   1      -0.986   0.812  -0.321  0.00  0.00    -0.002 A 
ATOM      7  C5  OXE d   1      -0.020   1.692  -0.821  0.00  0.00    -0.002 A 
ATOM      8  C6  OXE d   1       1.283   1.241  -1.002  0.00  0.00     0.003 A 
ENDROOT
TORSDOF 0
ENDMDL
