MODEL 1
REMARK minimizedAffinity -4.97426128
REMARK minimizedRMSD -1
REMARK  0 active torsions:
REMARK  status: ('A' for Active; 'I' for Inactive)
ROOT
ATOM      1  C2' OXE d   1       0.735  -2.019   1.100  0.00  0.00     0.078 C 
ATOM      2  C1' OXE d   1      -0.697   0.396   1.102  0.00  0.00     0.078 C 
ATOM      3  C1  OXE d   1       0.471   0.272   0.157  0.00  0.00    -0.078 A 
ATOM      4  C2  OXE d   1       1.195  -0.896   0.195  0.00  0.00    -0.078 A 
ATOM      5  C3  OXE d   1       2.249  -1.083  -0.694  0.00  0.00     0.003 A 
ATOM      6  C4  OXE d   1       2.674  -0.036  -1.520  0.00  0.00    -0.002 A 
ATOM      7  C5  OXE d   1       1.975   1.176  -1.547  0.00  0.00    -0.002 A 
ATOM      8  C6  OXE d   1       0.848   1.330  -0.747  0.00  0.00     0.003 A 
ENDROOT
TORSDOF 0
ENDMDL
