MODEL 1
REMARK minimizedAffinity -3.88487267
REMARK minimizedRMSD -1
REMARK  0 active torsions:
REMARK  status: ('A' for Active; 'I' for Inactive)
ROOT
ATOM      1  C2' OXE d   1      -0.323  -2.506   0.107  0.00  0.00     0.078 C 
ATOM      2  C1' OXE d   1      -1.309   0.119   0.237  0.00  0.00     0.078 C 
ATOM      3  C1  OXE d   1       0.093  -0.081  -0.281  0.00  0.00    -0.078 A 
ATOM      4  C2  OXE d   1       0.584  -1.364  -0.297  0.00  0.00    -0.078 A 
ATOM      5  C3  OXE d   1       1.852  -1.611  -0.817  0.00  0.00     0.003 A 
ATOM      6  C4  OXE d   1       2.688  -0.549  -1.179  0.00  0.00    -0.002 A 
ATOM      7  C5  OXE d   1       2.223   0.770  -1.133  0.00  0.00    -0.002 A 
ATOM      8  C6  OXE d   1       0.916   1.016  -0.727  0.00  0.00     0.003 A 
ENDROOT
TORSDOF 0
ENDMDL
