MODEL 1
REMARK minimizedAffinity -3.05745578
REMARK minimizedRMSD -1
REMARK  0 active torsions:
REMARK  status: ('A' for Active; 'I' for Inactive)
ROOT
ATOM      1  C2' OXE d   1      -0.963  -2.089  -0.609  0.00  0.00     0.078 C 
ATOM      2  C1' OXE d   1      -1.260   0.657  -0.107  0.00  0.00     0.078 C 
ATOM      3  C1  OXE d   1       0.136   0.128  -0.322  0.00  0.00    -0.078 A 
ATOM      4  C2  OXE d   1       0.276  -1.224  -0.521  0.00  0.00    -0.078 A 
ATOM      5  C3  OXE d   1       1.536  -1.756  -0.779  0.00  0.00     0.003 A 
ATOM      6  C4  OXE d   1       2.678  -0.952  -0.686  0.00  0.00    -0.002 A 
ATOM      7  C5  OXE d   1       2.561   0.421  -0.445  0.00  0.00    -0.002 A 
ATOM      8  C6  OXE d   1       1.297   0.983  -0.304  0.00  0.00     0.003 A 
ENDROOT
TORSDOF 0
ENDMDL
