MODEL 1
REMARK minimizedAffinity -4.21078062
REMARK minimizedRMSD -1
REMARK  0 active torsions:
REMARK  status: ('A' for Active; 'I' for Inactive)
ROOT
ATOM      1  C2' OXE d   1      -0.789  -1.743  -0.809  0.00  0.00     0.078 C 
ATOM      2  C1' OXE d   1      -0.664   0.757   0.462  0.00  0.00     0.078 C 
ATOM      3  C1  OXE d   1       0.626   0.157  -0.039  0.00  0.00    -0.078 A 
ATOM      4  C2  OXE d   1       0.561  -1.088  -0.619  0.00  0.00    -0.078 A 
ATOM      5  C3  OXE d   1       1.713  -1.663  -1.148  0.00  0.00     0.003 A 
ATOM      6  C4  OXE d   1       2.960  -1.055  -0.958  0.00  0.00    -0.002 A 
ATOM      7  C5  OXE d   1       3.054   0.195  -0.336  0.00  0.00    -0.002 A 
ATOM      8  C6  OXE d   1       1.894   0.832   0.091  0.00  0.00     0.003 A 
ENDROOT
TORSDOF 0
ENDMDL
