MODEL 1
REMARK minimizedAffinity -5.60204315
REMARK minimizedRMSD -1
REMARK  0 active torsions:
REMARK  status: ('A' for Active; 'I' for Inactive)
ROOT
ATOM      1  C2' OXE d   1      -0.459  -2.289  -0.411  0.00  0.00     0.078 C 
ATOM      2  C1' OXE d   1      -0.995   0.423   0.076  0.00  0.00     0.078 C 
ATOM      3  C1  OXE d   1       0.402   0.047  -0.349  0.00  0.00    -0.078 A 
ATOM      4  C2  OXE d   1       0.668  -1.287  -0.540  0.00  0.00    -0.078 A 
ATOM      5  C3  OXE d   1       1.926  -1.683  -0.986  0.00  0.00     0.003 A 
ATOM      6  C4  OXE d   1       2.965  -0.751  -1.093  0.00  0.00    -0.002 A 
ATOM      7  C5  OXE d   1       2.727   0.608  -0.865  0.00  0.00    -0.002 A 
ATOM      8  C6  OXE d   1       1.443   1.028  -0.534  0.00  0.00     0.003 A 
ENDROOT
TORSDOF 0
ENDMDL
