MODEL 1
REMARK minimizedAffinity -5.83698893
REMARK minimizedRMSD -1
REMARK  0 active torsions:
REMARK  status: ('A' for Active; 'I' for Inactive)
ROOT
ATOM      1  C2' OXE d   1       0.385  -1.895   0.412  0.00  0.00     0.078 C 
ATOM      2  C1' OXE d   1      -1.129   0.448   0.096  0.00  0.00     0.078 C 
ATOM      3  C1  OXE d   1       0.156   0.330  -0.684  0.00  0.00    -0.078 A 
ATOM      4  C2  OXE d   1       0.914  -0.799  -0.488  0.00  0.00    -0.078 A 
ATOM      5  C3  OXE d   1       2.081  -0.983  -1.224  0.00  0.00     0.003 A 
ATOM      6  C4  OXE d   1       2.568   0.040  -2.047  0.00  0.00    -0.002 A 
ATOM      7  C5  OXE d   1       1.832   1.215  -2.230  0.00  0.00    -0.002 A 
ATOM      8  C6  OXE d   1       0.605   1.358  -1.591  0.00  0.00     0.003 A 
ENDROOT
TORSDOF 0
ENDMDL
