MODEL 1
REMARK minimizedAffinity -4.65682554
REMARK minimizedRMSD -1
REMARK  0 active torsions:
REMARK  status: ('A' for Active; 'I' for Inactive)
ROOT
ATOM      1  C2' OXE d   1      -1.147   0.477  -0.262  0.00  0.00     0.078 C 
ATOM      2  C1' OXE d   1      -0.580  -2.252  -0.596  0.00  0.00     0.078 C 
ATOM      3  C1  OXE d   1       0.577  -1.284  -0.622  0.00  0.00    -0.078 A 
ATOM      4  C2  OXE d   1       0.286   0.053  -0.504  0.00  0.00    -0.078 A 
ATOM      5  C3  OXE d   1       1.320   0.984  -0.467  0.00  0.00     0.003 A 
ATOM      6  C4  OXE d   1       2.641   0.584  -0.702  0.00  0.00    -0.002 A 
ATOM      7  C5  OXE d   1       2.956  -0.769  -0.864  0.00  0.00    -0.002 A 
ATOM      8  C6  OXE d   1       1.943  -1.718  -0.784  0.00  0.00     0.003 A 
ENDROOT
TORSDOF 0
ENDMDL
