MODEL 1
REMARK minimizedAffinity -5.46397209
REMARK minimizedRMSD -1
REMARK  0 active torsions:
REMARK  status: ('A' for Active; 'I' for Inactive)
ROOT
ATOM      1  C2' OXE d   1      -0.413  -2.209  -0.298  0.00  0.00     0.078 C 
ATOM      2  C1' OXE d   1      -1.128   0.423   0.366  0.00  0.00     0.078 C 
ATOM      3  C1  OXE d   1       0.208   0.203  -0.298  0.00  0.00    -0.078 A 
ATOM      4  C2  OXE d   1       0.570  -1.092  -0.577  0.00  0.00    -0.078 A 
ATOM      5  C3  OXE d   1       1.769  -1.346  -1.238  0.00  0.00     0.003 A 
ATOM      6  C4  OXE d   1       2.676  -0.309  -1.483  0.00  0.00    -0.002 A 
ATOM      7  C5  OXE d   1       2.344   1.014  -1.171  0.00  0.00    -0.002 A 
ATOM      8  C6  OXE d   1       1.099   1.291  -0.618  0.00  0.00     0.003 A 
ENDROOT
TORSDOF 0
ENDMDL
