MODEL 1
REMARK minimizedAffinity -2.2276063
REMARK minimizedRMSD -1
REMARK  0 active torsions:
REMARK  status: ('A' for Active; 'I' for Inactive)
ROOT
ATOM      1  C2' OXE d   1      -2.881   0.778   3.424  0.00  0.00     0.078 C 
ATOM      2  C1' OXE d   1      -0.262   1.532   4.097  0.00  0.00     0.078 C 
ATOM      3  C1  OXE d   1      -0.501   0.976   2.716  0.00  0.00    -0.078 A 
ATOM      4  C2  OXE d   1      -1.777   0.566   2.411  0.00  0.00    -0.078 A 
ATOM      5  C3  OXE d   1      -2.064   0.097   1.132  0.00  0.00     0.003 A 
ATOM      6  C4  OXE d   1      -1.035  -0.105   0.204  0.00  0.00    -0.002 A 
ATOM      7  C5  OXE d   1       0.279   0.268   0.508  0.00  0.00    -0.002 A 
ATOM      8  C6  OXE d   1       0.554   0.849   1.741  0.00  0.00     0.003 A 
ENDROOT
TORSDOF 0
ENDMDL
