MODEL 1
REMARK minimizedAffinity -3.26008344
REMARK minimizedRMSD -1
REMARK  0 active torsions:
REMARK  status: ('A' for Active; 'I' for Inactive)
ROOT
ATOM      1  C2' OXE d   1       1.138  -2.591  -0.020  0.00  0.00     0.078 C 
ATOM      2  C1' OXE d   1       2.942  -0.698  -1.041  0.00  0.00     0.078 C 
ATOM      3  C1  OXE d   1       1.536  -0.241  -0.742  0.00  0.00    -0.078 A 
ATOM      4  C2  OXE d   1       0.647  -1.185  -0.287  0.00  0.00    -0.078 A 
ATOM      5  C3  OXE d   1      -0.647  -0.804   0.056  0.00  0.00     0.003 A 
ATOM      6  C4  OXE d   1      -1.096   0.497  -0.203  0.00  0.00    -0.002 A 
ATOM      7  C5  OXE d   1      -0.218   1.464  -0.704  0.00  0.00    -0.002 A 
ATOM      8  C6  OXE d   1       1.110   1.123  -0.938  0.00  0.00     0.003 A 
ENDROOT
TORSDOF 0
ENDMDL
