MODEL 1
REMARK minimizedAffinity -2.84877181
REMARK minimizedRMSD -1
REMARK  0 active torsions:
REMARK  status: ('A' for Active; 'I' for Inactive)
ROOT
ATOM      1  C2' OXE d   1      -3.335  -0.278   2.439  0.00  0.00     0.078 C 
ATOM      2  C1' OXE d   1      -1.618   1.937   2.603  0.00  0.00     0.078 C 
ATOM      3  C1  OXE d   1      -1.222   0.807   1.686  0.00  0.00    -0.078 A 
ATOM      4  C2  OXE d   1      -2.044  -0.293   1.647  0.00  0.00    -0.078 A 
ATOM      5  C3  OXE d   1      -1.754  -1.341   0.778  0.00  0.00     0.003 A 
ATOM      6  C4  OXE d   1      -0.554  -1.351   0.057  0.00  0.00    -0.002 A 
ATOM      7  C5  OXE d   1       0.317  -0.258   0.112  0.00  0.00    -0.002 A 
ATOM      8  C6  OXE d   1      -0.022   0.845   0.887  0.00  0.00     0.003 A 
ENDROOT
TORSDOF 0
ENDMDL
