MODEL 1
REMARK minimizedAffinity -5.35298395
REMARK minimizedRMSD -1
REMARK  0 active torsions:
REMARK  status: ('A' for Active; 'I' for Inactive)
ROOT
ATOM      1  C2' OXE d   1      -0.328  -2.333  -0.162  0.00  0.00     0.078 C 
ATOM      2  C1' OXE d   1      -0.902   0.380   0.276  0.00  0.00     0.078 C 
ATOM      3  C1  OXE d   1       0.447   0.031  -0.302  0.00  0.00    -0.078 A 
ATOM      4  C2  OXE d   1       0.737  -1.302  -0.469  0.00  0.00    -0.078 A 
ATOM      5  C3  OXE d   1       1.945  -1.678  -1.049  0.00  0.00     0.003 A 
ATOM      6  C4  OXE d   1       2.929  -0.719  -1.321  0.00  0.00    -0.002 A 
ATOM      7  C5  OXE d   1       2.669   0.641  -1.121  0.00  0.00    -0.002 A 
ATOM      8  C6  OXE d   1       1.421   1.035  -0.653  0.00  0.00     0.003 A 
ENDROOT
TORSDOF 0
ENDMDL
