MODEL 1
REMARK minimizedAffinity -2.12948489
REMARK minimizedRMSD -1
REMARK  0 active torsions:
REMARK  status: ('A' for Active; 'I' for Inactive)
ROOT
ATOM      1  C2' OXE d   1       0.687  -2.232   0.551  0.00  0.00     0.078 C 
ATOM      2  C1' OXE d   1       2.445  -1.048  -1.290  0.00  0.00     0.078 C 
ATOM      3  C1  OXE d   1       1.244  -0.248  -0.850  0.00  0.00    -0.078 A 
ATOM      4  C2  OXE d   1       0.364  -0.854   0.016  0.00  0.00    -0.078 A 
ATOM      5  C3  OXE d   1      -0.730  -0.141   0.496  0.00  0.00     0.003 A 
ATOM      6  C4  OXE d   1      -1.027   1.130  -0.012  0.00  0.00    -0.002 A 
ATOM      7  C5  OXE d   1      -0.166   1.749  -0.924  0.00  0.00    -0.002 A 
ATOM      8  C6  OXE d   1       0.994   1.092  -1.320  0.00  0.00     0.003 A 
ENDROOT
TORSDOF 0
ENDMDL
