MODEL 1
REMARK minimizedAffinity 1.46522093
REMARK minimizedRMSD -1
REMARK  3 active torsions:
REMARK  status: ('A' for Active; 'I' for Inactive)
REMARK    1  A    between atoms: C3'_2  and  C2'_3 
REMARK    2  A    between atoms: C2'_3  and  C1'_4 
REMARK    3  A    between atoms: C1'_4  and  C1_5 
ROOT
ATOM      1  C1  N4B d   1      -3.353  -3.939   1.993  0.00  0.00    -0.075 A 
ATOM      2  C2  N4B d   1      -3.633  -3.977   3.377  0.00  0.00     0.002 A 
ATOM      3  C3  N4B d   1      -4.374  -5.009   3.900  0.00  0.00     0.002 A 
ATOM      4  C4  N4B d   1      -4.858  -6.000   3.059  0.00  0.00    -0.004 A 
ATOM      5  C5  N4B d   1      -4.561  -5.970   1.728  0.00  0.00     0.002 A 
ATOM      6  C6  N4B d   1      -3.815  -4.941   1.190  0.00  0.00     0.002 A 
ENDROOT
BRANCH   1   7
ATOM      7  C1' N4B d   1      -2.621  -2.787   1.362  0.00  0.00     0.057 C 
BRANCH   7   8
ATOM      8  C2' N4B d   1      -2.603  -1.612   2.336  0.00  0.00     0.009 C 
BRANCH   8   9
ATOM      9  C3' N4B d   1      -1.743  -0.467   1.829  0.00  0.00     0.004 C 
ATOM     10  C4' N4B d   1      -2.439   0.860   1.904  0.00  0.00     0.003 C 
ENDBRANCH   8   9
ENDBRANCH   7   8
ENDBRANCH   1   7
TORSDOF 3
ENDMDL
