MODEL 1
REMARK minimizedAffinity 4.89874077
REMARK minimizedRMSD -1
REMARK  3 active torsions:
REMARK  status: ('A' for Active; 'I' for Inactive)
REMARK    1  A    between atoms: C3'_2  and  C2'_3 
REMARK    2  A    between atoms: C2'_3  and  C1'_4 
REMARK    3  A    between atoms: C1'_4  and  C1_5 
ROOT
ATOM      1  C1  N4B d   1      -3.821   0.464  -0.767  0.00  0.00    -0.075 A 
ATOM      2  C2  N4B d   1      -3.680  -0.938  -0.863  0.00  0.00     0.002 A 
ATOM      3  C3  N4B d   1      -3.209  -1.656   0.208  0.00  0.00     0.002 A 
ATOM      4  C4  N4B d   1      -2.855  -0.995   1.375  0.00  0.00    -0.004 A 
ATOM      5  C5  N4B d   1      -3.019   0.356   1.469  0.00  0.00     0.002 A 
ATOM      6  C6  N4B d   1      -3.495   1.090   0.401  0.00  0.00     0.002 A 
ENDROOT
BRANCH   1   7
ATOM      7  C1' N4B d   1      -4.251   1.301  -1.940  0.00  0.00     0.057 C 
BRANCH   7   8
ATOM      8  C2' N4B d   1      -3.151   2.307  -2.267  0.00  0.00     0.009 C 
BRANCH   8   9
ATOM      9  C3' N4B d   1      -2.697   2.201  -3.713  0.00  0.00     0.004 C 
ATOM     10  C4' N4B d   1      -1.577   3.143  -4.040  0.00  0.00     0.003 C 
ENDBRANCH   8   9
ENDBRANCH   7   8
ENDBRANCH   1   7
TORSDOF 3
ENDMDL
