MODEL 1
REMARK minimizedAffinity 3.56635475
REMARK minimizedRMSD -1
REMARK  3 active torsions:
REMARK  status: ('A' for Active; 'I' for Inactive)
REMARK    1  A    between atoms: C3'_2  and  C2'_3 
REMARK    2  A    between atoms: C2'_3  and  C1'_4 
REMARK    3  A    between atoms: C1'_4  and  C1_5 
ROOT
ATOM      1  C1  N4B d   1      -3.140   1.017  -1.741  0.00  0.00    -0.075 A 
ATOM      2  C2  N4B d   1      -2.071   1.423  -2.570  0.00  0.00     0.002 A 
ATOM      3  C3  N4B d   1      -2.255   2.430  -3.484  0.00  0.00     0.002 A 
ATOM      4  C4  N4B d   1      -3.500   3.031  -3.602  0.00  0.00    -0.004 A 
ATOM      5  C5  N4B d   1      -4.520   2.650  -2.780  0.00  0.00     0.002 A 
ATOM      6  C6  N4B d   1      -4.348   1.642  -1.853  0.00  0.00     0.002 A 
ENDROOT
BRANCH   1   7
ATOM      7  C1' N4B d   1      -3.010  -0.138  -0.786  0.00  0.00     0.057 C 
BRANCH   7   8
ATOM      8  C2' N4B d   1      -2.930   0.398   0.640  0.00  0.00     0.009 C 
BRANCH   8   9
ATOM      9  C3' N4B d   1      -1.551   0.201   1.245  0.00  0.00     0.004 C 
ATOM     10  C4' N4B d   1      -1.489  -0.970   2.180  0.00  0.00     0.003 C 
ENDBRANCH   8   9
ENDBRANCH   7   8
ENDBRANCH   1   7
TORSDOF 3
ENDMDL
