MODEL 1
REMARK minimizedAffinity 9.202425
REMARK minimizedRMSD -1
REMARK  3 active torsions:
REMARK  status: ('A' for Active; 'I' for Inactive)
REMARK    1  A    between atoms: C3'_2  and  C2'_3 
REMARK    2  A    between atoms: C2'_3  and  C1'_4 
REMARK    3  A    between atoms: C1'_4  and  C1_5 
ROOT
ATOM      1  C1  N4B d   1       2.428   0.499  -0.440  0.00  0.00    -0.075 A 
ATOM      2  C2  N4B d   1       1.727   1.078   0.641  0.00  0.00     0.002 A 
ATOM      3  C3  N4B d   1       0.450   0.664   0.932  0.00  0.00     0.002 A 
ATOM      4  C4  N4B d   1      -0.151  -0.309   0.147  0.00  0.00    -0.004 A 
ATOM      5  C5  N4B d   1       0.542  -0.881  -0.879  0.00  0.00     0.002 A 
ATOM      6  C6  N4B d   1       1.827  -0.478  -1.180  0.00  0.00     0.002 A 
ENDROOT
BRANCH   1   7
ATOM      7  C1' N4B d   1       3.793   0.978  -0.850  0.00  0.00     0.057 C 
BRANCH   7   8
ATOM      8  C2' N4B d   1       3.885   2.484  -0.620  0.00  0.00     0.009 C 
BRANCH   8   9
ATOM      9  C3' N4B d   1       4.797   3.159  -1.630  0.00  0.00     0.004 C 
ATOM     10  C4' N4B d   1       5.605   4.271  -1.031  0.00  0.00     0.003 C 
ENDBRANCH   8   9
ENDBRANCH   7   8
ENDBRANCH   1   7
TORSDOF 3
ENDMDL
