MODEL 1
REMARK minimizedAffinity -4.5945878
REMARK minimizedRMSD -1
REMARK  3 active torsions:
REMARK  status: ('A' for Active; 'I' for Inactive)
REMARK    1  A    between atoms: C3'_2  and  C2'_3 
REMARK    2  A    between atoms: C2'_3  and  C1'_4 
REMARK    3  A    between atoms: C1'_4  and  C1_5 
ROOT
ATOM      1  C1  N4B d   1       1.352  -3.162   3.349  0.00  0.00    -0.075 A 
ATOM      2  C2  N4B d   1       0.066  -3.704   3.565  0.00  0.00     0.002 A 
ATOM      3  C3  N4B d   1      -0.087  -4.812   4.361  0.00  0.00     0.002 A 
ATOM      4  C4  N4B d   1       1.029  -5.404   4.934  0.00  0.00    -0.004 A 
ATOM      5  C5  N4B d   1       2.265  -4.859   4.741  0.00  0.00     0.002 A 
ATOM      6  C6  N4B d   1       2.432  -3.743   3.946  0.00  0.00     0.002 A 
ENDROOT
BRANCH   1   7
ATOM      7  C1' N4B d   1       1.578  -2.002   2.418  0.00  0.00     0.057 C 
BRANCH   7   8
ATOM      8  C2' N4B d   1       0.439  -1.944   1.404  0.00  0.00     0.009 C 
BRANCH   8   9
ATOM      9  C3' N4B d   1       0.699  -0.917   0.315  0.00  0.00     0.004 C 
ATOM     10  C4' N4B d   1      -0.139   0.317   0.468  0.00  0.00     0.003 C 
ENDBRANCH   8   9
ENDBRANCH   7   8
ENDBRANCH   1   7
TORSDOF 3
ENDMDL
