MODEL 1
REMARK minimizedAffinity 1.71305466
REMARK minimizedRMSD -1
REMARK  3 active torsions:
REMARK  status: ('A' for Active; 'I' for Inactive)
REMARK    1  A    between atoms: C3'_2  and  C2'_3 
REMARK    2  A    between atoms: C2'_3  and  C1'_4 
REMARK    3  A    between atoms: C1'_4  and  C1_5 
ROOT
ATOM      1  C1  N4B d   1      -0.555  -1.156   0.066  0.00  0.00    -0.075 A 
ATOM      2  C2  N4B d   1       0.442  -1.664  -0.796  0.00  0.00     0.002 A 
ATOM      3  C3  N4B d   1       1.566  -0.919  -1.060  0.00  0.00     0.002 A 
ATOM      4  C4  N4B d   1       1.704   0.339  -0.492  0.00  0.00    -0.004 A 
ATOM      5  C5  N4B d   1       0.748   0.811   0.360  0.00  0.00     0.002 A 
ATOM      6  C6  N4B d   1      -0.384   0.071   0.637  0.00  0.00     0.002 A 
ENDROOT
BRANCH   1   7
ATOM      7  C1' N4B d   1      -1.840  -1.897   0.317  0.00  0.00     0.057 C 
BRANCH   7   8
ATOM      8  C2' N4B d   1      -1.643  -3.371  -0.027  0.00  0.00     0.009 C 
BRANCH   8   9
ATOM      9  C3' N4B d   1      -2.835  -4.215   0.390  0.00  0.00     0.004 C 
ATOM     10  C4' N4B d   1      -2.871  -4.479   1.866  0.00  0.00     0.003 C 
ENDBRANCH   8   9
ENDBRANCH   7   8
ENDBRANCH   1   7
TORSDOF 3
ENDMDL
