MODEL 1
REMARK minimizedAffinity 5.96326065
REMARK minimizedRMSD -1
REMARK  3 active torsions:
REMARK  status: ('A' for Active; 'I' for Inactive)
REMARK    1  A    between atoms: C3'_2  and  C2'_3 
REMARK    2  A    between atoms: C2'_3  and  C1'_4 
REMARK    3  A    between atoms: C1'_4  and  C1_5 
ROOT
ATOM      1  C1  N4B d   1      -4.004  -4.669   1.813  0.00  0.00    -0.075 A 
ATOM      2  C2  N4B d   1      -4.784  -5.350   0.853  0.00  0.00     0.002 A 
ATOM      3  C3  N4B d   1      -4.427  -5.313  -0.473  0.00  0.00     0.002 A 
ATOM      4  C4  N4B d   1      -3.310  -4.590  -0.862  0.00  0.00    -0.004 A 
ATOM      5  C5  N4B d   1      -2.547  -3.956   0.075  0.00  0.00     0.002 A 
ATOM      6  C6  N4B d   1      -2.892  -3.987   1.411  0.00  0.00     0.002 A 
ENDROOT
BRANCH   1   7
ATOM      7  C1' N4B d   1      -4.403  -4.609   3.262  0.00  0.00     0.057 C 
BRANCH   7   8
ATOM      8  C2' N4B d   1      -3.147  -4.590   4.127  0.00  0.00     0.009 C 
BRANCH   8   9
ATOM      9  C3' N4B d   1      -3.368  -5.276   5.465  0.00  0.00     0.004 C 
ATOM     10  C4' N4B d   1      -4.775  -5.137   5.963  0.00  0.00     0.003 C 
ENDBRANCH   8   9
ENDBRANCH   7   8
ENDBRANCH   1   7
TORSDOF 3
ENDMDL
