MODEL 1
REMARK minimizedAffinity 6.48906374
REMARK minimizedRMSD -1
REMARK  3 active torsions:
REMARK  status: ('A' for Active; 'I' for Inactive)
REMARK    1  A    between atoms: C3'_2  and  C2'_3 
REMARK    2  A    between atoms: C2'_3  and  C1'_4 
REMARK    3  A    between atoms: C1'_4  and  C1_5 
ROOT
ATOM      1  C1  N4B d   1       0.315  -1.580  -0.152  0.00  0.00    -0.075 A 
ATOM      2  C2  N4B d   1       1.502  -1.334  -0.875  0.00  0.00     0.002 A 
ATOM      3  C3  N4B d   1       1.865  -0.045  -1.181  0.00  0.00     0.002 A 
ATOM      4  C4  N4B d   1       1.050   1.008  -0.792  0.00  0.00    -0.004 A 
ATOM      5  C5  N4B d   1      -0.082   0.763  -0.072  0.00  0.00     0.002 A 
ATOM      6  C6  N4B d   1      -0.457  -0.527   0.246  0.00  0.00     0.002 A 
ENDROOT
BRANCH   1   7
ATOM      7  C1' N4B d   1      -0.168  -2.976   0.132  0.00  0.00     0.057 C 
BRANCH   7   8
ATOM      8  C2' N4B d   1      -1.670  -2.943   0.399  0.00  0.00     0.009 C 
BRANCH   8   9
ATOM      9  C3' N4B d   1      -2.215  -4.317   0.748  0.00  0.00     0.004 C 
ATOM     10  C4' N4B d   1      -3.402  -4.700  -0.085  0.00  0.00     0.003 C 
ENDBRANCH   8   9
ENDBRANCH   7   8
ENDBRANCH   1   7
TORSDOF 3
ENDMDL
