MODEL 1
REMARK minimizedAffinity 1.30741656
REMARK minimizedRMSD -1
REMARK  3 active torsions:
REMARK  status: ('A' for Active; 'I' for Inactive)
REMARK    1  A    between atoms: C3'_2  and  C2'_3 
REMARK    2  A    between atoms: C2'_3  and  C1'_4 
REMARK    3  A    between atoms: C1'_4  and  C1_5 
ROOT
ATOM      1  C1  N4B d   1      -0.488  -5.578  -3.767  0.00  0.00    -0.075 A 
ATOM      2  C2  N4B d   1      -0.607  -5.749  -5.164  0.00  0.00     0.002 A 
ATOM      3  C3  N4B d   1       0.376  -5.279  -6.000  0.00  0.00     0.002 A 
ATOM      4  C4  N4B d   1       1.473  -4.620  -5.466  0.00  0.00    -0.004 A 
ATOM      5  C5  N4B d   1       1.593  -4.481  -4.114  0.00  0.00     0.002 A 
ATOM      6  C6  N4B d   1       0.615  -4.953  -3.262  0.00  0.00     0.002 A 
ENDROOT
BRANCH   1   7
ATOM      7  C1' N4B d   1      -1.578  -6.000  -2.820  0.00  0.00     0.057 C 
BRANCH   7   8
ATOM      8  C2' N4B d   1      -2.912  -6.000  -3.559  0.00  0.00     0.009 C 
BRANCH   8   9
ATOM      9  C3' N4B d   1      -4.084  -5.784  -2.617  0.00  0.00     0.004 C 
ATOM     10  C4' N4B d   1      -3.758  -4.849  -1.490  0.00  0.00     0.003 C 
ENDBRANCH   8   9
ENDBRANCH   7   8
ENDBRANCH   1   7
TORSDOF 3
ENDMDL
