MODEL 1
REMARK minimizedAffinity 2.50917506
REMARK minimizedRMSD -1
REMARK  3 active torsions:
REMARK  status: ('A' for Active; 'I' for Inactive)
REMARK    1  A    between atoms: C3'_2  and  C2'_3 
REMARK    2  A    between atoms: C2'_3  and  C1'_4 
REMARK    3  A    between atoms: C1'_4  and  C1_5 
ROOT
ATOM      1  C1  N4B d   1       0.069  -5.861  -5.104  0.00  0.00    -0.075 A 
ATOM      2  C2  N4B d   1      -1.150  -5.881  -5.818  0.00  0.00     0.002 A 
ATOM      3  C3  N4B d   1      -2.343  -5.924  -5.139  0.00  0.00     0.002 A 
ATOM      4  C4  N4B d   1      -2.342  -5.966  -3.753  0.00  0.00    -0.004 A 
ATOM      5  C5  N4B d   1      -1.162  -5.921  -3.070  0.00  0.00     0.002 A 
ATOM      6  C6  N4B d   1       0.045  -5.873  -3.739  0.00  0.00     0.002 A 
ENDROOT
BRANCH   1   7
ATOM      7  C1' N4B d   1       1.400  -5.900  -5.803  0.00  0.00     0.057 C 
BRANCH   7   8
ATOM      8  C2' N4B d   1       2.219  -4.681  -5.390  0.00  0.00     0.009 C 
BRANCH   8   9
ATOM      9  C3' N4B d   1       2.781  -4.823  -3.986  0.00  0.00     0.004 C 
ATOM     10  C4' N4B d   1       3.705  -5.995  -3.846  0.00  0.00     0.003 C 
ENDBRANCH   8   9
ENDBRANCH   7   8
ENDBRANCH   1   7
TORSDOF 3
ENDMDL
