MODEL 1
REMARK minimizedAffinity -0.269518495
REMARK minimizedRMSD -1
REMARK  3 active torsions:
REMARK  status: ('A' for Active; 'I' for Inactive)
REMARK    1  A    between atoms: C3'_2  and  C2'_3 
REMARK    2  A    between atoms: C2'_3  and  C1'_4 
REMARK    3  A    between atoms: C1'_4  and  C1_5 
ROOT
ATOM      1  C1  N4B d   1      -2.206   0.980  -1.184  0.00  0.00    -0.075 A 
ATOM      2  C2  N4B d   1      -2.465  -0.405  -1.086  0.00  0.00     0.002 A 
ATOM      3  C3  N4B d   1      -2.307  -1.049   0.117  0.00  0.00     0.002 A 
ATOM      4  C4  N4B d   1      -1.874  -0.337   1.225  0.00  0.00    -0.004 A 
ATOM      5  C5  N4B d   1      -1.649   1.006   1.127  0.00  0.00     0.002 A 
ATOM      6  C6  N4B d   1      -1.808   1.667  -0.074  0.00  0.00     0.002 A 
ENDROOT
BRANCH   1   7
ATOM      7  C1' N4B d   1      -2.282   1.711  -2.497  0.00  0.00     0.057 C 
BRANCH   7   8
ATOM      8  C2' N4B d   1      -1.378   2.939  -2.439  0.00  0.00     0.009 C 
BRANCH   8   9
ATOM      9  C3' N4B d   1      -0.133   2.769  -3.292  0.00  0.00     0.004 C 
ATOM     10  C4' N4B d   1       0.290   4.041  -3.963  0.00  0.00     0.003 C 
ENDBRANCH   8   9
ENDBRANCH   7   8
ENDBRANCH   1   7
TORSDOF 3
ENDMDL
