MODEL 1
REMARK minimizedAffinity -3.74161625
REMARK minimizedRMSD -1
REMARK  0 active torsions:
REMARK  status: ('A' for Active; 'I' for Inactive)
ROOT
ATOM      1  N1  IND d   1      -1.354  -0.712  -0.175  0.00  0.00    -0.196 N 
ATOM      2  C2  IND d   1      -0.317  -0.782  -1.062  0.00  0.00     0.054 A 
ATOM      3  C3  IND d   1       0.765  -0.134  -0.574  0.00  0.00    -0.031 A 
ATOM      4  C4  IND d   1       1.086   1.025   1.703  0.00  0.00     0.051 A 
ATOM      5  C5  IND d   1       0.410   1.380   2.836  0.00  0.00    -0.031 A 
ATOM      6  C6  IND d   1      -0.915   1.047   3.029  0.00  0.00     0.015 A 
ATOM      7  C7  IND d   1      -1.613   0.333   2.096  0.00  0.00    -0.016 A 
ATOM      8  C8  IND d   1      -0.931  -0.023   0.941  0.00  0.00    -0.047 A 
ATOM      9  C9  IND d   1       0.401   0.349   0.721  0.00  0.00    -0.096 A 
ATOM     10  HN1 IND d   1      -2.139  -1.042  -0.294  0.00  0.00     0.298 HD
ENDROOT
TORSDOF 0
ENDMDL
