MODEL 1
REMARK minimizedAffinity -3.66252136
REMARK minimizedRMSD -1
REMARK  0 active torsions:
REMARK  status: ('A' for Active; 'I' for Inactive)
ROOT
ATOM      1  N1  IND d   1       0.117   0.384   2.678  0.00  0.00    -0.196 N 
ATOM      2  C2  IND d   1      -0.902   1.154   3.166  0.00  0.00     0.054 A 
ATOM      3  C3  IND d   1      -1.617   1.686   2.150  0.00  0.00    -0.031 A 
ATOM      4  C4  IND d   1      -1.356   1.346  -0.388  0.00  0.00     0.051 A 
ATOM      5  C5  IND d   1      -0.545   0.758  -1.318  0.00  0.00    -0.031 A 
ATOM      6  C6  IND d   1       0.548  -0.003  -0.956  0.00  0.00     0.015 A 
ATOM      7  C7  IND d   1       0.866  -0.214   0.355  0.00  0.00    -0.016 A 
ATOM      8  C8  IND d   1       0.049   0.388   1.302  0.00  0.00    -0.047 A 
ATOM      9  C9  IND d   1      -1.036   1.196   0.941  0.00  0.00    -0.096 A 
ATOM     10  HN1 IND d   1       0.702  -0.033   3.151  0.00  0.00     0.298 HD
ENDROOT
TORSDOF 0
ENDMDL
