MODEL 1
REMARK minimizedAffinity -4.30535746
REMARK minimizedRMSD -1
REMARK  0 active torsions:
REMARK  status: ('A' for Active; 'I' for Inactive)
ROOT
ATOM      1  N1  IND d   1       1.463  -0.998   1.283  0.00  0.00    -0.196 N 
ATOM      2  C2  IND d   1       1.673  -1.408  -0.004  0.00  0.00     0.054 A 
ATOM      3  C3  IND d   1       0.613  -1.085  -0.779  0.00  0.00    -0.031 A 
ATOM      4  C4  IND d   1      -1.528   0.206  -0.166  0.00  0.00     0.051 A 
ATOM      5  C5  IND d   1      -2.188   0.754   0.897  0.00  0.00    -0.031 A 
ATOM      6  C6  IND d   1      -1.653   0.748   2.169  0.00  0.00     0.015 A 
ATOM      7  C7  IND d   1      -0.427   0.202   2.424  0.00  0.00    -0.016 A 
ATOM      8  C8  IND d   1       0.243  -0.361   1.348  0.00  0.00    -0.047 A 
ATOM      9  C9  IND d   1      -0.313  -0.396   0.063  0.00  0.00    -0.096 A 
ATOM     10  HN1 IND d   1       2.003  -1.117   1.942  0.00  0.00     0.298 HD
ENDROOT
TORSDOF 0
ENDMDL
