MODEL 1
REMARK minimizedAffinity -5.40127659
REMARK minimizedRMSD -1
REMARK  0 active torsions:
REMARK  status: ('A' for Active; 'I' for Inactive)
ROOT
ATOM      1  N1  IND d   1       0.565   0.795  -1.685  0.00  0.00    -0.196 N 
ATOM      2  C2  IND d   1       0.987  -0.501  -1.788  0.00  0.00     0.054 A 
ATOM      3  C3  IND d   1       0.710  -1.178  -0.651  0.00  0.00    -0.031 A 
ATOM      4  C4  IND d   1      -0.523  -0.384   1.465  0.00  0.00     0.051 A 
ATOM      5  C5  IND d   1      -1.066   0.730   2.041  0.00  0.00    -0.031 A 
ATOM      6  C6  IND d   1      -1.095   1.946   1.391  0.00  0.00     0.015 A 
ATOM      7  C7  IND d   1      -0.591   2.092   0.129  0.00  0.00    -0.016 A 
ATOM      8  C8  IND d   1      -0.033   0.965  -0.456  0.00  0.00    -0.047 A 
ATOM      9  C9  IND d   1       0.038  -0.263   0.216  0.00  0.00    -0.096 A 
ATOM     10  HN1 IND d   1       0.658   1.402  -2.287  0.00  0.00     0.298 HD
ENDROOT
TORSDOF 0
ENDMDL
