MODEL 1
REMARK minimizedAffinity -3.9421401
REMARK minimizedRMSD -1
REMARK  0 active torsions:
REMARK  status: ('A' for Active; 'I' for Inactive)
ROOT
ATOM      1  N1  IND d   1       0.436  -1.506  -0.333  0.00  0.00    -0.196 N 
ATOM      2  C2  IND d   1       1.558  -1.653   0.434  0.00  0.00     0.054 A 
ATOM      3  C3  IND d   1       1.408  -1.014   1.616  0.00  0.00    -0.031 A 
ATOM      4  C4  IND d   1      -0.634   0.251   2.543  0.00  0.00     0.051 A 
ATOM      5  C5  IND d   1      -1.883   0.684   2.193  0.00  0.00    -0.031 A 
ATOM      6  C6  IND d   1      -2.434   0.401   0.960  0.00  0.00     0.015 A 
ATOM      7  C7  IND d   1      -1.759  -0.338   0.031  0.00  0.00    -0.016 A 
ATOM      8  C8  IND d   1      -0.489  -0.773   0.379  0.00  0.00    -0.047 A 
ATOM      9  C9  IND d   1       0.093  -0.454   1.613  0.00  0.00    -0.096 A 
ATOM     10  HN1 IND d   1       0.326  -1.818  -1.126  0.00  0.00     0.298 HD
ENDROOT
TORSDOF 0
ENDMDL
