MODEL 1
REMARK minimizedAffinity -3.95571303
REMARK minimizedRMSD -1
REMARK  0 active torsions:
REMARK  status: ('A' for Active; 'I' for Inactive)
ROOT
ATOM      1  N1  IND d   1       1.519  -0.916   1.682  0.00  0.00    -0.196 N 
ATOM      2  C2  IND d   1       1.723  -0.666   3.010  0.00  0.00     0.054 A 
ATOM      3  C3  IND d   1       0.685   0.034   3.522  0.00  0.00    -0.031 A 
ATOM      4  C4  IND d   1      -1.498   0.786   2.384  0.00  0.00     0.051 A 
ATOM      5  C5  IND d   1      -2.124   0.821   1.170  0.00  0.00    -0.031 A 
ATOM      6  C6  IND d   1      -1.557   0.264   0.042  0.00  0.00     0.015 A 
ATOM      7  C7  IND d   1      -0.342  -0.360   0.089  0.00  0.00    -0.016 A 
ATOM      8  C8  IND d   1       0.299  -0.391   1.319  0.00  0.00    -0.047 A 
ATOM      9  C9  IND d   1      -0.252   0.209   2.458  0.00  0.00    -0.096 A 
ATOM     10  HN1 IND d   1       2.063  -1.332   1.161  0.00  0.00     0.298 HD
ENDROOT
TORSDOF 0
ENDMDL
