MODEL 1
REMARK minimizedAffinity -0.437441915
REMARK minimizedRMSD -1
REMARK  0 active torsions:
REMARK  status: ('A' for Active; 'I' for Inactive)
ROOT
ATOM      1  N1  IND d   1       0.205   0.330   3.100  0.00  0.00    -0.196 N 
ATOM      2  C2  IND d   1      -0.959   0.828   3.614  0.00  0.00     0.054 A 
ATOM      3  C3  IND d   1      -1.850   1.060   2.624  0.00  0.00    -0.031 A 
ATOM      4  C4  IND d   1      -1.645   0.600   0.099  0.00  0.00     0.051 A 
ATOM      5  C5  IND d   1      -0.756   0.184  -0.851  0.00  0.00    -0.031 A 
ATOM      6  C6  IND d   1       0.524  -0.217  -0.526  0.00  0.00     0.015 A 
ATOM      7  C7  IND d   1       0.961  -0.226   0.768  0.00  0.00    -0.016 A 
ATOM      8  C8  IND d   1       0.063   0.204   1.735  0.00  0.00    -0.047 A 
ATOM      9  C9  IND d   1      -1.224   0.651   1.407  0.00  0.00    -0.096 A 
ATOM     10  HN1 IND d   1       0.908   0.129   3.552  0.00  0.00     0.298 HD
ENDROOT
TORSDOF 0
ENDMDL
