MODEL 1
REMARK minimizedAffinity -0.210576221
REMARK minimizedRMSD -1
REMARK  0 active torsions:
REMARK  status: ('A' for Active; 'I' for Inactive)
ROOT
ATOM      1  N1  IND d   1      -0.634   1.181  -3.333  0.00  0.00    -0.196 N 
ATOM      2  C2  IND d   1       0.220   0.505  -4.159  0.00  0.00     0.054 A 
ATOM      3  C3  IND d   1       1.048  -0.282  -3.436  0.00  0.00    -0.031 A 
ATOM      4  C4  IND d   1       1.111  -0.691  -0.895  0.00  0.00     0.051 A 
ATOM      5  C5  IND d   1       0.550  -0.270   0.278  0.00  0.00    -0.031 A 
ATOM      6  C6  IND d   1      -0.457   0.673   0.308  0.00  0.00     0.015 A 
ATOM      7  C7  IND d   1      -0.950   1.224  -0.841  0.00  0.00    -0.016 A 
ATOM      8  C8  IND d   1      -0.378   0.805  -2.033  0.00  0.00    -0.047 A 
ATOM      9  C9  IND d   1       0.674  -0.120  -2.067  0.00  0.00    -0.096 A 
ATOM     10  HN1 IND d   1      -1.231   1.747  -3.584  0.00  0.00     0.298 HD
ENDROOT
TORSDOF 0
ENDMDL
