MODEL 1
REMARK minimizedAffinity 8.88532448
REMARK minimizedRMSD -1
REMARK  0 active torsions:
REMARK  status: ('A' for Active; 'I' for Inactive)
ROOT
ATOM      1  C   UNL d   1       0.870  -1.909   2.127  0.00  0.00     0.172 C 
ATOM      2  N   UNL d   1      -0.446  -1.585   1.629  0.00  0.00    -0.070 N 
ATOM      3  C1  UNL d   1      -1.239  -2.408   0.876  0.00  0.00    -0.004 A 
ATOM      4  C2  UNL d   1      -2.410  -1.734   0.605  0.00  0.00    -0.047 A 
ATOM      5  C3  UNL d   1      -2.317  -0.461   1.215  0.00  0.00    -0.047 A 
ATOM      6  C4  UNL d   1      -1.090  -0.395   1.843  0.00  0.00    -0.004 A 
ENDROOT
TORSDOF 0
ENDMDL
