MODEL 1
REMARK minimizedAffinity 10.4715271
REMARK minimizedRMSD -1
REMARK  0 active torsions:
REMARK  status: ('A' for Active; 'I' for Inactive)
ROOT
ATOM      1  C   UNL d   1      -2.878  -5.999  -5.998  0.00  0.00     0.172 C 
ATOM      2  N   UNL d   1      -2.246  -5.021  -5.143  0.00  0.00    -0.070 N 
ATOM      3  C1  UNL d   1      -0.898  -4.812  -5.030  0.00  0.00    -0.004 A 
ATOM      4  C2  UNL d   1      -0.703  -3.798  -4.117  0.00  0.00    -0.047 A 
ATOM      5  C3  UNL d   1      -1.979  -3.385  -3.665  0.00  0.00    -0.047 A 
ATOM      6  C4  UNL d   1      -2.916  -4.158  -4.316  0.00  0.00    -0.004 A 
ENDROOT
TORSDOF 0
ENDMDL
