MODEL 1
REMARK minimizedAffinity 2.70347667
REMARK minimizedRMSD -1
REMARK  0 active torsions:
REMARK  status: ('A' for Active; 'I' for Inactive)
ROOT
ATOM      1  C   UNL d   1      -0.881  -3.478  -3.375  0.00  0.00     0.172 C 
ATOM      2  N   UNL d   1      -1.498  -4.457  -4.239  0.00  0.00    -0.070 N 
ATOM      3  C1  UNL d   1      -2.625  -5.180  -3.950  0.00  0.00    -0.004 A 
ATOM      4  C2  UNL d   1      -2.888  -6.000  -5.026  0.00  0.00    -0.047 A 
ATOM      5  C3  UNL d   1      -1.884  -5.763  -5.994  0.00  0.00    -0.047 A 
ATOM      6  C4  UNL d   1      -1.036  -4.804  -5.481  0.00  0.00    -0.004 A 
ENDROOT
TORSDOF 0
ENDMDL
