MODEL 1
REMARK minimizedAffinity 1.29324841
REMARK minimizedRMSD -1
REMARK  0 active torsions:
REMARK  status: ('A' for Active; 'I' for Inactive)
ROOT
ATOM      1  C   UNL d   1      -4.007   0.303   0.293  0.00  0.00     0.172 C 
ATOM      2  N   UNL d   1      -2.847  -0.252   0.951  0.00  0.00    -0.070 N 
ATOM      3  C1  UNL d   1      -1.745   0.454   1.354  0.00  0.00    -0.004 A 
ATOM      4  C2  UNL d   1      -0.866  -0.434   1.937  0.00  0.00    -0.047 A 
ATOM      5  C3  UNL d   1      -1.461  -1.716   1.883  0.00  0.00    -0.047 A 
ATOM      6  C4  UNL d   1      -2.687  -1.575   1.267  0.00  0.00    -0.004 A 
ENDROOT
TORSDOF 0
ENDMDL
