MODEL 1
REMARK minimizedAffinity 8.43929863
REMARK minimizedRMSD -1
REMARK  0 active torsions:
REMARK  status: ('A' for Active; 'I' for Inactive)
ROOT
ATOM      1  C   UNL d   1       2.643  -4.499  -0.377  0.00  0.00     0.172 C 
ATOM      2  N   UNL d   1       3.895  -3.795  -0.220  0.00  0.00    -0.070 N 
ATOM      3  C1  UNL d   1       4.151  -2.519  -0.645  0.00  0.00    -0.004 A 
ATOM      4  C2  UNL d   1       5.453  -2.216  -0.308  0.00  0.00    -0.047 A 
ATOM      5  C3  UNL d   1       5.998  -3.350   0.340  0.00  0.00    -0.047 A 
ATOM      6  C4  UNL d   1       5.011  -4.313   0.381  0.00  0.00    -0.004 A 
ENDROOT
TORSDOF 0
ENDMDL
