MODEL 1
REMARK minimizedAffinity 8.42902851
REMARK minimizedRMSD -1
REMARK  0 active torsions:
REMARK  status: ('A' for Active; 'I' for Inactive)
ROOT
ATOM      1  C   UNL d   1       0.203   4.669  -3.736  0.00  0.00     0.172 C 
ATOM      2  N   UNL d   1       1.210   3.790  -3.189  0.00  0.00    -0.070 N 
ATOM      3  C1  UNL d   1       2.561   3.916  -3.367  0.00  0.00    -0.004 A 
ATOM      4  C2  UNL d   1       3.174   2.886  -2.687  0.00  0.00    -0.047 A 
ATOM      5  C3  UNL d   1       2.155   2.113  -2.081  0.00  0.00    -0.047 A 
ATOM      6  C4  UNL d   1       0.949   2.695  -2.408  0.00  0.00    -0.004 A 
ENDROOT
TORSDOF 0
ENDMDL
