MODEL 1
REMARK minimizedAffinity 4.48881483
REMARK minimizedRMSD -1
REMARK  0 active torsions:
REMARK  status: ('A' for Active; 'I' for Inactive)
ROOT
ATOM      1  C   UNL d   1       0.698  -2.652   2.255  0.00  0.00     0.172 C 
ATOM      2  N   UNL d   1      -0.450  -1.786   2.122  0.00  0.00    -0.070 N 
ATOM      3  C1  UNL d   1      -1.692  -2.169   1.691  0.00  0.00    -0.004 A 
ATOM      4  C2  UNL d   1      -2.506  -1.057   1.705  0.00  0.00    -0.047 A 
ATOM      5  C3  UNL d   1      -1.725   0.032   2.160  0.00  0.00    -0.047 A 
ATOM      6  C4  UNL d   1      -0.457  -0.447   2.410  0.00  0.00    -0.004 A 
ENDROOT
TORSDOF 0
ENDMDL
