MODEL 1
REMARK minimizedAffinity 5.5466671
REMARK minimizedRMSD -1
REMARK  0 active torsions:
REMARK  status: ('A' for Active; 'I' for Inactive)
ROOT
ATOM      1  C   UNL d   1       1.052   5.974  -1.689  0.00  0.00     0.172 C 
ATOM      2  N   UNL d   1       1.399   4.619  -2.048  0.00  0.00    -0.070 N 
ATOM      3  C1  UNL d   1       2.478   3.920  -1.576  0.00  0.00    -0.004 A 
ATOM      4  C2  UNL d   1       2.457   2.670  -2.156  0.00  0.00    -0.047 A 
ATOM      5  C3  UNL d   1       1.327   2.616  -3.006  0.00  0.00    -0.047 A 
ATOM      6  C4  UNL d   1       0.690   3.836  -2.920  0.00  0.00    -0.004 A 
ENDROOT
TORSDOF 0
ENDMDL
