MODEL 1
REMARK minimizedAffinity 6.38690519
REMARK minimizedRMSD -1
REMARK  0 active torsions:
REMARK  status: ('A' for Active; 'I' for Inactive)
ROOT
ATOM      1  C   UNL d   1      -5.981   0.029  -5.759  0.00  0.00     0.172 C 
ATOM      2  N   UNL d   1      -5.985   0.040  -4.315  0.00  0.00    -0.070 N 
ATOM      3  C1  UNL d   1      -5.986  -1.067  -3.509  0.00  0.00    -0.004 A 
ATOM      4  C2  UNL d   1      -5.990  -0.635  -2.200  0.00  0.00    -0.047 A 
ATOM      5  C3  UNL d   1      -5.992   0.780  -2.220  0.00  0.00    -0.047 A 
ATOM      6  C4  UNL d   1      -5.989   1.171  -3.543  0.00  0.00    -0.004 A 
ENDROOT
TORSDOF 0
ENDMDL
