MODEL 1
REMARK minimizedAffinity 6.22486877
REMARK minimizedRMSD -1
REMARK  0 active torsions:
REMARK  status: ('A' for Active; 'I' for Inactive)
ROOT
ATOM      1  C   UNL d   1      -2.606  -2.972   0.989  0.00  0.00     0.172 C 
ATOM      2  N   UNL d   1      -1.743  -2.214   1.865  0.00  0.00    -0.070 N 
ATOM      3  C1  UNL d   1      -0.405  -2.435   2.056  0.00  0.00    -0.004 A 
ATOM      4  C2  UNL d   1       0.052  -1.504   2.962  0.00  0.00    -0.047 A 
ATOM      5  C3  UNL d   1      -1.050  -0.695   3.331  0.00  0.00    -0.047 A 
ATOM      6  C4  UNL d   1      -2.148  -1.157   2.637  0.00  0.00    -0.004 A 
ENDROOT
TORSDOF 0
ENDMDL
