MODEL 1
REMARK minimizedAffinity 0.249402821
REMARK minimizedRMSD -1
REMARK  0 active torsions:
REMARK  status: ('A' for Active; 'I' for Inactive)
ROOT
ATOM      1  C   UNL d   1      -1.793  -1.553   1.801  0.00  0.00     0.172 C 
ATOM      2  N   UNL d   1      -2.620  -0.447   2.223  0.00  0.00    -0.070 N 
ATOM      3  C1  UNL d   1      -3.700   0.049   1.542  0.00  0.00    -0.004 A 
ATOM      4  C2  UNL d   1      -4.215   1.097   2.272  0.00  0.00    -0.047 A 
ATOM      5  C3  UNL d   1      -3.417   1.237   3.433  0.00  0.00    -0.047 A 
ATOM      6  C4  UNL d   1      -2.437   0.269   3.377  0.00  0.00    -0.004 A 
ENDROOT
TORSDOF 0
ENDMDL
