MODEL 1
REMARK minimizedAffinity 8.81459999
REMARK minimizedRMSD -1
REMARK  0 active torsions:
REMARK  status: ('A' for Active; 'I' for Inactive)
ROOT
ATOM      1  C   UNL d   1      -0.207   4.083  -3.783  0.00  0.00     0.172 C 
ATOM      2  N   UNL d   1       0.780   3.318  -3.058  0.00  0.00    -0.070 N 
ATOM      3  C1  UNL d   1       2.127   3.321  -3.299  0.00  0.00    -0.004 A 
ATOM      4  C2  UNL d   1       2.720   2.465  -2.396  0.00  0.00    -0.047 A 
ATOM      5  C3  UNL d   1       1.692   1.927  -1.585  0.00  0.00    -0.047 A 
ATOM      6  C4  UNL d   1       0.501   2.472  -2.016  0.00  0.00    -0.004 A 
ENDROOT
TORSDOF 0
ENDMDL
