MODEL 1
REMARK minimizedAffinity 4.38232899
REMARK minimizedRMSD -1
REMARK  0 active torsions:
REMARK  status: ('A' for Active; 'I' for Inactive)
ROOT
ATOM      1  C   UNL d   1       3.952   2.820  -3.189  0.00  0.00     0.172 C 
ATOM      2  N   UNL d   1       2.541   2.920  -2.899  0.00  0.00    -0.070 N 
ATOM      3  C1  UNL d   1       1.607   3.547  -3.680  0.00  0.00    -0.004 A 
ATOM      4  C2  UNL d   1       0.383   3.420  -3.060  0.00  0.00    -0.047 A 
ATOM      5  C3  UNL d   1       0.588   2.692  -1.863  0.00  0.00    -0.047 A 
ATOM      6  C4  UNL d   1       1.933   2.395  -1.789  0.00  0.00    -0.004 A 
ENDROOT
TORSDOF 0
ENDMDL
