MODEL 1
REMARK minimizedAffinity 6.23824215
REMARK minimizedRMSD -1
REMARK  0 active torsions:
REMARK  status: ('A' for Active; 'I' for Inactive)
ROOT
ATOM      1  C   UNL d   1       2.583   3.567  -2.795  0.00  0.00     0.172 C 
ATOM      2  N   UNL d   1       3.910   4.016  -3.145  0.00  0.00    -0.070 N 
ATOM      3  C1  UNL d   1       4.766   4.696  -2.321  0.00  0.00    -0.004 A 
ATOM      4  C2  UNL d   1       5.926   4.940  -3.025  0.00  0.00    -0.047 A 
ATOM      5  C3  UNL d   1       5.760   4.388  -4.317  0.00  0.00    -0.047 A 
ATOM      6  C4  UNL d   1       4.503   3.822  -4.364  0.00  0.00    -0.004 A 
ENDROOT
TORSDOF 0
ENDMDL
