MODEL 1
REMARK minimizedAffinity 4.5334692
REMARK minimizedRMSD -1
REMARK  0 active torsions:
REMARK  status: ('A' for Active; 'I' for Inactive)
ROOT
ATOM      1  C   UNL d   1      -5.734   0.143   0.632  0.00  0.00     0.172 C 
ATOM      2  N   UNL d   1      -5.842   0.522  -0.757  0.00  0.00    -0.070 N 
ATOM      3  C1  UNL d   1      -5.903   1.805  -1.232  0.00  0.00    -0.004 A 
ATOM      4  C2  UNL d   1      -6.000   1.743  -2.605  0.00  0.00    -0.047 A 
ATOM      5  C3  UNL d   1      -5.998   0.375  -2.968  0.00  0.00    -0.047 A 
ATOM      6  C4  UNL d   1      -5.899  -0.359  -1.805  0.00  0.00    -0.004 A 
ENDROOT
TORSDOF 0
ENDMDL
