MODEL 1
REMARK minimizedAffinity 4.93330669
REMARK minimizedRMSD -1
REMARK  0 active torsions:
REMARK  status: ('A' for Active; 'I' for Inactive)
ROOT
ATOM      1  C   UNL d   1      -0.729   4.313  -4.328  0.00  0.00     0.172 C 
ATOM      2  N   UNL d   1       0.389   4.009  -3.467  0.00  0.00    -0.070 N 
ATOM      3  C1  UNL d   1       1.151   4.926  -2.793  0.00  0.00    -0.004 A 
ATOM      4  C2  UNL d   1       2.112   4.238  -2.085  0.00  0.00    -0.047 A 
ATOM      5  C3  UNL d   1       1.922   2.859  -2.343  0.00  0.00    -0.047 A 
ATOM      6  C4  UNL d   1       0.849   2.746  -3.201  0.00  0.00    -0.004 A 
ENDROOT
TORSDOF 0
ENDMDL
