MODEL 1
REMARK minimizedAffinity 0.149084806
REMARK minimizedRMSD -1
REMARK  0 active torsions:
REMARK  status: ('A' for Active; 'I' for Inactive)
ROOT
ATOM      1  C   UNL d   1       2.495   1.466  -3.048  0.00  0.00     0.172 C 
ATOM      2  N   UNL d   1       3.887   1.368  -3.419  0.00  0.00    -0.070 N 
ATOM      3  C1  UNL d   1       4.573   0.205  -3.647  0.00  0.00    -0.004 A 
ATOM      4  C2  UNL d   1       5.870   0.537  -3.976  0.00  0.00    -0.047 A 
ATOM      5  C3  UNL d   1       5.966   1.948  -3.945  0.00  0.00    -0.047 A 
ATOM      6  C4  UNL d   1       4.725   2.438  -3.597  0.00  0.00    -0.004 A 
ENDROOT
TORSDOF 0
ENDMDL
