MODEL 1
REMARK minimizedAffinity 2.72117877
REMARK minimizedRMSD -1
REMARK  0 active torsions:
REMARK  status: ('A' for Active; 'I' for Inactive)
ROOT
ATOM      1  C   UNL d   1      -5.388  -3.715  -5.997  0.00  0.00     0.172 C 
ATOM      2  N   UNL d   1      -4.108  -4.384  -5.987  0.00  0.00    -0.070 N 
ATOM      3  C1  UNL d   1      -2.885  -3.768  -5.963  0.00  0.00    -0.004 A 
ATOM      4  C2  UNL d   1      -1.918  -4.751  -5.959  0.00  0.00    -0.047 A 
ATOM      5  C3  UNL d   1      -2.583  -6.000  -5.983  0.00  0.00    -0.047 A 
ATOM      6  C4  UNL d   1      -3.938  -5.743  -5.999  0.00  0.00    -0.004 A 
ENDROOT
TORSDOF 0
ENDMDL
