MODEL 1
REMARK minimizedAffinity 1.27172482
REMARK minimizedRMSD -1
REMARK  0 active torsions:
REMARK  status: ('A' for Active; 'I' for Inactive)
ROOT
ATOM      1  C   UNL d   1       1.039  -3.099   0.350  0.00  0.00     0.172 C 
ATOM      2  N   UNL d   1       0.132  -2.234   1.066  0.00  0.00    -0.070 N 
ATOM      3  C1  UNL d   1       0.453  -1.464   2.153  0.00  0.00    -0.004 A 
ATOM      4  C2  UNL d   1      -0.684  -0.789   2.542  0.00  0.00    -0.047 A 
ATOM      5  C3  UNL d   1      -1.724  -1.166   1.659  0.00  0.00    -0.047 A 
ATOM      6  C4  UNL d   1      -1.191  -2.061   0.756  0.00  0.00    -0.004 A 
ENDROOT
TORSDOF 0
ENDMDL
