MODEL 1
REMARK minimizedAffinity -2.54863358
REMARK minimizedRMSD -1
REMARK  0 active torsions:
REMARK  status: ('A' for Active; 'I' for Inactive)
ROOT
ATOM      1  C   UNL d   1      -1.612  -0.353  -0.515  0.00  0.00     0.172 C 
ATOM      2  N   UNL d   1      -0.212  -0.279  -0.168  0.00  0.00    -0.070 N 
ATOM      3  C1  UNL d   1       0.388  -0.936   0.873  0.00  0.00    -0.004 A 
ATOM      4  C2  UNL d   1       1.726  -0.604   0.867  0.00  0.00    -0.047 A 
ATOM      5  C3  UNL d   1       1.937   0.284  -0.215  0.00  0.00    -0.047 A 
ATOM      6  C4  UNL d   1       0.720   0.468  -0.838  0.00  0.00    -0.004 A 
ENDROOT
TORSDOF 0
ENDMDL
