MODEL 1
REMARK minimizedAffinity 14.2555075
REMARK minimizedRMSD -1
REMARK  0 active torsions:
REMARK  status: ('A' for Active; 'I' for Inactive)
ROOT
ATOM      1  N1  IND d   1      -3.140  -4.074  -5.925  0.00  0.00    -0.196 N 
ATOM      2  C2  IND d   1      -3.201  -2.709  -5.967  0.00  0.00     0.054 A 
ATOM      3  C3  IND d   1      -1.955  -2.182  -5.965  0.00  0.00    -0.031 A 
ATOM      4  C4  IND d   1       0.325  -3.377  -5.999  0.00  0.00     0.051 A 
ATOM      5  C5  IND d   1       0.891  -4.619  -5.931  0.00  0.00    -0.031 A 
ATOM      6  C6  IND d   1       0.127  -5.766  -5.859  0.00  0.00     0.015 A 
ATOM      7  C7  IND d   1      -1.238  -5.714  -5.864  0.00  0.00    -0.016 A 
ATOM      8  C8  IND d   1      -1.816  -4.454  -5.925  0.00  0.00    -0.047 A 
ATOM      9  C9  IND d   1      -1.046  -3.284  -5.956  0.00  0.00    -0.096 A 
ATOM     10  HN1 IND d   1      -3.816  -4.605  -5.902  0.00  0.00     0.298 HD
ENDROOT
TORSDOF 0
ENDMDL
