MODEL 1
REMARK minimizedAffinity 0.725106835
REMARK minimizedRMSD -1
REMARK  0 active torsions:
REMARK  status: ('A' for Active; 'I' for Inactive)
ROOT
ATOM      1  N1  IND d   1      -5.979  -0.440   4.770  0.00  0.00    -0.196 N 
ATOM      2  C2  IND d   1      -5.947  -0.109   3.444  0.00  0.00     0.054 A 
ATOM      3  C3  IND d   1      -5.911  -1.224   2.681  0.00  0.00    -0.031 A 
ATOM      4  C4  IND d   1      -5.998  -3.697   3.394  0.00  0.00     0.051 A 
ATOM      5  C5  IND d   1      -5.995  -4.500   4.500  0.00  0.00    -0.031 A 
ATOM      6  C6  IND d   1      -5.989  -3.980   5.778  0.00  0.00     0.015 A 
ATOM      7  C7  IND d   1      -5.998  -2.632   5.999  0.00  0.00    -0.016 A 
ATOM      8  C8  IND d   1      -5.994  -1.814   4.878  0.00  0.00    -0.047 A 
ATOM      9  C9  IND d   1      -5.957  -2.335   3.579  0.00  0.00    -0.096 A 
ATOM     10  HN1 IND d   1      -5.988   0.115   5.426  0.00  0.00     0.298 HD
ENDROOT
TORSDOF 0
ENDMDL
