MODEL 1
REMARK minimizedAffinity 10.231802
REMARK minimizedRMSD -1
REMARK  0 active torsions:
REMARK  status: ('A' for Active; 'I' for Inactive)
ROOT
ATOM      1  N1  IND d   1       0.423   2.608  -1.472  0.00  0.00    -0.196 N 
ATOM      2  C2  IND d   1      -0.038   1.861  -0.424  0.00  0.00     0.054 A 
ATOM      3  C3  IND d   1      -0.957   2.557   0.281  0.00  0.00    -0.031 A 
ATOM      4  C4  IND d   1      -1.931   4.898  -0.164  0.00  0.00     0.051 A 
ATOM      5  C5  IND d   1      -1.795   5.983  -0.983  0.00  0.00    -0.031 A 
ATOM      6  C6  IND d   1      -0.896   5.998  -2.030  0.00  0.00     0.015 A 
ATOM      7  C7  IND d   1      -0.105   4.919  -2.305  0.00  0.00    -0.016 A 
ATOM      8  C8  IND d   1      -0.235   3.818  -1.471  0.00  0.00    -0.047 A 
ATOM      9  C9  IND d   1      -1.115   3.813  -0.381  0.00  0.00    -0.096 A 
ATOM     10  HN1 IND d   1       1.024   2.363  -2.037  0.00  0.00     0.298 HD
ENDROOT
TORSDOF 0
ENDMDL
