MODEL 1
REMARK minimizedAffinity -2.87038732
REMARK minimizedRMSD -1
REMARK  0 active torsions:
REMARK  status: ('A' for Active; 'I' for Inactive)
ROOT
ATOM      1  N1  IND d   1      -4.842  -2.742  -5.985  0.00  0.00    -0.196 N 
ATOM      2  C2  IND d   1      -5.989  -3.486  -5.983  0.00  0.00     0.054 A 
ATOM      3  C3  IND d   1      -5.694  -4.805  -5.999  0.00  0.00    -0.031 A 
ATOM      4  C4  IND d   1      -3.399  -5.969  -5.928  0.00  0.00     0.051 A 
ATOM      5  C5  IND d   1      -2.058  -5.709  -5.958  0.00  0.00    -0.031 A 
ATOM      6  C6  IND d   1      -1.566  -4.420  -5.997  0.00  0.00     0.015 A 
ATOM      7  C7  IND d   1      -2.401  -3.339  -5.996  0.00  0.00    -0.016 A 
ATOM      8  C8  IND d   1      -3.764  -3.599  -5.972  0.00  0.00    -0.047 A 
ATOM      9  C9  IND d   1      -4.270  -4.906  -5.975  0.00  0.00    -0.096 A 
ATOM     10  HN1 IND d   1      -4.801  -1.883  -5.993  0.00  0.00     0.298 HD
ENDROOT
TORSDOF 0
ENDMDL
