MODEL 1
REMARK minimizedAffinity -1.48160887
REMARK minimizedRMSD -1
REMARK  0 active torsions:
REMARK  status: ('A' for Active; 'I' for Inactive)
ROOT
ATOM      1  N1  IND d   1      -4.361  -3.293  -5.976  0.00  0.00    -0.196 N 
ATOM      2  C2  IND d   1      -5.258  -4.322  -5.899  0.00  0.00     0.054 A 
ATOM      3  C3  IND d   1      -4.610  -5.502  -5.779  0.00  0.00    -0.031 A 
ATOM      4  C4  IND d   1      -2.086  -5.971  -5.587  0.00  0.00     0.051 A 
ATOM      5  C5  IND d   1      -0.869  -5.353  -5.643  0.00  0.00    -0.031 A 
ATOM      6  C6  IND d   1      -0.751  -3.988  -5.814  0.00  0.00     0.015 A 
ATOM      7  C7  IND d   1      -1.851  -3.186  -5.924  0.00  0.00    -0.016 A 
ATOM      8  C8  IND d   1      -3.089  -3.811  -5.875  0.00  0.00    -0.047 A 
ATOM      9  C9  IND d   1      -3.214  -5.201  -5.744  0.00  0.00    -0.096 A 
ATOM     10  HN1 IND d   1      -4.559  -2.461  -6.072  0.00  0.00     0.298 HD
ENDROOT
TORSDOF 0
ENDMDL
