MODEL 1
REMARK minimizedAffinity 5.8566556
REMARK minimizedRMSD -1
REMARK  0 active torsions:
REMARK  status: ('A' for Active; 'I' for Inactive)
ROOT
ATOM      1  N1  IND d   1      -2.860  -5.900  -5.991  0.00  0.00    -0.196 N 
ATOM      2  C2  IND d   1      -4.083  -5.289  -6.000  0.00  0.00     0.054 A 
ATOM      3  C3  IND d   1      -3.938  -3.946  -5.968  0.00  0.00    -0.031 A 
ATOM      4  C4  IND d   1      -1.787  -2.531  -5.999  0.00  0.00     0.051 A 
ATOM      5  C5  IND d   1      -0.426  -2.640  -5.955  0.00  0.00    -0.031 A 
ATOM      6  C6  IND d   1       0.207  -3.866  -5.922  0.00  0.00     0.015 A 
ATOM      7  C7  IND d   1      -0.502  -5.034  -5.944  0.00  0.00    -0.016 A 
ATOM      8  C8  IND d   1      -1.885  -4.927  -5.982  0.00  0.00    -0.047 A 
ATOM      9  C9  IND d   1      -2.534  -3.686  -5.973  0.00  0.00    -0.096 A 
ATOM     10  HN1 IND d   1      -2.723  -6.749  -5.990  0.00  0.00     0.298 HD
ENDROOT
TORSDOF 0
ENDMDL
