MODEL 1
REMARK minimizedAffinity 14.5920534
REMARK minimizedRMSD -1
REMARK  0 active torsions:
REMARK  status: ('A' for Active; 'I' for Inactive)
ROOT
ATOM      1  N1  IND d   1       0.081   2.119  -1.330  0.00  0.00    -0.196 N 
ATOM      2  C2  IND d   1       0.375   2.020   0.002  0.00  0.00     0.054 A 
ATOM      3  C3  IND d   1       0.166   3.204   0.619  0.00  0.00    -0.031 A 
ATOM      4  C4  IND d   1      -0.751   5.410  -0.341  0.00  0.00     0.051 A 
ATOM      5  C5  IND d   1      -1.127   6.000  -1.515  0.00  0.00    -0.031 A 
ATOM      6  C6  IND d   1      -1.122   5.312  -2.711  0.00  0.00     0.015 A 
ATOM      7  C7  IND d   1      -0.750   3.999  -2.776  0.00  0.00    -0.016 A 
ATOM      8  C8  IND d   1      -0.361   3.399  -1.587  0.00  0.00    -0.047 A 
ATOM      9  C9  IND d   1      -0.323   4.104  -0.377  0.00  0.00    -0.096 A 
ATOM     10  HN1 IND d   1       0.160   1.489  -1.909  0.00  0.00     0.298 HD
ENDROOT
TORSDOF 0
ENDMDL
