MODEL 1
REMARK minimizedAffinity -4.57302856
REMARK minimizedRMSD -1
REMARK  0 active torsions:
REMARK  status: ('A' for Active; 'I' for Inactive)
ROOT
ATOM      1  O1  BZF d   1       0.400  -0.034  -1.584  0.00  0.00    -0.204 OA
ATOM      2  C2  BZF d   1       1.373   0.039  -0.606  0.00  0.00     0.174 A 
ATOM      3  C3  BZF d   1       0.823  -0.050   0.623  0.00  0.00    -0.012 A 
ATOM      4  C3A BZF d   1      -0.571  -0.281   0.395  0.00  0.00    -0.107 A 
ATOM      5  C4  BZF d   1      -1.638  -0.472   1.225  0.00  0.00     0.055 A 
ATOM      6  C5  BZF d   1      -2.879  -0.597   0.687  0.00  0.00    -0.016 A 
ATOM      7  C6  BZF d   1      -3.090  -0.531  -0.675  0.00  0.00     0.022 A 
ATOM      8  C7  BZF d   1      -2.061  -0.349  -1.539  0.00  0.00     0.029 A 
ATOM      9  C7A BZF d   1      -0.802  -0.255  -0.999  0.00  0.00     0.058 A 
ENDROOT
TORSDOF 0
ENDMDL
