MODEL 1
REMARK minimizedAffinity -4.11474514
REMARK minimizedRMSD -1
REMARK  0 active torsions:
REMARK  status: ('A' for Active; 'I' for Inactive)
ROOT
ATOM      1  O1  BZF d   1      -0.016   0.470   1.615  0.00  0.00    -0.204 OA
ATOM      2  C2  BZF d   1       1.118   0.844   0.920  0.00  0.00     0.174 A 
ATOM      3  C3  BZF d   1       1.001   0.535  -0.388  0.00  0.00    -0.012 A 
ATOM      4  C3A BZF d   1      -0.324   0.015  -0.534  0.00  0.00    -0.107 A 
ATOM      5  C4  BZF d   1      -1.038  -0.449  -1.602  0.00  0.00     0.055 A 
ATOM      6  C5  BZF d   1      -2.282  -0.955  -1.396  0.00  0.00    -0.016 A 
ATOM      7  C6  BZF d   1      -2.841  -1.016  -0.136  0.00  0.00     0.022 A 
ATOM      8  C7  BZF d   1      -2.174  -0.562   0.953  0.00  0.00     0.029 A 
ATOM      9  C7A BZF d   1      -0.929  -0.021   0.743  0.00  0.00     0.058 A 
ENDROOT
TORSDOF 0
ENDMDL
