MODEL 1
REMARK minimizedAffinity -4.52006912
REMARK minimizedRMSD -1
REMARK  0 active torsions:
REMARK  status: ('A' for Active; 'I' for Inactive)
ROOT
ATOM      1  O1  BZF d   1       1.591  -0.749   1.252  0.00  0.00    -0.204 OA
ATOM      2  C2  BZF d   1       2.118   0.414   0.726  0.00  0.00     0.174 A 
ATOM      3  C3  BZF d   1       1.136   1.224   0.278  0.00  0.00    -0.012 A 
ATOM      4  C3A BZF d   1      -0.084   0.563   0.625  0.00  0.00    -0.107 A 
ATOM      5  C4  BZF d   1      -1.403   0.878   0.459  0.00  0.00     0.055 A 
ATOM      6  C5  BZF d   1      -2.349  -0.017   0.846  0.00  0.00    -0.016 A 
ATOM      7  C6  BZF d   1      -2.014  -1.237   1.395  0.00  0.00     0.022 A 
ATOM      8  C7  BZF d   1      -0.720  -1.592   1.584  0.00  0.00     0.029 A 
ATOM      9  C7A BZF d   1       0.239  -0.676   1.225  0.00  0.00     0.058 A 
ENDROOT
TORSDOF 0
ENDMDL
