MODEL 1
REMARK minimizedAffinity -4.22677088
REMARK minimizedRMSD -1
REMARK  0 active torsions:
REMARK  status: ('A' for Active; 'I' for Inactive)
ROOT
ATOM      1  O1  BZF d   1      -2.587  -0.339  -1.027  0.00  0.00    -0.204 OA
ATOM      2  C2  BZF d   1      -3.277  -0.894   0.034  0.00  0.00     0.174 A 
ATOM      3  C3  BZF d   1      -2.479  -1.015   1.114  0.00  0.00    -0.012 A 
ATOM      4  C3A BZF d   1      -1.235  -0.419   0.731  0.00  0.00    -0.107 A 
ATOM      5  C4  BZF d   1      -0.050  -0.220   1.380  0.00  0.00     0.055 A 
ATOM      6  C5  BZF d   1       0.992   0.325   0.700  0.00  0.00    -0.016 A 
ATOM      7  C6  BZF d   1       0.886   0.679  -0.630  0.00  0.00     0.022 A 
ATOM      8  C7  BZF d   1      -0.271   0.505  -1.314  0.00  0.00     0.029 A 
ATOM      9  C7A BZF d   1      -1.336  -0.016  -0.621  0.00  0.00     0.058 A 
ENDROOT
TORSDOF 0
ENDMDL
