MODEL 1
REMARK minimizedAffinity -3.35149884
REMARK minimizedRMSD -1
REMARK  0 active torsions:
REMARK  status: ('A' for Active; 'I' for Inactive)
ROOT
ATOM      1  O1  BZF d   1      -0.102  -0.388   1.048  0.00  0.00    -0.204 OA
ATOM      2  C2  BZF d   1       1.075   0.089   0.506  0.00  0.00     0.174 A 
ATOM      3  C3  BZF d   1       0.935   0.316  -0.816  0.00  0.00    -0.012 A 
ATOM      4  C3A BZF d   1      -0.441   0.047  -1.101  0.00  0.00    -0.107 A 
ATOM      5  C4  BZF d   1      -1.193   0.108  -2.238  0.00  0.00     0.055 A 
ATOM      6  C5  BZF d   1      -2.492  -0.291  -2.194  0.00  0.00    -0.016 A 
ATOM      7  C6  BZF d   1      -3.067  -0.761  -1.031  0.00  0.00     0.022 A 
ATOM      8  C7  BZF d   1      -2.361  -0.836   0.123  0.00  0.00     0.029 A 
ATOM      9  C7A BZF d   1      -1.059  -0.402   0.089  0.00  0.00     0.058 A 
ENDROOT
TORSDOF 0
ENDMDL
