MODEL 1
REMARK minimizedAffinity -5.62108374
REMARK minimizedRMSD -1
REMARK  0 active torsions:
REMARK  status: ('A' for Active; 'I' for Inactive)
ROOT
ATOM      1  O1  BZF d   1      -3.111  -0.443  -1.725  0.00  0.00    -0.204 OA
ATOM      2  C2  BZF d   1      -3.681  -1.011  -0.602  0.00  0.00     0.174 A 
ATOM      3  C3  BZF d   1      -2.794  -1.060   0.412  0.00  0.00    -0.012 A 
ATOM      4  C3A BZF d   1      -1.622  -0.402  -0.080  0.00  0.00    -0.107 A 
ATOM      5  C4  BZF d   1      -0.404  -0.119   0.468  0.00  0.00     0.055 A 
ATOM      6  C5  BZF d   1       0.547   0.470  -0.304  0.00  0.00    -0.016 A 
ATOM      7  C6  BZF d   1       0.316   0.784  -1.627  0.00  0.00     0.022 A 
ATOM      8  C7  BZF d   1      -0.879   0.528  -2.214  0.00  0.00     0.029 A 
ATOM      9  C7A BZF d   1      -1.853  -0.037  -1.427  0.00  0.00     0.058 A 
ENDROOT
TORSDOF 0
ENDMDL
