MODEL 1
REMARK minimizedAffinity 2.46571684
REMARK minimizedRMSD -1
REMARK  0 active torsions:
REMARK  status: ('A' for Active; 'I' for Inactive)
ROOT
ATOM      1  O1  BZF d   1      -1.796  -1.954   1.177  0.00  0.00    -0.204 OA
ATOM      2  C2  BZF d   1      -2.814  -1.544   0.338  0.00  0.00     0.174 A 
ATOM      3  C3  BZF d   1      -2.380  -0.587  -0.508  0.00  0.00    -0.012 A 
ATOM      4  C3A BZF d   1      -0.982  -0.452  -0.239  0.00  0.00    -0.107 A 
ATOM      5  C4  BZF d   1       0.005   0.330  -0.768  0.00  0.00     0.055 A 
ATOM      6  C5  BZF d   1       1.252   0.273  -0.231  0.00  0.00    -0.016 A 
ATOM      7  C6  BZF d   1       1.546  -0.549   0.837  0.00  0.00     0.022 A 
ATOM      8  C7  BZF d   1       0.602  -1.347   1.392  0.00  0.00     0.029 A 
ATOM      9  C7A BZF d   1      -0.652  -1.316   0.830  0.00  0.00     0.058 A 
ENDROOT
TORSDOF 0
ENDMDL
