MODEL 1
REMARK minimizedAffinity -3.82060385
REMARK minimizedRMSD -1
REMARK  0 active torsions:
REMARK  status: ('A' for Active; 'I' for Inactive)
ROOT
ATOM      1  O1  BZF d   1       0.108   0.887   0.395  0.00  0.00    -0.204 OA
ATOM      2  C2  BZF d   1       0.720  -0.348   0.296  0.00  0.00     0.174 A 
ATOM      3  C3  BZF d   1       2.032  -0.210   0.014  0.00  0.00    -0.012 A 
ATOM      4  C3A BZF d   1       2.272   1.201   0.023  0.00  0.00    -0.107 A 
ATOM      5  C4  BZF d   1       3.387   1.965  -0.174  0.00  0.00     0.055 A 
ATOM      6  C5  BZF d   1       3.269   3.318  -0.170  0.00  0.00    -0.016 A 
ATOM      7  C6  BZF d   1       2.053   3.941   0.021  0.00  0.00     0.022 A 
ATOM      8  C7  BZF d   1       0.920   3.226   0.225  0.00  0.00     0.029 A 
ATOM      9  C7A BZF d   1       1.042   1.858   0.255  0.00  0.00     0.058 A 
ENDROOT
TORSDOF 0
ENDMDL
