MODEL 1
REMARK minimizedAffinity -2.03340244
REMARK minimizedRMSD -1
REMARK  0 active torsions:
REMARK  status: ('A' for Active; 'I' for Inactive)
ROOT
ATOM      1  O1  BZF d   1       1.142   0.117  -1.061  0.00  0.00    -0.204 OA
ATOM      2  C2  BZF d   1       1.131   0.175   0.319  0.00  0.00     0.174 A 
ATOM      3  C3  BZF d   1      -0.045  -0.270   0.808  0.00  0.00    -0.012 A 
ATOM      4  C3A BZF d   1      -0.782  -0.715  -0.335  0.00  0.00    -0.107 A 
ATOM      5  C4  BZF d   1      -2.017  -1.276  -0.495  0.00  0.00     0.055 A 
ATOM      6  C5  BZF d   1      -2.471  -1.526  -1.751  0.00  0.00    -0.016 A 
ATOM      7  C6  BZF d   1      -1.720  -1.224  -2.868  0.00  0.00     0.022 A 
ATOM      8  C7  BZF d   1      -0.487  -0.672  -2.759  0.00  0.00     0.029 A 
ATOM      9  C7A BZF d   1      -0.012  -0.448  -1.490  0.00  0.00     0.058 A 
ENDROOT
TORSDOF 0
ENDMDL
