MODEL 1
REMARK minimizedAffinity -5.86349297
REMARK minimizedRMSD -1
REMARK  0 active torsions:
REMARK  status: ('A' for Active; 'I' for Inactive)
ROOT
ATOM      1  O1  BZF d   1      -2.702  -0.829  -1.868  0.00  0.00    -0.204 OA
ATOM      2  C2  BZF d   1      -3.487  -1.204  -0.794  0.00  0.00     0.174 A 
ATOM      3  C3  BZF d   1      -2.808  -1.073   0.364  0.00  0.00    -0.012 A 
ATOM      4  C3A BZF d   1      -1.550  -0.498  -0.001  0.00  0.00    -0.107 A 
ATOM      5  C4  BZF d   1      -0.450  -0.117   0.713  0.00  0.00     0.055 A 
ATOM      6  C5  BZF d   1       0.643   0.342   0.048  0.00  0.00    -0.016 A 
ATOM      7  C6  BZF d   1       0.673   0.426  -1.328  0.00  0.00     0.022 A 
ATOM      8  C7  BZF d   1      -0.396   0.064  -2.079  0.00  0.00     0.029 A 
ATOM      9  C7A BZF d   1      -1.514  -0.368  -1.408  0.00  0.00     0.058 A 
ENDROOT
TORSDOF 0
ENDMDL
