MODEL 1
REMARK minimizedAffinity -2.39208293
REMARK minimizedRMSD -1
REMARK  0 active torsions:
REMARK  status: ('A' for Active; 'I' for Inactive)
ROOT
ATOM      1  O1  BZF d   1       1.305   2.382   0.315  0.00  0.00    -0.204 OA
ATOM      2  C2  BZF d   1       2.670   2.254   0.143  0.00  0.00     0.174 A 
ATOM      3  C3  BZF d   1       3.049   0.966   0.272  0.00  0.00    -0.012 A 
ATOM      4  C3A BZF d   1       1.834   0.232   0.450  0.00  0.00    -0.107 A 
ATOM      5  C4  BZF d   1       1.554  -1.095   0.617  0.00  0.00     0.055 A 
ATOM      6  C5  BZF d   1       0.269  -1.476   0.837  0.00  0.00    -0.016 A 
ATOM      7  C6  BZF d   1      -0.760  -0.559   0.902  0.00  0.00     0.022 A 
ATOM      8  C7  BZF d   1      -0.532   0.767   0.737  0.00  0.00     0.029 A 
ATOM      9  C7A BZF d   1       0.761   1.152   0.482  0.00  0.00     0.058 A 
ENDROOT
TORSDOF 0
ENDMDL
