MODEL 1
REMARK minimizedAffinity -1.26008713
REMARK minimizedRMSD -1
REMARK  0 active torsions:
REMARK  status: ('A' for Active; 'I' for Inactive)
ROOT
ATOM      1  O1  BZF d   1       1.746  -1.051   1.145  0.00  0.00    -0.204 OA
ATOM      2  C2  BZF d   1       2.224  -0.290   0.096  0.00  0.00     0.174 A 
ATOM      3  C3  BZF d   1       1.217   0.364  -0.519  0.00  0.00    -0.012 A 
ATOM      4  C3A BZF d   1       0.048   0.061   0.249  0.00  0.00    -0.107 A 
ATOM      5  C4  BZF d   1      -1.263   0.429   0.147  0.00  0.00     0.055 A 
ATOM      6  C5  BZF d   1      -2.167  -0.100   1.013  0.00  0.00    -0.016 A 
ATOM      7  C6  BZF d   1      -1.796  -1.003   1.987  0.00  0.00     0.022 A 
ATOM      8  C7  BZF d   1      -0.506  -1.395   2.130  0.00  0.00     0.029 A 
ATOM      9  C7A BZF d   1       0.415  -0.837   1.278  0.00  0.00     0.058 A 
ENDROOT
TORSDOF 0
ENDMDL
