MODEL 1
REMARK minimizedAffinity -5.10208511
REMARK minimizedRMSD -1
REMARK  0 active torsions:
REMARK  status: ('A' for Active; 'I' for Inactive)
ROOT
ATOM      1  O1  BZF d   1       1.553   0.388  -0.342  0.00  0.00    -0.204 OA
ATOM      2  C2  BZF d   1       2.317  -0.141   0.681  0.00  0.00     0.174 A 
ATOM      3  C3  BZF d   1       1.540  -0.792   1.571  0.00  0.00    -0.012 A 
ATOM      4  C3A BZF d   1       0.219  -0.741   1.025  0.00  0.00    -0.107 A 
ATOM      5  C4  BZF d   1      -0.988  -1.226   1.441  0.00  0.00     0.055 A 
ATOM      6  C5  BZF d   1      -2.101  -0.940   0.714  0.00  0.00    -0.016 A 
ATOM      7  C6  BZF d   1      -2.044  -0.169  -0.428  0.00  0.00     0.022 A 
ATOM      8  C7  BZF d   1      -0.868   0.330  -0.883  0.00  0.00     0.029 A 
ATOM      9  C7A BZF d   1       0.262   0.015  -0.169  0.00  0.00     0.058 A 
ENDROOT
TORSDOF 0
ENDMDL
