MODEL 1
REMARK minimizedAffinity -4.41439676
REMARK minimizedRMSD -1
REMARK  0 active torsions:
REMARK  status: ('A' for Active; 'I' for Inactive)
ROOT
ATOM      1  O1  BZF d   1      -2.468  -0.333  -1.010  0.00  0.00    -0.204 OA
ATOM      2  C2  BZF d   1      -3.090  -0.782   0.139  0.00  0.00     0.174 A 
ATOM      3  C3  BZF d   1      -2.185  -1.037   1.105  0.00  0.00    -0.012 A 
ATOM      4  C3A BZF d   1      -0.925  -0.642   0.554  0.00  0.00    -0.107 A 
ATOM      5  C4  BZF d   1       0.352  -0.638   1.039  0.00  0.00     0.055 A 
ATOM      6  C5  BZF d   1       1.367  -0.257   0.220  0.00  0.00    -0.016 A 
ATOM      7  C6  BZF d   1       1.144   0.121  -1.087  0.00  0.00     0.022 A 
ATOM      8  C7  BZF d   1      -0.106   0.138  -1.611  0.00  0.00     0.029 A 
ATOM      9  C7A BZF d   1      -1.139  -0.215  -0.777  0.00  0.00     0.058 A 
ENDROOT
TORSDOF 0
ENDMDL
