MODEL 1
REMARK minimizedAffinity -3.35107327
REMARK minimizedRMSD -1
REMARK  0 active torsions:
REMARK  status: ('A' for Active; 'I' for Inactive)
ROOT
ATOM      1  O1  BZF d   1      -0.426   0.602   1.020  0.00  0.00    -0.204 OA
ATOM      2  C2  BZF d   1       0.774   0.921   0.414  0.00  0.00     0.174 A 
ATOM      3  C3  BZF d   1       0.751   0.596  -0.894  0.00  0.00    -0.012 A 
ATOM      4  C3A BZF d   1      -0.577   0.124  -1.141  0.00  0.00    -0.107 A 
ATOM      5  C4  BZF d   1      -1.219  -0.331  -2.258  0.00  0.00     0.055 A 
ATOM      6  C5  BZF d   1      -2.495  -0.785  -2.146  0.00  0.00    -0.016 A 
ATOM      7  C6  BZF d   1      -3.156  -0.804  -0.935  0.00  0.00     0.022 A 
ATOM      8  C7  BZF d   1      -2.562  -0.359   0.198  0.00  0.00     0.029 A 
ATOM      9  C7A BZF d   1      -1.284   0.132   0.083  0.00  0.00     0.058 A 
ENDROOT
TORSDOF 0
ENDMDL
