MODEL 1
REMARK minimizedAffinity -2.05307579
REMARK minimizedRMSD -1
REMARK  0 active torsions:
REMARK  status: ('A' for Active; 'I' for Inactive)
ROOT
ATOM      1  O1  BZF d   1       0.469   0.000   1.092  0.00  0.00    -0.204 OA
ATOM      2  C2  BZF d   1       0.068  -0.287  -0.198  0.00  0.00     0.174 A 
ATOM      3  C3  BZF d   1       0.418   0.706  -1.040  0.00  0.00    -0.012 A 
ATOM      4  C3A BZF d   1       1.160   1.632  -0.242  0.00  0.00    -0.107 A 
ATOM      5  C4  BZF d   1       1.787   2.815  -0.515  0.00  0.00     0.055 A 
ATOM      6  C5  BZF d   1       2.359   3.509   0.504  0.00  0.00    -0.016 A 
ATOM      7  C6  BZF d   1       2.320   3.053   1.805  0.00  0.00     0.022 A 
ATOM      8  C7  BZF d   1       1.715   1.883   2.124  0.00  0.00     0.029 A 
ATOM      9  C7A BZF d   1       1.164   1.163   1.092  0.00  0.00     0.058 A 
ENDROOT
TORSDOF 0
ENDMDL
