MODEL 1
REMARK minimizedAffinity -1.94224679
REMARK minimizedRMSD -1
REMARK  0 active torsions:
REMARK  status: ('A' for Active; 'I' for Inactive)
ROOT
ATOM      1  O1  BZF d   1       1.266   3.597   0.787  0.00  0.00    -0.204 OA
ATOM      2  C2  BZF d   1       2.486   3.682   1.429  0.00  0.00     0.174 A 
ATOM      3  C3  BZF d   1       2.983   2.454   1.678  0.00  0.00    -0.012 A 
ATOM      4  C3A BZF d   1       2.057   1.544   1.077  0.00  0.00    -0.107 A 
ATOM      5  C4  BZF d   1       2.010   0.183   0.973  0.00  0.00     0.055 A 
ATOM      6  C5  BZF d   1       0.931  -0.398   0.387  0.00  0.00    -0.016 A 
ATOM      7  C6  BZF d   1      -0.121   0.350  -0.101  0.00  0.00     0.022 A 
ATOM      8  C7  BZF d   1      -0.118   1.703  -0.026  0.00  0.00     0.029 A 
ATOM      9  C7A BZF d   1       0.987   2.295   0.536  0.00  0.00     0.058 A 
ENDROOT
TORSDOF 0
ENDMDL
