MODEL 1
REMARK minimizedAffinity -3.33155751
REMARK minimizedRMSD -1
REMARK  0 active torsions:
REMARK  status: ('A' for Active; 'I' for Inactive)
ROOT
ATOM      1  O1  BZF d   1      -0.298  -0.290   1.160  0.00  0.00    -0.204 OA
ATOM      2  C2  BZF d   1       0.835   0.238   0.573  0.00  0.00     0.174 A 
ATOM      3  C3  BZF d   1       0.724   0.234  -0.771  0.00  0.00    -0.012 A 
ATOM      4  C3A BZF d   1      -0.597  -0.246  -1.038  0.00  0.00    -0.107 A 
ATOM      5  C4  BZF d   1      -1.304  -0.459  -2.187  0.00  0.00     0.055 A 
ATOM      6  C5  BZF d   1      -2.546  -1.005  -2.106  0.00  0.00    -0.016 A 
ATOM      7  C6  BZF d   1      -3.109  -1.354  -0.896  0.00  0.00     0.022 A 
ATOM      8  C7  BZF d   1      -2.448  -1.157   0.271  0.00  0.00     0.029 A 
ATOM      9  C7A BZF d   1      -1.206  -0.575   0.195  0.00  0.00     0.058 A 
ENDROOT
TORSDOF 0
ENDMDL
