MODEL 1
REMARK minimizedAffinity -1.18189776
REMARK minimizedRMSD -1
REMARK  1 active torsions:
REMARK  status: ('A' for Active; 'I' for Inactive)
REMARK    1  A    between atoms: N_2  and  C1_3 
ROOT
ATOM      1  C1  UNL d   1       2.689  -6.000  -3.271  0.00  0.00     0.143 A 
ATOM      2  C2  UNL d   1       1.773  -5.987  -4.328  0.00  0.00    -0.057 A 
ATOM      3  C3  UNL d   1       2.203  -6.000  -5.661  0.00  0.00     0.033 A 
ATOM      4  C4  UNL d   1       3.561  -5.997  -5.960  0.00  0.00    -0.042 A 
ATOM      5  C5  UNL d   1       4.489  -5.984  -4.925  0.00  0.00     0.033 A 
ATOM      6  C6  UNL d   1       4.054  -5.978  -3.597  0.00  0.00    -0.057 A 
ENDROOT
BRANCH   1   7
ATOM      7  N   UNL d   1       2.326  -5.889  -1.926  0.00  0.00    -0.732 N 
ATOM      8  C   UNL d   1       3.334  -5.888  -0.888  0.00  0.00     0.284 C 
ATOM      9  H3  UNL d   1       1.578  -5.214  -1.780  0.00  0.00     0.395 HD
ENDBRANCH   1   7
TORSDOF 1
ENDMDL
