MODEL 1
REMARK minimizedAffinity -0.726918697
REMARK minimizedRMSD -1
REMARK  1 active torsions:
REMARK  status: ('A' for Active; 'I' for Inactive)
REMARK    1  A    between atoms: N_2  and  C1_3 
ROOT
ATOM      1  C1  UNL d   1       3.962  -3.361  -2.755  0.00  0.00     0.143 A 
ATOM      2  C2  UNL d   1       3.691  -3.936  -1.509  0.00  0.00    -0.057 A 
ATOM      3  C3  UNL d   1       3.208  -5.246  -1.404  0.00  0.00     0.033 A 
ATOM      4  C4  UNL d   1       2.959  -5.996  -2.548  0.00  0.00    -0.042 A 
ATOM      5  C5  UNL d   1       3.197  -5.436  -3.798  0.00  0.00     0.033 A 
ATOM      6  C6  UNL d   1       3.686  -4.130  -3.897  0.00  0.00    -0.057 A 
ENDROOT
BRANCH   1   7
ATOM      7  N   UNL d   1       4.350  -2.030  -2.929  0.00  0.00    -0.732 N 
ATOM      8  C   UNL d   1       3.359  -0.980  -3.024  0.00  0.00     0.284 C 
ATOM      9  H3  UNL d   1       5.163  -1.786  -2.367  0.00  0.00     0.395 HD
ENDBRANCH   1   7
TORSDOF 1
ENDMDL
