MODEL 1
REMARK minimizedAffinity -1.9287616
REMARK minimizedRMSD -1
REMARK  1 active torsions:
REMARK  status: ('A' for Active; 'I' for Inactive)
REMARK    1  A    between atoms: N_2  and  C1_3 
ROOT
ATOM      1  C1  UNL d   1       3.563  -5.983  -3.284  0.00  0.00     0.143 A 
ATOM      2  C2  UNL d   1       2.186  -5.966  -3.525  0.00  0.00    -0.057 A 
ATOM      3  C3  UNL d   1       1.677  -5.989  -4.829  0.00  0.00     0.033 A 
ATOM      4  C4  UNL d   1       2.541  -5.999  -5.919  0.00  0.00    -0.042 A 
ATOM      5  C5  UNL d   1       3.914  -5.990  -5.703  0.00  0.00     0.033 A 
ATOM      6  C6  UNL d   1       4.416  -5.975  -4.398  0.00  0.00    -0.057 A 
ENDROOT
BRANCH   1   7
ATOM      7  N   UNL d   1       4.132  -5.863  -2.013  0.00  0.00    -0.732 N 
ATOM      8  C   UNL d   1       3.317  -6.000  -0.825  0.00  0.00     0.284 C 
ATOM      9  H3  UNL d   1       5.040  -6.317  -1.949  0.00  0.00     0.395 HD
ENDBRANCH   1   7
TORSDOF 1
ENDMDL
