MODEL 1
REMARK minimizedAffinity 0.38595736
REMARK minimizedRMSD -1
REMARK  1 active torsions:
REMARK  status: ('A' for Active; 'I' for Inactive)
REMARK    1  A    between atoms: N_2  and  C1_3 
ROOT
ATOM      1  C1  UNL d   1       1.304  -3.795   4.798  0.00  0.00     0.143 A 
ATOM      2  C2  UNL d   1       1.139  -2.433   4.527  0.00  0.00    -0.057 A 
ATOM      3  C3  UNL d   1       1.785  -1.824   3.445  0.00  0.00     0.033 A 
ATOM      4  C4  UNL d   1       2.634  -2.564   2.628  0.00  0.00    -0.042 A 
ATOM      5  C5  UNL d   1       2.832  -3.914   2.893  0.00  0.00     0.033 A 
ATOM      6  C6  UNL d   1       2.179  -4.518   3.972  0.00  0.00    -0.057 A 
ENDROOT
BRANCH   1   7
ATOM      7  N   UNL d   1       0.767  -4.437   5.917  0.00  0.00    -0.732 N 
ATOM      8  C   UNL d   1       0.735  -5.882   5.993  0.00  0.00     0.284 C 
ATOM      9  H3  UNL d   1       1.025  -3.980   6.788  0.00  0.00     0.395 HD
ENDBRANCH   1   7
TORSDOF 1
ENDMDL
