MODEL 1
REMARK minimizedAffinity 3.18006706
REMARK minimizedRMSD -1
REMARK  0 active torsions:
REMARK  status: ('A' for Active; 'I' for Inactive)
ROOT
ATOM      1  C   UNL d   1      -0.870   1.284  -1.223  0.00  0.00     0.172 C 
ATOM      2  N   UNL d   1      -0.738   2.696  -0.952  0.00  0.00    -0.070 N 
ATOM      3  C1  UNL d   1      -0.412   3.250   0.257  0.00  0.00    -0.004 A 
ATOM      4  C2  UNL d   1      -0.388   4.619   0.101  0.00  0.00    -0.047 A 
ATOM      5  C3  UNL d   1      -0.713   4.898  -1.248  0.00  0.00    -0.047 A 
ATOM      6  C4  UNL d   1      -0.925   3.689  -1.877  0.00  0.00    -0.004 A 
ENDROOT
TORSDOF 0
ENDMDL
