MODEL 1
REMARK minimizedAffinity 1.78695953
REMARK minimizedRMSD -1
REMARK  0 active torsions:
REMARK  status: ('A' for Active; 'I' for Inactive)
ROOT
ATOM      1  C   UNL d   1      -2.581  -1.128  -1.873  0.00  0.00     0.172 C 
ATOM      2  N   UNL d   1      -1.176  -1.084  -2.204  0.00  0.00    -0.070 N 
ATOM      3  C1  UNL d   1      -0.645  -1.249  -3.455  0.00  0.00    -0.004 A 
ATOM      4  C2  UNL d   1       0.725  -1.137  -3.350  0.00  0.00    -0.047 A 
ATOM      5  C3  UNL d   1       1.027  -0.899  -1.988  0.00  0.00    -0.047 A 
ATOM      6  C4  UNL d   1      -0.168  -0.871  -1.301  0.00  0.00    -0.004 A 
ENDROOT
TORSDOF 0
ENDMDL
