MODEL 1
REMARK minimizedAffinity 2.27109504
REMARK minimizedRMSD -1
REMARK  0 active torsions:
REMARK  status: ('A' for Active; 'I' for Inactive)
ROOT
ATOM      1  C   UNL d   1      -0.625   0.923  -0.904  0.00  0.00     0.172 C 
ATOM      2  N   UNL d   1      -0.640   2.344  -0.648  0.00  0.00    -0.070 N 
ATOM      3  C1  UNL d   1      -0.613   2.933   0.588  0.00  0.00    -0.004 A 
ATOM      4  C2  UNL d   1      -0.640   4.299   0.406  0.00  0.00    -0.047 A 
ATOM      5  C3  UNL d   1      -0.685   4.539  -0.988  0.00  0.00    -0.047 A 
ATOM      6  C4  UNL d   1      -0.684   3.312  -1.617  0.00  0.00    -0.004 A 
ENDROOT
TORSDOF 0
ENDMDL
