MODEL 1
REMARK minimizedAffinity 7.59290504
REMARK minimizedRMSD -1
REMARK  0 active torsions:
REMARK  status: ('A' for Active; 'I' for Inactive)
ROOT
ATOM      1  C   UNL d   1       2.218  -0.927   2.874  0.00  0.00     0.172 C 
ATOM      2  N   UNL d   1       1.509  -1.279   4.082  0.00  0.00    -0.070 N 
ATOM      3  C1  UNL d   1       0.337  -0.717   4.513  0.00  0.00    -0.004 A 
ATOM      4  C2  UNL d   1      -0.012  -1.325   5.700  0.00  0.00    -0.047 A 
ATOM      5  C3  UNL d   1       0.986  -2.285   5.992  0.00  0.00    -0.047 A 
ATOM      6  C4  UNL d   1       1.915  -2.236   4.975  0.00  0.00    -0.004 A 
ENDROOT
TORSDOF 0
ENDMDL
