MODEL 1
REMARK minimizedAffinity 4.23706818
REMARK minimizedRMSD -1
REMARK  0 active torsions:
REMARK  status: ('A' for Active; 'I' for Inactive)
ROOT
ATOM      1  C   UNL d   1       6.000  -2.248  -1.505  0.00  0.00     0.172 C 
ATOM      2  N   UNL d   1       4.784  -2.651  -0.838  0.00  0.00    -0.070 N 
ATOM      3  C1  UNL d   1       4.587  -3.840  -0.188  0.00  0.00    -0.004 A 
ATOM      4  C2  UNL d   1       3.302  -3.840   0.311  0.00  0.00    -0.047 A 
ATOM      5  C3  UNL d   1       2.706  -2.609  -0.053  0.00  0.00    -0.047 A 
ATOM      6  C4  UNL d   1       3.646  -1.892  -0.763  0.00  0.00    -0.004 A 
ENDROOT
TORSDOF 0
ENDMDL
