MODEL 1
REMARK minimizedAffinity 2.69730091
REMARK minimizedRMSD -1
REMARK  0 active torsions:
REMARK  status: ('A' for Active; 'I' for Inactive)
ROOT
ATOM      1  C   UNL d   1      -0.255   2.926   0.269  0.00  0.00     0.172 C 
ATOM      2  N   UNL d   1       0.012   2.284   1.534  0.00  0.00    -0.070 N 
ATOM      3  C1  UNL d   1       1.157   2.419   2.272  0.00  0.00    -0.004 A 
ATOM      4  C2  UNL d   1       1.021   1.650   3.407  0.00  0.00    -0.047 A 
ATOM      5  C3  UNL d   1      -0.250   1.030   3.349  0.00  0.00    -0.047 A 
ATOM      6  C4  UNL d   1      -0.853   1.440   2.179  0.00  0.00    -0.004 A 
ENDROOT
TORSDOF 0
ENDMDL
