MODEL 1
REMARK minimizedAffinity 0.934487164
REMARK minimizedRMSD -1
REMARK  0 active torsions:
REMARK  status: ('A' for Active; 'I' for Inactive)
ROOT
ATOM      1  C   UNL d   1      -0.221   4.028  -0.353  0.00  0.00     0.172 C 
ATOM      2  N   UNL d   1       0.041   3.383   0.912  0.00  0.00    -0.070 N 
ATOM      3  C1  UNL d   1      -0.896   2.793   1.717  0.00  0.00    -0.004 A 
ATOM      4  C2  UNL d   1      -0.248   2.295   2.826  0.00  0.00    -0.047 A 
ATOM      5  C3  UNL d   1       1.128   2.597   2.683  0.00  0.00    -0.047 A 
ATOM      6  C4  UNL d   1       1.278   3.271   1.489  0.00  0.00    -0.004 A 
ENDROOT
TORSDOF 0
ENDMDL
