MODEL 1
REMARK minimizedAffinity -0.129408672
REMARK minimizedRMSD -1
REMARK  0 active torsions:
REMARK  status: ('A' for Active; 'I' for Inactive)
ROOT
ATOM      1  C   UNL d   1      -4.472  -4.951   5.293  0.00  0.00     0.172 C 
ATOM      2  N   UNL d   1      -4.844  -3.563   5.432  0.00  0.00    -0.070 N 
ATOM      3  C1  UNL d   1      -6.000  -3.098   6.000  0.00  0.00    -0.004 A 
ATOM      4  C2  UNL d   1      -5.976  -1.722   5.940  0.00  0.00    -0.047 A 
ATOM      5  C3  UNL d   1      -4.764  -1.346   5.314  0.00  0.00    -0.047 A 
ATOM      6  C4  UNL d   1      -4.082  -2.505   5.009  0.00  0.00    -0.004 A 
ENDROOT
TORSDOF 0
ENDMDL
