MODEL 1
REMARK minimizedAffinity 1.86127269
REMARK minimizedRMSD -1
REMARK  0 active torsions:
REMARK  status: ('A' for Active; 'I' for Inactive)
ROOT
ATOM      1  C   UNL d   1      -0.398  -2.516  -5.516  0.00  0.00     0.172 C 
ATOM      2  N   UNL d   1       0.180  -3.818  -5.274  0.00  0.00    -0.070 N 
ATOM      3  C1  UNL d   1       1.088  -4.119  -4.295  0.00  0.00    -0.004 A 
ATOM      4  C2  UNL d   1       1.389  -5.460  -4.396  0.00  0.00    -0.047 A 
ATOM      5  C3  UNL d   1       0.636  -5.983  -5.474  0.00  0.00    -0.047 A 
ATOM      6  C4  UNL d   1      -0.104  -4.945  -6.000  0.00  0.00    -0.004 A 
ENDROOT
TORSDOF 0
ENDMDL
