MODEL 1
REMARK minimizedAffinity 13.9455223
REMARK minimizedRMSD -1
REMARK  1 active torsions:
REMARK  status: ('A' for Active; 'I' for Inactive)
REMARK    1  A    between atoms: N_2  and  C1_3 
ROOT
ATOM      1  C1  UNL d   1       3.759  -1.482   1.353  0.00  0.00     0.143 A 
ATOM      2  C2  UNL d   1       2.880  -0.594   0.723  0.00  0.00    -0.057 A 
ATOM      3  C3  UNL d   1       1.500  -0.653   0.952  0.00  0.00     0.033 A 
ATOM      4  C4  UNL d   1       0.970  -1.623   1.796  0.00  0.00    -0.042 A 
ATOM      5  C5  UNL d   1       1.822  -2.531   2.414  0.00  0.00     0.033 A 
ATOM      6  C6  UNL d   1       3.200  -2.463   2.187  0.00  0.00    -0.057 A 
ENDROOT
BRANCH   1   7
ATOM      7  N   UNL d   1       5.130  -1.537   1.090  0.00  0.00    -0.732 N 
ATOM      8  C   UNL d   1       5.991  -2.415   1.852  0.00  0.00     0.284 C 
ATOM      9  H3  UNL d   1       5.336  -1.514   0.094  0.00  0.00     0.395 HD
ENDBRANCH   1   7
TORSDOF 1
ENDMDL
