MODEL 1
REMARK minimizedAffinity 11.7171068
REMARK minimizedRMSD -1
REMARK  1 active torsions:
REMARK  status: ('A' for Active; 'I' for Inactive)
REMARK    1  A    between atoms: N_2  and  C1_3 
ROOT
ATOM      1  C1  UNL d   1       0.989  -1.155   3.490  0.00  0.00     0.143 A 
ATOM      2  C2  UNL d   1       1.559   0.100   3.255  0.00  0.00    -0.057 A 
ATOM      3  C3  UNL d   1       2.008   0.466   1.980  0.00  0.00     0.033 A 
ATOM      4  C4  UNL d   1       1.922  -0.432   0.921  0.00  0.00    -0.042 A 
ATOM      5  C5  UNL d   1       1.382  -1.694   1.138  0.00  0.00     0.033 A 
ATOM      6  C6  UNL d   1       0.929  -2.051   2.411  0.00  0.00    -0.057 A 
ENDROOT
BRANCH   1   7
ATOM      7  N   UNL d   1       0.614  -1.614   4.755  0.00  0.00    -0.732 N 
ATOM      8  C   UNL d   1       1.104  -0.963   5.951  0.00  0.00     0.284 C 
ATOM      9  H3  UNL d   1      -0.368  -1.877   4.797  0.00  0.00     0.395 HD
ENDBRANCH   1   7
TORSDOF 1
ENDMDL
