MODEL 1
REMARK minimizedAffinity 13.7645226
REMARK minimizedRMSD -1
REMARK  1 active torsions:
REMARK  status: ('A' for Active; 'I' for Inactive)
REMARK    1  A    between atoms: N_2  and  C1_3 
ROOT
ATOM      1  C1  UNL d   1       1.541  -2.036   3.226  0.00  0.00     0.143 A 
ATOM      2  C2  UNL d   1       0.735  -0.960   2.838  0.00  0.00    -0.057 A 
ATOM      3  C3  UNL d   1       0.943  -0.300   1.621  0.00  0.00     0.033 A 
ATOM      4  C4  UNL d   1       1.982  -0.687   0.781  0.00  0.00    -0.042 A 
ATOM      5  C5  UNL d   1       2.811  -1.738   1.158  0.00  0.00     0.033 A 
ATOM      6  C6  UNL d   1       2.594  -2.398   2.371  0.00  0.00    -0.057 A 
ENDROOT
BRANCH   1   7
ATOM      7  N   UNL d   1       1.447  -2.669   4.468  0.00  0.00    -0.732 N 
ATOM      8  C   UNL d   1       1.944  -4.017   4.647  0.00  0.00     0.284 C 
ATOM      9  H3  UNL d   1       1.657  -2.042   5.241  0.00  0.00     0.395 HD
ENDBRANCH   1   7
TORSDOF 1
ENDMDL
