MODEL 1
REMARK minimizedAffinity 6.92373037
REMARK minimizedRMSD -1
REMARK  1 active torsions:
REMARK  status: ('A' for Active; 'I' for Inactive)
REMARK    1  A    between atoms: N_2  and  C1_3 
ROOT
ATOM      1  C1  UNL d   1      -3.315   3.643   1.261  0.00  0.00     0.143 A 
ATOM      2  C2  UNL d   1      -4.150   3.973   0.187  0.00  0.00    -0.057 A 
ATOM      3  C3  UNL d   1      -5.390   4.589   0.394  0.00  0.00     0.033 A 
ATOM      4  C4  UNL d   1      -5.831   4.861   1.685  0.00  0.00    -0.042 A 
ATOM      5  C5  UNL d   1      -5.029   4.520   2.768  0.00  0.00     0.033 A 
ATOM      6  C6  UNL d   1      -3.789   3.910   2.555  0.00  0.00    -0.057 A 
ENDROOT
BRANCH   1   7
ATOM      7  N   UNL d   1      -2.115   2.940   1.126  0.00  0.00    -0.732 N 
ATOM      8  C   UNL d   1      -0.960   3.293   1.923  0.00  0.00     0.284 C 
ATOM      9  H3  UNL d   1      -2.261   1.938   1.026  0.00  0.00     0.395 HD
ENDBRANCH   1   7
TORSDOF 1
ENDMDL
