MODEL 1
REMARK minimizedAffinity 11.3394527
REMARK minimizedRMSD -1
REMARK  1 active torsions:
REMARK  status: ('A' for Active; 'I' for Inactive)
REMARK    1  A    between atoms: N_2  and  C1_3 
ROOT
ATOM      1  C1  UNL d   1      -5.133  -3.750  -5.539  0.00  0.00     0.143 A 
ATOM      2  C2  UNL d   1      -5.998  -2.750  -5.996  0.00  0.00    -0.057 A 
ATOM      3  C3  UNL d   1      -5.996  -1.472  -5.425  0.00  0.00     0.033 A 
ATOM      4  C4  UNL d   1      -5.146  -1.179  -4.364  0.00  0.00    -0.042 A 
ATOM      5  C5  UNL d   1      -4.295  -2.165  -3.877  0.00  0.00     0.033 A 
ATOM      6  C6  UNL d   1      -4.297  -3.437  -4.456  0.00  0.00    -0.057 A 
ENDROOT
BRANCH   1   7
ATOM      7  N   UNL d   1      -5.156  -5.069  -6.000  0.00  0.00    -0.732 N 
ATOM      8  C   UNL d   1      -4.113  -5.999  -5.625  0.00  0.00     0.284 C 
ATOM      9  H3  UNL d   1      -6.092  -5.468  -5.988  0.00  0.00     0.395 HD
ENDBRANCH   1   7
TORSDOF 1
ENDMDL
