MODEL 1
REMARK minimizedAffinity 10.3905401
REMARK minimizedRMSD -1
REMARK  1 active torsions:
REMARK  status: ('A' for Active; 'I' for Inactive)
REMARK    1  A    between atoms: N_2  and  C1_3 
ROOT
ATOM      1  C1  UNL d   1      -4.280   3.279  -0.460  0.00  0.00     0.143 A 
ATOM      2  C2  UNL d   1      -3.197   2.924   0.352  0.00  0.00    -0.057 A 
ATOM      3  C3  UNL d   1      -2.201   2.053  -0.106  0.00  0.00     0.033 A 
ATOM      4  C4  UNL d   1      -2.286   1.498  -1.378  0.00  0.00    -0.042 A 
ATOM      5  C5  UNL d   1      -3.365   1.817  -2.194  0.00  0.00     0.033 A 
ATOM      6  C6  UNL d   1      -4.354   2.693  -1.733  0.00  0.00    -0.057 A 
ENDROOT
BRANCH   1   7
ATOM      7  N   UNL d   1      -5.353   4.062  -0.027  0.00  0.00    -0.732 N 
ATOM      8  C   UNL d   1      -5.987   5.004  -0.925  0.00  0.00     0.284 C 
ATOM      9  H3  UNL d   1      -6.003   3.541   0.556  0.00  0.00     0.395 HD
ENDBRANCH   1   7
TORSDOF 1
ENDMDL
