MODEL 1
REMARK minimizedAffinity 6.55735826
REMARK minimizedRMSD -1
REMARK  1 active torsions:
REMARK  status: ('A' for Active; 'I' for Inactive)
REMARK    1  A    between atoms: N_2  and  C1_3 
ROOT
ATOM      1  C1  UNL d   1       3.310  -1.631   1.438  0.00  0.00     0.143 A 
ATOM      2  C2  UNL d   1       2.659  -2.426   2.387  0.00  0.00    -0.057 A 
ATOM      3  C3  UNL d   1       1.316  -2.211   2.717  0.00  0.00     0.033 A 
ATOM      4  C4  UNL d   1       0.605  -1.173   2.122  0.00  0.00    -0.042 A 
ATOM      5  C5  UNL d   1       1.239  -0.354   1.195  0.00  0.00     0.033 A 
ATOM      6  C6  UNL d   1       2.578  -0.579   0.864  0.00  0.00    -0.057 A 
ENDROOT
BRANCH   1   7
ATOM      7  N   UNL d   1       4.671  -1.733   1.139  0.00  0.00    -0.732 N 
ATOM      8  C   UNL d   1       5.577  -2.398   2.049  0.00  0.00     0.284 C 
ATOM      9  H3  UNL d   1       4.838  -1.942   0.157  0.00  0.00     0.395 HD
ENDBRANCH   1   7
TORSDOF 1
ENDMDL
