MODEL 1
REMARK minimizedAffinity -0.865829945
REMARK minimizedRMSD -1
REMARK  1 active torsions:
REMARK  status: ('A' for Active; 'I' for Inactive)
REMARK    1  A    between atoms: N_2  and  C1_3 
ROOT
ATOM      1  C1  UNL d   1       4.163   4.945  -2.842  0.00  0.00     0.143 A 
ATOM      2  C2  UNL d   1       5.354   5.679  -2.862  0.00  0.00    -0.057 A 
ATOM      3  C3  UNL d   1       5.996   5.988  -4.068  0.00  0.00     0.033 A 
ATOM      4  C4  UNL d   1       5.471   5.543  -5.276  0.00  0.00    -0.042 A 
ATOM      5  C5  UNL d   1       4.301   4.791  -5.278  0.00  0.00     0.033 A 
ATOM      6  C6  UNL d   1       3.662   4.490  -4.072  0.00  0.00    -0.057 A 
ENDROOT
BRANCH   1   7
ATOM      7  N   UNL d   1       3.531   4.521  -1.671  0.00  0.00    -0.732 N 
ATOM      8  C   UNL d   1       2.145   4.104  -1.690  0.00  0.00     0.284 C 
ATOM      9  H3  UNL d   1       4.132   3.938  -1.093  0.00  0.00     0.395 HD
ENDBRANCH   1   7
TORSDOF 1
ENDMDL
