MODEL 1
REMARK minimizedAffinity -2.60598803
REMARK minimizedRMSD -1
REMARK  1 active torsions:
REMARK  status: ('A' for Active; 'I' for Inactive)
REMARK    1  A    between atoms: N_2  and  C1_3 
ROOT
ATOM      1  C1  UNL d   1       5.631   4.943  -2.990  0.00  0.00     0.143 A 
ATOM      2  C2  UNL d   1       5.793   3.647  -3.491  0.00  0.00    -0.057 A 
ATOM      3  C3  UNL d   1       5.990   3.416  -4.858  0.00  0.00     0.033 A 
ATOM      4  C4  UNL d   1       6.000   4.480  -5.755  0.00  0.00    -0.042 A 
ATOM      5  C5  UNL d   1       5.816   5.774  -5.283  0.00  0.00     0.033 A 
ATOM      6  C6  UNL d   1       5.626   5.999  -3.916  0.00  0.00    -0.057 A 
ENDROOT
BRANCH   1   7
ATOM      7  N   UNL d   1       5.334   5.230  -1.656  0.00  0.00    -0.732 N 
ATOM      8  C   UNL d   1       4.116   4.735  -1.050  0.00  0.00     0.284 C 
ATOM      9  H3  UNL d   1       6.152   5.171  -1.054  0.00  0.00     0.395 HD
ENDBRANCH   1   7
TORSDOF 1
ENDMDL
