MODEL 1
REMARK minimizedAffinity 5.37784529
REMARK minimizedRMSD -1
REMARK  1 active torsions:
REMARK  status: ('A' for Active; 'I' for Inactive)
REMARK    1  A    between atoms: N_2  and  C1_3 
ROOT
ATOM      1  C1  UNL d   1       0.920  -2.936   3.716  0.00  0.00     0.143 A 
ATOM      2  C2  UNL d   1       0.425  -1.636   3.858  0.00  0.00    -0.057 A 
ATOM      3  C3  UNL d   1       0.749  -0.631   2.938  0.00  0.00     0.033 A 
ATOM      4  C4  UNL d   1       1.600  -0.904   1.872  0.00  0.00    -0.042 A 
ATOM      5  C5  UNL d   1       2.124  -2.184   1.725  0.00  0.00     0.033 A 
ATOM      6  C6  UNL d   1       1.791  -3.184   2.644  0.00  0.00    -0.057 A 
ENDROOT
BRANCH   1   7
ATOM      7  N   UNL d   1       0.714  -3.953   4.652  0.00  0.00    -0.732 N 
ATOM      8  C   UNL d   1       1.672  -4.186   5.710  0.00  0.00     0.284 C 
ATOM      9  H3  UNL d   1      -0.257  -4.017   4.949  0.00  0.00     0.395 HD
ENDBRANCH   1   7
TORSDOF 1
ENDMDL
