MODEL 1
REMARK minimizedAffinity 18.3894234
REMARK minimizedRMSD -1
REMARK  1 active torsions:
REMARK  status: ('A' for Active; 'I' for Inactive)
REMARK    1  A    between atoms: C1_2  and  C2_3 
ROOT
ATOM      1  C2  UNL d   1       3.139   0.291   0.320  0.00  0.00    -0.073 A 
ATOM      2  C3  UNL d   1       3.084   1.469  -0.434  0.00  0.00    -0.002 A 
ATOM      3  C4  UNL d   1       2.195   2.487  -0.086  0.00  0.00     0.004 A 
ATOM      4  C5  UNL d   1       1.359   2.341   1.021  0.00  0.00    -0.004 A 
ATOM      5  C6  UNL d   1       1.408   1.176   1.794  0.00  0.00    -0.075 A 
ATOM      6  C7  UNL d   1       0.514   1.003   2.986  0.00  0.00     0.076 C 
ATOM      7  C8  UNL d   1       2.301   0.157   1.436  0.00  0.00     0.001 A 
ENDROOT
BRANCH   1   8
ATOM      8  C1  UNL d   1       4.102  -0.809  -0.048  0.00  0.00     0.053 C 
ATOM      9  C   UNL d   1       5.457  -0.263  -0.469  0.00  0.00     0.018 C 
ENDBRANCH   1   8
TORSDOF 1
ENDMDL
