MODEL 1
REMARK minimizedAffinity 7.8904686
REMARK minimizedRMSD -1
REMARK  1 active torsions:
REMARK  status: ('A' for Active; 'I' for Inactive)
REMARK    1  A    between atoms: C1_2  and  C2_3 
ROOT
ATOM      1  C2  UNL d   1       2.601   1.366  -1.437  0.00  0.00    -0.073 A 
ATOM      2  C3  UNL d   1       3.766   0.652  -1.133  0.00  0.00    -0.002 A 
ATOM      3  C4  UNL d   1       4.079   0.346   0.192  0.00  0.00     0.004 A 
ATOM      4  C5  UNL d   1       3.228   0.743   1.224  0.00  0.00    -0.004 A 
ATOM      5  C6  UNL d   1       2.054   1.446   0.939  0.00  0.00    -0.075 A 
ATOM      6  C7  UNL d   1       1.129   1.882   2.038  0.00  0.00     0.076 C 
ATOM      7  C8  UNL d   1       1.747   1.753  -0.393  0.00  0.00     0.001 A 
ENDROOT
BRANCH   1   8
ATOM      8  C1  UNL d   1       2.255   1.694  -2.867  0.00  0.00     0.053 C 
ATOM      9  C   UNL d   1       3.495   1.832  -3.735  0.00  0.00     0.018 C 
ENDBRANCH   1   8
TORSDOF 1
ENDMDL
