MODEL 1
REMARK minimizedAffinity 19.9084702
REMARK minimizedRMSD -1
REMARK  1 active torsions:
REMARK  status: ('A' for Active; 'I' for Inactive)
REMARK    1  A    between atoms: C1_2  and  C2_3 
ROOT
ATOM      1  C2  UNL d   1       3.816   1.356  -0.735  0.00  0.00    -0.073 A 
ATOM      2  C3  UNL d   1       2.542   0.920  -0.354  0.00  0.00    -0.002 A 
ATOM      3  C4  UNL d   1       2.389   0.038   0.716  0.00  0.00     0.004 A 
ATOM      4  C5  UNL d   1       3.507  -0.411   1.420  0.00  0.00    -0.004 A 
ATOM      5  C6  UNL d   1       4.787   0.022   1.062  0.00  0.00    -0.075 A 
ATOM      6  C7  UNL d   1       5.999  -0.453   1.807  0.00  0.00     0.076 C 
ATOM      7  C8  UNL d   1       4.932   0.906  -0.016  0.00  0.00     0.001 A 
ENDROOT
BRANCH   1   8
ATOM      8  C1  UNL d   1       3.984   2.314  -1.886  0.00  0.00     0.053 C 
ATOM      9  C   UNL d   1       2.982   2.051  -2.999  0.00  0.00     0.018 C 
ENDBRANCH   1   8
TORSDOF 1
ENDMDL
