MODEL 1
REMARK minimizedAffinity 11.4076319
REMARK minimizedRMSD -1
REMARK  1 active torsions:
REMARK  status: ('A' for Active; 'I' for Inactive)
REMARK    1  A    between atoms: C1_2  and  C2_3 
ROOT
ATOM      1  C2  UNL d   1      -3.522  -3.461  -1.874  0.00  0.00    -0.073 A 
ATOM      2  C3  UNL d   1      -3.883  -4.713  -1.365  0.00  0.00    -0.002 A 
ATOM      3  C4  UNL d   1      -4.929  -5.433  -1.943  0.00  0.00     0.004 A 
ATOM      4  C5  UNL d   1      -5.619  -4.913  -3.038  0.00  0.00    -0.004 A 
ATOM      5  C6  UNL d   1      -5.265  -3.667  -3.567  0.00  0.00    -0.075 A 
ATOM      6  C7  UNL d   1      -5.999  -3.092  -4.743  0.00  0.00     0.076 C 
ATOM      7  C8  UNL d   1      -4.215  -2.949  -2.980  0.00  0.00     0.001 A 
ENDROOT
BRANCH   1   8
ATOM      8  C1  UNL d   1      -2.388  -2.682  -1.257  0.00  0.00     0.053 C 
ATOM      9  C   UNL d   1      -2.036  -3.192   0.132  0.00  0.00     0.018 C 
ENDBRANCH   1   8
TORSDOF 1
ENDMDL
