MODEL 1
REMARK minimizedAffinity 19.9536896
REMARK minimizedRMSD -1
REMARK  1 active torsions:
REMARK  status: ('A' for Active; 'I' for Inactive)
REMARK    1  A    between atoms: C1_2  and  C2_3 
ROOT
ATOM      1  C2  UNL d   1      -4.656  -5.383  -2.258  0.00  0.00    -0.073 A 
ATOM      2  C3  UNL d   1      -4.631  -5.670  -0.888  0.00  0.00    -0.002 A 
ATOM      3  C4  UNL d   1      -3.426  -5.974  -0.254  0.00  0.00     0.004 A 
ATOM      4  C5  UNL d   1      -2.234  -5.988  -0.979  0.00  0.00    -0.004 A 
ATOM      5  C6  UNL d   1      -2.237  -5.692  -2.346  0.00  0.00    -0.075 A 
ATOM      6  C7  UNL d   1      -0.965  -5.705  -3.141  0.00  0.00     0.076 C 
ATOM      7  C8  UNL d   1      -3.452  -5.390  -2.977  0.00  0.00     0.001 A 
ENDROOT
BRANCH   1   8
ATOM      8  C1  UNL d   1      -5.954  -5.047  -2.945  0.00  0.00     0.053 C 
ATOM      9  C   UNL d   1      -5.985  -3.607  -3.434  0.00  0.00     0.018 C 
ENDBRANCH   1   8
TORSDOF 1
ENDMDL
