MODEL 1
REMARK minimizedAffinity 5.33700085
REMARK minimizedRMSD -1
REMARK  1 active torsions:
REMARK  status: ('A' for Active; 'I' for Inactive)
REMARK    1  A    between atoms: C1_2  and  C2_3 
ROOT
ATOM      1  C2  UNL d   1      -2.139  -2.753  -0.347  0.00  0.00    -0.073 A 
ATOM      2  C3  UNL d   1      -1.054  -2.295   0.409  0.00  0.00    -0.002 A 
ATOM      3  C4  UNL d   1      -0.668  -2.968   1.569  0.00  0.00     0.004 A 
ATOM      4  C5  UNL d   1      -1.357  -4.109   1.980  0.00  0.00    -0.004 A 
ATOM      5  C6  UNL d   1      -2.437  -4.590   1.232  0.00  0.00    -0.075 A 
ATOM      6  C7  UNL d   1      -3.190  -5.814   1.662  0.00  0.00     0.076 C 
ATOM      7  C8  UNL d   1      -2.820  -3.906   0.070  0.00  0.00     0.001 A 
ENDROOT
BRANCH   1   8
ATOM      8  C1  UNL d   1      -2.555  -2.033  -1.603  0.00  0.00     0.053 C 
ATOM      9  C   UNL d   1      -2.958  -2.998  -2.707  0.00  0.00     0.018 C 
ENDBRANCH   1   8
TORSDOF 1
ENDMDL
