MODEL 1
REMARK minimizedAffinity 11.6259499
REMARK minimizedRMSD -1
REMARK  1 active torsions:
REMARK  status: ('A' for Active; 'I' for Inactive)
REMARK    1  A    between atoms: C1_2  and  C2_3 
ROOT
ATOM      1  C2  UNL d   1      -3.031  -3.743   0.844  0.00  0.00    -0.073 A 
ATOM      2  C3  UNL d   1      -1.824  -3.529   1.519  0.00  0.00    -0.002 A 
ATOM      3  C4  UNL d   1      -0.799  -2.799   0.916  0.00  0.00     0.004 A 
ATOM      4  C5  UNL d   1      -0.972  -2.271  -0.363  0.00  0.00    -0.004 A 
ATOM      5  C6  UNL d   1      -2.175  -2.465  -1.049  0.00  0.00    -0.075 A 
ATOM      6  C7  UNL d   1      -2.376  -1.905  -2.427  0.00  0.00     0.076 C 
ATOM      7  C8  UNL d   1      -3.199  -3.201  -0.438  0.00  0.00     0.001 A 
ENDROOT
BRANCH   1   8
ATOM      8  C1  UNL d   1      -4.143  -4.525   1.494  0.00  0.00     0.053 C 
ATOM      9  C   UNL d   1      -4.097  -5.999   1.122  0.00  0.00     0.018 C 
ENDBRANCH   1   8
TORSDOF 1
ENDMDL
