MODEL 1
REMARK minimizedAffinity 1.55221951
REMARK minimizedRMSD -1
REMARK  1 active torsions:
REMARK  status: ('A' for Active; 'I' for Inactive)
REMARK    1  A    between atoms: C1_2  and  C2_3 
ROOT
ATOM      1  C2  UNL d   1       1.918   1.386   0.503  0.00  0.00    -0.073 A 
ATOM      2  C3  UNL d   1       2.763   0.498   1.179  0.00  0.00    -0.002 A 
ATOM      3  C4  UNL d   1       3.819  -0.119   0.508  0.00  0.00     0.004 A 
ATOM      4  C5  UNL d   1       4.046   0.149  -0.841  0.00  0.00    -0.004 A 
ATOM      5  C6  UNL d   1       3.221   1.043  -1.531  0.00  0.00    -0.075 A 
ATOM      6  C7  UNL d   1       3.451   1.341  -2.984  0.00  0.00     0.076 C 
ATOM      7  C8  UNL d   1       2.160   1.657  -0.852  0.00  0.00     0.001 A 
ENDROOT
BRANCH   1   8
ATOM      8  C1  UNL d   1       0.780   2.060   1.225  0.00  0.00     0.053 C 
ATOM      9  C   UNL d   1       0.181   1.169   2.302  0.00  0.00     0.018 C 
ENDBRANCH   1   8
TORSDOF 1
ENDMDL
