MODEL 1
REMARK minimizedAffinity 1.80829871
REMARK minimizedRMSD -1
REMARK  1 active torsions:
REMARK  status: ('A' for Active; 'I' for Inactive)
REMARK    1  A    between atoms: C1_2  and  C2_3 
ROOT
ATOM      1  C2  UNL d   1       2.445   0.724   1.461  0.00  0.00    -0.073 A 
ATOM      2  C3  UNL d   1       3.469  -0.028   2.048  0.00  0.00    -0.002 A 
ATOM      3  C4  UNL d   1       4.560  -0.449   1.285  0.00  0.00     0.004 A 
ATOM      4  C5  UNL d   1       4.640  -0.118  -0.067  0.00  0.00    -0.004 A 
ATOM      5  C6  UNL d   1       3.632   0.643  -0.669  0.00  0.00    -0.075 A 
ATOM      6  C7  UNL d   1       3.703   1.006  -2.123  0.00  0.00     0.076 C 
ATOM      7  C8  UNL d   1       2.539   1.060   0.103  0.00  0.00     0.001 A 
ENDROOT
BRANCH   1   8
ATOM      8  C1  UNL d   1       1.269   1.186   2.282  0.00  0.00     0.053 C 
ATOM      9  C   UNL d   1       1.044   0.308   3.502  0.00  0.00     0.018 C 
ENDBRANCH   1   8
TORSDOF 1
ENDMDL
