MODEL 1
REMARK minimizedAffinity 9.16507912
REMARK minimizedRMSD -1
REMARK  1 active torsions:
REMARK  status: ('A' for Active; 'I' for Inactive)
REMARK    1  A    between atoms: C1_2  and  C2_3 
ROOT
ATOM      1  C2  UNL d   1      -1.507  -4.269  -3.552  0.00  0.00    -0.073 A 
ATOM      2  C3  UNL d   1      -1.873  -3.256  -4.445  0.00  0.00    -0.002 A 
ATOM      3  C4  UNL d   1      -2.513  -2.105  -3.981  0.00  0.00     0.004 A 
ATOM      4  C5  UNL d   1      -2.787  -1.954  -2.622  0.00  0.00    -0.004 A 
ATOM      5  C6  UNL d   1      -2.419  -2.950  -1.713  0.00  0.00    -0.075 A 
ATOM      6  C7  UNL d   1      -2.708  -2.804  -0.248  0.00  0.00     0.076 C 
ATOM      7  C8  UNL d   1      -1.779  -4.104  -2.186  0.00  0.00     0.001 A 
ENDROOT
BRANCH   1   8
ATOM      8  C1  UNL d   1      -0.810  -5.510  -4.047  0.00  0.00     0.053 C 
ATOM      9  C   UNL d   1       0.695  -5.319  -4.141  0.00  0.00     0.018 C 
ENDBRANCH   1   8
TORSDOF 1
ENDMDL
