MODEL 1
REMARK minimizedAffinity 15.7063541
REMARK minimizedRMSD -1
REMARK  1 active torsions:
REMARK  status: ('A' for Active; 'I' for Inactive)
REMARK    1  A    between atoms: C1_2  and  C2_3 
ROOT
ATOM      1  C2  UNL d   1      -1.615  -2.618   0.580  0.00  0.00    -0.073 A 
ATOM      2  C3  UNL d   1      -1.438  -1.781   1.688  0.00  0.00    -0.002 A 
ATOM      3  C4  UNL d   1      -1.465  -2.307   2.980  0.00  0.00     0.004 A 
ATOM      4  C5  UNL d   1      -1.663  -3.674   3.178  0.00  0.00    -0.004 A 
ATOM      5  C6  UNL d   1      -1.831  -4.528   2.083  0.00  0.00    -0.075 A 
ATOM      6  C7  UNL d   1      -2.047  -6.000   2.279  0.00  0.00     0.076 C 
ATOM      7  C8  UNL d   1      -1.805  -3.992   0.789  0.00  0.00     0.001 A 
ENDROOT
BRANCH   1   8
ATOM      8  C1  UNL d   1      -1.580  -2.055  -0.817  0.00  0.00     0.053 C 
ATOM      9  C   UNL d   1      -2.676  -2.640  -1.695  0.00  0.00     0.018 C 
ENDBRANCH   1   8
TORSDOF 1
ENDMDL
