MODEL 1
REMARK minimizedAffinity 0.66580236
REMARK minimizedRMSD -1
REMARK  1 active torsions:
REMARK  status: ('A' for Active; 'I' for Inactive)
REMARK    1  A    between atoms: C1_2  and  C2_3 
ROOT
ATOM      1  C2  UNL d   1      -3.803   1.793   4.111  0.00  0.00    -0.073 A 
ATOM      2  C3  UNL d   1      -3.014   2.880   3.717  0.00  0.00    -0.002 A 
ATOM      3  C4  UNL d   1      -1.854   2.673   2.968  0.00  0.00     0.004 A 
ATOM      4  C5  UNL d   1      -1.476   1.382   2.601  0.00  0.00    -0.004 A 
ATOM      5  C6  UNL d   1      -2.258   0.285   2.975  0.00  0.00    -0.075 A 
ATOM      6  C7  UNL d   1      -1.864  -1.111   2.590  0.00  0.00     0.076 C 
ATOM      7  C8  UNL d   1      -3.420   0.500   3.729  0.00  0.00     0.001 A 
ENDROOT
BRANCH   1   8
ATOM      8  C1  UNL d   1      -5.059   2.012   4.914  0.00  0.00     0.053 C 
ATOM      9  C   UNL d   1      -4.867   3.059   6.000  0.00  0.00     0.018 C 
ENDBRANCH   1   8
TORSDOF 1
ENDMDL
