MODEL 1
REMARK minimizedAffinity 3.6144464
REMARK minimizedRMSD -1
REMARK  0 active torsions:
REMARK  status: ('A' for Active; 'I' for Inactive)
ROOT
ATOM      1  C1  BNZ d   1      -2.455  -0.011   2.429  0.00  0.00     0.000 A 
ATOM      2  C2  BNZ d   1      -3.327   0.700   1.649  0.00  0.00     0.000 A 
ATOM      3  C3  BNZ d   1      -4.485   0.131   1.197  0.00  0.00     0.000 A 
ATOM      4  C4  BNZ d   1      -4.751  -1.158   1.492  0.00  0.00     0.000 A 
ATOM      5  C5  BNZ d   1      -3.877  -1.891   2.270  0.00  0.00     0.000 A 
ATOM      6  C6  BNZ d   1      -2.731  -1.303   2.756  0.00  0.00     0.000 A 
ENDROOT
TORSDOF 0
ENDMDL
