MODEL 1
REMARK minimizedAffinity -2.79596567
REMARK minimizedRMSD -1
REMARK  0 active torsions:
REMARK  status: ('A' for Active; 'I' for Inactive)
ROOT
ATOM      1  C1  BNZ d   1      -4.798  -1.202   0.718  0.00  0.00     0.000 A 
ATOM      2  C2  BNZ d   1      -4.822  -0.696   1.991  0.00  0.00     0.000 A 
ATOM      3  C3  BNZ d   1      -3.665  -0.336   2.623  0.00  0.00     0.000 A 
ATOM      4  C4  BNZ d   1      -2.484  -0.519   1.999  0.00  0.00     0.000 A 
ATOM      5  C5  BNZ d   1      -2.442  -1.037   0.720  0.00  0.00     0.000 A 
ATOM      6  C6  BNZ d   1      -3.611  -1.361   0.071  0.00  0.00     0.000 A 
ENDROOT
TORSDOF 0
ENDMDL
