MODEL 1
REMARK minimizedAffinity 0.333901852
REMARK minimizedRMSD -1
REMARK  0 active torsions:
REMARK  status: ('A' for Active; 'I' for Inactive)
ROOT
ATOM      1  C1  BNZ d   1      -4.284  -2.269   0.358  0.00  0.00     0.000 A 
ATOM      2  C2  BNZ d   1      -4.894  -1.082   0.047  0.00  0.00     0.000 A 
ATOM      3  C3  BNZ d   1      -4.560   0.069   0.705  0.00  0.00     0.000 A 
ATOM      4  C4  BNZ d   1      -3.649   0.026   1.697  0.00  0.00     0.000 A 
ATOM      5  C5  BNZ d   1      -3.032  -1.164   2.029  0.00  0.00     0.000 A 
ATOM      6  C6  BNZ d   1      -3.342  -2.314   1.339  0.00  0.00     0.000 A 
ENDROOT
TORSDOF 0
ENDMDL
