MODEL 1
REMARK minimizedAffinity 5.02780628
REMARK minimizedRMSD -1
REMARK  0 active torsions:
REMARK  status: ('A' for Active; 'I' for Inactive)
ROOT
ATOM      1  C1  BNZ d   1       0.883  -6.000  -0.697  0.00  0.00     0.000 A 
ATOM      2  C2  BNZ d   1       0.070  -5.485  -1.671  0.00  0.00     0.000 A 
ATOM      3  C3  BNZ d   1      -1.151  -4.957  -1.357  0.00  0.00     0.000 A 
ATOM      4  C4  BNZ d   1      -1.574  -4.980  -0.076  0.00  0.00     0.000 A 
ATOM      5  C5  BNZ d   1      -0.770  -5.504   0.916  0.00  0.00     0.000 A 
ATOM      6  C6  BNZ d   1       0.475  -6.000   0.602  0.00  0.00     0.000 A 
ENDROOT
TORSDOF 0
ENDMDL
