MODEL 1
REMARK minimizedAffinity 3.76460004
REMARK minimizedRMSD -1
REMARK  0 active torsions:
REMARK  status: ('A' for Active; 'I' for Inactive)
ROOT
ATOM      1  C1  BNZ d   1       3.733   0.891  -0.924  0.00  0.00     0.000 A 
ATOM      2  C2  BNZ d   1       3.383   0.796   0.396  0.00  0.00     0.000 A 
ATOM      3  C3  BNZ d   1       2.587  -0.224   0.838  0.00  0.00     0.000 A 
ATOM      4  C4  BNZ d   1       2.109  -1.123  -0.047  0.00  0.00     0.000 A 
ATOM      5  C5  BNZ d   1       2.445  -1.035  -1.383  0.00  0.00     0.000 A 
ATOM      6  C6  BNZ d   1       3.279  -0.030  -1.817  0.00  0.00     0.000 A 
ENDROOT
TORSDOF 0
ENDMDL
