MODEL 1
REMARK minimizedAffinity -0.153001502
REMARK minimizedRMSD -1
REMARK  0 active torsions:
REMARK  status: ('A' for Active; 'I' for Inactive)
ROOT
ATOM      1  C1  BNZ d   1       0.430  -5.989   4.151  0.00  0.00     0.000 A 
ATOM      2  C2  BNZ d   1      -0.536  -5.999   3.181  0.00  0.00     0.000 A 
ATOM      3  C3  BNZ d   1      -1.862  -5.985   3.514  0.00  0.00     0.000 A 
ATOM      4  C4  BNZ d   1      -2.219  -6.000   4.814  0.00  0.00     0.000 A 
ATOM      5  C5  BNZ d   1      -1.257  -5.999   5.804  0.00  0.00     0.000 A 
ATOM      6  C6  BNZ d   1       0.077  -5.974   5.465  0.00  0.00     0.000 A 
ENDROOT
TORSDOF 0
ENDMDL
