MODEL 1
REMARK minimizedAffinity -3.32123208
REMARK minimizedRMSD -1
REMARK  0 active torsions:
REMARK  status: ('A' for Active; 'I' for Inactive)
ROOT
ATOM      1  C1  BNZ d   1      -5.052   5.972   1.834  0.00  0.00     0.000 A 
ATOM      2  C2  BNZ d   1      -3.848   6.000   1.181  0.00  0.00     0.000 A 
ATOM      3  C3  BNZ d   1      -2.673   5.993   1.879  0.00  0.00     0.000 A 
ATOM      4  C4  BNZ d   1      -2.703   6.000   3.227  0.00  0.00     0.000 A 
ATOM      5  C5  BNZ d   1      -3.908   5.981   3.900  0.00  0.00     0.000 A 
ATOM      6  C6  BNZ d   1      -5.089   5.949   3.194  0.00  0.00     0.000 A 
ENDROOT
TORSDOF 0
ENDMDL
