MODEL 1
REMARK minimizedAffinity 3.70795965
REMARK minimizedRMSD -1
REMARK  0 active torsions:
REMARK  status: ('A' for Active; 'I' for Inactive)
ROOT
ATOM      1  C1  BNZ d   1       1.789  -0.011   0.300  0.00  0.00     0.000 A 
ATOM      2  C2  BNZ d   1       3.031  -0.081  -0.273  0.00  0.00     0.000 A 
ATOM      3  C3  BNZ d   1       3.820   1.031  -0.372  0.00  0.00     0.000 A 
ATOM      4  C4  BNZ d   1       3.350   2.218   0.064  0.00  0.00     0.000 A 
ATOM      5  C5  BNZ d   1       2.096   2.306   0.635  0.00  0.00     0.000 A 
ATOM      6  C6  BNZ d   1       1.321   1.178   0.769  0.00  0.00     0.000 A 
ENDROOT
TORSDOF 0
ENDMDL
