MODEL 1
REMARK minimizedAffinity 2.69809723
REMARK minimizedRMSD -1
REMARK  0 active torsions:
REMARK  status: ('A' for Active; 'I' for Inactive)
ROOT
ATOM      1  C1  BNZ d   1      -1.215  -3.613   5.988  0.00  0.00     0.000 A 
ATOM      2  C2  BNZ d   1       0.152  -3.656   5.933  0.00  0.00     0.000 A 
ATOM      3  C3  BNZ d   1       0.813  -4.850   5.856  0.00  0.00     0.000 A 
ATOM      4  C4  BNZ d   1       0.108  -6.000   5.875  0.00  0.00     0.000 A 
ATOM      5  C5  BNZ d   1      -1.271  -5.974   5.940  0.00  0.00     0.000 A 
ATOM      6  C6  BNZ d   1      -1.934  -4.769   5.977  0.00  0.00     0.000 A 
ENDROOT
TORSDOF 0
ENDMDL
