MODEL 1
REMARK minimizedAffinity 1.74290383
REMARK minimizedRMSD -1
REMARK  0 active torsions:
REMARK  status: ('A' for Active; 'I' for Inactive)
ROOT
ATOM      1  N1  IND d   1       3.800  -1.685  -1.615  0.00  0.00    -0.196 N 
ATOM      2  C2  IND d   1       4.211  -1.582  -0.315  0.00  0.00     0.054 A 
ATOM      3  C3  IND d   1       4.706  -2.764   0.116  0.00  0.00    -0.031 A 
ATOM      4  C4  IND d   1       5.032  -4.969  -1.172  0.00  0.00     0.051 A 
ATOM      5  C5  IND d   1       4.774  -5.561  -2.376  0.00  0.00    -0.031 A 
ATOM      6  C6  IND d   1       4.168  -4.877  -3.410  0.00  0.00     0.015 A 
ATOM      7  C7  IND d   1       3.807  -3.566  -3.281  0.00  0.00    -0.016 A 
ATOM      8  C8  IND d   1       4.061  -2.963  -2.058  0.00  0.00    -0.047 A 
ATOM      9  C9  IND d   1       4.636  -3.665  -0.990  0.00  0.00    -0.096 A 
ATOM     10  HN1 IND d   1       3.440  -1.057  -2.078  0.00  0.00     0.298 HD
ENDROOT
TORSDOF 0
ENDMDL
