MODEL 1
REMARK minimizedAffinity 1.60287571
REMARK minimizedRMSD -1
REMARK  0 active torsions:
REMARK  status: ('A' for Active; 'I' for Inactive)
ROOT
ATOM      1  N1  IND d   1      -3.427   2.706  -2.228  0.00  0.00    -0.196 N 
ATOM      2  C2  IND d   1      -3.383   1.350  -2.065  0.00  0.00     0.054 A 
ATOM      3  C3  IND d   1      -2.211   0.982  -1.500  0.00  0.00    -0.031 A 
ATOM      4  C4  IND d   1      -0.265   2.447  -0.668  0.00  0.00     0.051 A 
ATOM      5  C5  IND d   1       0.170   3.742  -0.634  0.00  0.00    -0.031 A 
ATOM      6  C6  IND d   1      -0.588   4.780  -1.138  0.00  0.00     0.015 A 
ATOM      7  C7  IND d   1      -1.820   4.561  -1.686  0.00  0.00    -0.016 A 
ATOM      8  C8  IND d   1      -2.262   3.246  -1.729  0.00  0.00    -0.047 A 
ATOM      9  C9  IND d   1      -1.479   2.184  -1.258  0.00  0.00    -0.096 A 
ATOM     10  HN1 IND d   1      -4.073   3.148  -2.584  0.00  0.00     0.298 HD
ENDROOT
TORSDOF 0
ENDMDL
