MODEL 1
REMARK minimizedAffinity 3.8127811
REMARK minimizedRMSD -1
REMARK  0 active torsions:
REMARK  status: ('A' for Active; 'I' for Inactive)
ROOT
ATOM      1  N1  IND d   1       0.460   2.345  -1.718  0.00  0.00    -0.196 N 
ATOM      2  C2  IND d   1      -0.359   1.539  -0.978  0.00  0.00     0.054 A 
ATOM      3  C3  IND d   1      -1.135   2.282  -0.157  0.00  0.00    -0.031 A 
ATOM      4  C4  IND d   1      -1.298   4.842   0.065  0.00  0.00     0.051 A 
ATOM      5  C5  IND d   1      -0.722   6.000  -0.376  0.00  0.00    -0.031 A 
ATOM      6  C6  IND d   1       0.296   5.999  -1.307  0.00  0.00     0.015 A 
ATOM      7  C7  IND d   1       0.770   4.836  -1.844  0.00  0.00    -0.016 A 
ATOM      8  C8  IND d   1       0.193   3.657  -1.393  0.00  0.00    -0.047 A 
ATOM      9  C9  IND d   1      -0.811   3.649  -0.416  0.00  0.00    -0.096 A 
ATOM     10  HN1 IND d   1       1.044   2.078  -2.289  0.00  0.00     0.298 HD
ENDROOT
TORSDOF 0
ENDMDL
