MODEL 1
REMARK minimizedAffinity 0.211121455
REMARK minimizedRMSD -1
REMARK  0 active torsions:
REMARK  status: ('A' for Active; 'I' for Inactive)
ROOT
ATOM      1  N1  IND d   1       3.412  -4.018  -4.092  0.00  0.00    -0.196 N 
ATOM      2  C2  IND d   1       3.983  -5.222  -4.394  0.00  0.00     0.054 A 
ATOM      3  C3  IND d   1       4.834  -5.599  -3.414  0.00  0.00    -0.031 A 
ATOM      4  C4  IND d   1       5.366  -4.443  -1.176  0.00  0.00     0.051 A 
ATOM      5  C5  IND d   1       5.118  -3.300  -0.468  0.00  0.00    -0.031 A 
ATOM      6  C6  IND d   1       4.269  -2.320  -0.940  0.00  0.00     0.015 A 
ATOM      7  C7  IND d   1       3.625  -2.452  -2.138  0.00  0.00    -0.016 A 
ATOM      8  C8  IND d   1       3.880  -3.607  -2.863  0.00  0.00    -0.047 A 
ATOM      9  C9  IND d   1       4.773  -4.586  -2.409  0.00  0.00    -0.096 A 
ATOM     10  HN1 IND d   1       2.854  -3.588  -4.586  0.00  0.00     0.298 HD
ENDROOT
TORSDOF 0
ENDMDL
