MODEL 1
REMARK minimizedAffinity -0.321709037
REMARK minimizedRMSD -1
REMARK  0 active torsions:
REMARK  status: ('A' for Active; 'I' for Inactive)
ROOT
ATOM      1  N1  IND d   1       1.632  -5.042  -2.007  0.00  0.00    -0.196 N 
ATOM      2  C2  IND d   1       1.106  -5.235  -0.760  0.00  0.00     0.054 A 
ATOM      3  C3  IND d   1       1.973  -4.810   0.186  0.00  0.00    -0.031 A 
ATOM      4  C4  IND d   1       4.266  -3.672  -0.088  0.00  0.00     0.051 A 
ATOM      5  C5  IND d   1       5.185  -3.316  -1.034  0.00  0.00    -0.031 A 
ATOM      6  C6  IND d   1       4.961  -3.518  -2.381  0.00  0.00     0.015 A 
ATOM      7  C7  IND d   1       3.800  -4.076  -2.834  0.00  0.00    -0.016 A 
ATOM      8  C8  IND d   1       2.867  -4.446  -1.875  0.00  0.00    -0.047 A 
ATOM      9  C9  IND d   1       3.107  -4.283  -0.505  0.00  0.00    -0.096 A 
ATOM     10  HN1 IND d   1       1.255  -5.257  -2.749  0.00  0.00     0.298 HD
ENDROOT
TORSDOF 0
ENDMDL
