MODEL 1
REMARK minimizedAffinity 0.710372031
REMARK minimizedRMSD -1
REMARK  0 active torsions:
REMARK  status: ('A' for Active; 'I' for Inactive)
ROOT
ATOM      1  N1  IND d   1       2.176  -5.560  -1.940  0.00  0.00    -0.196 N 
ATOM      2  C2  IND d   1       1.299  -5.209  -0.952  0.00  0.00     0.054 A 
ATOM      3  C3  IND d   1       1.780  -4.160  -0.247  0.00  0.00    -0.031 A 
ATOM      4  C4  IND d   1       3.935  -2.798  -0.607  0.00  0.00     0.051 A 
ATOM      5  C5  IND d   1       5.074  -2.763  -1.362  0.00  0.00    -0.031 A 
ATOM      6  C6  IND d   1       5.308  -3.675  -2.370  0.00  0.00     0.015 A 
ATOM      7  C7  IND d   1       4.404  -4.654  -2.670  0.00  0.00    -0.016 A 
ATOM      8  C8  IND d   1       3.249  -4.697  -1.901  0.00  0.00    -0.047 A 
ATOM      9  C9  IND d   1       3.025  -3.801  -0.848  0.00  0.00    -0.096 A 
ATOM     10  HN1 IND d   1       2.075  -6.211  -2.493  0.00  0.00     0.298 HD
ENDROOT
TORSDOF 0
ENDMDL
