MODEL 1
REMARK minimizedAffinity 4.85600758
REMARK minimizedRMSD -1
REMARK  0 active torsions:
REMARK  status: ('A' for Active; 'I' for Inactive)
ROOT
ATOM      1  N1  IND d   1       5.113  -2.461  -2.101  0.00  0.00    -0.196 N 
ATOM      2  C2  IND d   1       4.861  -2.225  -0.778  0.00  0.00     0.054 A 
ATOM      3  C3  IND d   1       4.064  -3.192  -0.271  0.00  0.00    -0.031 A 
ATOM      4  C4  IND d   1       3.138  -5.310  -1.405  0.00  0.00     0.051 A 
ATOM      5  C5  IND d   1       3.067  -5.940  -2.616  0.00  0.00    -0.031 A 
ATOM      6  C6  IND d   1       3.690  -5.434  -3.739  0.00  0.00     0.015 A 
ATOM      7  C7  IND d   1       4.419  -4.280  -3.690  0.00  0.00    -0.016 A 
ATOM      8  C8  IND d   1       4.487  -3.633  -2.464  0.00  0.00    -0.047 A 
ATOM      9  C9  IND d   1       3.822  -4.119  -1.331  0.00  0.00    -0.096 A 
ATOM     10  HN1 IND d   1       5.584  -1.962  -2.619  0.00  0.00     0.298 HD
ENDROOT
TORSDOF 0
ENDMDL
