MODEL 1
REMARK minimizedAffinity 8.7599268
REMARK minimizedRMSD -1
REMARK  0 active torsions:
REMARK  status: ('A' for Active; 'I' for Inactive)
ROOT
ATOM      1  N1  IND d   1       0.270   2.709   1.513  0.00  0.00    -0.196 N 
ATOM      2  C2  IND d   1      -0.079   1.389   1.593  0.00  0.00     0.054 A 
ATOM      3  C3  IND d   1      -0.533   0.950   0.398  0.00  0.00    -0.031 A 
ATOM      4  C4  IND d   1      -0.694   2.196  -1.850  0.00  0.00     0.051 A 
ATOM      5  C5  IND d   1      -0.526   3.430  -2.411  0.00  0.00    -0.031 A 
ATOM      6  C6  IND d   1      -0.073   4.509  -1.679  0.00  0.00     0.015 A 
ATOM      7  C7  IND d   1       0.242   4.389  -0.355  0.00  0.00    -0.016 A 
ATOM      8  C8  IND d   1       0.066   3.139   0.220  0.00  0.00    -0.047 A 
ATOM      9  C9  IND d   1      -0.434   2.051  -0.507  0.00  0.00    -0.096 A 
ATOM     10  HN1 IND d   1       0.566   3.189   2.161  0.00  0.00     0.298 HD
ENDROOT
TORSDOF 0
ENDMDL
