MODEL 1
REMARK minimizedAffinity 5.14805841
REMARK minimizedRMSD -1
REMARK  0 active torsions:
REMARK  status: ('A' for Active; 'I' for Inactive)
ROOT
ATOM      1  N1  IND d   1       3.876  -3.388  -2.613  0.00  0.00    -0.196 N 
ATOM      2  C2  IND d   1       4.913  -2.650  -2.114  0.00  0.00     0.054 A 
ATOM      3  C3  IND d   1       4.923  -2.707  -0.763  0.00  0.00    -0.031 A 
ATOM      4  C4  IND d   1       3.395  -4.033   0.829  0.00  0.00     0.051 A 
ATOM      5  C5  IND d   1       2.281  -4.825   0.843  0.00  0.00    -0.031 A 
ATOM      6  C6  IND d   1       1.630  -5.188  -0.319  0.00  0.00     0.015 A 
ATOM      7  C7  IND d   1       2.078  -4.780  -1.543  0.00  0.00    -0.016 A 
ATOM      8  C8  IND d   1       3.205  -3.970  -1.560  0.00  0.00    -0.047 A 
ATOM      9  C9  IND d   1       3.845  -3.564  -0.382  0.00  0.00    -0.096 A 
ATOM     10  HN1 IND d   1       3.677  -3.474  -3.445  0.00  0.00     0.298 HD
ENDROOT
TORSDOF 0
ENDMDL
