MODEL 1
REMARK minimizedAffinity -0.798582494
REMARK minimizedRMSD -1
REMARK  0 active torsions:
REMARK  status: ('A' for Active; 'I' for Inactive)
ROOT
ATOM      1  C1  DEN d   1       5.239  -3.883   5.982  0.00  0.00     0.130 A 
ATOM      2  C2  DEN d   1       4.705  -5.242   6.000  0.00  0.00    -0.031 A 
ATOM      3  C3  DEN d   1       4.590  -5.705   4.602  0.00  0.00     0.027 A 
ATOM      4  C4  DEN d   1       5.188  -4.458   2.425  0.00  0.00     0.027 A 
ATOM      5  C5  DEN d   1       5.665  -3.276   1.903  0.00  0.00    -0.003 A 
ATOM      6  C6  DEN d   1       5.998  -2.210   2.696  0.00  0.00     0.001 A 
ATOM      7  C7  DEN d   1       5.902  -2.321   4.058  0.00  0.00     0.017 A 
ATOM      8  C8  DEN d   1       5.415  -3.507   4.591  0.00  0.00    -0.094 A 
ATOM      9  C9  DEN d   1       5.095  -4.578   3.774  0.00  0.00    -0.072 A 
ENDROOT
TORSDOF 0
ENDMDL
