MODEL 1
REMARK minimizedAffinity -2.63126612
REMARK minimizedRMSD -1
REMARK  0 active torsions:
REMARK  status: ('A' for Active; 'I' for Inactive)
ROOT
ATOM      1  C1  DEN d   1       5.970  -2.080   4.590  0.00  0.00     0.130 A 
ATOM      2  C2  DEN d   1       5.918  -2.531   5.978  0.00  0.00    -0.031 A 
ATOM      3  C3  DEN d   1       5.904  -4.007   5.979  0.00  0.00     0.027 A 
ATOM      4  C4  DEN d   1       5.964  -5.631   3.976  0.00  0.00     0.027 A 
ATOM      5  C5  DEN d   1       5.999  -5.718   2.601  0.00  0.00    -0.003 A 
ATOM      6  C6  DEN d   1       5.993  -4.608   1.799  0.00  0.00     0.001 A 
ATOM      7  C7  DEN d   1       5.996  -3.361   2.366  0.00  0.00     0.017 A 
ATOM      8  C8  DEN d   1       5.953  -3.265   3.751  0.00  0.00    -0.094 A 
ATOM      9  C9  DEN d   1       5.972  -4.399   4.545  0.00  0.00    -0.072 A 
ENDROOT
TORSDOF 0
ENDMDL
