MODEL 1
REMARK minimizedAffinity -2.89128089
REMARK minimizedRMSD -1
REMARK  0 active torsions:
REMARK  status: ('A' for Active; 'I' for Inactive)
ROOT
ATOM      1  C1  DEN d   1       5.932  -5.994   4.529  0.00  0.00     0.130 A 
ATOM      2  C2  DEN d   1       5.918  -5.597   5.935  0.00  0.00    -0.031 A 
ATOM      3  C3  DEN d   1       5.912  -4.122   5.993  0.00  0.00     0.027 A 
ATOM      4  C4  DEN d   1       5.920  -2.422   4.053  0.00  0.00     0.027 A 
ATOM      5  C5  DEN d   1       5.943  -2.282   2.683  0.00  0.00    -0.003 A 
ATOM      6  C6  DEN d   1       5.998  -3.360   1.840  0.00  0.00     0.001 A 
ATOM      7  C7  DEN d   1       5.986  -4.628   2.358  0.00  0.00     0.017 A 
ATOM      8  C8  DEN d   1       5.970  -4.777   3.739  0.00  0.00    -0.094 A 
ATOM      9  C9  DEN d   1       5.902  -3.675   4.574  0.00  0.00    -0.072 A 
ENDROOT
TORSDOF 0
ENDMDL
