MODEL 1
REMARK minimizedAffinity -3.67494678
REMARK minimizedRMSD -1
REMARK  0 active torsions:
REMARK  status: ('A' for Active; 'I' for Inactive)
ROOT
ATOM      1  C1  DEN d   1       5.974  -2.968   1.542  0.00  0.00     0.130 A 
ATOM      2  C2  DEN d   1       5.998  -4.347   1.061  0.00  0.00    -0.031 A 
ATOM      3  C3  DEN d   1       5.985  -5.240   2.237  0.00  0.00     0.027 A 
ATOM      4  C4  DEN d   1       5.923  -4.626   4.741  0.00  0.00     0.027 A 
ATOM      5  C5  DEN d   1       5.904  -3.584   5.641  0.00  0.00    -0.003 A 
ATOM      6  C6  DEN d   1       5.942  -2.274   5.242  0.00  0.00     0.001 A 
ATOM      7  C7  DEN d   1       5.954  -1.971   3.906  0.00  0.00     0.017 A 
ATOM      8  C8  DEN d   1       5.980  -3.017   2.993  0.00  0.00    -0.094 A 
ATOM      9  C9  DEN d   1       5.929  -4.335   3.416  0.00  0.00    -0.072 A 
ENDROOT
TORSDOF 0
ENDMDL
