MODEL 1
REMARK minimizedAffinity -3.8880837
REMARK minimizedRMSD -1
REMARK  0 active torsions:
REMARK  status: ('A' for Active; 'I' for Inactive)
ROOT
ATOM      1  C1  DEN d   1       5.877  -2.223   2.320  0.00  0.00     0.130 A 
ATOM      2  C2  DEN d   1       6.000  -3.410   1.477  0.00  0.00    -0.031 A 
ATOM      3  C3  DEN d   1       5.774  -4.597   2.326  0.00  0.00     0.027 A 
ATOM      4  C4  DEN d   1       5.245  -4.713   4.847  0.00  0.00     0.027 A 
ATOM      5  C5  DEN d   1       5.053  -3.967   5.989  0.00  0.00    -0.003 A 
ATOM      6  C6  DEN d   1       5.155  -2.601   5.995  0.00  0.00     0.001 A 
ATOM      7  C7  DEN d   1       5.413  -1.935   4.826  0.00  0.00     0.017 A 
ATOM      8  C8  DEN d   1       5.615  -2.680   3.672  0.00  0.00    -0.094 A 
ATOM      9  C9  DEN d   1       5.495  -4.059   3.684  0.00  0.00    -0.072 A 
ENDROOT
TORSDOF 0
ENDMDL
