MODEL 1
REMARK minimizedAffinity -3.70946693
REMARK minimizedRMSD -1
REMARK  0 active torsions:
REMARK  status: ('A' for Active; 'I' for Inactive)
ROOT
ATOM      1  C1  DEN d   1       5.380  -4.059   5.987  0.00  0.00     0.130 A 
ATOM      2  C2  DEN d   1       5.545  -5.509   5.932  0.00  0.00    -0.031 A 
ATOM      3  C3  DEN d   1       5.816  -5.884   4.530  0.00  0.00     0.027 A 
ATOM      4  C4  DEN d   1       6.000  -4.368   2.451  0.00  0.00     0.027 A 
ATOM      5  C5  DEN d   1       5.924  -3.069   1.998  0.00  0.00    -0.003 A 
ATOM      6  C6  DEN d   1       5.630  -2.022   2.831  0.00  0.00     0.001 A 
ATOM      7  C7  DEN d   1       5.446  -2.250   4.169  0.00  0.00     0.017 A 
ATOM      8  C8  DEN d   1       5.514  -3.558   4.632  0.00  0.00    -0.094 A 
ATOM      9  C9  DEN d   1       5.824  -4.601   3.776  0.00  0.00    -0.072 A 
ENDROOT
TORSDOF 0
ENDMDL
