MODEL 1
REMARK minimizedAffinity 1.76781845
REMARK minimizedRMSD -1
REMARK  0 active torsions:
REMARK  status: ('A' for Active; 'I' for Inactive)
ROOT
ATOM      1  C1  DEN d   1       3.639  -3.896   2.750  0.00  0.00     0.130 A 
ATOM      2  C2  DEN d   1       4.854  -3.320   2.181  0.00  0.00    -0.031 A 
ATOM      3  C3  DEN d   1       5.995  -3.743   3.017  0.00  0.00     0.027 A 
ATOM      4  C4  DEN d   1       5.999  -5.230   5.125  0.00  0.00     0.027 A 
ATOM      5  C5  DEN d   1       5.206  -5.943   5.996  0.00  0.00    -0.003 A 
ATOM      6  C6  DEN d   1       3.843  -5.996   5.868  0.00  0.00     0.001 A 
ATOM      7  C7  DEN d   1       3.235  -5.360   4.818  0.00  0.00     0.017 A 
ATOM      8  C8  DEN d   1       4.027  -4.632   3.939  0.00  0.00    -0.094 A 
ATOM      9  C9  DEN d   1       5.404  -4.601   4.079  0.00  0.00    -0.072 A 
ENDROOT
TORSDOF 0
ENDMDL
