MODEL 1
REMARK minimizedAffinity -2.02125168
REMARK minimizedRMSD -1
REMARK  0 active torsions:
REMARK  status: ('A' for Active; 'I' for Inactive)
ROOT
ATOM      1  C1  DEN d   1       3.859  -4.611   5.997  0.00  0.00     0.130 A 
ATOM      2  C2  DEN d   1       4.178  -5.999   5.674  0.00  0.00    -0.031 A 
ATOM      3  C3  DEN d   1       5.074  -6.000   4.500  0.00  0.00     0.027 A 
ATOM      4  C4  DEN d   1       5.997  -3.998   3.161  0.00  0.00     0.027 A 
ATOM      5  C5  DEN d   1       5.995  -2.625   3.051  0.00  0.00    -0.003 A 
ATOM      6  C6  DEN d   1       5.261  -1.826   3.886  0.00  0.00     0.001 A 
ATOM      7  C7  DEN d   1       4.532  -2.391   4.899  0.00  0.00     0.017 A 
ATOM      8  C8  DEN d   1       4.523  -3.775   5.012  0.00  0.00    -0.094 A 
ATOM      9  C9  DEN d   1       5.281  -4.565   4.165  0.00  0.00    -0.072 A 
ENDROOT
TORSDOF 0
ENDMDL
