MODEL 1
REMARK minimizedAffinity -1.83995068
REMARK minimizedRMSD -1
REMARK  0 active torsions:
REMARK  status: ('A' for Active; 'I' for Inactive)
ROOT
ATOM      1  C1  DEN d   1       5.935  -2.747   2.160  0.00  0.00     0.130 A 
ATOM      2  C2  DEN d   1       5.997  -3.973   1.370  0.00  0.00    -0.031 A 
ATOM      3  C3  DEN d   1       5.999  -5.118   2.303  0.00  0.00     0.027 A 
ATOM      4  C4  DEN d   1       5.909  -5.111   4.881  0.00  0.00     0.027 A 
ATOM      5  C5  DEN d   1       5.860  -4.309   6.000  0.00  0.00    -0.003 A 
ATOM      6  C6  DEN d   1       5.867  -2.942   5.920  0.00  0.00     0.001 A 
ATOM      7  C7  DEN d   1       5.879  -2.334   4.692  0.00  0.00     0.017 A 
ATOM      8  C8  DEN d   1       5.936  -3.135   3.559  0.00  0.00    -0.094 A 
ATOM      9  C9  DEN d   1       5.916  -4.516   3.661  0.00  0.00    -0.072 A 
ENDROOT
TORSDOF 0
ENDMDL
