MODEL 1
REMARK minimizedAffinity -3.25278735
REMARK minimizedRMSD -1
REMARK  0 active torsions:
REMARK  status: ('A' for Active; 'I' for Inactive)
ROOT
ATOM      1  C1  DEN d   1       6.000  -4.493   2.243  0.00  0.00     0.130 A 
ATOM      2  C2  DEN d   1       6.000  -3.280   1.430  0.00  0.00    -0.031 A 
ATOM      3  C3  DEN d   1       5.751  -2.131   2.323  0.00  0.00     0.027 A 
ATOM      4  C4  DEN d   1       5.371  -2.111   4.874  0.00  0.00     0.027 A 
ATOM      5  C5  DEN d   1       5.270  -2.898   6.000  0.00  0.00    -0.003 A 
ATOM      6  C6  DEN d   1       5.371  -4.263   5.948  0.00  0.00     0.001 A 
ATOM      7  C7  DEN d   1       5.624  -4.880   4.752  0.00  0.00     0.017 A 
ATOM      8  C8  DEN d   1       5.719  -4.094   3.611  0.00  0.00    -0.094 A 
ATOM      9  C9  DEN d   1       5.627  -2.715   3.686  0.00  0.00    -0.072 A 
ENDROOT
TORSDOF 0
ENDMDL
