MODEL 1
REMARK minimizedAffinity -4.15612459
REMARK minimizedRMSD -1
REMARK  0 active torsions:
REMARK  status: ('A' for Active; 'I' for Inactive)
ROOT
ATOM      1  C1  DEN d   1       5.998  -4.461   2.304  0.00  0.00     0.130 A 
ATOM      2  C2  DEN d   1       5.979  -5.878   2.658  0.00  0.00    -0.031 A 
ATOM      3  C3  DEN d   1       5.459  -5.998   4.035  0.00  0.00     0.027 A 
ATOM      4  C4  DEN d   1       4.682  -4.138   5.643  0.00  0.00     0.027 A 
ATOM      5  C5  DEN d   1       4.524  -2.778   5.794  0.00  0.00    -0.003 A 
ATOM      6  C6  DEN d   1       4.875  -1.889   4.813  0.00  0.00     0.001 A 
ATOM      7  C7  DEN d   1       5.360  -2.352   3.619  0.00  0.00     0.017 A 
ATOM      8  C8  DEN d   1       5.529  -3.722   3.462  0.00  0.00    -0.094 A 
ATOM      9  C9  DEN d   1       5.157  -4.605   4.461  0.00  0.00    -0.072 A 
ENDROOT
TORSDOF 0
ENDMDL
