MODEL 1
REMARK minimizedAffinity -2.2149961
REMARK minimizedRMSD -1
REMARK  0 active torsions:
REMARK  status: ('A' for Active; 'I' for Inactive)
ROOT
ATOM      1  C1  DEN d   1       5.934  -3.371   2.011  0.00  0.00     0.130 A 
ATOM      2  C2  DEN d   1       6.000  -4.677   1.362  0.00  0.00    -0.031 A 
ATOM      3  C3  DEN d   1       5.997  -5.712   2.416  0.00  0.00     0.027 A 
ATOM      4  C4  DEN d   1       5.893  -5.418   4.976  0.00  0.00     0.027 A 
ATOM      5  C5  DEN d   1       5.838  -4.498   5.999  0.00  0.00    -0.003 A 
ATOM      6  C6  DEN d   1       5.845  -3.148   5.768  0.00  0.00     0.001 A 
ATOM      7  C7  DEN d   1       5.863  -2.680   4.481  0.00  0.00     0.017 A 
ATOM      8  C8  DEN d   1       5.926  -3.602   3.444  0.00  0.00    -0.094 A 
ATOM      9  C9  DEN d   1       5.906  -4.963   3.698  0.00  0.00    -0.072 A 
ENDROOT
TORSDOF 0
ENDMDL
