MODEL 1
REMARK minimizedAffinity -3.96824002
REMARK minimizedRMSD -1
REMARK  0 active torsions:
REMARK  status: ('A' for Active; 'I' for Inactive)
ROOT
ATOM      1  C1  DEN d   1       5.000  -2.498   4.655  0.00  0.00     0.130 A 
ATOM      2  C2  DEN d   1       4.725  -3.014   5.993  0.00  0.00    -0.031 A 
ATOM      3  C3  DEN d   1       4.937  -4.476   5.970  0.00  0.00     0.027 A 
ATOM      4  C4  DEN d   1       5.663  -5.980   4.005  0.00  0.00     0.027 A 
ATOM      5  C5  DEN d   1       6.000  -5.997   2.669  0.00  0.00    -0.003 A 
ATOM      6  C6  DEN d   1       5.994  -4.864   1.900  0.00  0.00     0.001 A 
ATOM      7  C7  DEN d   1       5.688  -3.657   2.472  0.00  0.00     0.017 A 
ATOM      8  C8  DEN d   1       5.340  -3.633   3.816  0.00  0.00    -0.094 A 
ATOM      9  C9  DEN d   1       5.363  -4.787   4.579  0.00  0.00    -0.072 A 
ENDROOT
TORSDOF 0
ENDMDL
