MODEL 1
REMARK minimizedAffinity -2.80976391
REMARK minimizedRMSD -1
REMARK  0 active torsions:
REMARK  status: ('A' for Active; 'I' for Inactive)
ROOT
ATOM      1  C1  DEN d   1       5.249  -2.254   4.767  0.00  0.00     0.130 A 
ATOM      2  C2  DEN d   1       5.012  -3.001   5.999  0.00  0.00    -0.031 A 
ATOM      3  C3  DEN d   1       5.151  -4.440   5.694  0.00  0.00     0.027 A 
ATOM      4  C4  DEN d   1       5.712  -5.576   3.448  0.00  0.00     0.027 A 
ATOM      5  C5  DEN d   1       5.986  -5.355   2.116  0.00  0.00    -0.003 A 
ATOM      6  C6  DEN d   1       6.000  -4.099   1.572  0.00  0.00     0.001 A 
ATOM      7  C7  DEN d   1       5.779  -3.010   2.373  0.00  0.00     0.017 A 
ATOM      8  C8  DEN d   1       5.495  -3.224   3.715  0.00  0.00    -0.094 A 
ATOM      9  C9  DEN d   1       5.497  -4.502   4.249  0.00  0.00    -0.072 A 
ENDROOT
TORSDOF 0
ENDMDL
