MODEL 1
REMARK minimizedAffinity -0.246834233
REMARK minimizedRMSD -1
REMARK  0 active torsions:
REMARK  status: ('A' for Active; 'I' for Inactive)
ROOT
ATOM      1  C1  DEN d   1       5.997  -2.873   2.553  0.00  0.00     0.130 A 
ATOM      2  C2  DEN d   1       5.778  -1.569   3.173  0.00  0.00    -0.031 A 
ATOM      3  C3  DEN d   1       5.550  -1.782   4.616  0.00  0.00     0.027 A 
ATOM      4  C4  DEN d   1       5.518  -3.993   5.945  0.00  0.00     0.027 A 
ATOM      5  C5  DEN d   1       5.641  -5.361   5.850  0.00  0.00    -0.003 A 
ATOM      6  C6  DEN d   1       5.856  -5.994   4.654  0.00  0.00     0.001 A 
ATOM      7  C7  DEN d   1       6.000  -5.253   3.511  0.00  0.00     0.017 A 
ATOM      8  C8  DEN d   1       5.869  -3.874   3.597  0.00  0.00    -0.094 A 
ATOM      9  C9  DEN d   1       5.664  -3.252   4.817  0.00  0.00    -0.072 A 
ENDROOT
TORSDOF 0
ENDMDL
