MODEL 1
REMARK minimizedAffinity -3.56724787
REMARK minimizedRMSD -1
REMARK  0 active torsions:
REMARK  status: ('A' for Active; 'I' for Inactive)
ROOT
ATOM      1  C1  DEN d   1       5.999  -3.751   1.891  0.00  0.00     0.130 A 
ATOM      2  C2  DEN d   1       5.992  -5.210   1.813  0.00  0.00    -0.031 A 
ATOM      3  C3  DEN d   1       5.937  -5.740   3.190  0.00  0.00     0.027 A 
ATOM      4  C4  DEN d   1       5.858  -4.451   5.423  0.00  0.00     0.027 A 
ATOM      5  C5  DEN d   1       5.856  -3.199   5.997  0.00  0.00    -0.003 A 
ATOM      6  C6  DEN d   1       5.935  -2.054   5.251  0.00  0.00     0.001 A 
ATOM      7  C7  DEN d   1       5.974  -2.136   3.884  0.00  0.00     0.017 A 
ATOM      8  C8  DEN d   1       5.984  -3.395   3.298  0.00  0.00    -0.094 A 
ATOM      9  C9  DEN d   1       5.891  -4.541   4.070  0.00  0.00    -0.072 A 
ENDROOT
TORSDOF 0
ENDMDL
