MODEL 1
REMARK minimizedAffinity -3.97718978
REMARK minimizedRMSD -1
REMARK  0 active torsions:
REMARK  status: ('A' for Active; 'I' for Inactive)
ROOT
ATOM      1  C1  DEN d   1       5.384  -3.132   5.366  0.00  0.00     0.130 A 
ATOM      2  C2  DEN d   1       5.531  -4.449   5.979  0.00  0.00    -0.031 A 
ATOM      3  C3  DEN d   1       5.775  -5.429   4.902  0.00  0.00     0.027 A 
ATOM      4  C4  DEN d   1       5.943  -5.037   2.358  0.00  0.00     0.027 A 
ATOM      5  C5  DEN d   1       5.874  -4.089   1.362  0.00  0.00    -0.003 A 
ATOM      6  C6  DEN d   1       5.606  -2.771   1.625  0.00  0.00     0.001 A 
ATOM      7  C7  DEN d   1       5.441  -2.358   2.920  0.00  0.00     0.017 A 
ATOM      8  C8  DEN d   1       5.501  -3.309   3.930  0.00  0.00    -0.094 A 
ATOM      9  C9  DEN d   1       5.786  -4.634   3.645  0.00  0.00    -0.072 A 
ENDROOT
TORSDOF 0
ENDMDL
