MODEL 1
REMARK minimizedAffinity 1.39452922
REMARK minimizedRMSD -1
REMARK  0 active torsions:
REMARK  status: ('A' for Active; 'I' for Inactive)
ROOT
ATOM      1  C1  DEN d   1       6.000  -2.952   2.502  0.00  0.00     0.130 A 
ATOM      2  C2  DEN d   1       5.984  -4.180   1.713  0.00  0.00    -0.031 A 
ATOM      3  C3  DEN d   1       5.350  -5.237   2.527  0.00  0.00     0.027 A 
ATOM      4  C4  DEN d   1       4.392  -5.089   4.917  0.00  0.00     0.027 A 
ATOM      5  C5  DEN d   1       4.189  -4.257   5.995  0.00  0.00    -0.003 A 
ATOM      6  C6  DEN d   1       4.603  -2.951   5.998  0.00  0.00     0.001 A 
ATOM      7  C7  DEN d   1       5.200  -2.426   4.882  0.00  0.00     0.017 A 
ATOM      8  C8  DEN d   1       5.415  -3.261   3.794  0.00  0.00    -0.094 A 
ATOM      9  C9  DEN d   1       4.979  -4.575   3.806  0.00  0.00    -0.072 A 
ENDROOT
TORSDOF 0
ENDMDL
