MODEL 1
REMARK minimizedAffinity -3.67883205
REMARK minimizedRMSD -1
REMARK  0 active torsions:
REMARK  status: ('A' for Active; 'I' for Inactive)
ROOT
ATOM      1  C1  DEN d   1       6.000  -4.876   2.656  0.00  0.00     0.130 A 
ATOM      2  C2  DEN d   1       5.886  -3.754   1.729  0.00  0.00    -0.031 A 
ATOM      3  C3  DEN d   1       5.063  -2.711   2.373  0.00  0.00     0.027 A 
ATOM      4  C4  DEN d   1       3.963  -2.722   4.705  0.00  0.00     0.027 A 
ATOM      5  C5  DEN d   1       3.769  -3.461   5.852  0.00  0.00    -0.003 A 
ATOM      6  C6  DEN d   1       4.273  -4.727   5.998  0.00  0.00     0.001 A 
ATOM      7  C7  DEN d   1       5.034  -5.274   4.999  0.00  0.00     0.017 A 
ATOM      8  C8  DEN d   1       5.227  -4.538   3.838  0.00  0.00    -0.094 A 
ATOM      9  C9  DEN d   1       4.720  -3.256   3.714  0.00  0.00    -0.072 A 
ENDROOT
TORSDOF 0
ENDMDL
