MODEL 1
REMARK minimizedAffinity -3.21564507
REMARK minimizedRMSD -1
REMARK  1 active torsions:
REMARK  status: ('A' for Active; 'I' for Inactive)
REMARK    1  A    between atoms: C3_4  and  O_7 
ROOT
ATOM      1  C   UNL d   1       2.166  -0.706  -1.901  0.00  0.00    -0.033 A 
ATOM      2  C1  UNL d   1       3.252   0.071  -2.307  0.00  0.00     0.039 A 
ATOM      3  C2  UNL d   1       4.550  -0.297  -1.947  0.00  0.00    -0.080 A 
ATOM      4  C3  UNL d   1       4.748  -1.444  -1.183  0.00  0.00     0.150 A 
ATOM      5  C4  UNL d   1       3.671  -2.225  -0.778  0.00  0.00    -0.007 A 
ATOM      6  C5  UNL d   1       2.376  -1.855  -1.138  0.00  0.00     0.039 A 
ENDROOT
BRANCH   4   7
ATOM      7  O   UNL d   1       5.996  -1.841  -0.804  0.00  0.00    -0.526 OA
ATOM      8  H5  UNL d   1       6.639  -1.189  -1.131  0.00  0.00     0.418 HD
ENDBRANCH   4   7
TORSDOF 1
ENDMDL
