MODEL 1
REMARK minimizedAffinity 2.23914218
REMARK minimizedRMSD -1
REMARK  1 active torsions:
REMARK  status: ('A' for Active; 'I' for Inactive)
REMARK    1  A    between atoms: C3_4  and  O_7 
ROOT
ATOM      1  C   UNL d   1      -1.971   3.554  -5.998  0.00  0.00    -0.033 A 
ATOM      2  C1  UNL d   1      -2.283   4.915  -5.990  0.00  0.00     0.039 A 
ATOM      3  C2  UNL d   1      -3.617   5.327  -5.988  0.00  0.00    -0.080 A 
ATOM      4  C3  UNL d   1      -4.628   4.369  -5.992  0.00  0.00     0.150 A 
ATOM      5  C4  UNL d   1      -4.324   3.012  -5.995  0.00  0.00    -0.007 A 
ATOM      6  C5  UNL d   1      -2.991   2.602  -5.999  0.00  0.00     0.039 A 
ENDROOT
BRANCH   4   7
ATOM      7  O   UNL d   1      -5.945   4.723  -5.994  0.00  0.00    -0.526 OA
ATOM      8  H5  UNL d   1      -6.003   5.692  -6.021  0.00  0.00     0.418 HD
ENDBRANCH   4   7
TORSDOF 1
ENDMDL
