MODEL 1
REMARK minimizedAffinity 15.0511246
REMARK minimizedRMSD -1
REMARK  1 active torsions:
REMARK  status: ('A' for Active; 'I' for Inactive)
REMARK    1  A    between atoms: C3_4  and  O_7 
ROOT
ATOM      1  C   UNL d   1      -4.425  -0.631   4.995  0.00  0.00    -0.033 A 
ATOM      2  C1  UNL d   1      -4.735  -0.308   3.672  0.00  0.00     0.039 A 
ATOM      3  C2  UNL d   1      -4.334   0.918   3.139  0.00  0.00    -0.080 A 
ATOM      4  C3  UNL d   1      -3.623   1.810   3.936  0.00  0.00     0.150 A 
ATOM      5  C4  UNL d   1      -3.307   1.494   5.253  0.00  0.00    -0.007 A 
ATOM      6  C5  UNL d   1      -3.710   0.269   5.785  0.00  0.00     0.039 A 
ENDROOT
BRANCH   4   7
ATOM      7  O   UNL d   1      -3.213   3.021   3.461  0.00  0.00    -0.526 OA
ATOM      8  H5  UNL d   1      -3.527   3.114   2.546  0.00  0.00     0.418 HD
ENDBRANCH   4   7
TORSDOF 1
ENDMDL
