MODEL 1
REMARK minimizedAffinity 10.9434977
REMARK minimizedRMSD -1
REMARK  1 active torsions:
REMARK  status: ('A' for Active; 'I' for Inactive)
REMARK    1  A    between atoms: C3_4  and  O_7 
ROOT
ATOM      1  C   UNL d   1       1.223  -1.431  -1.434  0.00  0.00    -0.033 A 
ATOM      2  C1  UNL d   1       0.361  -2.193  -0.642  0.00  0.00     0.039 A 
ATOM      3  C2  UNL d   1      -0.389  -3.222  -1.214  0.00  0.00    -0.080 A 
ATOM      4  C3  UNL d   1      -0.269  -3.479  -2.577  0.00  0.00     0.150 A 
ATOM      5  C4  UNL d   1       0.590  -2.727  -3.371  0.00  0.00    -0.007 A 
ATOM      6  C5  UNL d   1       1.338  -1.699  -2.799  0.00  0.00     0.039 A 
ENDROOT
BRANCH   4   7
ATOM      7  O   UNL d   1      -0.984  -4.470  -3.181  0.00  0.00    -0.526 OA
ATOM      8  H5  UNL d   1      -1.556  -4.886  -2.515  0.00  0.00     0.418 HD
ENDBRANCH   4   7
TORSDOF 1
ENDMDL
