MODEL 1
REMARK minimizedAffinity 16.0358906
REMARK minimizedRMSD -1
REMARK  1 active torsions:
REMARK  status: ('A' for Active; 'I' for Inactive)
REMARK    1  A    between atoms: C3_4  and  O_7 
ROOT
ATOM      1  C   UNL d   1      -3.020   1.832   5.308  0.00  0.00    -0.033 A 
ATOM      2  C1  UNL d   1      -3.385   1.657   3.972  0.00  0.00     0.039 A 
ATOM      3  C2  UNL d   1      -2.426   1.285   3.028  0.00  0.00    -0.080 A 
ATOM      4  C3  UNL d   1      -1.108   1.089   3.433  0.00  0.00     0.150 A 
ATOM      5  C4  UNL d   1      -0.739   1.258   4.763  0.00  0.00    -0.007 A 
ATOM      6  C5  UNL d   1      -1.698   1.631   5.704  0.00  0.00     0.039 A 
ENDROOT
BRANCH   4   7
ATOM      7  O   UNL d   1      -0.136   0.730   2.547  0.00  0.00    -0.526 OA
ATOM      8  H5  UNL d   1      -0.532   0.678   1.660  0.00  0.00     0.418 HD
ENDBRANCH   4   7
TORSDOF 1
ENDMDL
