MODEL 1
REMARK minimizedAffinity 1.84937012
REMARK minimizedRMSD -1
REMARK  1 active torsions:
REMARK  status: ('A' for Active; 'I' for Inactive)
REMARK    1  A    between atoms: C3_4  and  O_7 
ROOT
ATOM      1  C   UNL d   1      -0.424  -2.172   1.458  0.00  0.00    -0.033 A 
ATOM      2  C1  UNL d   1       0.024  -1.507   0.315  0.00  0.00     0.039 A 
ATOM      3  C2  UNL d   1      -0.309  -1.990  -0.952  0.00  0.00    -0.080 A 
ATOM      4  C3  UNL d   1      -1.090  -3.137  -1.062  0.00  0.00     0.150 A 
ATOM      5  C4  UNL d   1      -1.544  -3.803   0.072  0.00  0.00    -0.007 A 
ATOM      6  C5  UNL d   1      -1.209  -3.319   1.336  0.00  0.00     0.039 A 
ENDROOT
BRANCH   4   7
ATOM      7  O   UNL d   1      -1.437  -3.650  -2.277  0.00  0.00    -0.526 OA
ATOM      8  H5  UNL d   1      -1.029  -3.103  -2.969  0.00  0.00     0.418 HD
ENDBRANCH   4   7
TORSDOF 1
ENDMDL
