MODEL 1
REMARK minimizedAffinity 11.5588064
REMARK minimizedRMSD -1
REMARK  1 active torsions:
REMARK  status: ('A' for Active; 'I' for Inactive)
REMARK    1  A    between atoms: C3_4  and  O_7 
ROOT
ATOM      1  C   UNL d   1       2.367  -0.650  -1.957  0.00  0.00    -0.033 A 
ATOM      2  C1  UNL d   1       1.490   0.083  -2.759  0.00  0.00     0.039 A 
ATOM      3  C2  UNL d   1       1.310   1.449  -2.532  0.00  0.00    -0.080 A 
ATOM      4  C3  UNL d   1       2.013   2.069  -1.502  0.00  0.00     0.150 A 
ATOM      5  C4  UNL d   1       2.891   1.345  -0.702  0.00  0.00    -0.007 A 
ATOM      6  C5  UNL d   1       3.068  -0.019  -0.930  0.00  0.00     0.039 A 
ENDROOT
BRANCH   4   7
ATOM      7  O   UNL d   1       1.867   3.398  -1.240  0.00  0.00    -0.526 OA
ATOM      8  H5  UNL d   1       1.207   3.763  -1.853  0.00  0.00     0.418 HD
ENDBRANCH   4   7
TORSDOF 1
ENDMDL
