MODEL 1
REMARK minimizedAffinity 7.21557808
REMARK minimizedRMSD -1
REMARK  1 active torsions:
REMARK  status: ('A' for Active; 'I' for Inactive)
REMARK    1  A    between atoms: C3_4  and  O_7 
ROOT
ATOM      1  C   UNL d   1       1.125   5.988   0.700  0.00  0.00    -0.033 A 
ATOM      2  C1  UNL d   1       1.510   4.809   1.340  0.00  0.00     0.039 A 
ATOM      3  C2  UNL d   1       1.676   3.635   0.603  0.00  0.00    -0.080 A 
ATOM      4  C3  UNL d   1       1.454   3.654  -0.771  0.00  0.00     0.150 A 
ATOM      5  C4  UNL d   1       1.074   4.826  -1.416  0.00  0.00    -0.007 A 
ATOM      6  C5  UNL d   1       0.908   5.998  -0.678  0.00  0.00     0.039 A 
ENDROOT
BRANCH   4   7
ATOM      7  O   UNL d   1       1.599   2.532  -1.532  0.00  0.00    -0.526 OA
ATOM      8  H5  UNL d   1       1.837   1.793  -0.948  0.00  0.00     0.418 HD
ENDBRANCH   4   7
TORSDOF 1
ENDMDL
