MODEL 1
REMARK minimizedAffinity -3.12836146
REMARK minimizedRMSD -1
REMARK  1 active torsions:
REMARK  status: ('A' for Active; 'I' for Inactive)
REMARK    1  A    between atoms: C3_4  and  O_7 
ROOT
ATOM      1  C   UNL d   1      -0.301  -0.690   1.097  0.00  0.00    -0.033 A 
ATOM      2  C1  UNL d   1       0.337  -1.762   0.471  0.00  0.00     0.039 A 
ATOM      3  C2  UNL d   1       1.152  -1.539  -0.641  0.00  0.00    -0.080 A 
ATOM      4  C3  UNL d   1       1.322  -0.241  -1.114  0.00  0.00     0.150 A 
ATOM      5  C4  UNL d   1       0.692   0.833  -0.492  0.00  0.00    -0.007 A 
ATOM      6  C5  UNL d   1      -0.122   0.607   0.617  0.00  0.00     0.039 A 
ENDROOT
BRANCH   4   7
ATOM      7  O   UNL d   1       2.104   0.026  -2.198  0.00  0.00    -0.526 OA
ATOM      8  H5  UNL d   1       2.451  -0.814  -2.542  0.00  0.00     0.418 HD
ENDBRANCH   4   7
TORSDOF 1
ENDMDL
