MODEL 1
REMARK minimizedAffinity -4.5415163
REMARK minimizedRMSD -1
REMARK  1 active torsions:
REMARK  status: ('A' for Active; 'I' for Inactive)
REMARK    1  A    between atoms: C3_4  and  O_7 
ROOT
ATOM      1  C   UNL d   1       0.133  -0.738   0.011  0.00  0.00    -0.033 A 
ATOM      2  C1  UNL d   1       0.297  -1.775  -0.909  0.00  0.00     0.039 A 
ATOM      3  C2  UNL d   1       0.735  -1.498  -2.206  0.00  0.00    -0.080 A 
ATOM      4  C3  UNL d   1       1.005  -0.182  -2.569  0.00  0.00     0.150 A 
ATOM      5  C4  UNL d   1       0.847   0.856  -1.656  0.00  0.00    -0.007 A 
ATOM      6  C5  UNL d   1       0.409   0.578  -0.362  0.00  0.00     0.039 A 
ENDROOT
BRANCH   4   7
ATOM      7  O   UNL d   1       1.430   0.138  -3.824  0.00  0.00    -0.526 OA
ATOM      8  H5  UNL d   1       1.466  -0.676  -4.354  0.00  0.00     0.418 HD
ENDBRANCH   4   7
TORSDOF 1
ENDMDL
