MODEL 1
REMARK minimizedAffinity -3.92858529
REMARK minimizedRMSD -1
REMARK  1 active torsions:
REMARK  status: ('A' for Active; 'I' for Inactive)
REMARK    1  A    between atoms: C3_4  and  O_7 
ROOT
ATOM      1  C   UNL d   1      -0.557  -1.165   1.064  0.00  0.00    -0.033 A 
ATOM      2  C1  UNL d   1      -0.923  -1.070  -0.280  0.00  0.00     0.039 A 
ATOM      3  C2  UNL d   1      -2.199  -1.462  -0.688  0.00  0.00    -0.080 A 
ATOM      4  C3  UNL d   1      -3.099  -1.947   0.257  0.00  0.00     0.150 A 
ATOM      5  C4  UNL d   1      -2.743  -2.041   1.598  0.00  0.00    -0.007 A 
ATOM      6  C5  UNL d   1      -1.468  -1.650   2.004  0.00  0.00     0.039 A 
ENDROOT
BRANCH   4   7
ATOM      7  O   UNL d   1      -4.354  -2.346  -0.094  0.00  0.00    -0.526 OA
ATOM      8  H5  UNL d   1      -4.450  -2.252  -1.057  0.00  0.00     0.418 HD
ENDBRANCH   4   7
TORSDOF 1
ENDMDL
