MODEL 1
REMARK minimizedAffinity -4.10178041
REMARK minimizedRMSD -1
REMARK  1 active torsions:
REMARK  status: ('A' for Active; 'I' for Inactive)
REMARK    1  A    between atoms: C3_4  and  O_7 
ROOT
ATOM      1  C   UNL d   1       2.027  -0.497  -3.832  0.00  0.00    -0.033 A 
ATOM      2  C1  UNL d   1       3.041  -1.405  -3.524  0.00  0.00     0.039 A 
ATOM      3  C2  UNL d   1       2.802  -2.438  -2.614  0.00  0.00    -0.080 A 
ATOM      4  C3  UNL d   1       1.547  -2.551  -2.022  0.00  0.00     0.150 A 
ATOM      5  C4  UNL d   1       0.531  -1.651  -2.328  0.00  0.00    -0.007 A 
ATOM      6  C5  UNL d   1       0.772  -0.620  -3.236  0.00  0.00     0.039 A 
ENDROOT
BRANCH   4   7
ATOM      7  O   UNL d   1       1.269  -3.539  -1.126  0.00  0.00    -0.526 OA
ATOM      8  H5  UNL d   1       2.073  -4.067  -0.990  0.00  0.00     0.418 HD
ENDBRANCH   4   7
TORSDOF 1
ENDMDL
