MODEL 1
REMARK minimizedAffinity -1.37374151
REMARK minimizedRMSD -1
REMARK  0 active torsions:
REMARK  status: ('A' for Active; 'I' for Inactive)
ROOT
ATOM      1  C   UNL d   1      -3.196   0.516  -1.547  0.00  0.00     0.172 C 
ATOM      2  N   UNL d   1      -1.995   0.444  -0.749  0.00  0.00    -0.070 N 
ATOM      3  C1  UNL d   1      -1.026   1.409  -0.676  0.00  0.00    -0.004 A 
ATOM      4  C2  UNL d   1      -0.051   0.964   0.190  0.00  0.00    -0.047 A 
ATOM      5  C3  UNL d   1      -0.447  -0.314   0.652  0.00  0.00    -0.047 A 
ATOM      6  C4  UNL d   1      -1.654  -0.611   0.055  0.00  0.00    -0.004 A 
ENDROOT
TORSDOF 0
ENDMDL
