MODEL 1
REMARK minimizedAffinity -2.40621543
REMARK minimizedRMSD -1
REMARK  0 active torsions:
REMARK  status: ('A' for Active; 'I' for Inactive)
ROOT
ATOM      1  C   UNL d   1      -1.631  -0.432  -1.957  0.00  0.00     0.172 C 
ATOM      2  N   UNL d   1      -0.743   0.259  -1.053  0.00  0.00    -0.070 N 
ATOM      3  C1  UNL d   1       0.463   0.814  -1.387  0.00  0.00    -0.004 A 
ATOM      4  C2  UNL d   1       0.999   1.377  -0.249  0.00  0.00    -0.047 A 
ATOM      5  C3  UNL d   1       0.083   1.151   0.806  0.00  0.00    -0.047 A 
ATOM      6  C4  UNL d   1      -0.986   0.457   0.281  0.00  0.00    -0.004 A 
ENDROOT
TORSDOF 0
ENDMDL
