MODEL 1
REMARK minimizedAffinity -4.04561806
REMARK minimizedRMSD -1
REMARK  0 active torsions:
REMARK  status: ('A' for Active; 'I' for Inactive)
ROOT
ATOM      1  C   UNL d   1      -1.029   0.015  -0.615  0.00  0.00     0.172 C 
ATOM      2  N   UNL d   1       0.325  -0.008  -0.113  0.00  0.00    -0.070 N 
ATOM      3  C1  UNL d   1       0.959  -1.096   0.426  0.00  0.00    -0.004 A 
ATOM      4  C2  UNL d   1       2.232  -0.708   0.783  0.00  0.00    -0.047 A 
ATOM      5  C3  UNL d   1       2.368   0.660   0.449  0.00  0.00    -0.047 A 
ATOM      6  C4  UNL d   1       1.173   1.069  -0.104  0.00  0.00    -0.004 A 
ENDROOT
TORSDOF 0
ENDMDL
