MODEL 1
REMARK minimizedAffinity -2.91714907
REMARK minimizedRMSD -1
REMARK  0 active torsions:
REMARK  status: ('A' for Active; 'I' for Inactive)
ROOT
ATOM      1  C   UNL d   1      -2.306  -1.482   0.424  0.00  0.00     0.172 C 
ATOM      2  N   UNL d   1      -2.309  -1.029  -0.947  0.00  0.00    -0.070 N 
ATOM      3  C1  UNL d   1      -2.102   0.260  -1.362  0.00  0.00    -0.004 A 
ATOM      4  C2  UNL d   1      -2.184   0.278  -2.738  0.00  0.00    -0.047 A 
ATOM      5  C3  UNL d   1      -2.450  -1.045  -3.164  0.00  0.00    -0.047 A 
ATOM      6  C4  UNL d   1      -2.523  -1.833  -2.035  0.00  0.00    -0.004 A 
ENDROOT
TORSDOF 0
ENDMDL
