MODEL 1
REMARK minimizedAffinity 4.09235573
REMARK minimizedRMSD -1
REMARK  0 active torsions:
REMARK  status: ('A' for Active; 'I' for Inactive)
ROOT
ATOM      1  C   UNL d   1      -2.573   1.449   1.161  0.00  0.00     0.172 C 
ATOM      2  N   UNL d   1      -3.762   2.146   0.730  0.00  0.00    -0.070 N 
ATOM      3  C1  UNL d   1      -4.793   2.543   1.539  0.00  0.00    -0.004 A 
ATOM      4  C2  UNL d   1      -5.731   3.172   0.749  0.00  0.00    -0.047 A 
ATOM      5  C3  UNL d   1      -5.248   3.152  -0.580  0.00  0.00    -0.047 A 
ATOM      6  C4  UNL d   1      -4.027   2.510  -0.564  0.00  0.00    -0.004 A 
ENDROOT
TORSDOF 0
ENDMDL
