MODEL 1
REMARK minimizedAffinity -2.16440558
REMARK minimizedRMSD -1
REMARK  0 active torsions:
REMARK  status: ('A' for Active; 'I' for Inactive)
ROOT
ATOM      1  C   UNL d   1      -2.282  -0.026  -2.957  0.00  0.00     0.172 C 
ATOM      2  N   UNL d   1      -1.637  -0.116  -1.668  0.00  0.00    -0.070 N 
ATOM      3  C1  UNL d   1      -0.285  -0.096  -1.448  0.00  0.00    -0.004 A 
ATOM      4  C2  UNL d   1      -0.077  -0.202  -0.090  0.00  0.00    -0.047 A 
ATOM      5  C3  UNL d   1      -1.347  -0.291   0.528  0.00  0.00    -0.047 A 
ATOM      6  C4  UNL d   1      -2.295  -0.234  -0.472  0.00  0.00    -0.004 A 
ENDROOT
TORSDOF 0
ENDMDL
