MODEL 1
REMARK minimizedAffinity -1.71697426
REMARK minimizedRMSD -1
REMARK  0 active torsions:
REMARK  status: ('A' for Active; 'I' for Inactive)
ROOT
ATOM      1  C   UNL d   1      -0.918   0.314  -0.937  0.00  0.00     0.172 C 
ATOM      2  N   UNL d   1       0.305   0.691  -0.269  0.00  0.00    -0.070 N 
ATOM      3  C1  UNL d   1       1.232   1.581  -0.743  0.00  0.00    -0.004 A 
ATOM      4  C2  UNL d   1       2.248   1.665   0.184  0.00  0.00    -0.047 A 
ATOM      5  C3  UNL d   1       1.921   0.795   1.252  0.00  0.00    -0.047 A 
ATOM      6  C4  UNL d   1       0.713   0.205   0.945  0.00  0.00    -0.004 A 
ENDROOT
TORSDOF 0
ENDMDL
