MODEL 1
REMARK minimizedAffinity -1.00104392
REMARK minimizedRMSD -1
REMARK  0 active torsions:
REMARK  status: ('A' for Active; 'I' for Inactive)
ROOT
ATOM      1  C   UNL d   1       2.186   0.712   1.409  0.00  0.00     0.172 C 
ATOM      2  N   UNL d   1       1.069   0.553   0.508  0.00  0.00    -0.070 N 
ATOM      3  C1  UNL d   1      -0.013  -0.260   0.713  0.00  0.00    -0.004 A 
ATOM      4  C2  UNL d   1      -0.852  -0.129  -0.372  0.00  0.00    -0.047 A 
ATOM      5  C3  UNL d   1      -0.253   0.795  -1.261  0.00  0.00    -0.047 A 
ATOM      6  C4  UNL d   1       0.935   1.201  -0.692  0.00  0.00    -0.004 A 
ENDROOT
TORSDOF 0
ENDMDL
