MODEL 1
REMARK minimizedAffinity -2.80056119
REMARK minimizedRMSD -1
REMARK  0 active torsions:
REMARK  status: ('A' for Active; 'I' for Inactive)
ROOT
ATOM      1  C   UNL d   1       0.473   0.824   0.048  0.00  0.00     0.172 C 
ATOM      2  N   UNL d   1       1.288  -0.042   0.868  0.00  0.00    -0.070 N 
ATOM      3  C1  UNL d   1       2.505   0.281   1.406  0.00  0.00    -0.004 A 
ATOM      4  C2  UNL d   1       2.954  -0.809   2.119  0.00  0.00    -0.047 A 
ATOM      5  C3  UNL d   1       1.973  -1.823   2.005  0.00  0.00    -0.047 A 
ATOM      6  C4  UNL d   1       0.953  -1.321   1.225  0.00  0.00    -0.004 A 
ENDROOT
TORSDOF 0
ENDMDL
