MODEL 1
REMARK minimizedAffinity -3.88491011
REMARK minimizedRMSD -1
REMARK  0 active torsions:
REMARK  status: ('A' for Active; 'I' for Inactive)
ROOT
ATOM      1  C   UNL d   1       0.102  -0.259  -0.341  0.00  0.00     0.172 C 
ATOM      2  N   UNL d   1       1.323  -0.661   0.316  0.00  0.00    -0.070 N 
ATOM      3  C1  UNL d   1       2.458   0.098   0.426  0.00  0.00    -0.004 A 
ATOM      4  C2  UNL d   1       3.393  -0.639   1.120  0.00  0.00    -0.047 A 
ATOM      5  C3  UNL d   1       2.800  -1.884   1.438  0.00  0.00    -0.047 A 
ATOM      6  C4  UNL d   1       1.519  -1.870   0.928  0.00  0.00    -0.004 A 
ENDROOT
TORSDOF 0
ENDMDL
