MODEL 1
REMARK minimizedAffinity 13.8651638
REMARK minimizedRMSD -1
REMARK  2 active torsions:
REMARK  status: ('A' for Active; 'I' for Inactive)
REMARK    1  A    between atoms: C1_2  and  C2_3 
REMARK    2  A    between atoms: C2_3  and  C3_4 
ROOT
ATOM      1  C3  UNL d   1      -1.070   2.417  -2.955  0.00  0.00    -0.075 A 
ATOM      2  C4  UNL d   1      -2.357   2.805  -3.354  0.00  0.00     0.002 A 
ATOM      3  C5  UNL d   1      -3.484   2.220  -2.777  0.00  0.00     0.002 A 
ATOM      4  C6  UNL d   1      -3.339   1.235  -1.802  0.00  0.00    -0.004 A 
ATOM      5  C7  UNL d   1      -2.065   0.830  -1.410  0.00  0.00     0.002 A 
ATOM      6  C8  UNL d   1      -0.936   1.417  -1.984  0.00  0.00     0.002 A 
ENDROOT
BRANCH   1   7
ATOM      7  C2  UNL d   1       0.154   3.067  -3.556  0.00  0.00     0.056 C 
BRANCH   7   8
ATOM      8  C1  UNL d   1       0.224   2.975  -5.084  0.00  0.00     0.007 C 
ATOM      9  C   UNL d   1       1.020   4.107  -5.718  0.00  0.00     0.009 C 
ENDBRANCH   7   8
ENDBRANCH   1   7
TORSDOF 2
ENDMDL
