MODEL 1
REMARK minimizedAffinity 9.5912838
REMARK minimizedRMSD -1
REMARK  2 active torsions:
REMARK  status: ('A' for Active; 'I' for Inactive)
REMARK    1  A    between atoms: C1_2  and  C2_3 
REMARK    2  A    between atoms: C2_3  and  C3_4 
ROOT
ATOM      1  C3  UNL d   1      -2.967   3.279   4.429  0.00  0.00    -0.075 A 
ATOM      2  C4  UNL d   1      -1.800   4.056   4.388  0.00  0.00     0.002 A 
ATOM      3  C5  UNL d   1      -1.695   5.217   5.154  0.00  0.00     0.002 A 
ATOM      4  C6  UNL d   1      -2.757   5.622   5.961  0.00  0.00    -0.004 A 
ATOM      5  C7  UNL d   1      -3.927   4.867   5.996  0.00  0.00     0.002 A 
ATOM      6  C8  UNL d   1      -4.033   3.702   5.235  0.00  0.00     0.002 A 
ENDROOT
BRANCH   1   7
ATOM      7  C2  UNL d   1      -3.076   2.005   3.626  0.00  0.00     0.056 C 
BRANCH   7   8
ATOM      8  C1  UNL d   1      -4.515   1.603   3.286  0.00  0.00     0.007 C 
ATOM      9  C   UNL d   1      -4.916   1.956   1.860  0.00  0.00     0.009 C 
ENDBRANCH   7   8
ENDBRANCH   1   7
TORSDOF 2
ENDMDL
