MODEL 1
REMARK minimizedAffinity 8.96273422
REMARK minimizedRMSD -1
REMARK  2 active torsions:
REMARK  status: ('A' for Active; 'I' for Inactive)
REMARK    1  A    between atoms: C1_2  and  C2_3 
REMARK    2  A    between atoms: C2_3  and  C3_4 
ROOT
ATOM      1  C3  UNL d   1       2.667  -2.222   2.591  0.00  0.00    -0.075 A 
ATOM      2  C4  UNL d   1       1.339  -1.992   2.202  0.00  0.00     0.002 A 
ATOM      3  C5  UNL d   1       0.917  -2.298   0.908  0.00  0.00     0.002 A 
ATOM      4  C6  UNL d   1       1.817  -2.827  -0.015  0.00  0.00    -0.004 A 
ATOM      5  C7  UNL d   1       3.142  -3.045   0.356  0.00  0.00     0.002 A 
ATOM      6  C8  UNL d   1       3.566  -2.743   1.651  0.00  0.00     0.002 A 
ENDROOT
BRANCH   1   7
ATOM      7  C2  UNL d   1       3.122  -1.920   3.998  0.00  0.00     0.056 C 
BRANCH   7   8
ATOM      8  C1  UNL d   1       4.368  -2.701   4.431  0.00  0.00     0.007 C 
ATOM      9  C   UNL d   1       4.108  -3.649   5.594  0.00  0.00     0.009 C 
ENDBRANCH   7   8
ENDBRANCH   1   7
TORSDOF 2
ENDMDL
