MODEL 1
REMARK minimizedAffinity 7.81928778
REMARK minimizedRMSD -1
REMARK  2 active torsions:
REMARK  status: ('A' for Active; 'I' for Inactive)
REMARK    1  A    between atoms: C1_2  and  C2_3 
REMARK    2  A    between atoms: C2_3  and  C3_4 
ROOT
ATOM      1  C3  UNL d   1      -3.617   2.243  -3.526  0.00  0.00    -0.075 A 
ATOM      2  C4  UNL d   1      -3.571   3.594  -3.898  0.00  0.00     0.002 A 
ATOM      3  C5  UNL d   1      -4.536   4.127  -4.753  0.00  0.00     0.002 A 
ATOM      4  C6  UNL d   1      -5.552   3.315  -5.254  0.00  0.00    -0.004 A 
ATOM      5  C7  UNL d   1      -5.598   1.967  -4.904  0.00  0.00     0.002 A 
ATOM      6  C8  UNL d   1      -4.636   1.433  -4.045  0.00  0.00     0.002 A 
ENDROOT
BRANCH   1   7
ATOM      7  C2  UNL d   1      -2.593   1.667  -2.577  0.00  0.00     0.056 C 
BRANCH   7   8
ATOM      8  C1  UNL d   1      -3.159   0.628  -1.604  0.00  0.00     0.007 C 
ATOM      9  C   UNL d   1      -2.249  -0.579  -1.419  0.00  0.00     0.009 C 
ENDBRANCH   7   8
ENDBRANCH   1   7
TORSDOF 2
ENDMDL
