MODEL 1
REMARK minimizedAffinity 6.88307571
REMARK minimizedRMSD -1
REMARK  2 active torsions:
REMARK  status: ('A' for Active; 'I' for Inactive)
REMARK    1  A    between atoms: C1_2  and  C2_3 
REMARK    2  A    between atoms: C2_3  and  C3_4 
ROOT
ATOM      1  C3  UNL d   1       3.927  -2.216  -0.131  0.00  0.00    -0.075 A 
ATOM      2  C4  UNL d   1       3.190  -3.344  -0.520  0.00  0.00     0.002 A 
ATOM      3  C5  UNL d   1       1.880  -3.522  -0.075  0.00  0.00     0.002 A 
ATOM      4  C6  UNL d   1       1.295  -2.583   0.771  0.00  0.00    -0.004 A 
ATOM      5  C7  UNL d   1       2.023  -1.467   1.178  0.00  0.00     0.002 A 
ATOM      6  C8  UNL d   1       3.333  -1.284   0.730  0.00  0.00     0.002 A 
ENDROOT
BRANCH   1   7
ATOM      7  C2  UNL d   1       5.335  -2.002  -0.633  0.00  0.00     0.056 C 
BRANCH   7   8
ATOM      8  C1  UNL d   1       6.000  -0.728  -0.101  0.00  0.00     0.007 C 
ATOM      9  C   UNL d   1       6.000   0.415  -1.107  0.00  0.00     0.009 C 
ENDBRANCH   7   8
ENDBRANCH   1   7
TORSDOF 2
ENDMDL
