MODEL 1
REMARK minimizedAffinity 5.90522528
REMARK minimizedRMSD -1
REMARK  2 active torsions:
REMARK  status: ('A' for Active; 'I' for Inactive)
REMARK    1  A    between atoms: C1_2  and  C2_3 
REMARK    2  A    between atoms: C2_3  and  C3_4 
ROOT
ATOM      1  C3  UNL d   1      -3.683   3.369   5.984  0.00  0.00    -0.075 A 
ATOM      2  C4  UNL d   1      -5.083   3.273   5.967  0.00  0.00     0.002 A 
ATOM      3  C5  UNL d   1      -5.707   2.025   5.980  0.00  0.00     0.002 A 
ATOM      4  C6  UNL d   1      -4.943   0.860   6.000  0.00  0.00    -0.004 A 
ATOM      5  C7  UNL d   1      -3.553   0.944   6.000  0.00  0.00     0.002 A 
ATOM      6  C8  UNL d   1      -2.925   2.191   5.991  0.00  0.00     0.002 A 
ENDROOT
BRANCH   1   7
ATOM      7  C2  UNL d   1      -3.002   4.716   6.000  0.00  0.00     0.056 C 
BRANCH   7   8
ATOM      8  C1  UNL d   1      -1.471   4.640   5.995  0.00  0.00     0.007 C 
ATOM      9  C   UNL d   1      -0.822   5.672   5.082  0.00  0.00     0.009 C 
ENDBRANCH   7   8
ENDBRANCH   1   7
TORSDOF 2
ENDMDL
