MODEL 1
REMARK minimizedAffinity 12.0557165
REMARK minimizedRMSD -1
REMARK  2 active torsions:
REMARK  status: ('A' for Active; 'I' for Inactive)
REMARK    1  A    between atoms: C1_2  and  C2_3 
REMARK    2  A    between atoms: C2_3  and  C3_4 
ROOT
ATOM      1  C3  UNL d   1      -3.200   0.785  -2.250  0.00  0.00    -0.075 A 
ATOM      2  C4  UNL d   1      -3.282   1.985  -2.971  0.00  0.00     0.002 A 
ATOM      3  C5  UNL d   1      -2.124   2.667  -3.345  0.00  0.00     0.002 A 
ATOM      4  C6  UNL d   1      -0.873   2.166  -2.995  0.00  0.00    -0.004 A 
ATOM      5  C7  UNL d   1      -0.780   0.983  -2.264  0.00  0.00     0.002 A 
ATOM      6  C8  UNL d   1      -1.937   0.296  -1.892  0.00  0.00     0.002 A 
ENDROOT
BRANCH   1   7
ATOM      7  C2  UNL d   1      -4.449   0.027  -1.867  0.00  0.00     0.056 C 
BRANCH   7   8
ATOM      8  C1  UNL d   1      -4.826  -1.089  -2.848  0.00  0.00     0.007 C 
ATOM      9  C   UNL d   1      -5.997  -0.725  -3.750  0.00  0.00     0.009 C 
ENDBRANCH   7   8
ENDBRANCH   1   7
TORSDOF 2
ENDMDL
