MODEL 1
REMARK minimizedAffinity 10.5290842
REMARK minimizedRMSD -1
REMARK  2 active torsions:
REMARK  status: ('A' for Active; 'I' for Inactive)
REMARK    1  A    between atoms: C1_2  and  C2_3 
REMARK    2  A    between atoms: C2_3  and  C3_4 
ROOT
ATOM      1  C3  UNL d   1       2.014  -0.933   2.072  0.00  0.00    -0.075 A 
ATOM      2  C4  UNL d   1       0.788  -1.613   2.057  0.00  0.00     0.002 A 
ATOM      3  C5  UNL d   1       0.491  -2.515   1.035  0.00  0.00     0.002 A 
ATOM      4  C6  UNL d   1       1.409  -2.741   0.012  0.00  0.00    -0.004 A 
ATOM      5  C7  UNL d   1       2.624  -2.058   0.008  0.00  0.00     0.002 A 
ATOM      6  C8  UNL d   1       2.925  -1.158   1.032  0.00  0.00     0.002 A 
ENDROOT
BRANCH   1   7
ATOM      7  C2  UNL d   1       2.353   0.023   3.191  0.00  0.00     0.056 C 
BRANCH   7   8
ATOM      8  C1  UNL d   1       2.780  -0.666   4.491  0.00  0.00     0.007 C 
ATOM      9  C   UNL d   1       3.973  -1.596   4.315  0.00  0.00     0.009 C 
ENDBRANCH   7   8
ENDBRANCH   1   7
TORSDOF 2
ENDMDL
