MODEL 1
REMARK minimizedAffinity 0.0766649246
REMARK minimizedRMSD -1
REMARK  0 active torsions:
REMARK  status: ('A' for Active; 'I' for Inactive)
ROOT
ATOM      1  C   UNL d   1      -4.312   4.484  -1.852  0.00  0.00     0.172 C 
ATOM      2  N   UNL d   1      -3.476   3.374  -2.245  0.00  0.00    -0.070 N 
ATOM      3  C1  UNL d   1      -3.090   3.079  -3.526  0.00  0.00    -0.004 A 
ATOM      4  C2  UNL d   1      -2.301   1.950  -3.479  0.00  0.00    -0.047 A 
ATOM      5  C3  UNL d   1      -2.209   1.552  -2.124  0.00  0.00    -0.047 A 
ATOM      6  C4  UNL d   1      -2.946   2.451  -1.382  0.00  0.00    -0.004 A 
ENDROOT
TORSDOF 0
ENDMDL
