MODEL 1
REMARK minimizedAffinity 1.39169633
REMARK minimizedRMSD -1
REMARK  0 active torsions:
REMARK  status: ('A' for Active; 'I' for Inactive)
ROOT
ATOM      1  C   UNL d   1      -0.626  -1.460   1.733  0.00  0.00     0.172 C 
ATOM      2  N   UNL d   1      -0.362  -0.279   0.945  0.00  0.00    -0.070 N 
ATOM      3  C1  UNL d   1       0.059   0.929   1.433  0.00  0.00    -0.004 A 
ATOM      4  C2  UNL d   1       0.194   1.791   0.367  0.00  0.00    -0.047 A 
ATOM      5  C3  UNL d   1      -0.158   1.077  -0.803  0.00  0.00    -0.047 A 
ATOM      6  C4  UNL d   1      -0.498  -0.202  -0.416  0.00  0.00    -0.004 A 
ENDROOT
TORSDOF 0
ENDMDL
