MODEL 1
REMARK minimizedAffinity 2.05539536
REMARK minimizedRMSD -1
REMARK  0 active torsions:
REMARK  status: ('A' for Active; 'I' for Inactive)
ROOT
ATOM      1  C   UNL d   1      -2.330  -0.650  -3.681  0.00  0.00     0.172 C 
ATOM      2  N   UNL d   1      -2.556  -1.923  -3.038  0.00  0.00    -0.070 N 
ATOM      3  C1  UNL d   1      -1.585  -2.748  -2.537  0.00  0.00    -0.004 A 
ATOM      4  C2  UNL d   1      -2.207  -3.859  -2.007  0.00  0.00    -0.047 A 
ATOM      5  C3  UNL d   1      -3.599  -3.696  -2.198  0.00  0.00    -0.047 A 
ATOM      6  C4  UNL d   1      -3.788  -2.489  -2.839  0.00  0.00    -0.004 A 
ENDROOT
TORSDOF 0
ENDMDL
