MODEL 1
REMARK minimizedAffinity -1.6632967
REMARK minimizedRMSD -1
REMARK  0 active torsions:
REMARK  status: ('A' for Active; 'I' for Inactive)
ROOT
ATOM      1  C   UNL d   1       3.706  -3.164  -5.993  0.00  0.00     0.172 C 
ATOM      2  N   UNL d   1       4.201  -1.808  -5.994  0.00  0.00    -0.070 N 
ATOM      3  C1  UNL d   1       5.520  -1.439  -5.997  0.00  0.00    -0.004 A 
ATOM      4  C2  UNL d   1       5.573  -0.062  -5.998  0.00  0.00    -0.047 A 
ATOM      5  C3  UNL d   1       4.240   0.414  -5.994  0.00  0.00    -0.047 A 
ATOM      6  C4  UNL d   1       3.411  -0.688  -5.993  0.00  0.00    -0.004 A 
ENDROOT
TORSDOF 0
ENDMDL
