MODEL 1
REMARK minimizedAffinity -1.76250136
REMARK minimizedRMSD -1
REMARK  0 active torsions:
REMARK  status: ('A' for Active; 'I' for Inactive)
ROOT
ATOM      1  C   UNL d   1       3.375  -4.907  -2.500  0.00  0.00     0.172 C 
ATOM      2  N   UNL d   1       3.762  -5.175  -3.865  0.00  0.00    -0.070 N 
ATOM      3  C1  UNL d   1       4.857  -4.653  -4.502  0.00  0.00    -0.004 A 
ATOM      4  C2  UNL d   1       4.875  -5.151  -5.787  0.00  0.00    -0.047 A 
ATOM      5  C3  UNL d   1       3.752  -6.000  -5.928  0.00  0.00    -0.047 A 
ATOM      6  C4  UNL d   1       3.080  -5.997  -4.724  0.00  0.00    -0.004 A 
ENDROOT
TORSDOF 0
ENDMDL
