MODEL 1
REMARK minimizedAffinity -0.314348817
REMARK minimizedRMSD -1
REMARK  0 active torsions:
REMARK  status: ('A' for Active; 'I' for Inactive)
ROOT
ATOM      1  C   UNL d   1       0.249   1.424   0.107  0.00  0.00     0.172 C 
ATOM      2  N   UNL d   1      -0.258   0.077  -0.009  0.00  0.00    -0.070 N 
ATOM      3  C1  UNL d   1      -0.068  -0.929   0.900  0.00  0.00    -0.004 A 
ATOM      4  C2  UNL d   1      -0.708  -2.053   0.426  0.00  0.00    -0.047 A 
ATOM      5  C3  UNL d   1      -1.302  -1.712  -0.812  0.00  0.00    -0.047 A 
ATOM      6  C4  UNL d   1      -1.008  -0.387  -1.057  0.00  0.00    -0.004 A 
ENDROOT
TORSDOF 0
ENDMDL
