MODEL 1
REMARK minimizedAffinity -2.37462401
REMARK minimizedRMSD -1
REMARK  0 active torsions:
REMARK  status: ('A' for Active; 'I' for Inactive)
ROOT
ATOM      1  C   UNL d   1       4.373  -2.556  -5.999  0.00  0.00     0.172 C 
ATOM      2  N   UNL d   1       4.114  -3.819  -5.349  0.00  0.00    -0.070 N 
ATOM      3  C1  UNL d   1       3.969  -4.008  -4.000  0.00  0.00    -0.004 A 
ATOM      4  C2  UNL d   1       3.734  -5.348  -3.785  0.00  0.00    -0.047 A 
ATOM      5  C3  UNL d   1       3.739  -5.988  -5.047  0.00  0.00    -0.047 A 
ATOM      6  C4  UNL d   1       3.977  -5.017  -5.998  0.00  0.00    -0.004 A 
ENDROOT
TORSDOF 0
ENDMDL
