MODEL 1
REMARK minimizedAffinity -3.17766356
REMARK minimizedRMSD -1
REMARK  2 active torsions:
REMARK  status: ('A' for Active; 'I' for Inactive)
REMARK    1  A    between atoms: C1_2  and  C2_3 
REMARK    2  A    between atoms: C2_3  and  C3_4 
ROOT
ATOM      1  C3  UNL d   1       0.734  -0.266  -0.810  0.00  0.00    -0.075 A 
ATOM      2  C4  UNL d   1       1.706   0.350  -1.612  0.00  0.00     0.002 A 
ATOM      3  C5  UNL d   1       2.714  -0.406  -2.210  0.00  0.00     0.002 A 
ATOM      4  C6  UNL d   1       2.770  -1.783  -2.007  0.00  0.00    -0.004 A 
ATOM      5  C7  UNL d   1       1.819  -2.403  -1.199  0.00  0.00     0.002 A 
ATOM      6  C8  UNL d   1       0.807  -1.650  -0.603  0.00  0.00     0.002 A 
ENDROOT
BRANCH   1   7
ATOM      7  C2  UNL d   1      -0.377   0.543  -0.184  0.00  0.00     0.056 C 
BRANCH   7   8
ATOM      8  C1  UNL d   1      -1.036  -0.133   1.023  0.00  0.00     0.007 C 
ATOM      9  C   UNL d   1      -2.545   0.069   1.074  0.00  0.00     0.009 C 
ENDBRANCH   7   8
ENDBRANCH   1   7
TORSDOF 2
ENDMDL
