MODEL 1
REMARK minimizedAffinity -2.8498745
REMARK minimizedRMSD -1
REMARK  2 active torsions:
REMARK  status: ('A' for Active; 'I' for Inactive)
REMARK    1  A    between atoms: C1_2  and  C2_3 
REMARK    2  A    between atoms: C2_3  and  C3_4 
ROOT
ATOM      1  C3  UNL d   1      -0.518  -0.023  -0.023  0.00  0.00    -0.075 A 
ATOM      2  C4  UNL d   1      -0.107   1.283  -0.329  0.00  0.00     0.002 A 
ATOM      3  C5  UNL d   1       1.147   1.516  -0.894  0.00  0.00     0.002 A 
ATOM      4  C6  UNL d   1       2.007   0.451  -1.152  0.00  0.00    -0.004 A 
ATOM      5  C7  UNL d   1       1.616  -0.848  -0.837  0.00  0.00     0.002 A 
ATOM      6  C8  UNL d   1       0.360  -1.085  -0.275  0.00  0.00     0.002 A 
ENDROOT
BRANCH   1   7
ATOM      7  C2  UNL d   1      -1.886  -0.285   0.562  0.00  0.00     0.056 C 
BRANCH   7   8
ATOM      8  C1  UNL d   1      -2.216   0.577   1.785  0.00  0.00     0.007 C 
ATOM      9  C   UNL d   1      -3.703   0.878   1.923  0.00  0.00     0.009 C 
ENDBRANCH   7   8
ENDBRANCH   1   7
TORSDOF 2
ENDMDL
