MODEL 1
REMARK minimizedAffinity -0.266589671
REMARK minimizedRMSD -1
REMARK  2 active torsions:
REMARK  status: ('A' for Active; 'I' for Inactive)
REMARK    1  A    between atoms: C1_2  and  C2_3 
REMARK    2  A    between atoms: C2_3  and  C3_4 
ROOT
ATOM      1  C3  UNL d   1      -0.825   0.088   0.686  0.00  0.00    -0.075 A 
ATOM      2  C4  UNL d   1      -0.434   1.328   0.161  0.00  0.00     0.002 A 
ATOM      3  C5  UNL d   1       0.748   1.447  -0.571  0.00  0.00     0.002 A 
ATOM      4  C6  UNL d   1       1.557   0.331  -0.779  0.00  0.00    -0.004 A 
ATOM      5  C7  UNL d   1       1.186  -0.902  -0.248  0.00  0.00     0.002 A 
ATOM      6  C8  UNL d   1       0.002  -1.024   0.481  0.00  0.00     0.002 A 
ENDROOT
BRANCH   1   7
ATOM      7  C2  UNL d   1      -2.118  -0.052   1.454  0.00  0.00     0.056 C 
BRANCH   7   8
ATOM      8  C1  UNL d   1      -2.553   1.224   2.183  0.00  0.00     0.007 C 
ATOM      9  C   UNL d   1      -3.856   1.805   1.650  0.00  0.00     0.009 C 
ENDBRANCH   7   8
ENDBRANCH   1   7
TORSDOF 2
ENDMDL
