MODEL 1
REMARK minimizedAffinity -4.94029617
REMARK minimizedRMSD -1
REMARK  2 active torsions:
REMARK  status: ('A' for Active; 'I' for Inactive)
REMARK    1  A    between atoms: C1_2  and  C2_3 
REMARK    2  A    between atoms: C2_3  and  C3_4 
ROOT
ATOM      1  C3  UNL d   1      -1.196   0.547   1.350  0.00  0.00    -0.075 A 
ATOM      2  C4  UNL d   1      -0.036   1.027   1.974  0.00  0.00     0.002 A 
ATOM      3  C5  UNL d   1       0.973   1.632   1.224  0.00  0.00     0.002 A 
ATOM      4  C6  UNL d   1       0.840   1.755  -0.157  0.00  0.00    -0.004 A 
ATOM      5  C7  UNL d   1      -0.301   1.267  -0.790  0.00  0.00     0.002 A 
ATOM      6  C8  UNL d   1      -1.314   0.665  -0.042  0.00  0.00     0.002 A 
ENDROOT
BRANCH   1   7
ATOM      7  C2  UNL d   1      -2.305  -0.083   2.159  0.00  0.00     0.056 C 
BRANCH   7   8
ATOM      8  C1  UNL d   1      -3.673  -0.055   1.470  0.00  0.00     0.007 C 
ATOM      9  C   UNL d   1      -4.286   1.338   1.408  0.00  0.00     0.009 C 
ENDBRANCH   7   8
ENDBRANCH   1   7
TORSDOF 2
ENDMDL
