MODEL 1
REMARK minimizedAffinity -3.98987198
REMARK minimizedRMSD -1
REMARK  2 active torsions:
REMARK  status: ('A' for Active; 'I' for Inactive)
REMARK    1  A    between atoms: C1_2  and  C2_3 
REMARK    2  A    between atoms: C2_3  and  C3_4 
ROOT
ATOM      1  C3  UNL d   1      -0.149   0.605   0.240  0.00  0.00    -0.075 A 
ATOM      2  C4  UNL d   1       1.209   0.310   0.051  0.00  0.00     0.002 A 
ATOM      3  C5  UNL d   1       1.900   0.827  -1.045  0.00  0.00     0.002 A 
ATOM      4  C6  UNL d   1       1.242   1.635  -1.970  0.00  0.00    -0.004 A 
ATOM      5  C7  UNL d   1      -0.111   1.920  -1.800  0.00  0.00     0.002 A 
ATOM      6  C8  UNL d   1      -0.804   1.408  -0.702  0.00  0.00     0.002 A 
ENDROOT
BRANCH   1   7
ATOM      7  C2  UNL d   1      -0.895   0.072   1.440  0.00  0.00     0.056 C 
BRANCH   7   8
ATOM      8  C1  UNL d   1      -2.410  -0.035   1.236  0.00  0.00     0.007 C 
ATOM      9  C   UNL d   1      -3.178   1.151   1.803  0.00  0.00     0.009 C 
ENDBRANCH   7   8
ENDBRANCH   1   7
TORSDOF 2
ENDMDL
