MODEL 1
REMARK minimizedAffinity -3.58508754
REMARK minimizedRMSD -1
REMARK  2 active torsions:
REMARK  status: ('A' for Active; 'I' for Inactive)
REMARK    1  A    between atoms: C1_2  and  C2_3 
REMARK    2  A    between atoms: C2_3  and  C3_4 
ROOT
ATOM      1  C3  UNL d   1       0.372  -0.092  -1.253  0.00  0.00    -0.075 A 
ATOM      2  C4  UNL d   1      -0.148   0.849  -0.353  0.00  0.00     0.002 A 
ATOM      3  C5  UNL d   1      -0.670   0.441   0.875  0.00  0.00     0.002 A 
ATOM      4  C6  UNL d   1      -0.689  -0.910   1.213  0.00  0.00    -0.004 A 
ATOM      5  C7  UNL d   1      -0.191  -1.855   0.319  0.00  0.00     0.002 A 
ATOM      6  C8  UNL d   1       0.336  -1.450  -0.908  0.00  0.00     0.002 A 
ENDROOT
BRANCH   1   7
ATOM      7  C2  UNL d   1       0.966   0.346  -2.571  0.00  0.00     0.056 C 
BRANCH   7   8
ATOM      8  C1  UNL d   1       2.405  -0.130  -2.795  0.00  0.00     0.007 C 
ATOM      9  C   UNL d   1       3.385   0.413  -1.764  0.00  0.00     0.009 C 
ENDBRANCH   7   8
ENDBRANCH   1   7
TORSDOF 2
ENDMDL
