MODEL 1
REMARK minimizedAffinity -1.51266289
REMARK minimizedRMSD -1
REMARK  2 active torsions:
REMARK  status: ('A' for Active; 'I' for Inactive)
REMARK    1  A    between atoms: C1_2  and  C2_3 
REMARK    2  A    between atoms: C2_3  and  C3_4 
ROOT
ATOM      1  C3  UNL d   1      -1.098  -0.017   0.874  0.00  0.00    -0.075 A 
ATOM      2  C4  UNL d   1      -1.200   0.447  -0.445  0.00  0.00     0.002 A 
ATOM      3  C5  UNL d   1      -0.650  -0.285  -1.498  0.00  0.00     0.002 A 
ATOM      4  C6  UNL d   1       0.016  -1.482  -1.245  0.00  0.00    -0.004 A 
ATOM      5  C7  UNL d   1       0.138  -1.944   0.063  0.00  0.00     0.002 A 
ATOM      6  C8  UNL d   1      -0.416  -1.216   1.118  0.00  0.00     0.002 A 
ENDROOT
BRANCH   1   7
ATOM      7  C2  UNL d   1      -1.717   0.755   2.015  0.00  0.00     0.056 C 
BRANCH   7   8
ATOM      8  C1  UNL d   1      -3.212   1.039   1.837  0.00  0.00     0.007 C 
ATOM      9  C   UNL d   1      -4.070  -0.219   1.865  0.00  0.00     0.009 C 
ENDBRANCH   7   8
ENDBRANCH   1   7
TORSDOF 2
ENDMDL
