MODEL 1
REMARK minimizedAffinity -4.7127223
REMARK minimizedRMSD -1
REMARK  2 active torsions:
REMARK  status: ('A' for Active; 'I' for Inactive)
REMARK    1  A    between atoms: C1_2  and  C2_3 
REMARK    2  A    between atoms: C2_3  and  C3_4 
ROOT
ATOM      1  C3  UNL d   1       0.783  -0.712   0.098  0.00  0.00    -0.075 A 
ATOM      2  C4  UNL d   1       1.515  -0.007  -0.868  0.00  0.00     0.002 A 
ATOM      3  C5  UNL d   1       2.281  -0.690  -1.814  0.00  0.00     0.002 A 
ATOM      4  C6  UNL d   1       2.333  -2.082  -1.799  0.00  0.00    -0.004 A 
ATOM      5  C7  UNL d   1       1.623  -2.792  -0.833  0.00  0.00     0.002 A 
ATOM      6  C8  UNL d   1       0.852  -2.111   0.112  0.00  0.00     0.002 A 
ENDROOT
BRANCH   1   7
ATOM      7  C2  UNL d   1      -0.071   0.020   1.106  0.00  0.00     0.056 C 
BRANCH   7   8
ATOM      8  C1  UNL d   1      -1.570  -0.010   0.792  0.00  0.00     0.007 C 
ATOM      9  C   UNL d   1      -2.442   0.340   1.991  0.00  0.00     0.009 C 
ENDBRANCH   7   8
ENDBRANCH   1   7
TORSDOF 2
ENDMDL
