MODEL 1
REMARK minimizedAffinity -1.07759368
REMARK minimizedRMSD -1
REMARK  2 active torsions:
REMARK  status: ('A' for Active; 'I' for Inactive)
REMARK    1  A    between atoms: C1_2  and  C2_3 
REMARK    2  A    between atoms: C2_3  and  C3_4 
ROOT
ATOM      1  C3  UNL d   1       0.721   0.487  -0.575  0.00  0.00    -0.075 A 
ATOM      2  C4  UNL d   1       0.474  -0.752   0.032  0.00  0.00     0.002 A 
ATOM      3  C5  UNL d   1      -0.590  -0.905   0.922  0.00  0.00     0.002 A 
ATOM      4  C6  UNL d   1      -1.412   0.179   1.222  0.00  0.00    -0.004 A 
ATOM      5  C7  UNL d   1      -1.165   1.419   0.638  0.00  0.00     0.002 A 
ATOM      6  C8  UNL d   1      -0.104   1.574  -0.256  0.00  0.00     0.002 A 
ENDROOT
BRANCH   1   7
ATOM      7  C2  UNL d   1       1.853   0.652  -1.561  0.00  0.00     0.056 C 
BRANCH   7   8
ATOM      8  C1  UNL d   1       3.051  -0.267  -1.295  0.00  0.00     0.007 C 
ATOM      9  C   UNL d   1       2.923  -1.629  -1.964  0.00  0.00     0.009 C 
ENDBRANCH   7   8
ENDBRANCH   1   7
TORSDOF 2
ENDMDL
