MODEL 1
REMARK minimizedAffinity -1.08938837
REMARK minimizedRMSD -1
REMARK  2 active torsions:
REMARK  status: ('A' for Active; 'I' for Inactive)
REMARK    1  A    between atoms: C1_2  and  C2_3 
REMARK    2  A    between atoms: C2_3  and  C3_4 
ROOT
ATOM      1  C3  UNL d   1       0.561  -0.463  -0.099  0.00  0.00    -0.075 A 
ATOM      2  C4  UNL d   1       0.975  -1.704  -0.606  0.00  0.00     0.002 A 
ATOM      3  C5  UNL d   1       1.962  -1.774  -1.590  0.00  0.00     0.002 A 
ATOM      4  C6  UNL d   1       2.539  -0.608  -2.086  0.00  0.00    -0.004 A 
ATOM      5  C7  UNL d   1       2.124   0.631  -1.602  0.00  0.00     0.002 A 
ATOM      6  C8  UNL d   1       1.140   0.704  -0.614  0.00  0.00     0.002 A 
ENDROOT
BRANCH   1   7
ATOM      7  C2  UNL d   1      -0.485  -0.382   0.986  0.00  0.00     0.056 C 
BRANCH   7   8
ATOM      8  C1  UNL d   1      -1.874   0.029   0.485  0.00  0.00     0.007 C 
ATOM      9  C   UNL d   1      -2.849   0.346   1.610  0.00  0.00     0.009 C 
ENDBRANCH   7   8
ENDBRANCH   1   7
TORSDOF 2
ENDMDL
