MODEL 1
REMARK minimizedAffinity -2.42629838
REMARK minimizedRMSD -1
REMARK  2 active torsions:
REMARK  status: ('A' for Active; 'I' for Inactive)
REMARK    1  A    between atoms: C1_2  and  C2_3 
REMARK    2  A    between atoms: C2_3  and  C3_4 
ROOT
ATOM      1  C3  UNL d   1      -0.684   0.336   0.290  0.00  0.00    -0.075 A 
ATOM      2  C4  UNL d   1      -0.677  -0.112   1.619  0.00  0.00     0.002 A 
ATOM      3  C5  UNL d   1      -1.840  -0.062   2.389  0.00  0.00     0.002 A 
ATOM      4  C6  UNL d   1      -3.018   0.445   1.845  0.00  0.00    -0.004 A 
ATOM      5  C7  UNL d   1      -3.032   0.909   0.532  0.00  0.00     0.002 A 
ATOM      6  C8  UNL d   1      -1.871   0.856  -0.243  0.00  0.00     0.002 A 
ENDROOT
BRANCH   1   7
ATOM      7  C2  UNL d   1       0.563   0.258  -0.558  0.00  0.00     0.056 C 
BRANCH   7   8
ATOM      8  C1  UNL d   1       0.514  -0.826  -1.640  0.00  0.00     0.007 C 
ATOM      9  C   UNL d   1       0.623  -2.239  -1.080  0.00  0.00     0.009 C 
ENDBRANCH   7   8
ENDBRANCH   1   7
TORSDOF 2
ENDMDL
