MODEL 1
REMARK minimizedAffinity -5.35308504
REMARK minimizedRMSD -1
REMARK  2 active torsions:
REMARK  status: ('A' for Active; 'I' for Inactive)
REMARK    1  A    between atoms: C1_2  and  C2_3 
REMARK    2  A    between atoms: C2_3  and  C3_4 
ROOT
ATOM      1  C3  UNL d   1       0.112   0.058   0.131  0.00  0.00    -0.075 A 
ATOM      2  C4  UNL d   1       0.148  -0.933  -0.861  0.00  0.00     0.002 A 
ATOM      3  C5  UNL d   1       0.999  -0.806  -1.959  0.00  0.00     0.002 A 
ATOM      4  C6  UNL d   1       1.815   0.315  -2.085  0.00  0.00    -0.004 A 
ATOM      5  C7  UNL d   1       1.776   1.314  -1.114  0.00  0.00     0.002 A 
ATOM      6  C8  UNL d   1       0.928   1.187  -0.012  0.00  0.00     0.002 A 
ENDROOT
BRANCH   1   7
ATOM      7  C2  UNL d   1      -0.786  -0.088   1.337  0.00  0.00     0.056 C 
BRANCH   7   8
ATOM      8  C1  UNL d   1      -2.281  -0.113   1.002  0.00  0.00     0.007 C 
ATOM      9  C   UNL d   1      -3.166   0.276   2.179  0.00  0.00     0.009 C 
ENDBRANCH   7   8
ENDBRANCH   1   7
TORSDOF 2
ENDMDL
