MODEL 1
REMARK minimizedAffinity -5.64897442
REMARK minimizedRMSD -1
REMARK  2 active torsions:
REMARK  status: ('A' for Active; 'I' for Inactive)
REMARK    1  A    between atoms: C1_2  and  C2_3 
REMARK    2  A    between atoms: C2_3  and  C3_4 
ROOT
ATOM      1  C3  UNL d   1       0.510   0.098  -0.866  0.00  0.00    -0.075 A 
ATOM      2  C4  UNL d   1       0.808  -1.270  -0.938  0.00  0.00     0.002 A 
ATOM      3  C5  UNL d   1       1.710  -1.750  -1.888  0.00  0.00     0.002 A 
ATOM      4  C6  UNL d   1       2.317  -0.872  -2.783  0.00  0.00    -0.004 A 
ATOM      5  C7  UNL d   1       2.016   0.488  -2.731  0.00  0.00     0.002 A 
ATOM      6  C8  UNL d   1       1.117   0.971  -1.779  0.00  0.00     0.002 A 
ENDROOT
BRANCH   1   7
ATOM      7  C2  UNL d   1      -0.442   0.628   0.179  0.00  0.00     0.056 C 
BRANCH   7   8
ATOM      8  C1  UNL d   1      -1.022  -0.452   1.099  0.00  0.00     0.007 C 
ATOM      9  C   UNL d   1      -2.180   0.046   1.953  0.00  0.00     0.009 C 
ENDBRANCH   7   8
ENDBRANCH   1   7
TORSDOF 2
ENDMDL
