MODEL 1
REMARK minimizedAffinity -3.61542034
REMARK minimizedRMSD -1
REMARK  2 active torsions:
REMARK  status: ('A' for Active; 'I' for Inactive)
REMARK    1  A    between atoms: C1_2  and  C2_3 
REMARK    2  A    between atoms: C2_3  and  C3_4 
ROOT
ATOM      1  C3  UNL d   1      -0.374   0.423   0.144  0.00  0.00    -0.075 A 
ATOM      2  C4  UNL d   1       0.546  -0.405  -0.516  0.00  0.00     0.002 A 
ATOM      3  C5  UNL d   1       1.612   0.145  -1.227  0.00  0.00     0.002 A 
ATOM      4  C6  UNL d   1       1.767   1.528  -1.296  0.00  0.00    -0.004 A 
ATOM      5  C7  UNL d   1       0.850   2.361  -0.658  0.00  0.00     0.002 A 
ATOM      6  C8  UNL d   1      -0.215   1.812   0.058  0.00  0.00     0.002 A 
ENDROOT
BRANCH   1   7
ATOM      7  C2  UNL d   1      -1.513  -0.168   0.939  0.00  0.00     0.056 C 
BRANCH   7   8
ATOM      8  C1  UNL d   1      -2.472   0.875   1.523  0.00  0.00     0.007 C 
ATOM      9  C   UNL d   1      -3.936   0.580   1.221  0.00  0.00     0.009 C 
ENDBRANCH   7   8
ENDBRANCH   1   7
TORSDOF 2
ENDMDL
