MODEL 1
REMARK minimizedAffinity 13.1755533
REMARK minimizedRMSD -1
REMARK  0 active torsions:
REMARK  status: ('A' for Active; 'I' for Inactive)
ROOT
ATOM      1  O1  BZF d   1       0.122   2.102   1.747  0.00  0.00    -0.204 OA
ATOM      2  C2  BZF d   1       1.197   2.682   2.393  0.00  0.00     0.174 A 
ATOM      3  C3  BZF d   1       2.177   1.778   2.598  0.00  0.00    -0.012 A 
ATOM      4  C3A BZF d   1       1.721   0.579   1.963  0.00  0.00    -0.107 A 
ATOM      5  C4  BZF d   1       2.261  -0.666   1.810  0.00  0.00     0.055 A 
ATOM      6  C5  BZF d   1       1.527  -1.634   1.202  0.00  0.00    -0.016 A 
ATOM      7  C6  BZF d   1       0.249  -1.394   0.739  0.00  0.00     0.022 A 
ATOM      8  C7  BZF d   1      -0.327  -0.174   0.864  0.00  0.00     0.029 A 
ATOM      9  C7A BZF d   1       0.425   0.816   1.449  0.00  0.00     0.058 A 
ENDROOT
TORSDOF 0
ENDMDL
