MODEL 1
REMARK minimizedAffinity 7.19355536
REMARK minimizedRMSD -1
REMARK  0 active torsions:
REMARK  status: ('A' for Active; 'I' for Inactive)
ROOT
ATOM      1  O1  BZF d   1       1.956  -1.197   3.292  0.00  0.00    -0.204 OA
ATOM      2  C2  BZF d   1       1.485  -2.078   2.338  0.00  0.00     0.174 A 
ATOM      3  C3  BZF d   1       1.492  -1.508   1.115  0.00  0.00    -0.012 A 
ATOM      4  C3A BZF d   1       2.085  -0.220   1.304  0.00  0.00    -0.107 A 
ATOM      5  C4  BZF d   1       2.381   0.810   0.457  0.00  0.00     0.055 A 
ATOM      6  C5  BZF d   1       2.891   1.960   0.970  0.00  0.00    -0.016 A 
ATOM      7  C6  BZF d   1       3.112   2.117   2.323  0.00  0.00     0.022 A 
ATOM      8  C7  BZF d   1       2.839   1.121   3.201  0.00  0.00     0.029 A 
ATOM      9  C7A BZF d   1       2.355  -0.055   2.682  0.00  0.00     0.058 A 
ENDROOT
TORSDOF 0
ENDMDL
