MODEL 1
REMARK minimizedAffinity 19.2237453
REMARK minimizedRMSD -1
REMARK  0 active torsions:
REMARK  status: ('A' for Active; 'I' for Inactive)
ROOT
ATOM      1  O1  BZF d   1       4.324  -2.480  -3.044  0.00  0.00    -0.204 OA
ATOM      2  C2  BZF d   1       2.987  -2.268  -2.768  0.00  0.00     0.174 A 
ATOM      3  C3  BZF d   1       2.494  -1.271  -3.531  0.00  0.00    -0.012 A 
ATOM      4  C3A BZF d   1       3.567  -0.895  -4.399  0.00  0.00    -0.107 A 
ATOM      5  C4  BZF d   1       3.688   0.030  -5.396  0.00  0.00     0.055 A 
ATOM      6  C5  BZF d   1       4.894   0.197  -6.000  0.00  0.00    -0.016 A 
ATOM      7  C6  BZF d   1       6.000  -0.540  -5.629  0.00  0.00     0.022 A 
ATOM      8  C7  BZF d   1       5.927  -1.473  -4.649  0.00  0.00     0.029 A 
ATOM      9  C7A BZF d   1       4.702  -1.667  -4.059  0.00  0.00     0.058 A 
ENDROOT
TORSDOF 0
ENDMDL
