MODEL 1
REMARK minimizedAffinity 10.101428
REMARK minimizedRMSD -1
REMARK  0 active torsions:
REMARK  status: ('A' for Active; 'I' for Inactive)
ROOT
ATOM      1  O1  BZF d   1       2.219  -5.885  -3.991  0.00  0.00    -0.204 OA
ATOM      2  C2  BZF d   1       3.596  -5.991  -3.940  0.00  0.00     0.174 A 
ATOM      3  C3  BZF d   1       4.028  -6.000  -2.662  0.00  0.00    -0.012 A 
ATOM      4  C3A BZF d   1       2.841  -5.985  -1.863  0.00  0.00    -0.107 A 
ATOM      5  C4  BZF d   1       2.615  -6.000  -0.517  0.00  0.00     0.055 A 
ATOM      6  C5  BZF d   1       1.339  -5.904  -0.060  0.00  0.00    -0.016 A 
ATOM      7  C6  BZF d   1       0.267  -5.788  -0.919  0.00  0.00     0.022 A 
ATOM      8  C7  BZF d   1       0.440  -5.774  -2.264  0.00  0.00     0.029 A 
ATOM      9  C7A BZF d   1       1.726  -5.904  -2.729  0.00  0.00     0.058 A 
ENDROOT
TORSDOF 0
ENDMDL
