MODEL 1
REMARK minimizedAffinity 7.40994978
REMARK minimizedRMSD -1
REMARK  0 active torsions:
REMARK  status: ('A' for Active; 'I' for Inactive)
ROOT
ATOM      1  O1  BZF d   1      -3.130  -2.306  -5.550  0.00  0.00    -0.204 OA
ATOM      2  C2  BZF d   1      -4.077  -1.300  -5.538  0.00  0.00     0.174 A 
ATOM      3  C3  BZF d   1      -5.313  -1.805  -5.727  0.00  0.00    -0.012 A 
ATOM      4  C3A BZF d   1      -5.138  -3.224  -5.773  0.00  0.00    -0.107 A 
ATOM      5  C4  BZF d   1      -6.000  -4.272  -5.923  0.00  0.00     0.055 A 
ATOM      6  C5  BZF d   1      -5.499  -5.533  -5.999  0.00  0.00    -0.016 A 
ATOM      7  C6  BZF d   1      -4.144  -5.782  -5.933  0.00  0.00     0.022 A 
ATOM      8  C7  BZF d   1      -3.250  -4.775  -5.778  0.00  0.00     0.029 A 
ATOM      9  C7A BZF d   1      -3.755  -3.502  -5.669  0.00  0.00     0.058 A 
ENDROOT
TORSDOF 0
ENDMDL
