MODEL 1
REMARK minimizedAffinity 14.2580566
REMARK minimizedRMSD -1
REMARK  0 active torsions:
REMARK  status: ('A' for Active; 'I' for Inactive)
ROOT
ATOM      1  O1  BZF d   1       3.041   0.267  -3.664  0.00  0.00    -0.204 OA
ATOM      2  C2  BZF d   1       2.535  -0.913  -3.154  0.00  0.00     0.174 A 
ATOM      3  C3  BZF d   1       3.182  -1.975  -3.675  0.00  0.00    -0.012 A 
ATOM      4  C3A BZF d   1       4.215  -1.422  -4.496  0.00  0.00    -0.107 A 
ATOM      5  C4  BZF d   1       5.200  -1.972  -5.265  0.00  0.00     0.055 A 
ATOM      6  C5  BZF d   1       5.999  -1.155  -6.000  0.00  0.00    -0.016 A 
ATOM      7  C6  BZF d   1       5.837   0.215  -5.994  0.00  0.00     0.022 A 
ATOM      8  C7  BZF d   1       4.878   0.808  -5.243  0.00  0.00     0.029 A 
ATOM      9  C7A BZF d   1       4.090  -0.013  -4.473  0.00  0.00     0.058 A 
ENDROOT
TORSDOF 0
ENDMDL
