MODEL 1
REMARK minimizedAffinity 4.29554319
REMARK minimizedRMSD -1
REMARK  0 active torsions:
REMARK  status: ('A' for Active; 'I' for Inactive)
ROOT
ATOM      1  O1  BZF d   1      -6.000  -3.370  -4.740  0.00  0.00    -0.204 OA
ATOM      2  C2  BZF d   1      -5.901  -3.929  -6.000  0.00  0.00     0.174 A 
ATOM      3  C3  BZF d   1      -5.030  -4.959  -6.000  0.00  0.00    -0.012 A 
ATOM      4  C3A BZF d   1      -4.624  -5.108  -4.636  0.00  0.00    -0.107 A 
ATOM      5  C4  BZF d   1      -3.782  -5.972  -3.997  0.00  0.00     0.055 A 
ATOM      6  C5  BZF d   1      -3.547  -5.804  -2.669  0.00  0.00    -0.016 A 
ATOM      7  C6  BZF d   1      -4.132  -4.781  -1.952  0.00  0.00     0.022 A 
ATOM      8  C7  BZF d   1      -4.978  -3.902  -2.541  0.00  0.00     0.029 A 
ATOM      9  C7A BZF d   1      -5.244  -4.089  -3.876  0.00  0.00     0.058 A 
ENDROOT
TORSDOF 0
ENDMDL
