MODEL 1
REMARK minimizedAffinity 2.97909093
REMARK minimizedRMSD -1
REMARK  0 active torsions:
REMARK  status: ('A' for Active; 'I' for Inactive)
ROOT
ATOM      1  O1  BZF d   1       4.207  -2.854  -4.047  0.00  0.00    -0.204 OA
ATOM      2  C2  BZF d   1       2.929  -2.895  -3.524  0.00  0.00     0.174 A 
ATOM      3  C3  BZF d   1       2.259  -1.760  -3.808  0.00  0.00    -0.012 A 
ATOM      4  C3A BZF d   1       3.143  -0.997  -4.635  0.00  0.00    -0.107 A 
ATOM      5  C4  BZF d   1       3.040   0.218  -5.250  0.00  0.00     0.055 A 
ATOM      6  C5  BZF d   1       4.112   0.710  -5.925  0.00  0.00    -0.016 A 
ATOM      7  C6  BZF d   1       5.303   0.017  -6.000  0.00  0.00     0.022 A 
ATOM      8  C7  BZF d   1       5.451  -1.194  -5.410  0.00  0.00     0.029 A 
ATOM      9  C7A BZF d   1       4.359  -1.709  -4.756  0.00  0.00     0.058 A 
ENDROOT
TORSDOF 0
ENDMDL
