MODEL 1
REMARK minimizedAffinity 11.5578699
REMARK minimizedRMSD -1
REMARK  0 active torsions:
REMARK  status: ('A' for Active; 'I' for Inactive)
ROOT
ATOM      1  O1  BZF d   1       3.122   1.176   0.060  0.00  0.00    -0.204 OA
ATOM      2  C2  BZF d   1       2.505   0.521   1.108  0.00  0.00     0.174 A 
ATOM      3  C3  BZF d   1       1.522   1.279   1.634  0.00  0.00    -0.012 A 
ATOM      4  C3A BZF d   1       1.464   2.446   0.808  0.00  0.00    -0.107 A 
ATOM      5  C4  BZF d   1       0.677   3.563   0.814  0.00  0.00     0.055 A 
ATOM      6  C5  BZF d   1       0.926   4.550  -0.086  0.00  0.00    -0.016 A 
ATOM      7  C6  BZF d   1       1.954   4.457  -1.001  0.00  0.00     0.022 A 
ATOM      8  C7  BZF d   1       2.757   3.366  -1.049  0.00  0.00     0.029 A 
ATOM      9  C7A BZF d   1       2.488   2.352  -0.163  0.00  0.00     0.058 A 
ENDROOT
TORSDOF 0
ENDMDL
