MODEL 1
REMARK minimizedAffinity 14.8901186
REMARK minimizedRMSD -1
REMARK  0 active torsions:
REMARK  status: ('A' for Active; 'I' for Inactive)
ROOT
ATOM      1  O1  BZF d   1       1.101  -2.628   3.722  0.00  0.00    -0.204 OA
ATOM      2  C2  BZF d   1       2.331  -2.747   4.341  0.00  0.00     0.174 A 
ATOM      3  C3  BZF d   1       3.227  -1.903   3.789  0.00  0.00    -0.012 A 
ATOM      4  C3A BZF d   1       2.488  -1.148   2.824  0.00  0.00    -0.107 A 
ATOM      5  C4  BZF d   1       2.823  -0.142   1.963  0.00  0.00     0.055 A 
ATOM      6  C5  BZF d   1       1.884   0.328   1.100  0.00  0.00    -0.016 A 
ATOM      7  C6  BZF d   1       0.605  -0.187   1.068  0.00  0.00     0.022 A 
ATOM      8  C7  BZF d   1       0.225  -1.181   1.906  0.00  0.00     0.029 A 
ATOM      9  C7A BZF d   1       1.161  -1.637   2.802  0.00  0.00     0.058 A 
ENDROOT
TORSDOF 0
ENDMDL
