MODEL 1
REMARK minimizedAffinity 10.8598471
REMARK minimizedRMSD -1
REMARK  0 active torsions:
REMARK  status: ('A' for Active; 'I' for Inactive)
ROOT
ATOM      1  O1  BZF d   1      -5.129   1.498  -3.441  0.00  0.00    -0.204 OA
ATOM      2  C2  BZF d   1      -3.906   0.881  -3.616  0.00  0.00     0.174 A 
ATOM      3  C3  BZF d   1      -3.012   1.325  -2.708  0.00  0.00    -0.012 A 
ATOM      4  C3A BZF d   1      -3.747   2.211  -1.859  0.00  0.00    -0.107 A 
ATOM      5  C4  BZF d   1      -3.413   2.952  -0.762  0.00  0.00     0.055 A 
ATOM      6  C5  BZF d   1      -4.347   3.770  -0.208  0.00  0.00    -0.016 A 
ATOM      7  C6  BZF d   1      -5.620   3.875  -0.727  0.00  0.00     0.022 A 
ATOM      8  C7  BZF d   1      -6.000   3.156  -1.812  0.00  0.00     0.029 A 
ATOM      9  C7A BZF d   1      -5.069   2.304  -2.354  0.00  0.00     0.058 A 
ENDROOT
TORSDOF 0
ENDMDL
