MODEL 1
REMARK minimizedAffinity 4.39701271
REMARK minimizedRMSD -1
REMARK  0 active torsions:
REMARK  status: ('A' for Active; 'I' for Inactive)
ROOT
ATOM      1  O1  BZF d   1       6.000  -2.426  -5.324  0.00  0.00    -0.204 OA
ATOM      2  C2  BZF d   1       5.069  -3.414  -5.581  0.00  0.00     0.174 A 
ATOM      3  C3  BZF d   1       3.932  -3.191  -4.892  0.00  0.00    -0.012 A 
ATOM      4  C3A BZF d   1       4.132  -1.939  -4.230  0.00  0.00    -0.107 A 
ATOM      5  C4  BZF d   1       3.353  -1.177  -3.407  0.00  0.00     0.055 A 
ATOM      6  C5  BZF d   1       3.873  -0.042  -2.870  0.00  0.00    -0.016 A 
ATOM      7  C6  BZF d   1       5.167   0.358  -3.131  0.00  0.00     0.022 A 
ATOM      8  C7  BZF d   1       5.976  -0.363  -3.945  0.00  0.00     0.029 A 
ATOM      9  C7A BZF d   1       5.443  -1.493  -4.515  0.00  0.00     0.058 A 
ENDROOT
TORSDOF 0
ENDMDL
