MODEL 1
REMARK minimizedAffinity 11.5779696
REMARK minimizedRMSD -1
REMARK  0 active torsions:
REMARK  status: ('A' for Active; 'I' for Inactive)
ROOT
ATOM      1  O1  BZF d   1      -4.755  -5.214  -5.991  0.00  0.00    -0.204 OA
ATOM      2  C2  BZF d   1      -5.626  -5.945  -5.207  0.00  0.00     0.174 A 
ATOM      3  C3  BZF d   1      -5.999  -5.239  -4.120  0.00  0.00    -0.012 A 
ATOM      4  C3A BZF d   1      -5.391  -3.953  -4.280  0.00  0.00    -0.107 A 
ATOM      5  C4  BZF d   1      -5.404  -2.810  -3.534  0.00  0.00     0.055 A 
ATOM      6  C5  BZF d   1      -4.647  -1.754  -3.931  0.00  0.00    -0.016 A 
ATOM      7  C6  BZF d   1      -3.862  -1.808  -5.064  0.00  0.00     0.022 A 
ATOM      8  C7  BZF d   1      -3.821  -2.919  -5.839  0.00  0.00     0.029 A 
ATOM      9  C7A BZF d   1      -4.610  -3.976  -5.458  0.00  0.00     0.058 A 
ENDROOT
TORSDOF 0
ENDMDL
