MODEL 1
REMARK minimizedAffinity -2.01550055
REMARK minimizedRMSD -1
REMARK  1 active torsions:
REMARK  status: ('A' for Active; 'I' for Inactive)
REMARK    1  A    between atoms: C1_2  and  C2_3 
ROOT
ATOM      1  C2  UNL d   1      -0.956   0.117   0.804  0.00  0.00    -0.073 A 
ATOM      2  C3  UNL d   1      -1.606  -0.195  -0.395  0.00  0.00    -0.002 A 
ATOM      3  C4  UNL d   1      -0.889  -0.722  -1.470  0.00  0.00     0.004 A 
ATOM      4  C5  UNL d   1       0.483  -0.949  -1.354  0.00  0.00    -0.004 A 
ATOM      5  C6  UNL d   1       1.148  -0.655  -0.160  0.00  0.00    -0.075 A 
ATOM      6  C7  UNL d   1       2.623  -0.891  -0.020  0.00  0.00     0.076 C 
ATOM      7  C8  UNL d   1       0.421  -0.123   0.914  0.00  0.00     0.001 A 
ENDROOT
BRANCH   1   8
ATOM      8  C1  UNL d   1      -1.728   0.680   1.969  0.00  0.00     0.053 C 
ATOM      9  C   UNL d   1      -3.226   0.690   1.709  0.00  0.00     0.018 C 
ENDBRANCH   1   8
TORSDOF 1
ENDMDL
