MODEL 1
REMARK minimizedAffinity -5.30416584
REMARK minimizedRMSD -1
REMARK  1 active torsions:
REMARK  status: ('A' for Active; 'I' for Inactive)
REMARK    1  A    between atoms: C1_2  and  C2_3 
ROOT
ATOM      1  C2  UNL d   1       1.371   0.069   0.515  0.00  0.00    -0.073 A 
ATOM      2  C3  UNL d   1       1.876   1.312   0.117  0.00  0.00    -0.002 A 
ATOM      3  C4  UNL d   1       1.023   2.282  -0.412  0.00  0.00     0.004 A 
ATOM      4  C5  UNL d   1      -0.342   2.023  -0.540  0.00  0.00    -0.004 A 
ATOM      5  C6  UNL d   1      -0.866   0.791  -0.136  0.00  0.00    -0.075 A 
ATOM      6  C7  UNL d   1      -2.332   0.495  -0.269  0.00  0.00     0.076 C 
ATOM      7  C8  UNL d   1      -0.003  -0.179   0.391  0.00  0.00     0.001 A 
ENDROOT
BRANCH   1   8
ATOM      8  C1  UNL d   1       2.287  -0.979   1.092  0.00  0.00     0.053 C 
ATOM      9  C   UNL d   1       3.642  -0.994   0.403  0.00  0.00     0.018 C 
ENDBRANCH   1   8
TORSDOF 1
ENDMDL
