MODEL 1
REMARK minimizedAffinity -0.970024824
REMARK minimizedRMSD -1
REMARK  1 active torsions:
REMARK  status: ('A' for Active; 'I' for Inactive)
REMARK    1  A    between atoms: C1_2  and  C2_3 
ROOT
ATOM      1  C2  UNL d   1      -0.740   0.656  -0.508  0.00  0.00    -0.073 A 
ATOM      2  C3  UNL d   1      -0.029   1.821  -0.196  0.00  0.00    -0.002 A 
ATOM      3  C4  UNL d   1       1.350   1.771   0.008  0.00  0.00     0.004 A 
ATOM      4  C5  UNL d   1       2.033   0.560  -0.104  0.00  0.00    -0.004 A 
ATOM      5  C6  UNL d   1       1.342  -0.612  -0.428  0.00  0.00    -0.075 A 
ATOM      6  C7  UNL d   1       2.062  -1.923  -0.551  0.00  0.00     0.076 C 
ATOM      7  C8  UNL d   1      -0.043  -0.555  -0.629  0.00  0.00     0.001 A 
ENDROOT
BRANCH   1   8
ATOM      8  C1  UNL d   1      -2.229   0.706  -0.736  0.00  0.00     0.053 C 
ATOM      9  C   UNL d   1      -2.997   0.919   0.559  0.00  0.00     0.018 C 
ENDBRANCH   1   8
TORSDOF 1
ENDMDL
