MODEL 1
REMARK minimizedAffinity 0.975601196
REMARK minimizedRMSD -1
REMARK  1 active torsions:
REMARK  status: ('A' for Active; 'I' for Inactive)
REMARK    1  A    between atoms: C1_2  and  C2_3 
ROOT
ATOM      1  C2  UNL d   1       0.826   1.206  -0.540  0.00  0.00    -0.073 A 
ATOM      2  C3  UNL d   1      -0.541   0.907  -0.511  0.00  0.00    -0.002 A 
ATOM      3  C4  UNL d   1      -0.978  -0.408  -0.677  0.00  0.00     0.004 A 
ATOM      4  C5  UNL d   1      -0.056  -1.436  -0.866  0.00  0.00    -0.004 A 
ATOM      5  C6  UNL d   1       1.315  -1.159  -0.886  0.00  0.00    -0.075 A 
ATOM      6  C7  UNL d   1       2.321  -2.254  -1.090  0.00  0.00     0.076 C 
ATOM      7  C8  UNL d   1       1.747   0.164  -0.721  0.00  0.00     0.001 A 
ENDROOT
BRANCH   1   8
ATOM      8  C1  UNL d   1       1.304   2.623  -0.355  0.00  0.00     0.053 C 
ATOM      9  C   UNL d   1       0.275   3.482   0.363  0.00  0.00     0.018 C 
ENDBRANCH   1   8
TORSDOF 1
ENDMDL
