MODEL 1
REMARK minimizedAffinity 13.7815905
REMARK minimizedRMSD -1
REMARK  0 active torsions:
REMARK  status: ('A' for Active; 'I' for Inactive)
ROOT
ATOM      1  C   UNL d   1      -1.716  -1.872   2.319  0.00  0.00    -0.002 A 
ATOM      2  C1  UNL d   1      -1.227  -1.226   3.446  0.00  0.00     0.010 A 
ATOM      3  C2  UNL d   1      -0.013  -0.537   3.399  0.00  0.00     0.041 A 
ATOM      4  C3  UNL d   1       0.706  -0.504   2.188  0.00  0.00    -0.075 A 
ATOM      5  S   UNL d   1       2.213   0.279   1.894  0.00  0.00     0.015 SA
ATOM      6  C4  UNL d   1       2.242  -0.223   0.266  0.00  0.00     0.022 A 
ATOM      7  C5  UNL d   1       1.137  -0.972  -0.063  0.00  0.00     0.026 A 
ATOM      8  C6  UNL d   1       0.233  -1.146   1.039  0.00  0.00    -0.082 A 
ATOM      9  C7  UNL d   1      -1.000  -1.838   1.119  0.00  0.00     0.045 A 
ENDROOT
TORSDOF 0
ENDMDL
