MODEL 1
REMARK minimizedAffinity 9.61679173
REMARK minimizedRMSD -1
REMARK  0 active torsions:
REMARK  status: ('A' for Active; 'I' for Inactive)
ROOT
ATOM      1  C   UNL d   1      -1.422  -1.966   1.075  0.00  0.00    -0.002 A 
ATOM      2  C1  UNL d   1      -1.478  -1.705   2.437  0.00  0.00     0.010 A 
ATOM      3  C2  UNL d   1      -0.390  -1.130   3.095  0.00  0.00     0.041 A 
ATOM      4  C3  UNL d   1       0.766  -0.816   2.354  0.00  0.00    -0.075 A 
ATOM      5  S   UNL d   1       2.220  -0.105   2.948  0.00  0.00     0.015 SA
ATOM      6  C4  UNL d   1       2.950  -0.130   1.408  0.00  0.00     0.022 A 
ATOM      7  C5  UNL d   1       2.119  -0.665   0.453  0.00  0.00     0.026 A 
ATOM      8  C6  UNL d   1       0.847  -1.068   0.982  0.00  0.00    -0.082 A 
ATOM      9  C7  UNL d   1      -0.273  -1.654   0.344  0.00  0.00     0.045 A 
ENDROOT
TORSDOF 0
ENDMDL
