MODEL 1
REMARK minimizedAffinity 11.5136671
REMARK minimizedRMSD -1
REMARK  0 active torsions:
REMARK  status: ('A' for Active; 'I' for Inactive)
ROOT
ATOM      1  C   UNL d   1      -4.332  -5.174   1.521  0.00  0.00    -0.002 A 
ATOM      2  C1  UNL d   1      -4.293  -3.793   1.657  0.00  0.00     0.010 A 
ATOM      3  C2  UNL d   1      -4.700  -3.185   2.846  0.00  0.00     0.041 A 
ATOM      4  C3  UNL d   1      -5.148  -3.995   3.908  0.00  0.00    -0.075 A 
ATOM      5  S   UNL d   1      -5.693  -3.471   5.457  0.00  0.00     0.015 SA
ATOM      6  C4  UNL d   1      -5.989  -5.067   5.976  0.00  0.00     0.022 A 
ATOM      7  C5  UNL d   1      -5.685  -5.990   5.003  0.00  0.00     0.026 A 
ATOM      8  C6  UNL d   1      -5.194  -5.387   3.796  0.00  0.00    -0.082 A 
ATOM      9  C7  UNL d   1      -4.777  -5.974   2.577  0.00  0.00     0.045 A 
ENDROOT
TORSDOF 0
ENDMDL
