MODEL 1
REMARK minimizedAffinity 21.2261906
REMARK minimizedRMSD -1
REMARK  0 active torsions:
REMARK  status: ('A' for Active; 'I' for Inactive)
ROOT
ATOM      1  C   UNL d   1       3.747  -5.946   5.806  0.00  0.00    -0.002 A 
ATOM      2  C1  UNL d   1       5.133  -5.995   5.869  0.00  0.00     0.010 A 
ATOM      3  C2  UNL d   1       5.883  -4.818   5.923  0.00  0.00     0.041 A 
ATOM      4  C3  UNL d   1       5.211  -3.580   5.914  0.00  0.00    -0.075 A 
ATOM      5  S   UNL d   1       5.922  -2.011   5.974  0.00  0.00     0.015 SA
ATOM      6  C4  UNL d   1       4.403  -1.239   5.918  0.00  0.00     0.022 A 
ATOM      7  C5  UNL d   1       3.368  -2.142   5.855  0.00  0.00     0.026 A 
ATOM      8  C6  UNL d   1       3.816  -3.506   5.852  0.00  0.00    -0.082 A 
ATOM      9  C7  UNL d   1       3.084  -4.716   5.797  0.00  0.00     0.045 A 
ENDROOT
TORSDOF 0
ENDMDL
