MODEL 1
REMARK minimizedAffinity 4.91445494
REMARK minimizedRMSD -1
REMARK  0 active torsions:
REMARK  status: ('A' for Active; 'I' for Inactive)
ROOT
ATOM      1  C   UNL d   1      -0.906   5.709  -1.848  0.00  0.00    -0.002 A 
ATOM      2  C1  UNL d   1       0.191   5.041  -2.373  0.00  0.00     0.010 A 
ATOM      3  C2  UNL d   1       0.023   3.864  -3.105  0.00  0.00     0.041 A 
ATOM      4  C3  UNL d   1      -1.280   3.365  -3.303  0.00  0.00    -0.075 A 
ATOM      5  S   UNL d   1      -1.727   1.941  -4.166  0.00  0.00     0.015 SA
ATOM      6  C4  UNL d   1      -3.386   2.186  -3.859  0.00  0.00     0.022 A 
ATOM      7  C5  UNL d   1      -3.610   3.322  -3.117  0.00  0.00     0.026 A 
ATOM      8  C6  UNL d   1      -2.400   4.020  -2.785  0.00  0.00    -0.082 A 
ATOM      9  C7  UNL d   1      -2.197   5.211  -2.047  0.00  0.00     0.045 A 
ENDROOT
TORSDOF 0
ENDMDL
