MODEL 1
REMARK minimizedAffinity 4.93354654
REMARK minimizedRMSD -1
REMARK  0 active torsions:
REMARK  status: ('A' for Active; 'I' for Inactive)
ROOT
ATOM      1  C   UNL d   1       3.122  -0.008   1.471  0.00  0.00    -0.002 A 
ATOM      2  C1  UNL d   1       3.145   0.047   2.858  0.00  0.00     0.010 A 
ATOM      3  C2  UNL d   1       1.994  -0.224   3.599  0.00  0.00     0.041 A 
ATOM      4  C3  UNL d   1       0.807  -0.559   2.917  0.00  0.00    -0.075 A 
ATOM      5  S   UNL d   1      -0.724  -0.932   3.617  0.00  0.00     0.015 SA
ATOM      6  C4  UNL d   1      -1.445  -1.175   2.092  0.00  0.00     0.022 A 
ATOM      7  C5  UNL d   1      -0.554  -0.980   1.063  0.00  0.00     0.026 A 
ATOM      8  C6  UNL d   1       0.759  -0.622   1.522  0.00  0.00    -0.082 A 
ATOM      9  C7  UNL d   1       1.943  -0.340   0.799  0.00  0.00     0.045 A 
ENDROOT
TORSDOF 0
ENDMDL
