MODEL 1
REMARK minimizedAffinity 15.8628159
REMARK minimizedRMSD -1
REMARK  0 active torsions:
REMARK  status: ('A' for Active; 'I' for Inactive)
ROOT
ATOM      1  C   UNL d   1      -1.508  -1.597   1.562  0.00  0.00    -0.002 A 
ATOM      2  C1  UNL d   1      -1.356  -1.084   2.842  0.00  0.00     0.010 A 
ATOM      3  C2  UNL d   1      -0.137  -0.538   3.249  0.00  0.00     0.041 A 
ATOM      4  C3  UNL d   1       0.936  -0.513   2.337  0.00  0.00    -0.075 A 
ATOM      5  S   UNL d   1       2.521   0.108   2.614  0.00  0.00     0.015 SA
ATOM      6  C4  UNL d   1       3.033  -0.291   1.038  0.00  0.00     0.022 A 
ATOM      7  C5  UNL d   1       2.033  -0.885   0.306  0.00  0.00     0.026 A 
ATOM      8  C6  UNL d   1       0.808  -1.022   1.042  0.00  0.00    -0.082 A 
ATOM      9  C7  UNL d   1      -0.441  -1.570   0.660  0.00  0.00     0.045 A 
ENDROOT
TORSDOF 0
ENDMDL
