MODEL 1
REMARK minimizedAffinity 20.2758064
REMARK minimizedRMSD -1
REMARK  0 active torsions:
REMARK  status: ('A' for Active; 'I' for Inactive)
ROOT
ATOM      1  C   UNL d   1       0.007  -0.373   1.976  0.00  0.00    -0.002 A 
ATOM      2  C1  UNL d   1      -1.091  -1.051   1.466  0.00  0.00     0.010 A 
ATOM      3  C2  UNL d   1      -1.828  -1.919   2.274  0.00  0.00     0.041 A 
ATOM      4  C3  UNL d   1      -1.439  -2.096   3.616  0.00  0.00    -0.075 A 
ATOM      5  S   UNL d   1      -2.191  -3.108   4.792  0.00  0.00     0.015 SA
ATOM      6  C4  UNL d   1      -1.073  -2.664   5.999  0.00  0.00     0.022 A 
ATOM      7  C5  UNL d   1      -0.141  -1.766   5.534  0.00  0.00     0.026 A 
ATOM      8  C6  UNL d   1      -0.337  -1.424   4.153  0.00  0.00    -0.082 A 
ATOM      9  C7  UNL d   1       0.390  -0.551   3.308  0.00  0.00     0.045 A 
ENDROOT
TORSDOF 0
ENDMDL
