MODEL 1
REMARK minimizedAffinity 24.014286
REMARK minimizedRMSD -1
REMARK  0 active torsions:
REMARK  status: ('A' for Active; 'I' for Inactive)
ROOT
ATOM      1  N1  IND d   1       2.989   1.863   3.837  0.00  0.00    -0.196 N 
ATOM      2  C2  IND d   1       2.846   1.885   2.477  0.00  0.00     0.054 A 
ATOM      3  C3  IND d   1       1.542   2.015   2.144  0.00  0.00    -0.031 A 
ATOM      4  C4  IND d   1      -0.514   2.313   3.665  0.00  0.00     0.051 A 
ATOM      5  C5  IND d   1      -0.889   2.321   4.979  0.00  0.00    -0.031 A 
ATOM      6  C6  IND d   1       0.027   2.176   6.000  0.00  0.00     0.015 A 
ATOM      7  C7  IND d   1       1.361   2.029   5.744  0.00  0.00    -0.016 A 
ATOM      8  C8  IND d   1       1.746   2.014   4.411  0.00  0.00    -0.047 A 
ATOM      9  C9  IND d   1       0.815   2.117   3.369  0.00  0.00    -0.096 A 
ATOM     10  HN1 IND d   1       3.731   1.771   4.262  0.00  0.00     0.298 HD
ENDROOT
TORSDOF 0
ENDMDL
