MODEL 1
REMARK minimizedAffinity 14.4544382
REMARK minimizedRMSD -1
REMARK  0 active torsions:
REMARK  status: ('A' for Active; 'I' for Inactive)
ROOT
ATOM      1  N1  IND d   1       2.513  -2.563  -1.796  0.00  0.00    -0.196 N 
ATOM      2  C2  IND d   1       2.018  -1.525  -1.056  0.00  0.00     0.054 A 
ATOM      3  C3  IND d   1       0.666  -1.534  -1.079  0.00  0.00    -0.031 A 
ATOM      4  C4  IND d   1      -0.940  -3.217  -2.182  0.00  0.00     0.051 A 
ATOM      5  C5  IND d   1      -0.957  -4.313  -2.998  0.00  0.00    -0.031 A 
ATOM      6  C6  IND d   1       0.204  -4.896  -3.461  0.00  0.00     0.015 A 
ATOM      7  C7  IND d   1       1.433  -4.408  -3.116  0.00  0.00    -0.016 A 
ATOM      8  C8  IND d   1       1.455  -3.290  -2.294  0.00  0.00    -0.047 A 
ATOM      9  C9  IND d   1       0.278  -2.669  -1.855  0.00  0.00    -0.096 A 
ATOM     10  HN1 IND d   1       3.346  -2.732  -1.928  0.00  0.00     0.298 HD
ENDROOT
TORSDOF 0
ENDMDL
