MODEL 1
REMARK minimizedAffinity 13.0820904
REMARK minimizedRMSD -1
REMARK  0 active torsions:
REMARK  status: ('A' for Active; 'I' for Inactive)
ROOT
ATOM      1  N1  IND d   1       4.708  -4.047  -5.971  0.00  0.00    -0.196 N 
ATOM      2  C2  IND d   1       5.992  -3.578  -5.973  0.00  0.00     0.054 A 
ATOM      3  C3  IND d   1       6.000  -2.227  -5.999  0.00  0.00    -0.031 A 
ATOM      4  C4  IND d   1       4.023  -0.578  -5.938  0.00  0.00     0.051 A 
ATOM      5  C5  IND d   1       2.658  -0.532  -5.968  0.00  0.00    -0.031 A 
ATOM      6  C6  IND d   1       1.890  -1.679  -5.998  0.00  0.00     0.015 A 
ATOM      7  C7  IND d   1       2.462  -2.919  -5.988  0.00  0.00    -0.016 A 
ATOM      8  C8  IND d   1       3.849  -2.970  -5.965  0.00  0.00    -0.047 A 
ATOM      9  C9  IND d   1       4.634  -1.810  -5.977  0.00  0.00    -0.096 A 
ATOM     10  HN1 IND d   1       4.476  -4.874  -5.973  0.00  0.00     0.298 HD
ENDROOT
TORSDOF 0
ENDMDL
