MODEL 1
REMARK minimizedAffinity 11.9262056
REMARK minimizedRMSD -1
REMARK  0 active torsions:
REMARK  status: ('A' for Active; 'I' for Inactive)
ROOT
ATOM      1  N1  IND d   1      -4.166  -1.382   3.775  0.00  0.00    -0.196 N 
ATOM      2  C2  IND d   1      -4.267  -2.061   4.957  0.00  0.00     0.054 A 
ATOM      3  C3  IND d   1      -4.099  -1.217   6.000  0.00  0.00    -0.031 A 
ATOM      4  C4  IND d   1      -3.750   1.334   5.999  0.00  0.00     0.051 A 
ATOM      5  C5  IND d   1      -3.554   2.394   5.159  0.00  0.00    -0.031 A 
ATOM      6  C6  IND d   1      -3.554   2.247   3.787  0.00  0.00     0.015 A 
ATOM      7  C7  IND d   1      -3.763   1.031   3.201  0.00  0.00    -0.016 A 
ATOM      8  C8  IND d   1      -3.956  -0.049   4.051  0.00  0.00    -0.047 A 
ATOM      9  C9  IND d   1      -3.914   0.086   5.445  0.00  0.00    -0.096 A 
ATOM     10  HN1 IND d   1      -4.224  -1.730   2.990  0.00  0.00     0.298 HD
ENDROOT
TORSDOF 0
ENDMDL
