MODEL 1
REMARK minimizedAffinity 2.37033725
REMARK minimizedRMSD -1
REMARK  0 active torsions:
REMARK  status: ('A' for Active; 'I' for Inactive)
ROOT
ATOM      1  N1  IND d   1      -3.947  -2.621  -5.003  0.00  0.00    -0.196 N 
ATOM      2  C2  IND d   1      -4.472  -3.404  -5.993  0.00  0.00     0.054 A 
ATOM      3  C3  IND d   1      -3.874  -4.617  -6.000  0.00  0.00    -0.031 A 
ATOM      4  C4  IND d   1      -2.085  -5.567  -4.412  0.00  0.00     0.051 A 
ATOM      5  C5  IND d   1      -1.270  -5.215  -3.374  0.00  0.00    -0.031 A 
ATOM      6  C6  IND d   1      -1.308  -3.955  -2.812  0.00  0.00     0.015 A 
ATOM      7  C7  IND d   1      -2.175  -3.000  -3.262  0.00  0.00    -0.016 A 
ATOM      8  C8  IND d   1      -2.999  -3.352  -4.322  0.00  0.00    -0.047 A 
ATOM      9  C9  IND d   1      -2.935  -4.615  -4.924  0.00  0.00    -0.096 A 
ATOM     10  HN1 IND d   1      -4.172  -1.808  -4.834  0.00  0.00     0.298 HD
ENDROOT
TORSDOF 0
ENDMDL
