MODEL 1
REMARK minimizedAffinity 6.26159096
REMARK minimizedRMSD -1
REMARK  0 active torsions:
REMARK  status: ('A' for Active; 'I' for Inactive)
ROOT
ATOM      1  N1  IND d   1      -4.279  -3.285  -6.000  0.00  0.00    -0.196 N 
ATOM      2  C2  IND d   1      -4.337  -2.191  -5.181  0.00  0.00     0.054 A 
ATOM      3  C3  IND d   1      -3.452  -2.317  -4.166  0.00  0.00    -0.031 A 
ATOM      4  C4  IND d   1      -1.739  -4.184  -3.712  0.00  0.00     0.051 A 
ATOM      5  C5  IND d   1      -1.336  -5.409  -4.163  0.00  0.00    -0.031 A 
ATOM      6  C6  IND d   1      -1.903  -6.000  -5.273  0.00  0.00     0.015 A 
ATOM      7  C7  IND d   1      -2.891  -5.379  -5.984  0.00  0.00    -0.016 A 
ATOM      8  C8  IND d   1      -3.308  -4.138  -5.525  0.00  0.00    -0.047 A 
ATOM      9  C9  IND d   1      -2.765  -3.552  -4.373  0.00  0.00    -0.096 A 
ATOM     10  HN1 IND d   1      -4.768  -3.417  -6.695  0.00  0.00     0.298 HD
ENDROOT
TORSDOF 0
ENDMDL
