MODEL 1
REMARK minimizedAffinity -4.14549255
REMARK minimizedRMSD -1
REMARK  0 active torsions:
REMARK  status: ('A' for Active; 'I' for Inactive)
ROOT
ATOM      1  N1  IND d   1      -4.042  -3.229  -5.309  0.00  0.00    -0.196 N 
ATOM      2  C2  IND d   1      -4.548  -4.294  -5.999  0.00  0.00     0.054 A 
ATOM      3  C3  IND d   1      -3.707  -5.350  -5.916  0.00  0.00    -0.031 A 
ATOM      4  C4  IND d   1      -1.497  -5.584  -4.616  0.00  0.00     0.051 A 
ATOM      5  C5  IND d   1      -0.609  -4.867  -3.865  0.00  0.00    -0.031 A 
ATOM      6  C6  IND d   1      -0.825  -3.541  -3.548  0.00  0.00     0.015 A 
ATOM      7  C7  IND d   1      -1.948  -2.883  -3.963  0.00  0.00    -0.016 A 
ATOM      8  C8  IND d   1      -2.849  -3.606  -4.732  0.00  0.00    -0.047 A 
ATOM      9  C9  IND d   1      -2.615  -4.939  -5.092  0.00  0.00    -0.096 A 
ATOM     10  HN1 IND d   1      -4.407  -2.453  -5.246  0.00  0.00     0.298 HD
ENDROOT
TORSDOF 0
ENDMDL
