MODEL 1
REMARK minimizedAffinity 9.54083729
REMARK minimizedRMSD -1
REMARK  0 active torsions:
REMARK  status: ('A' for Active; 'I' for Inactive)
ROOT
ATOM      1  N1  IND d   1      -2.154  -5.988  -4.984  0.00  0.00    -0.196 N 
ATOM      2  C2  IND d   1      -1.192  -5.586  -4.100  0.00  0.00     0.054 A 
ATOM      3  C3  IND d   1      -1.396  -4.300  -3.735  0.00  0.00    -0.031 A 
ATOM      4  C4  IND d   1      -3.302  -2.698  -4.386  0.00  0.00     0.051 A 
ATOM      5  C5  IND d   1      -4.397  -2.600  -5.198  0.00  0.00    -0.031 A 
ATOM      6  C6  IND d   1      -4.810  -3.649  -5.994  0.00  0.00     0.015 A 
ATOM      7  C7  IND d   1      -4.148  -4.844  -5.999  0.00  0.00    -0.016 A 
ATOM      8  C8  IND d   1      -3.031  -4.944  -5.182  0.00  0.00    -0.047 A 
ATOM      9  C9  IND d   1      -2.582  -3.869  -4.404  0.00  0.00    -0.096 A 
ATOM     10  HN1 IND d   1      -2.203  -6.762  -5.354  0.00  0.00     0.298 HD
ENDROOT
TORSDOF 0
ENDMDL
