MODEL 1
REMARK minimizedAffinity 13.2791367
REMARK minimizedRMSD -1
REMARK  0 active torsions:
REMARK  status: ('A' for Active; 'I' for Inactive)
ROOT
ATOM      1  N1  IND d   1       2.971  -1.768  -0.181  0.00  0.00    -0.196 N 
ATOM      2  C2  IND d   1       1.711  -1.786  -0.712  0.00  0.00     0.054 A 
ATOM      3  C3  IND d   1       1.440  -0.609  -1.321  0.00  0.00    -0.031 A 
ATOM      4  C4  IND d   1       2.955   1.445  -1.656  0.00  0.00     0.051 A 
ATOM      5  C5  IND d   1       4.181   1.946  -1.317  0.00  0.00    -0.031 A 
ATOM      6  C6  IND d   1       5.085   1.219  -0.570  0.00  0.00     0.015 A 
ATOM      7  C7  IND d   1       4.800  -0.046  -0.141  0.00  0.00    -0.016 A 
ATOM      8  C8  IND d   1       3.554  -0.556  -0.477  0.00  0.00    -0.047 A 
ATOM      9  C9  IND d   1       2.616   0.193  -1.199  0.00  0.00    -0.096 A 
ATOM     10  HN1 IND d   1       3.337  -2.407   0.263  0.00  0.00     0.298 HD
ENDROOT
TORSDOF 0
ENDMDL
