MODEL 1
REMARK minimizedAffinity 5.07326221
REMARK minimizedRMSD -1
REMARK  0 active torsions:
REMARK  status: ('A' for Active; 'I' for Inactive)
ROOT
ATOM      1  N1  IND d   1      -1.370  -5.986  -4.325  0.00  0.00    -0.196 N 
ATOM      2  C2  IND d   1      -0.827  -5.602  -3.131  0.00  0.00     0.054 A 
ATOM      3  C3  IND d   1      -1.321  -4.402  -2.754  0.00  0.00    -0.031 A 
ATOM      4  C4  IND d   1      -3.107  -2.937  -3.891  0.00  0.00     0.051 A 
ATOM      5  C5  IND d   1      -3.869  -2.852  -5.022  0.00  0.00    -0.031 A 
ATOM      6  C6  IND d   1      -3.839  -3.828  -5.997  0.00  0.00     0.015 A 
ATOM      7  C7  IND d   1      -3.050  -4.937  -5.871  0.00  0.00    -0.016 A 
ATOM      8  C8  IND d   1      -2.270  -5.023  -4.727  0.00  0.00    -0.047 A 
ATOM      9  C9  IND d   1      -2.264  -4.015  -3.755  0.00  0.00    -0.096 A 
ATOM     10  HN1 IND d   1      -1.182  -6.708  -4.753  0.00  0.00     0.298 HD
ENDROOT
TORSDOF 0
ENDMDL
