MODEL 1
REMARK minimizedAffinity 1.76618707
REMARK minimizedRMSD -1
REMARK  0 active torsions:
REMARK  status: ('A' for Active; 'I' for Inactive)
ROOT
ATOM      1  N1  IND d   1      -1.920  -6.000  -4.986  0.00  0.00    -0.196 N 
ATOM      2  C2  IND d   1      -0.995  -5.506  -4.109  0.00  0.00     0.054 A 
ATOM      3  C3  IND d   1      -1.312  -4.242  -3.752  0.00  0.00    -0.031 A 
ATOM      4  C4  IND d   1      -3.358  -2.822  -4.405  0.00  0.00     0.051 A 
ATOM      5  C5  IND d   1      -4.461  -2.830  -5.212  0.00  0.00    -0.031 A 
ATOM      6  C6  IND d   1      -4.781  -3.917  -5.999  0.00  0.00     0.015 A 
ATOM      7  C7  IND d   1      -4.013  -5.047  -6.000  0.00  0.00    -0.016 A 
ATOM      8  C8  IND d   1      -2.889  -5.041  -5.186  0.00  0.00    -0.047 A 
ATOM      9  C9  IND d   1      -2.535  -3.924  -4.418  0.00  0.00    -0.096 A 
ATOM     10  HN1 IND d   1      -1.901  -6.778  -5.351  0.00  0.00     0.298 HD
ENDROOT
TORSDOF 0
ENDMDL
