MODEL 1
REMARK minimizedAffinity 2.86563921
REMARK minimizedRMSD -1
REMARK  0 active torsions:
REMARK  status: ('A' for Active; 'I' for Inactive)
ROOT
ATOM      1  N1  IND d   1      -5.017  -4.142  -5.188  0.00  0.00    -0.196 N 
ATOM      2  C2  IND d   1      -5.192  -5.229  -5.999  0.00  0.00     0.054 A 
ATOM      3  C3  IND d   1      -4.081  -5.999  -5.999  0.00  0.00    -0.031 A 
ATOM      4  C4  IND d   1      -1.898  -5.721  -4.663  0.00  0.00     0.051 A 
ATOM      5  C5  IND d   1      -1.255  -4.862  -3.816  0.00  0.00    -0.031 A 
ATOM      6  C6  IND d   1      -1.847  -3.697  -3.372  0.00  0.00     0.015 A 
ATOM      7  C7  IND d   1      -3.114  -3.352  -3.751  0.00  0.00    -0.016 A 
ATOM      8  C8  IND d   1      -3.766  -4.218  -4.617  0.00  0.00    -0.047 A 
ATOM      9  C9  IND d   1      -3.155  -5.380  -5.105  0.00  0.00    -0.096 A 
ATOM     10  HN1 IND d   1      -5.592  -3.517  -5.057  0.00  0.00     0.298 HD
ENDROOT
TORSDOF 0
ENDMDL
