MODEL 1
REMARK minimizedAffinity 11.2913065
REMARK minimizedRMSD -1
REMARK  0 active torsions:
REMARK  status: ('A' for Active; 'I' for Inactive)
ROOT
ATOM      1  N1  IND d   1      -1.852   1.217  -2.784  0.00  0.00    -0.196 N 
ATOM      2  C2  IND d   1      -0.918   0.345  -3.273  0.00  0.00     0.054 A 
ATOM      3  C3  IND d   1      -0.603   0.661  -4.549  0.00  0.00    -0.031 A 
ATOM      4  C4  IND d   1      -1.420   2.626  -5.998  0.00  0.00     0.051 A 
ATOM      5  C5  IND d   1      -2.303   3.668  -6.000  0.00  0.00    -0.031 A 
ATOM      6  C6  IND d   1      -3.095   3.955  -4.907  0.00  0.00     0.015 A 
ATOM      7  C7  IND d   1      -3.025   3.212  -3.762  0.00  0.00    -0.016 A 
ATOM      8  C8  IND d   1      -2.134   2.148  -3.759  0.00  0.00    -0.047 A 
ATOM      9  C9  IND d   1      -1.358   1.827  -4.881  0.00  0.00    -0.096 A 
ATOM     10  HN1 IND d   1      -2.203   1.188  -2.000  0.00  0.00     0.298 HD
ENDROOT
TORSDOF 0
ENDMDL
