MODEL 1
REMARK minimizedAffinity 8.90482521
REMARK minimizedRMSD -1
REMARK  0 active torsions:
REMARK  status: ('A' for Active; 'I' for Inactive)
ROOT
ATOM      1  N1  IND d   1      -3.775  -4.436  -5.999  0.00  0.00    -0.196 N 
ATOM      2  C2  IND d   1      -4.210  -3.146  -5.871  0.00  0.00     0.054 A 
ATOM      3  C3  IND d   1      -3.565  -2.532  -4.854  0.00  0.00    -0.031 A 
ATOM      4  C4  IND d   1      -1.687  -3.420  -3.333  0.00  0.00     0.051 A 
ATOM      5  C5  IND d   1      -0.979  -4.553  -3.046  0.00  0.00    -0.031 A 
ATOM      6  C6  IND d   1      -1.169  -5.728  -3.744  0.00  0.00     0.015 A 
ATOM      7  C7  IND d   1      -2.070  -5.811  -4.767  0.00  0.00    -0.016 A 
ATOM      8  C8  IND d   1      -2.795  -4.664  -5.058  0.00  0.00    -0.047 A 
ATOM      9  C9  IND d   1      -2.638  -3.481  -4.325  0.00  0.00    -0.096 A 
ATOM     10  HN1 IND d   1      -4.065  -5.009  -6.571  0.00  0.00     0.298 HD
ENDROOT
TORSDOF 0
ENDMDL
