MODEL 1
REMARK minimizedAffinity 7.09846306
REMARK minimizedRMSD -1
REMARK  0 active torsions:
REMARK  status: ('A' for Active; 'I' for Inactive)
ROOT
ATOM      1  N1  IND d   1      -3.970  -3.677  -6.000  0.00  0.00    -0.196 N 
ATOM      2  C2  IND d   1      -4.249  -2.557  -5.266  0.00  0.00     0.054 A 
ATOM      3  C3  IND d   1      -3.461  -2.504  -4.169  0.00  0.00    -0.031 A 
ATOM      4  C4  IND d   1      -1.573  -4.093  -3.434  0.00  0.00     0.051 A 
ATOM      5  C5  IND d   1      -0.972  -5.276  -3.761  0.00  0.00    -0.031 A 
ATOM      6  C6  IND d   1      -1.345  -5.999  -4.876  0.00  0.00     0.015 A 
ATOM      7  C7  IND d   1      -2.330  -5.559  -5.714  0.00  0.00    -0.016 A 
ATOM      8  C8  IND d   1      -2.947  -4.362  -5.381  0.00  0.00    -0.047 A 
ATOM      9  C9  IND d   1      -2.602  -3.645  -4.228  0.00  0.00    -0.096 A 
ATOM     10  HN1 IND d   1      -4.366  -3.913  -6.726  0.00  0.00     0.298 HD
ENDROOT
TORSDOF 0
ENDMDL
