MODEL 1
REMARK minimizedAffinity 4.21769333
REMARK minimizedRMSD -1
REMARK  0 active torsions:
REMARK  status: ('A' for Active; 'I' for Inactive)
ROOT
ATOM      1  N1  IND d   1      -4.553  -4.480  -5.986  0.00  0.00    -0.196 N 
ATOM      2  C2  IND d   1      -4.742  -3.127  -5.997  0.00  0.00     0.054 A 
ATOM      3  C3  IND d   1      -3.828  -2.518  -5.208  0.00  0.00    -0.031 A 
ATOM      4  C4  IND d   1      -1.867  -3.538  -3.889  0.00  0.00     0.051 A 
ATOM      5  C5  IND d   1      -1.310  -4.737  -3.543  0.00  0.00    -0.031 A 
ATOM      6  C6  IND d   1      -1.813  -5.936  -4.005  0.00  0.00     0.015 A 
ATOM      7  C7  IND d   1      -2.891  -5.980  -4.843  0.00  0.00    -0.016 A 
ATOM      8  C8  IND d   1      -3.464  -4.765  -5.191  0.00  0.00    -0.047 A 
ATOM      9  C9  IND d   1      -2.983  -3.547  -4.692  0.00  0.00    -0.096 A 
ATOM     10  HN1 IND d   1      -5.033  -5.057  -6.405  0.00  0.00     0.298 HD
ENDROOT
TORSDOF 0
ENDMDL
