MODEL 1
REMARK minimizedAffinity 4.82725525
REMARK minimizedRMSD -1
REMARK  0 active torsions:
REMARK  status: ('A' for Active; 'I' for Inactive)
ROOT
ATOM      1  N1  IND d   1      -0.648  -5.850  -4.115  0.00  0.00    -0.196 N 
ATOM      2  C2  IND d   1      -0.257  -5.210  -2.971  0.00  0.00     0.054 A 
ATOM      3  C3  IND d   1      -1.069  -4.160  -2.718  0.00  0.00    -0.031 A 
ATOM      4  C4  IND d   1      -3.164  -3.369  -3.989  0.00  0.00     0.051 A 
ATOM      5  C5  IND d   1      -3.896  -3.614  -5.117  0.00  0.00    -0.031 A 
ATOM      6  C6  IND d   1      -3.578  -4.639  -5.984  0.00  0.00     0.015 A 
ATOM      7  C7  IND d   1      -2.518  -5.468  -5.749  0.00  0.00    -0.016 A 
ATOM      8  C8  IND d   1      -1.768  -5.218  -4.608  0.00  0.00    -0.047 A 
ATOM      9  C9  IND d   1      -2.061  -4.153  -3.747  0.00  0.00    -0.096 A 
ATOM     10  HN1 IND d   1      -0.260  -6.532  -4.466  0.00  0.00     0.298 HD
ENDROOT
TORSDOF 0
ENDMDL
