MODEL 1
REMARK minimizedAffinity -0.534886241
REMARK minimizedRMSD -1
REMARK  0 active torsions:
REMARK  status: ('A' for Active; 'I' for Inactive)
ROOT
ATOM      1  N1  IND d   1      -4.541  -3.849  -6.000  0.00  0.00    -0.196 N 
ATOM      2  C2  IND d   1      -4.502  -2.540  -5.607  0.00  0.00     0.054 A 
ATOM      3  C3  IND d   1      -3.280  -2.233  -5.117  0.00  0.00    -0.031 A 
ATOM      4  C4  IND d   1      -1.166  -3.693  -4.960  0.00  0.00     0.051 A 
ATOM      5  C5  IND d   1      -0.721  -4.970  -5.161  0.00  0.00    -0.031 A 
ATOM      6  C6  IND d   1      -1.543  -5.957  -5.664  0.00  0.00     0.015 A 
ATOM      7  C7  IND d   1      -2.843  -5.701  -5.998  0.00  0.00    -0.016 A 
ATOM      8  C8  IND d   1      -3.300  -4.407  -5.789  0.00  0.00    -0.047 A 
ATOM      9  C9  IND d   1      -2.483  -3.412  -5.238  0.00  0.00    -0.096 A 
ATOM     10  HN1 IND d   1      -5.226  -4.255  -6.324  0.00  0.00     0.298 HD
ENDROOT
TORSDOF 0
ENDMDL
