MODEL 1
REMARK minimizedAffinity 5.16260433
REMARK minimizedRMSD -1
REMARK  0 active torsions:
REMARK  status: ('A' for Active; 'I' for Inactive)
ROOT
ATOM      1  C4' PXY d   1      -1.208   3.493  -1.932  0.00  0.00     0.077 C 
ATOM      2  C1' PXY d   1       0.065   1.968   3.496  0.00  0.00     0.077 C 
ATOM      3  C1  PXY d   1      -0.257   2.364   2.069  0.00  0.00    -0.082 A 
ATOM      4  C2  PXY d   1      -1.202   3.260   1.836  0.00  0.00     0.003 A 
ATOM      5  C3  PXY d   1      -1.528   3.607   0.550  0.00  0.00     0.003 A 
ATOM      6  C4  PXY d   1      -0.843   3.070  -0.507  0.00  0.00    -0.082 A 
ATOM      7  C5  PXY d   1       0.131   2.163  -0.277  0.00  0.00     0.003 A 
ATOM      8  C6  PXY d   1       0.418   1.794   1.034  0.00  0.00     0.003 A 
ENDROOT
TORSDOF 0
ENDMDL
