MODEL 1
REMARK minimizedAffinity 5.13112307
REMARK minimizedRMSD -1
REMARK  0 active torsions:
REMARK  status: ('A' for Active; 'I' for Inactive)
ROOT
ATOM      1  C4' PXY d   1       5.027  -4.489  -1.208  0.00  0.00     0.077 C 
ATOM      2  C1' PXY d   1       0.935  -0.412  -0.975  0.00  0.00     0.077 C 
ATOM      3  C1  PXY d   1       2.015  -1.474  -1.045  0.00  0.00    -0.082 A 
ATOM      4  C2  PXY d   1       1.732  -2.718  -0.694  0.00  0.00     0.003 A 
ATOM      5  C3  PXY d   1       2.705  -3.685  -0.721  0.00  0.00     0.003 A 
ATOM      6  C4  PXY d   1       3.966  -3.386  -1.162  0.00  0.00    -0.082 A 
ATOM      7  C5  PXY d   1       4.260  -2.121  -1.532  0.00  0.00     0.003 A 
ATOM      8  C6  PXY d   1       3.269  -1.146  -1.458  0.00  0.00     0.003 A 
ENDROOT
TORSDOF 0
ENDMDL
