MODEL 1
REMARK minimizedAffinity 0.483627528
REMARK minimizedRMSD -1
REMARK  0 active torsions:
REMARK  status: ('A' for Active; 'I' for Inactive)
ROOT
ATOM      1  C4' PXY d   1      -0.115   0.754   3.019  0.00  0.00     0.077 C 
ATOM      2  C1' PXY d   1      -0.456   3.906  -1.814  0.00  0.00     0.077 C 
ATOM      3  C1  PXY d   1      -0.362   3.090  -0.540  0.00  0.00    -0.082 A 
ATOM      4  C2  PXY d   1      -0.224   1.776  -0.613  0.00  0.00     0.003 A 
ATOM      5  C3  PXY d   1      -0.170   1.019   0.529  0.00  0.00     0.003 A 
ATOM      6  C4  PXY d   1      -0.204   1.619   1.759  0.00  0.00    -0.082 A 
ATOM      7  C5  PXY d   1      -0.334   2.960   1.843  0.00  0.00     0.003 A 
ATOM      8  C6  PXY d   1      -0.428   3.706   0.672  0.00  0.00     0.003 A 
ENDROOT
TORSDOF 0
ENDMDL
