MODEL 1
REMARK minimizedAffinity 12.5496159
REMARK minimizedRMSD -1
REMARK  0 active torsions:
REMARK  status: ('A' for Active; 'I' for Inactive)
ROOT
ATOM      1  C4' PXY d   1       5.134  -4.491   4.939  0.00  0.00     0.077 C 
ATOM      2  C1' PXY d   1       0.904  -0.838   3.463  0.00  0.00     0.077 C 
ATOM      3  C1  PXY d   1       2.022  -1.786   3.849  0.00  0.00    -0.082 A 
ATOM      4  C2  PXY d   1       1.863  -3.089   3.678  0.00  0.00     0.003 A 
ATOM      5  C3  PXY d   1       2.852  -3.963   4.051  0.00  0.00     0.003 A 
ATOM      6  C4  PXY d   1       4.036  -3.496   4.555  0.00  0.00    -0.082 A 
ATOM      7  C5  PXY d   1       4.210  -2.168   4.723  0.00  0.00     0.003 A 
ATOM      8  C6  PXY d   1       3.178  -1.300   4.376  0.00  0.00     0.003 A 
ENDROOT
TORSDOF 0
ENDMDL
