MODEL 1
REMARK minimizedAffinity -2.48348022
REMARK minimizedRMSD -1
REMARK  0 active torsions:
REMARK  status: ('A' for Active; 'I' for Inactive)
ROOT
ATOM      1  C4' PXY d   1       1.061   0.015  -1.087  0.00  0.00     0.077 C 
ATOM      2  C1' PXY d   1      -2.039   3.326   2.496  0.00  0.00     0.077 C 
ATOM      3  C1  PXY d   1      -1.218   2.455   1.566  0.00  0.00    -0.082 A 
ATOM      4  C2  PXY d   1      -1.252   2.677   0.262  0.00  0.00     0.003 A 
ATOM      5  C3  PXY d   1      -0.540   1.878  -0.596  0.00  0.00     0.003 A 
ATOM      6  C4  PXY d   1       0.256   0.876  -0.110  0.00  0.00    -0.082 A 
ATOM      7  C5  PXY d   1       0.304   0.650   1.220  0.00  0.00     0.003 A 
ATOM      8  C6  PXY d   1      -0.458   1.445   2.071  0.00  0.00     0.003 A 
ENDROOT
TORSDOF 0
ENDMDL
