MODEL 1
REMARK minimizedAffinity 9.18263721
REMARK minimizedRMSD -1
REMARK  0 active torsions:
REMARK  status: ('A' for Active; 'I' for Inactive)
ROOT
ATOM      1  C4' PXY d   1      -2.638   4.387   1.879  0.00  0.00     0.077 C 
ATOM      2  C1' PXY d   1      -0.021   0.173  -1.089  0.00  0.00     0.077 C 
ATOM      3  C1  PXY d   1      -0.700   1.275  -0.300  0.00  0.00    -0.082 A 
ATOM      4  C2  PXY d   1      -1.919   1.666  -0.637  0.00  0.00     0.003 A 
ATOM      5  C3  PXY d   1      -2.535   2.683   0.045  0.00  0.00     0.003 A 
ATOM      6  C4  PXY d   1      -1.918   3.271   1.117  0.00  0.00    -0.082 A 
ATOM      7  C5  PXY d   1      -0.679   2.871   1.474  0.00  0.00     0.003 A 
ATOM      8  C6  PXY d   1      -0.055   1.865   0.743  0.00  0.00     0.003 A 
ENDROOT
TORSDOF 0
ENDMDL
