MODEL 1
REMARK minimizedAffinity 7.38426876
REMARK minimizedRMSD -1
REMARK  0 active torsions:
REMARK  status: ('A' for Active; 'I' for Inactive)
ROOT
ATOM      1  C4' PXY d   1       0.757  -0.116   3.794  0.00  0.00     0.077 C 
ATOM      2  C1' PXY d   1      -2.693   3.774   1.267  0.00  0.00     0.077 C 
ATOM      3  C1  PXY d   1      -1.779   2.757   1.921  0.00  0.00    -0.082 A 
ATOM      4  C2  PXY d   1      -2.300   1.780   2.645  0.00  0.00     0.003 A 
ATOM      5  C3  PXY d   1      -1.487   0.870   3.270  0.00  0.00     0.003 A 
ATOM      6  C4  PXY d   1      -0.128   0.929   3.108  0.00  0.00    -0.082 A 
ATOM      7  C5  PXY d   1       0.410   1.916   2.361  0.00  0.00     0.003 A 
ATOM      8  C6  PXY d   1      -0.430   2.854   1.770  0.00  0.00     0.003 A 
ENDROOT
TORSDOF 0
ENDMDL
