MODEL 1
REMARK minimizedAffinity 2.41130304
REMARK minimizedRMSD -1
REMARK  0 active torsions:
REMARK  status: ('A' for Active; 'I' for Inactive)
ROOT
ATOM      1  C4' PXY d   1      -5.932   5.994  -5.814  0.00  0.00     0.077 C 
ATOM      2  C1' PXY d   1      -2.967   3.225  -1.696  0.00  0.00     0.077 C 
ATOM      3  C1  PXY d   1      -3.746   3.961  -2.768  0.00  0.00    -0.082 A 
ATOM      4  C2  PXY d   1      -4.382   3.274  -3.702  0.00  0.00     0.003 A 
ATOM      5  C3  PXY d   1      -5.065   3.925  -4.698  0.00  0.00     0.003 A 
ATOM      6  C4  PXY d   1      -5.141   5.292  -4.706  0.00  0.00    -0.082 A 
ATOM      7  C5  PXY d   1      -4.503   6.000  -3.750  0.00  0.00     0.003 A 
ATOM      8  C6  PXY d   1      -3.781   5.322  -2.772  0.00  0.00     0.003 A 
ENDROOT
TORSDOF 0
ENDMDL
