MODEL 1
REMARK minimizedAffinity 8.88320446
REMARK minimizedRMSD -1
REMARK  0 active torsions:
REMARK  status: ('A' for Active; 'I' for Inactive)
ROOT
ATOM      1  C4' PXY d   1      -0.696   1.861   2.928  0.00  0.00     0.077 C 
ATOM      2  C1' PXY d   1      -1.018   4.060  -2.408  0.00  0.00     0.077 C 
ATOM      3  C1  PXY d   1      -0.944   3.475  -1.012  0.00  0.00    -0.082 A 
ATOM      4  C2  PXY d   1      -0.428   4.194  -0.028  0.00  0.00     0.003 A 
ATOM      5  C3  PXY d   1      -0.324   3.669   1.234  0.00  0.00     0.003 A 
ATOM      6  C4  PXY d   1      -0.800   2.414   1.504  0.00  0.00    -0.082 A 
ATOM      7  C5  PXY d   1      -1.337   1.678   0.508  0.00  0.00     0.003 A 
ATOM      8  C6  PXY d   1      -1.397   2.214  -0.775  0.00  0.00     0.003 A 
ENDROOT
TORSDOF 0
ENDMDL
