MODEL 1
REMARK minimizedAffinity 2.6550765
REMARK minimizedRMSD -1
REMARK  0 active torsions:
REMARK  status: ('A' for Active; 'I' for Inactive)
ROOT
ATOM      1  C4' PXY d   1       4.498  -5.999  -2.627  0.00  0.00     0.077 C 
ATOM      2  C1' PXY d   1       4.279  -1.161   0.530  0.00  0.00     0.077 C 
ATOM      3  C1  PXY d   1       4.349  -2.428  -0.299  0.00  0.00    -0.082 A 
ATOM      4  C2  PXY d   1       3.279  -2.838  -0.960  0.00  0.00     0.003 A 
ATOM      5  C3  PXY d   1       3.316  -3.999  -1.689  0.00  0.00     0.003 A 
ATOM      6  C4  PXY d   1       4.476  -4.720  -1.785  0.00  0.00    -0.082 A 
ATOM      7  C5  PXY d   1       5.575  -4.303  -1.122  0.00  0.00     0.003 A 
ATOM      8  C6  PXY d   1       5.505  -3.144  -0.355  0.00  0.00     0.003 A 
ENDROOT
TORSDOF 0
ENDMDL
