MODEL 1
REMARK minimizedAffinity 5.4666152
REMARK minimizedRMSD -1
REMARK  0 active torsions:
REMARK  status: ('A' for Active; 'I' for Inactive)
ROOT
ATOM      1  C4' PXY d   1      -1.361  -2.120  -4.417  0.00  0.00     0.077 C 
ATOM      2  C1' PXY d   1      -1.641   1.663  -0.055  0.00  0.00     0.077 C 
ATOM      3  C1  PXY d   1      -1.574   0.662  -1.191  0.00  0.00    -0.082 A 
ATOM      4  C2  PXY d   1      -0.605   0.753  -2.087  0.00  0.00     0.003 A 
ATOM      5  C3  PXY d   1      -0.548  -0.124  -3.139  0.00  0.00     0.003 A 
ATOM      6  C4  PXY d   1      -1.462  -1.137  -3.247  0.00  0.00    -0.082 A 
ATOM      7  C5  PXY d   1      -2.449  -1.243  -2.331  0.00  0.00     0.003 A 
ATOM      8  C6  PXY d   1      -2.513  -0.318  -1.293  0.00  0.00     0.003 A 
ENDROOT
TORSDOF 0
ENDMDL
