MODEL 1
REMARK minimizedAffinity -2.92575002
REMARK minimizedRMSD -1
REMARK  0 active torsions:
REMARK  status: ('A' for Active; 'I' for Inactive)
ROOT
ATOM      1  C   UNL d   1       0.507  -2.398  -1.026  0.00  0.00     0.077 C 
ATOM      2  C1  UNL d   1       0.301  -0.940  -0.740  0.00  0.00    -0.074 A 
ATOM      3  C2  UNL d   1       0.132  -0.020  -1.779  0.00  0.00    -0.005 A 
ATOM      4  C3  UNL d   1      -0.068   1.331  -1.497  0.00  0.00     0.006 A 
ATOM      5  C4  UNL d   1      -0.100   1.775  -0.175  0.00  0.00    -0.005 A 
ATOM      6  C5  UNL d   1       0.066   0.870   0.878  0.00  0.00    -0.074 A 
ATOM      7  C6  UNL d   1       0.024   1.330   2.305  0.00  0.00     0.077 C 
ATOM      8  C7  UNL d   1       0.259  -0.487   0.586  0.00  0.00    -0.001 A 
ENDROOT
TORSDOF 0
ENDMDL
