MODEL 1
REMARK minimizedAffinity -4.05179644
REMARK minimizedRMSD -1
REMARK  0 active torsions:
REMARK  status: ('A' for Active; 'I' for Inactive)
ROOT
ATOM      1  C   UNL d   1       0.252   2.163  -2.740  0.00  0.00     0.077 C 
ATOM      2  C1  UNL d   1       0.155   1.539  -1.380  0.00  0.00    -0.074 A 
ATOM      3  C2  UNL d   1       0.876   0.382  -1.067  0.00  0.00    -0.005 A 
ATOM      4  C3  UNL d   1       0.783  -0.182   0.206  0.00  0.00     0.006 A 
ATOM      5  C4  UNL d   1      -0.031   0.405   1.176  0.00  0.00    -0.005 A 
ATOM      6  C5  UNL d   1      -0.758   1.562   0.881  0.00  0.00    -0.074 A 
ATOM      7  C6  UNL d   1      -1.629   2.211   1.916  0.00  0.00     0.077 C 
ATOM      8  C7  UNL d   1      -0.654   2.127  -0.397  0.00  0.00    -0.001 A 
ENDROOT
TORSDOF 0
ENDMDL
