MODEL 1
REMARK minimizedAffinity -5.4270668
REMARK minimizedRMSD -1
REMARK  0 active torsions:
REMARK  status: ('A' for Active; 'I' for Inactive)
ROOT
ATOM      1  C   UNL d   1       0.208  -0.643   0.910  0.00  0.00     0.077 C 
ATOM      2  C1  UNL d   1      -0.221   0.778   0.693  0.00  0.00    -0.074 A 
ATOM      3  C2  UNL d   1      -0.426   1.640   1.775  0.00  0.00    -0.005 A 
ATOM      4  C3  UNL d   1      -0.815   2.962   1.557  0.00  0.00     0.006 A 
ATOM      5  C4  UNL d   1      -1.003   3.434   0.258  0.00  0.00    -0.005 A 
ATOM      6  C5  UNL d   1      -0.802   2.587  -0.837  0.00  0.00    -0.074 A 
ATOM      7  C6  UNL d   1      -0.990   3.081  -2.240  0.00  0.00     0.077 C 
ATOM      8  C7  UNL d   1      -0.404   1.262  -0.610  0.00  0.00    -0.001 A 
ENDROOT
TORSDOF 0
ENDMDL
