MODEL 1
REMARK minimizedAffinity -4.83587694
REMARK minimizedRMSD -1
REMARK  0 active torsions:
REMARK  status: ('A' for Active; 'I' for Inactive)
ROOT
ATOM      1  C   UNL d   1       0.037  -1.072  -0.342  0.00  0.00     0.077 C 
ATOM      2  C1  UNL d   1      -0.377   0.303   0.093  0.00  0.00    -0.074 A 
ATOM      3  C2  UNL d   1      -0.277   0.693   1.432  0.00  0.00    -0.005 A 
ATOM      4  C3  UNL d   1      -0.656   1.978   1.820  0.00  0.00     0.006 A 
ATOM      5  C4  UNL d   1      -1.138   2.884   0.875  0.00  0.00    -0.005 A 
ATOM      6  C5  UNL d   1      -1.244   2.512  -0.469  0.00  0.00    -0.074 A 
ATOM      7  C6  UNL d   1      -1.751   3.476  -1.500  0.00  0.00     0.077 C 
ATOM      8  C7  UNL d   1      -0.854   1.221  -0.853  0.00  0.00    -0.001 A 
ENDROOT
TORSDOF 0
ENDMDL
