MODEL 1
REMARK minimizedAffinity -4.09407711
REMARK minimizedRMSD -1
REMARK  0 active torsions:
REMARK  status: ('A' for Active; 'I' for Inactive)
ROOT
ATOM      1  C   UNL d   1       0.067   1.397  -2.775  0.00  0.00     0.077 C 
ATOM      2  C1  UNL d   1       0.033   1.136  -1.298  0.00  0.00    -0.074 A 
ATOM      3  C2  UNL d   1       0.669   0.017  -0.751  0.00  0.00    -0.005 A 
ATOM      4  C3  UNL d   1       0.638  -0.207   0.626  0.00  0.00     0.006 A 
ATOM      5  C4  UNL d   1      -0.029   0.685   1.467  0.00  0.00    -0.005 A 
ATOM      6  C5  UNL d   1      -0.669   1.810   0.938  0.00  0.00    -0.074 A 
ATOM      7  C6  UNL d   1      -1.382   2.783   1.830  0.00  0.00     0.077 C 
ATOM      8  C7  UNL d   1      -0.627   2.031  -0.445  0.00  0.00    -0.001 A 
ENDROOT
TORSDOF 0
ENDMDL
