MODEL 1
REMARK minimizedAffinity -5.79539633
REMARK minimizedRMSD -1
REMARK  0 active torsions:
REMARK  status: ('A' for Active; 'I' for Inactive)
ROOT
ATOM      1  C   UNL d   1      -1.523   3.317  -1.814  0.00  0.00     0.077 C 
ATOM      2  C1  UNL d   1      -1.105   2.829  -0.459  0.00  0.00    -0.074 A 
ATOM      3  C2  UNL d   1      -1.177   3.665   0.660  0.00  0.00    -0.005 A 
ATOM      4  C3  UNL d   1      -0.793   3.194   1.916  0.00  0.00     0.006 A 
ATOM      5  C4  UNL d   1      -0.334   1.885   2.065  0.00  0.00    -0.005 A 
ATOM      6  C5  UNL d   1      -0.255   1.035   0.958  0.00  0.00    -0.074 A 
ATOM      7  C6  UNL d   1       0.227  -0.378   1.102  0.00  0.00     0.077 C 
ATOM      8  C7  UNL d   1      -0.650   1.513  -0.299  0.00  0.00    -0.001 A 
ENDROOT
TORSDOF 0
ENDMDL
