MODEL 1
REMARK minimizedAffinity -5.14563799
REMARK minimizedRMSD -1
REMARK  0 active torsions:
REMARK  status: ('A' for Active; 'I' for Inactive)
ROOT
ATOM      1  C   UNL d   1       0.663   1.502  -2.938  0.00  0.00     0.077 C 
ATOM      2  C1  UNL d   1       0.649   0.973  -1.534  0.00  0.00    -0.074 A 
ATOM      3  C2  UNL d   1       1.362  -0.180  -1.193  0.00  0.00    -0.005 A 
ATOM      4  C3  UNL d   1       1.347  -0.654   0.119  0.00  0.00     0.006 A 
ATOM      5  C4  UNL d   1       0.620   0.019   1.101  0.00  0.00    -0.005 A 
ATOM      6  C5  UNL d   1      -0.098   1.175   0.779  0.00  0.00    -0.074 A 
ATOM      7  C6  UNL d   1      -0.877   1.916   1.824  0.00  0.00     0.077 C 
ATOM      8  C7  UNL d   1      -0.073   1.649  -0.540  0.00  0.00    -0.001 A 
ENDROOT
TORSDOF 0
ENDMDL
