MODEL 1
REMARK minimizedAffinity 4.66387463
REMARK minimizedRMSD -1
REMARK  0 active torsions:
REMARK  status: ('A' for Active; 'I' for Inactive)
ROOT
ATOM      1  C   UNL d   1      -0.269  -4.648  -4.379  0.00  0.00     0.077 C 
ATOM      2  C1  UNL d   1      -1.221  -3.557  -3.990  0.00  0.00    -0.074 A 
ATOM      3  C2  UNL d   1      -2.118  -3.729  -2.931  0.00  0.00    -0.005 A 
ATOM      4  C3  UNL d   1      -2.991  -2.702  -2.574  0.00  0.00     0.006 A 
ATOM      5  C4  UNL d   1      -2.977  -1.494  -3.273  0.00  0.00    -0.005 A 
ATOM      6  C5  UNL d   1      -2.087  -1.303  -4.335  0.00  0.00    -0.074 A 
ATOM      7  C6  UNL d   1      -2.052  -0.007  -5.090  0.00  0.00     0.077 C 
ATOM      8  C7  UNL d   1      -1.208  -2.338  -4.682  0.00  0.00    -0.001 A 
ENDROOT
TORSDOF 0
ENDMDL
