MODEL 1
REMARK minimizedAffinity 4.0944252
REMARK minimizedRMSD -1
REMARK  0 active torsions:
REMARK  status: ('A' for Active; 'I' for Inactive)
ROOT
ATOM      1  C1  BNZ d   1      -2.788  -4.807  -4.988  0.00  0.00     0.000 A 
ATOM      2  C2  BNZ d   1      -3.354  -3.682  -5.525  0.00  0.00     0.000 A 
ATOM      3  C3  BNZ d   1      -4.638  -3.701  -5.995  0.00  0.00     0.000 A 
ATOM      4  C4  BNZ d   1      -5.339  -4.853  -5.964  0.00  0.00     0.000 A 
ATOM      5  C5  BNZ d   1      -4.778  -5.998  -5.434  0.00  0.00     0.000 A 
ATOM      6  C6  BNZ d   1      -3.500  -5.966  -4.926  0.00  0.00     0.000 A 
ENDROOT
TORSDOF 0
ENDMDL
