MODEL 1
REMARK minimizedAffinity 8.08849907
REMARK minimizedRMSD -1
REMARK  0 active torsions:
REMARK  status: ('A' for Active; 'I' for Inactive)
ROOT
ATOM      1  C1  BNZ d   1      -1.003   3.464  -0.270  0.00  0.00     0.000 A 
ATOM      2  C2  BNZ d   1      -1.539   4.148  -1.328  0.00  0.00     0.000 A 
ATOM      3  C3  BNZ d   1      -0.747   4.586  -2.352  0.00  0.00     0.000 A 
ATOM      4  C4  BNZ d   1       0.584   4.375  -2.298  0.00  0.00     0.000 A 
ATOM      5  C5  BNZ d   1       1.141   3.694  -1.233  0.00  0.00     0.000 A 
ATOM      6  C6  BNZ d   1       0.335   3.221  -0.223  0.00  0.00     0.000 A 
ENDROOT
TORSDOF 0
ENDMDL
