MODEL 1
REMARK minimizedAffinity 6.48744774
REMARK minimizedRMSD -1
REMARK  0 active torsions:
REMARK  status: ('A' for Active; 'I' for Inactive)
ROOT
ATOM      1  C1  BNZ d   1      -0.381   2.659  -0.024  0.00  0.00     0.000 A 
ATOM      2  C2  BNZ d   1      -0.060   3.543  -1.020  0.00  0.00     0.000 A 
ATOM      3  C3  BNZ d   1       1.136   4.204  -1.009  0.00  0.00     0.000 A 
ATOM      4  C4  BNZ d   1       1.991   4.012   0.016  0.00  0.00     0.000 A 
ATOM      5  C5  BNZ d   1       1.678   3.131   1.031  0.00  0.00     0.000 A 
ATOM      6  C6  BNZ d   1       0.490   2.437   0.997  0.00  0.00     0.000 A 
ENDROOT
TORSDOF 0
ENDMDL
