MODEL 1
REMARK minimizedAffinity 1.63863587
REMARK minimizedRMSD -1
REMARK  0 active torsions:
REMARK  status: ('A' for Active; 'I' for Inactive)
ROOT
ATOM      1  C1  BNZ d   1      -2.029  -4.841  -5.129  0.00  0.00     0.000 A 
ATOM      2  C2  BNZ d   1      -2.610  -3.687  -5.583  0.00  0.00     0.000 A 
ATOM      3  C3  BNZ d   1      -3.912  -3.676  -5.999  0.00  0.00     0.000 A 
ATOM      4  C4  BNZ d   1      -4.617  -4.826  -6.000  0.00  0.00     0.000 A 
ATOM      5  C5  BNZ d   1      -4.042  -5.999  -5.554  0.00  0.00     0.000 A 
ATOM      6  C6  BNZ d   1      -2.743  -5.998  -5.099  0.00  0.00     0.000 A 
ENDROOT
TORSDOF 0
ENDMDL
