MODEL 1
REMARK minimizedAffinity 3.27164054
REMARK minimizedRMSD -1
REMARK  0 active torsions:
REMARK  status: ('A' for Active; 'I' for Inactive)
ROOT
ATOM      1  C1  BNZ d   1      -4.520  -5.932  -5.215  0.00  0.00     0.000 A 
ATOM      2  C2  BNZ d   1      -3.161  -5.991  -5.057  0.00  0.00     0.000 A 
ATOM      3  C3  BNZ d   1      -2.376  -4.910  -5.344  0.00  0.00     0.000 A 
ATOM      4  C4  BNZ d   1      -2.945  -3.786  -5.826  0.00  0.00     0.000 A 
ATOM      5  C5  BNZ d   1      -4.312  -3.714  -5.999  0.00  0.00     0.000 A 
ATOM      6  C6  BNZ d   1      -5.104  -4.791  -5.672  0.00  0.00     0.000 A 
ENDROOT
TORSDOF 0
ENDMDL
