MODEL 1
REMARK minimizedAffinity 2.57119465
REMARK minimizedRMSD -1
REMARK  0 active torsions:
REMARK  status: ('A' for Active; 'I' for Inactive)
ROOT
ATOM      1  C1  BNZ d   1      -3.205  -5.073  -5.798  0.00  0.00     0.000 A 
ATOM      2  C2  BNZ d   1      -3.348  -3.717  -5.920  0.00  0.00     0.000 A 
ATOM      3  C3  BNZ d   1      -4.588  -3.146  -5.985  0.00  0.00     0.000 A 
ATOM      4  C4  BNZ d   1      -5.682  -3.935  -5.968  0.00  0.00     0.000 A 
ATOM      5  C5  BNZ d   1      -5.555  -5.305  -5.854  0.00  0.00     0.000 A 
ATOM      6  C6  BNZ d   1      -4.306  -5.872  -5.750  0.00  0.00     0.000 A 
ENDROOT
TORSDOF 0
ENDMDL
