MODEL 1
REMARK minimizedAffinity 5.55045843
REMARK minimizedRMSD -1
REMARK  0 active torsions:
REMARK  status: ('A' for Active; 'I' for Inactive)
ROOT
ATOM      1  C   UNL d   1       1.590   2.702   2.319  0.00  0.00    -0.002 A 
ATOM      2  C1  UNL d   1       2.898   3.070   2.600  0.00  0.00     0.010 A 
ATOM      3  C2  UNL d   1       3.960   2.532   1.870  0.00  0.00     0.041 A 
ATOM      4  C3  UNL d   1       3.682   1.611   0.841  0.00  0.00    -0.075 A 
ATOM      5  S   UNL d   1       4.822   0.824  -0.186  0.00  0.00     0.015 SA
ATOM      6  C4  UNL d   1       3.599  -0.018  -1.022  0.00  0.00     0.022 A 
ATOM      7  C5  UNL d   1       2.346   0.282  -0.543  0.00  0.00     0.026 A 
ATOM      8  C6  UNL d   1       2.373   1.226   0.538  0.00  0.00    -0.082 A 
ATOM      9  C7  UNL d   1       1.318   1.788   1.297  0.00  0.00     0.045 A 
ENDROOT
TORSDOF 0
ENDMDL
