MODEL 1
REMARK minimizedAffinity 12.465559
REMARK minimizedRMSD -1
REMARK  0 active torsions:
REMARK  status: ('A' for Active; 'I' for Inactive)
ROOT
ATOM      1  C   UNL d   1       1.113   0.125   3.430  0.00  0.00    -0.002 A 
ATOM      2  C1  UNL d   1       1.782   0.032   4.642  0.00  0.00     0.010 A 
ATOM      3  C2  UNL d   1       1.683  -1.122   5.422  0.00  0.00     0.041 A 
ATOM      4  C3  UNL d   1       0.894  -2.193   4.957  0.00  0.00    -0.075 A 
ATOM      5  S   UNL d   1       0.626  -3.704   5.742  0.00  0.00     0.015 SA
ATOM      6  C4  UNL d   1      -0.381  -4.263   4.486  0.00  0.00     0.022 A 
ATOM      7  C5  UNL d   1      -0.521  -3.332   3.484  0.00  0.00     0.026 A 
ATOM      8  C6  UNL d   1       0.211  -2.123   3.739  0.00  0.00    -0.082 A 
ATOM      9  C7  UNL d   1       0.331  -0.939   2.972  0.00  0.00     0.045 A 
ENDROOT
TORSDOF 0
ENDMDL
