MODEL 1
REMARK minimizedAffinity 8.64652348
REMARK minimizedRMSD -1
REMARK  0 active torsions:
REMARK  status: ('A' for Active; 'I' for Inactive)
ROOT
ATOM      1  C   UNL d   1       3.951  -3.039  -2.591  0.00  0.00    -0.002 A 
ATOM      2  C1  UNL d   1       3.117  -3.353  -1.527  0.00  0.00     0.010 A 
ATOM      3  C2  UNL d   1       2.821  -2.399  -0.551  0.00  0.00     0.041 A 
ATOM      4  C3  UNL d   1       3.381  -1.111  -0.665  0.00  0.00    -0.075 A 
ATOM      5  S   UNL d   1       3.158   0.218   0.411  0.00  0.00     0.015 SA
ATOM      6  C4  UNL d   1       4.164   1.234  -0.517  0.00  0.00     0.022 A 
ATOM      7  C5  UNL d   1       4.666   0.591  -1.624  0.00  0.00     0.026 A 
ATOM      8  C6  UNL d   1       4.223  -0.771  -1.727  0.00  0.00    -0.082 A 
ATOM      9  C7  UNL d   1       4.504  -1.760  -2.700  0.00  0.00     0.045 A 
ENDROOT
TORSDOF 0
ENDMDL
