MODEL 1
REMARK minimizedAffinity 16.8979244
REMARK minimizedRMSD -1
REMARK  0 active torsions:
REMARK  status: ('A' for Active; 'I' for Inactive)
ROOT
ATOM      1  C   UNL d   1      -0.705   2.233   1.340  0.00  0.00    -0.002 A 
ATOM      2  C1  UNL d   1       0.375   1.515   1.833  0.00  0.00     0.010 A 
ATOM      3  C2  UNL d   1       1.430   2.168   2.474  0.00  0.00     0.041 A 
ATOM      4  C3  UNL d   1       1.379   3.569   2.614  0.00  0.00    -0.075 A 
ATOM      5  S   UNL d   1       2.556   4.581   3.364  0.00  0.00     0.015 SA
ATOM      6  C4  UNL d   1       1.652   5.991   3.049  0.00  0.00     0.022 A 
ATOM      7  C5  UNL d   1       0.479   5.715   2.387  0.00  0.00     0.026 A 
ATOM      8  C6  UNL d   1       0.302   4.314   2.127  0.00  0.00    -0.082 A 
ATOM      9  C7  UNL d   1      -0.751   3.623   1.481  0.00  0.00     0.045 A 
ENDROOT
TORSDOF 0
ENDMDL
