MODEL 1
REMARK minimizedAffinity 15.4278088
REMARK minimizedRMSD -1
REMARK  0 active torsions:
REMARK  status: ('A' for Active; 'I' for Inactive)
ROOT
ATOM      1  C   UNL d   1       3.370  -2.463   0.085  0.00  0.00    -0.002 A 
ATOM      2  C1  UNL d   1       2.508  -1.903  -0.848  0.00  0.00     0.010 A 
ATOM      3  C2  UNL d   1       2.800  -0.670  -1.435  0.00  0.00     0.041 A 
ATOM      4  C3  UNL d   1       3.985  -0.003  -1.066  0.00  0.00    -0.075 A 
ATOM      5  S   UNL d   1       4.548   1.516  -1.654  0.00  0.00     0.015 SA
ATOM      6  C4  UNL d   1       5.947   1.458  -0.682  0.00  0.00     0.022 A 
ATOM      7  C5  UNL d   1       5.998   0.315   0.080  0.00  0.00     0.026 A 
ATOM      8  C6  UNL d   1       4.869  -0.547  -0.130  0.00  0.00    -0.082 A 
ATOM      9  C7  UNL d   1       4.544  -1.798   0.448  0.00  0.00     0.045 A 
ENDROOT
TORSDOF 0
ENDMDL
