MODEL 1
REMARK minimizedAffinity 21.452776
REMARK minimizedRMSD -1
REMARK  0 active torsions:
REMARK  status: ('A' for Active; 'I' for Inactive)
ROOT
ATOM      1  C   UNL d   1      -5.313   3.075  -4.772  0.00  0.00    -0.002 A 
ATOM      2  C1  UNL d   1      -5.837   3.709  -3.654  0.00  0.00     0.010 A 
ATOM      3  C2  UNL d   1      -5.922   3.039  -2.432  0.00  0.00     0.041 A 
ATOM      4  C3  UNL d   1      -5.467   1.709  -2.351  0.00  0.00    -0.075 A 
ATOM      5  S   UNL d   1      -5.472   0.691  -0.960  0.00  0.00     0.015 SA
ATOM      6  C4  UNL d   1      -4.779  -0.610  -1.816  0.00  0.00     0.022 A 
ATOM      7  C5  UNL d   1      -4.543  -0.293  -3.133  0.00  0.00     0.026 A 
ATOM      8  C6  UNL d   1      -4.935   1.049  -3.463  0.00  0.00    -0.082 A 
ATOM      9  C7  UNL d   1      -4.862   1.755  -4.688  0.00  0.00     0.045 A 
ENDROOT
TORSDOF 0
ENDMDL
