MODEL 1
REMARK minimizedAffinity 13.3946314
REMARK minimizedRMSD -1
REMARK  0 active torsions:
REMARK  status: ('A' for Active; 'I' for Inactive)
ROOT
ATOM      1  C   UNL d   1       4.754   1.292   0.085  0.00  0.00    -0.002 A 
ATOM      2  C1  UNL d   1       5.322   1.651  -1.129  0.00  0.00     0.010 A 
ATOM      3  C2  UNL d   1       5.127   0.864  -2.265  0.00  0.00     0.041 A 
ATOM      4  C3  UNL d   1       4.341  -0.301  -2.161  0.00  0.00    -0.075 A 
ATOM      5  S   UNL d   1       3.965  -1.417  -3.420  0.00  0.00     0.015 SA
ATOM      6  C4  UNL d   1       3.040  -2.397  -2.376  0.00  0.00     0.022 A 
ATOM      7  C5  UNL d   1       3.009  -1.900  -1.095  0.00  0.00     0.026 A 
ATOM      8  C6  UNL d   1       3.758  -0.683  -0.950  0.00  0.00    -0.082 A 
ATOM      9  C7  UNL d   1       3.975   0.135   0.185  0.00  0.00     0.045 A 
ENDROOT
TORSDOF 0
ENDMDL
