MODEL 1
REMARK minimizedAffinity 10.5526743
REMARK minimizedRMSD -1
REMARK  0 active torsions:
REMARK  status: ('A' for Active; 'I' for Inactive)
ROOT
ATOM      1  C   UNL d   1       4.140   5.998   5.749  0.00  0.00    -0.002 A 
ATOM      2  C1  UNL d   1       3.213   5.918   4.720  0.00  0.00     0.010 A 
ATOM      3  C2  UNL d   1       3.152   4.785   3.905  0.00  0.00     0.041 A 
ATOM      4  C3  UNL d   1       4.046   3.723   4.147  0.00  0.00    -0.075 A 
ATOM      5  S   UNL d   1       4.154   2.238   3.278  0.00  0.00     0.015 SA
ATOM      6  C4  UNL d   1       5.433   1.674   4.255  0.00  0.00     0.022 A 
ATOM      7  C5  UNL d   1       5.781   2.584   5.224  0.00  0.00     0.026 A 
ATOM      8  C6  UNL d   1       4.988   3.780   5.178  0.00  0.00    -0.082 A 
ATOM      9  C7  UNL d   1       5.025   4.942   5.986  0.00  0.00     0.045 A 
ENDROOT
TORSDOF 0
ENDMDL
