MODEL 1
REMARK minimizedAffinity 3.64453626
REMARK minimizedRMSD -1
REMARK  0 active torsions:
REMARK  status: ('A' for Active; 'I' for Inactive)
ROOT
ATOM      1  C   UNL d   1       5.354   0.992  -1.692  0.00  0.00    -0.002 A 
ATOM      2  C1  UNL d   1       4.258   1.117  -0.850  0.00  0.00     0.010 A 
ATOM      3  C2  UNL d   1       3.360   0.060  -0.691  0.00  0.00     0.041 A 
ATOM      4  C3  UNL d   1       3.585  -1.138  -1.397  0.00  0.00    -0.075 A 
ATOM      5  S   UNL d   1       2.620  -2.566  -1.357  0.00  0.00     0.015 SA
ATOM      6  C4  UNL d   1       3.640  -3.377  -2.455  0.00  0.00     0.022 A 
ATOM      7  C5  UNL d   1       4.697  -2.592  -2.853  0.00  0.00     0.026 A 
ATOM      8  C6  UNL d   1       4.683  -1.289  -2.250  0.00  0.00    -0.082 A 
ATOM      9  C7  UNL d   1       5.574  -0.198  -2.391  0.00  0.00     0.045 A 
ENDROOT
TORSDOF 0
ENDMDL
