MODEL 1
REMARK minimizedAffinity 11.9293251
REMARK minimizedRMSD -1
REMARK  0 active torsions:
REMARK  status: ('A' for Active; 'I' for Inactive)
ROOT
ATOM      1  C   UNL d   1      -0.558  -1.890  -1.785  0.00  0.00    -0.002 A 
ATOM      2  C1  UNL d   1       0.351  -2.570  -0.987  0.00  0.00     0.010 A 
ATOM      3  C2  UNL d   1       0.994  -1.921   0.069  0.00  0.00     0.041 A 
ATOM      4  C3  UNL d   1       0.703  -0.565   0.314  0.00  0.00    -0.075 A 
ATOM      5  S   UNL d   1       1.367   0.434   1.552  0.00  0.00     0.015 SA
ATOM      6  C4  UNL d   1       0.459   1.787   1.051  0.00  0.00     0.022 A 
ATOM      7  C5  UNL d   1      -0.337   1.501  -0.033  0.00  0.00     0.026 A 
ATOM      8  C6  UNL d   1      -0.210   0.141  -0.475  0.00  0.00    -0.082 A 
ATOM      9  C7  UNL d   1      -0.844  -0.544  -1.539  0.00  0.00     0.045 A 
ENDROOT
TORSDOF 0
ENDMDL
