MODEL 1
REMARK minimizedAffinity 8.25884724
REMARK minimizedRMSD -1
REMARK  0 active torsions:
REMARK  status: ('A' for Active; 'I' for Inactive)
ROOT
ATOM      1  C1  DEN d   1       1.068   3.798   0.750  0.00  0.00     0.130 A 
ATOM      2  C2  DEN d   1      -0.258   3.452   0.245  0.00  0.00    -0.031 A 
ATOM      3  C3  DEN d   1      -0.707   2.230   0.940  0.00  0.00     0.027 A 
ATOM      4  C4  DEN d   1       0.513   0.848   2.744  0.00  0.00     0.027 A 
ATOM      5  C5  DEN d   1       1.668   0.742   3.487  0.00  0.00    -0.003 A 
ATOM      6  C6  DEN d   1       2.709   1.621   3.347  0.00  0.00     0.001 A 
ATOM      7  C7  DEN d   1       2.598   2.671   2.474  0.00  0.00     0.017 A 
ATOM      8  C8  DEN d   1       1.440   2.780   1.716  0.00  0.00    -0.094 A 
ATOM      9  C9  DEN d   1       0.393   1.889   1.882  0.00  0.00    -0.072 A 
ENDROOT
TORSDOF 0
ENDMDL
