MODEL 1
REMARK minimizedAffinity 2.75659704
REMARK minimizedRMSD -1
REMARK  0 active torsions:
REMARK  status: ('A' for Active; 'I' for Inactive)
ROOT
ATOM      1  C1  DEN d   1       2.014   1.096   0.408  0.00  0.00     0.130 A 
ATOM      2  C2  DEN d   1       1.179  -0.070   0.685  0.00  0.00    -0.031 A 
ATOM      3  C3  DEN d   1      -0.227   0.307   0.441  0.00  0.00     0.027 A 
ATOM      4  C4  DEN d   1      -1.188   2.570  -0.341  0.00  0.00     0.027 A 
ATOM      5  C5  DEN d   1      -0.870   3.863  -0.693  0.00  0.00    -0.003 A 
ATOM      6  C6  DEN d   1       0.417   4.330  -0.671  0.00  0.00     0.001 A 
ATOM      7  C7  DEN d   1       1.440   3.485  -0.331  0.00  0.00     0.017 A 
ATOM      8  C8  DEN d   1       1.127   2.182   0.033  0.00  0.00    -0.094 A 
ATOM      9  C9  DEN d   1      -0.179   1.725  -0.009  0.00  0.00    -0.072 A 
ENDROOT
TORSDOF 0
ENDMDL
