MODEL 1
REMARK minimizedAffinity 2.34927082
REMARK minimizedRMSD -1
REMARK  0 active torsions:
REMARK  status: ('A' for Active; 'I' for Inactive)
ROOT
ATOM      1  C1  DEN d   1       0.727   3.228   0.477  0.00  0.00     0.130 A 
ATOM      2  C2  DEN d   1       1.002   2.084  -0.388  0.00  0.00    -0.031 A 
ATOM      3  C3  DEN d   1      -0.291   1.516  -0.819  0.00  0.00     0.027 A 
ATOM      4  C4  DEN d   1      -2.680   2.297  -0.239  0.00  0.00     0.027 A 
ATOM      5  C5  DEN d   1      -3.419   3.218   0.470  0.00  0.00    -0.003 A 
ATOM      6  C6  DEN d   1      -2.833   4.178   1.252  0.00  0.00     0.001 A 
ATOM      7  C7  DEN d   1      -1.467   4.267   1.307  0.00  0.00     0.017 A 
ATOM      8  C8  DEN d   1      -0.715   3.337   0.601  0.00  0.00    -0.094 A 
ATOM      9  C9  DEN d   1      -1.326   2.382  -0.193  0.00  0.00    -0.072 A 
ENDROOT
TORSDOF 0
ENDMDL
