MODEL 1
REMARK minimizedAffinity -0.390962213
REMARK minimizedRMSD -1
REMARK  0 active torsions:
REMARK  status: ('A' for Active; 'I' for Inactive)
ROOT
ATOM      1  C1  DEN d   1       1.430   4.680  -0.687  0.00  0.00     0.130 A 
ATOM      2  C2  DEN d   1       0.524   5.679  -1.247  0.00  0.00    -0.031 A 
ATOM      3  C3  DEN d   1      -0.822   5.078  -1.330  0.00  0.00     0.027 A 
ATOM      4  C4  DEN d   1      -1.588   2.712  -0.646  0.00  0.00     0.027 A 
ATOM      5  C5  DEN d   1      -1.175   1.503  -0.132  0.00  0.00    -0.003 A 
ATOM      6  C6  DEN d   1       0.132   1.259   0.199  0.00  0.00     0.001 A 
ATOM      7  C7  DEN d   1       1.064   2.254   0.061  0.00  0.00     0.017 A 
ATOM      8  C8  DEN d   1       0.656   3.473  -0.463  0.00  0.00    -0.094 A 
ATOM      9  C9  DEN d   1      -0.672   3.704  -0.780  0.00  0.00    -0.072 A 
ENDROOT
TORSDOF 0
ENDMDL
