MODEL 1
REMARK minimizedAffinity 14.2874489
REMARK minimizedRMSD -1
REMARK  0 active torsions:
REMARK  status: ('A' for Active; 'I' for Inactive)
ROOT
ATOM      1  C1  DEN d   1       1.489   2.984   0.219  0.00  0.00     0.130 A 
ATOM      2  C2  DEN d   1       0.513   2.038   0.754  0.00  0.00    -0.031 A 
ATOM      3  C3  DEN d   1      -0.834   2.507   0.370  0.00  0.00     0.027 A 
ATOM      4  C4  DEN d   1      -1.499   4.590  -0.997  0.00  0.00     0.027 A 
ATOM      5  C5  DEN d   1      -1.020   5.701  -1.656  0.00  0.00    -0.003 A 
ATOM      6  C6  DEN d   1       0.316   5.999  -1.706  0.00  0.00     0.001 A 
ATOM      7  C7  DEN d   1       1.223   5.153  -1.125  0.00  0.00     0.017 A 
ATOM      8  C8  DEN d   1       0.747   4.035  -0.453  0.00  0.00    -0.094 A 
ATOM      9  C9  DEN d   1      -0.607   3.744  -0.424  0.00  0.00    -0.072 A 
ENDROOT
TORSDOF 0
ENDMDL
