MODEL 1
REMARK minimizedAffinity 11.2291622
REMARK minimizedRMSD -1
REMARK  0 active torsions:
REMARK  status: ('A' for Active; 'I' for Inactive)
ROOT
ATOM      1  C1  DEN d   1      -6.000   3.466  -3.862  0.00  0.00     0.130 A 
ATOM      2  C2  DEN d   1      -4.988   4.468  -4.184  0.00  0.00    -0.031 A 
ATOM      3  C3  DEN d   1      -3.663   3.898  -3.868  0.00  0.00     0.027 A 
ATOM      4  C4  DEN d   1      -3.083   1.570  -2.920  0.00  0.00     0.027 A 
ATOM      5  C5  DEN d   1      -3.607   0.376  -2.477  0.00  0.00    -0.003 A 
ATOM      6  C6  DEN d   1      -4.956   0.142  -2.433  0.00  0.00     0.001 A 
ATOM      7  C7  DEN d   1      -5.826   1.101  -2.881  0.00  0.00     0.017 A 
ATOM      8  C8  DEN d   1      -5.305   2.310  -3.323  0.00  0.00    -0.094 A 
ATOM      9  C9  DEN d   1      -3.938   2.523  -3.371  0.00  0.00    -0.072 A 
ENDROOT
TORSDOF 0
ENDMDL
