MODEL 1
REMARK minimizedAffinity 16.2918282
REMARK minimizedRMSD -1
REMARK  0 active torsions:
REMARK  status: ('A' for Active; 'I' for Inactive)
ROOT
ATOM      1  C1  DEN d   1      -4.759   5.991  -4.845  0.00  0.00     0.130 A 
ATOM      2  C2  DEN d   1      -5.998   5.332  -5.249  0.00  0.00    -0.031 A 
ATOM      3  C3  DEN d   1      -5.999   3.972  -4.673  0.00  0.00     0.027 A 
ATOM      4  C4  DEN d   1      -4.216   2.830  -3.201  0.00  0.00     0.027 A 
ATOM      5  C5  DEN d   1      -2.985   2.988  -2.603  0.00  0.00    -0.003 A 
ATOM      6  C6  DEN d   1      -2.250   4.136  -2.737  0.00  0.00     0.001 A 
ATOM      7  C7  DEN d   1      -2.760   5.189  -3.450  0.00  0.00     0.017 A 
ATOM      8  C8  DEN d   1      -3.997   5.035  -4.062  0.00  0.00    -0.094 A 
ATOM      9  C9  DEN d   1      -4.730   3.871  -3.904  0.00  0.00    -0.072 A 
ENDROOT
TORSDOF 0
ENDMDL
