MODEL 1
REMARK minimizedAffinity 4.10297537
REMARK minimizedRMSD -1
REMARK  0 active torsions:
REMARK  status: ('A' for Active; 'I' for Inactive)
ROOT
ATOM      1  C1  DEN d   1      -3.052   1.834  -2.997  0.00  0.00     0.130 A 
ATOM      2  C2  DEN d   1      -3.966   0.699  -2.900  0.00  0.00    -0.031 A 
ATOM      3  C3  DEN d   1      -5.286   1.132  -3.401  0.00  0.00     0.027 A 
ATOM      4  C4  DEN d   1      -5.998   3.436  -4.316  0.00  0.00     0.027 A 
ATOM      5  C5  DEN d   1      -5.572   4.719  -4.582  0.00  0.00    -0.003 A 
ATOM      6  C6  DEN d   1      -4.296   5.136  -4.309  0.00  0.00     0.001 A 
ATOM      7  C7  DEN d   1      -3.387   4.249  -3.795  0.00  0.00     0.017 A 
ATOM      8  C8  DEN d   1      -3.811   2.956  -3.517  0.00  0.00    -0.094 A 
ATOM      9  C9  DEN d   1      -5.102   2.550  -3.811  0.00  0.00    -0.072 A 
ENDROOT
TORSDOF 0
ENDMDL
