MODEL 1
REMARK minimizedAffinity -1.87070513
REMARK minimizedRMSD -1
REMARK  2 active torsions:
REMARK  status: ('A' for Active; 'I' for Inactive)
REMARK    1  A    between atoms: C2'_3  and  C1'_4 
REMARK    2  A    between atoms: C1'_4  and  C1_5 
ROOT
ATOM      1  C1  I4B d   1       1.636  -0.065   0.859  0.00  0.00    -0.075 A 
ATOM      2  C2  I4B d   1       1.979   1.263   0.797  0.00  0.00     0.003 A 
ATOM      3  C3  I4B d   1       1.062   2.212   0.283  0.00  0.00     0.002 A 
ATOM      4  C4  I4B d   1      -0.158   1.786  -0.201  0.00  0.00    -0.004 A 
ATOM      5  C5  I4B d   1      -0.512   0.443  -0.117  0.00  0.00     0.002 A 
ATOM      6  C6  I4B d   1       0.385  -0.487   0.428  0.00  0.00     0.003 A 
ENDROOT
BRANCH   1   7
ATOM      7  C1' I4B d   1       2.640  -1.045   1.377  0.00  0.00     0.060 C 
BRANCH   7   8
ATOM      8  C2' I4B d   1       3.803  -1.078   0.406  0.00  0.00    -0.013 C 
ATOM      9  C4' I4B d   1       5.018  -1.712   1.032  0.00  0.00     0.013 C 
ATOM     10  C3' I4B d   1       3.367  -1.833  -0.814  0.00  0.00     0.013 C 
ENDBRANCH   7   8
ENDBRANCH   1   7
TORSDOF 2
ENDMDL
