MODEL 1
REMARK minimizedAffinity -4.26978064
REMARK minimizedRMSD -1
REMARK  2 active torsions:
REMARK  status: ('A' for Active; 'I' for Inactive)
REMARK    1  A    between atoms: C2'_3  and  C1'_4 
REMARK    2  A    between atoms: C1'_4  and  C1_5 
ROOT
ATOM      1  C1  I4B d   1       1.294  -0.977   0.187  0.00  0.00    -0.075 A 
ATOM      2  C2  I4B d   1       0.485   0.131   0.141  0.00  0.00     0.003 A 
ATOM      3  C3  I4B d   1      -0.510   0.245  -0.860  0.00  0.00     0.002 A 
ATOM      4  C4  I4B d   1      -0.628  -0.741  -1.818  0.00  0.00    -0.004 A 
ATOM      5  C5  I4B d   1       0.177  -1.874  -1.756  0.00  0.00     0.002 A 
ATOM      6  C6  I4B d   1       1.136  -2.000  -0.740  0.00  0.00     0.003 A 
ENDROOT
BRANCH   1   7
ATOM      7  C1' I4B d   1       2.356  -1.051   1.237  0.00  0.00     0.060 C 
BRANCH   7   8
ATOM      8  C2' I4B d   1       3.519  -0.190   0.786  0.00  0.00    -0.013 C 
ATOM      9  C4' I4B d   1       3.902  -0.495  -0.639  0.00  0.00     0.013 C 
ATOM     10  C3' I4B d   1       3.120   1.247   0.943  0.00  0.00     0.013 C 
ENDBRANCH   7   8
ENDBRANCH   1   7
TORSDOF 2
ENDMDL
