MODEL 1
REMARK minimizedAffinity -1.16383755
REMARK minimizedRMSD -1
REMARK  2 active torsions:
REMARK  status: ('A' for Active; 'I' for Inactive)
REMARK    1  A    between atoms: C2'_3  and  C1'_4 
REMARK    2  A    between atoms: C1'_4  and  C1_5 
ROOT
ATOM      1  C1  I4B d   1       0.983  -1.014  -0.224  0.00  0.00    -0.075 A 
ATOM      2  C2  I4B d   1       1.310  -0.300   0.902  0.00  0.00     0.003 A 
ATOM      3  C3  I4B d   1       2.416  -0.688   1.696  0.00  0.00     0.002 A 
ATOM      4  C4  I4B d   1       3.132  -1.819   1.358  0.00  0.00    -0.004 A 
ATOM      5  C5  I4B d   1       2.813  -2.528   0.204  0.00  0.00     0.002 A 
ATOM      6  C6  I4B d   1       1.739  -2.116  -0.599  0.00  0.00     0.003 A 
ENDROOT
BRANCH   1   7
ATOM      7  C1' I4B d   1      -0.211  -0.595  -1.022  0.00  0.00     0.060 C 
BRANCH   7   8
ATOM      8  C2' I4B d   1      -0.914   0.512  -0.263  0.00  0.00    -0.013 C 
ATOM      9  C4' I4B d   1      -0.344   1.861  -0.613  0.00  0.00     0.013 C 
ATOM     10  C3' I4B d   1      -2.376   0.441  -0.589  0.00  0.00     0.013 C 
ENDBRANCH   7   8
ENDBRANCH   1   7
TORSDOF 2
ENDMDL
