MODEL 1
REMARK minimizedAffinity -3.02083111
REMARK minimizedRMSD -1
REMARK  2 active torsions:
REMARK  status: ('A' for Active; 'I' for Inactive)
REMARK    1  A    between atoms: C2'_3  and  C1'_4 
REMARK    2  A    between atoms: C1'_4  and  C1_5 
ROOT
ATOM      1  C1  I4B d   1      -0.355  -0.179   0.024  0.00  0.00    -0.075 A 
ATOM      2  C2  I4B d   1      -0.331  -1.361  -0.673  0.00  0.00     0.003 A 
ATOM      3  C3  I4B d   1       0.767  -2.245  -0.540  0.00  0.00     0.002 A 
ATOM      4  C4  I4B d   1       1.835  -1.887   0.257  0.00  0.00    -0.004 A 
ATOM      5  C5  I4B d   1       1.799  -0.699   0.981  0.00  0.00     0.002 A 
ATOM      6  C6  I4B d   1       0.692   0.155   0.874  0.00  0.00     0.003 A 
ENDROOT
BRANCH   1   7
ATOM      7  C1' I4B d   1      -1.515   0.747  -0.165  0.00  0.00     0.060 C 
BRANCH   7   8
ATOM      8  C2' I4B d   1      -2.639   0.277   0.735  0.00  0.00    -0.013 C 
ATOM      9  C4' I4B d   1      -2.781   1.168   1.940  0.00  0.00     0.013 C 
ATOM     10  C3' I4B d   1      -3.901   0.254  -0.074  0.00  0.00     0.013 C 
ENDBRANCH   7   8
ENDBRANCH   1   7
TORSDOF 2
ENDMDL
