MODEL 1
REMARK minimizedAffinity -4.09772968
REMARK minimizedRMSD -1
REMARK  2 active torsions:
REMARK  status: ('A' for Active; 'I' for Inactive)
REMARK    1  A    between atoms: C2'_3  and  C1'_4 
REMARK    2  A    between atoms: C1'_4  and  C1_5 
ROOT
ATOM      1  C1  I4B d   1      -0.489   0.331  -0.079  0.00  0.00    -0.075 A 
ATOM      2  C2  I4B d   1      -0.393  -0.628  -1.056  0.00  0.00     0.003 A 
ATOM      3  C3  I4B d   1       0.652  -1.582  -1.019  0.00  0.00     0.002 A 
ATOM      4  C4  I4B d   1       1.602  -1.511  -0.021  0.00  0.00    -0.004 A 
ATOM      5  C5  I4B d   1       1.490  -0.553   0.983  0.00  0.00     0.002 A 
ATOM      6  C6  I4B d   1       0.431   0.367   0.961  0.00  0.00     0.003 A 
ENDROOT
BRANCH   1   7
ATOM      7  C1' I4B d   1      -1.586   1.344  -0.167  0.00  0.00     0.060 C 
BRANCH   7   8
ATOM      8  C2' I4B d   1      -2.672   0.943   0.811  0.00  0.00    -0.013 C 
ATOM      9  C4' I4B d   1      -2.852   1.985   1.883  0.00  0.00     0.013 C 
ATOM     10  C3' I4B d   1      -3.940   0.738   0.036  0.00  0.00     0.013 C 
ENDBRANCH   7   8
ENDBRANCH   1   7
TORSDOF 2
ENDMDL
