MODEL 1
REMARK minimizedAffinity -4.01346397
REMARK minimizedRMSD -1
REMARK  2 active torsions:
REMARK  status: ('A' for Active; 'I' for Inactive)
REMARK    1  A    between atoms: C2'_3  and  C1'_4 
REMARK    2  A    between atoms: C1'_4  and  C1_5 
ROOT
ATOM      1  C1  I4B d   1      -0.671   0.519  -0.382  0.00  0.00    -0.075 A 
ATOM      2  C2  I4B d   1      -0.640  -0.686  -1.039  0.00  0.00     0.003 A 
ATOM      3  C3  I4B d   1       0.499  -1.522  -0.941  0.00  0.00     0.002 A 
ATOM      4  C4  I4B d   1       1.596  -1.095  -0.221  0.00  0.00    -0.004 A 
ATOM      5  C5  I4B d   1       1.553   0.116   0.464  0.00  0.00     0.002 A 
ATOM      6  C6  I4B d   1       0.409   0.923   0.393  0.00  0.00     0.003 A 
ENDROOT
BRANCH   1   7
ATOM      7  C1' I4B d   1      -1.876   1.392  -0.535  0.00  0.00     0.060 C 
BRANCH   7   8
ATOM      8  C2' I4B d   1      -2.947   0.878   0.405  0.00  0.00    -0.013 C 
ATOM      9  C4' I4B d   1      -3.476   1.981   1.284  0.00  0.00     0.013 C 
ATOM     10  C3' I4B d   1      -4.040   0.274  -0.425  0.00  0.00     0.013 C 
ENDBRANCH   7   8
ENDBRANCH   1   7
TORSDOF 2
ENDMDL
