MODEL 1
REMARK minimizedAffinity 8.9381628
REMARK minimizedRMSD -1
REMARK  0 active torsions:
REMARK  status: ('A' for Active; 'I' for Inactive)
ROOT
ATOM      1  C1  BNZ d   1       5.998   4.927   5.236  0.00  0.00     0.000 A 
ATOM      2  C2  BNZ d   1       5.993   4.768   3.876  0.00  0.00     0.000 A 
ATOM      3  C3  BNZ d   1       4.958   5.242   3.119  0.00  0.00     0.000 A 
ATOM      4  C4  BNZ d   1       3.912   5.838   3.726  0.00  0.00     0.000 A 
ATOM      5  C5  BNZ d   1       3.897   5.998   5.097  0.00  0.00     0.000 A 
ATOM      6  C6  BNZ d   1       4.959   5.554   5.852  0.00  0.00     0.000 A 
ENDROOT
TORSDOF 0
ENDMDL
