MODEL 1
REMARK minimizedAffinity 9.93676376
REMARK minimizedRMSD -1
REMARK  0 active torsions:
REMARK  status: ('A' for Active; 'I' for Inactive)
ROOT
ATOM      1  C1  BNZ d   1      -1.324  -3.653   1.510  0.00  0.00     0.000 A 
ATOM      2  C2  BNZ d   1      -0.819  -4.820   2.020  0.00  0.00     0.000 A 
ATOM      3  C3  BNZ d   1      -1.498  -5.997   1.878  0.00  0.00     0.000 A 
ATOM      4  C4  BNZ d   1      -2.699  -6.000   1.264  0.00  0.00     0.000 A 
ATOM      5  C5  BNZ d   1      -3.226  -4.830   0.753  0.00  0.00     0.000 A 
ATOM      6  C6  BNZ d   1      -2.521  -3.654   0.863  0.00  0.00     0.000 A 
ENDROOT
TORSDOF 0
ENDMDL
