MODEL 1
REMARK minimizedAffinity 3.32389498
REMARK minimizedRMSD -1
REMARK  0 active torsions:
REMARK  status: ('A' for Active; 'I' for Inactive)
ROOT
ATOM      1  C1  BNZ d   1       0.000  -0.750   4.224  0.00  0.00     0.000 A 
ATOM      2  C2  BNZ d   1       0.802   0.314   3.906  0.00  0.00     0.000 A 
ATOM      3  C3  BNZ d   1       0.843   0.803   2.631  0.00  0.00     0.000 A 
ATOM      4  C4  BNZ d   1       0.114   0.204   1.667  0.00  0.00     0.000 A 
ATOM      5  C5  BNZ d   1      -0.692  -0.875   1.969  0.00  0.00     0.000 A 
ATOM      6  C6  BNZ d   1      -0.761  -1.341   3.262  0.00  0.00     0.000 A 
ENDROOT
TORSDOF 0
ENDMDL
