MODEL 1
REMARK minimizedAffinity 6.1230011
REMARK minimizedRMSD -1
REMARK  0 active torsions:
REMARK  status: ('A' for Active; 'I' for Inactive)
ROOT
ATOM      1  C1  BNZ d   1       3.792   5.213  -4.620  0.00  0.00     0.000 A 
ATOM      2  C2  BNZ d   1       3.324   6.000  -5.639  0.00  0.00     0.000 A 
ATOM      3  C3  BNZ d   1       1.999   5.998  -5.972  0.00  0.00     0.000 A 
ATOM      4  C4  BNZ d   1       1.150   5.182  -5.315  0.00  0.00     0.000 A 
ATOM      5  C5  BNZ d   1       1.608   4.375  -4.292  0.00  0.00     0.000 A 
ATOM      6  C6  BNZ d   1       2.936   4.408  -3.933  0.00  0.00     0.000 A 
ENDROOT
TORSDOF 0
ENDMDL
