MODEL 1
REMARK minimizedAffinity 3.96711326
REMARK minimizedRMSD -1
REMARK  0 active torsions:
REMARK  status: ('A' for Active; 'I' for Inactive)
ROOT
ATOM      1  C1  BNZ d   1      -3.277  -3.159  -1.838  0.00  0.00     0.000 A 
ATOM      2  C2  BNZ d   1      -2.870  -3.421  -3.118  0.00  0.00     0.000 A 
ATOM      3  C3  BNZ d   1      -1.826  -2.737  -3.675  0.00  0.00     0.000 A 
ATOM      4  C4  BNZ d   1      -1.217  -1.765  -2.966  0.00  0.00     0.000 A 
ATOM      5  C5  BNZ d   1      -1.622  -1.482  -1.676  0.00  0.00     0.000 A 
ATOM      6  C6  BNZ d   1      -2.648  -2.200  -1.106  0.00  0.00     0.000 A 
ENDROOT
TORSDOF 0
ENDMDL
