MODEL 1
REMARK minimizedAffinity 6.36114073
REMARK minimizedRMSD -1
REMARK  0 active torsions:
REMARK  status: ('A' for Active; 'I' for Inactive)
ROOT
ATOM      1  C1  BNZ d   1      -2.677  -2.187  -1.287  0.00  0.00     0.000 A 
ATOM      2  C2  BNZ d   1      -2.606  -2.524  -2.613  0.00  0.00     0.000 A 
ATOM      3  C3  BNZ d   1      -1.420  -2.906  -3.175  0.00  0.00     0.000 A 
ATOM      4  C4  BNZ d   1      -0.301  -2.912  -2.423  0.00  0.00     0.000 A 
ATOM      5  C5  BNZ d   1      -0.354  -2.566  -1.088  0.00  0.00     0.000 A 
ATOM      6  C6  BNZ d   1      -1.556  -2.219  -0.515  0.00  0.00     0.000 A 
ENDROOT
TORSDOF 0
ENDMDL
