MODEL 1
REMARK minimizedAffinity 5.70556545
REMARK minimizedRMSD -1
REMARK  0 active torsions:
REMARK  status: ('A' for Active; 'I' for Inactive)
ROOT
ATOM      1  C1  BNZ d   1       1.948  -0.416   1.210  0.00  0.00     0.000 A 
ATOM      2  C2  BNZ d   1       3.297  -0.608   1.072  0.00  0.00     0.000 A 
ATOM      3  C3  BNZ d   1       4.025  -1.197   2.067  0.00  0.00     0.000 A 
ATOM      4  C4  BNZ d   1       3.412  -1.557   3.213  0.00  0.00     0.000 A 
ATOM      5  C5  BNZ d   1       2.055  -1.362   3.371  0.00  0.00     0.000 A 
ATOM      6  C6  BNZ d   1       1.318  -0.804   2.352  0.00  0.00     0.000 A 
ENDROOT
TORSDOF 0
ENDMDL
