MODEL 1
REMARK minimizedAffinity -0.406664163
REMARK minimizedRMSD -1
REMARK  0 active torsions:
REMARK  status: ('A' for Active; 'I' for Inactive)
ROOT
ATOM      1  C1  BNZ d   1       4.895   2.325  -0.188  0.00  0.00     0.000 A 
ATOM      2  C2  BNZ d   1       5.860   1.444  -0.595  0.00  0.00     0.000 A 
ATOM      3  C3  BNZ d   1       5.998   0.227   0.013  0.00  0.00     0.000 A 
ATOM      4  C4  BNZ d   1       5.198  -0.090   1.051  0.00  0.00     0.000 A 
ATOM      5  C5  BNZ d   1       4.226   0.792   1.479  0.00  0.00     0.000 A 
ATOM      6  C6  BNZ d   1       4.065   2.000   0.840  0.00  0.00     0.000 A 
ENDROOT
TORSDOF 0
ENDMDL
