MODEL 1
REMARK minimizedAffinity 4.18346643
REMARK minimizedRMSD -1
REMARK  0 active torsions:
REMARK  status: ('A' for Active; 'I' for Inactive)
ROOT
ATOM      1  C1  BNZ d   1       4.487   1.108  -4.116  0.00  0.00     0.000 A 
ATOM      2  C2  BNZ d   1       3.453   0.313  -4.534  0.00  0.00     0.000 A 
ATOM      3  C3  BNZ d   1       3.681  -0.964  -4.963  0.00  0.00     0.000 A 
ATOM      4  C4  BNZ d   1       4.945  -1.432  -5.010  0.00  0.00     0.000 A 
ATOM      5  C5  BNZ d   1       6.000  -0.640  -4.601  0.00  0.00     0.000 A 
ATOM      6  C6  BNZ d   1       5.762   0.632  -4.133  0.00  0.00     0.000 A 
ENDROOT
TORSDOF 0
ENDMDL
