MODEL 1
REMARK minimizedAffinity 3.16438556
REMARK minimizedRMSD -1
REMARK  0 active torsions:
REMARK  status: ('A' for Active; 'I' for Inactive)
ROOT
ATOM      1  C1  BNZ d   1       2.985   0.998   1.610  0.00  0.00     0.000 A 
ATOM      2  C2  BNZ d   1       4.090   1.201   0.828  0.00  0.00     0.000 A 
ATOM      3  C3  BNZ d   1       5.185   0.390   0.938  0.00  0.00     0.000 A 
ATOM      4  C4  BNZ d   1       5.188  -0.598   1.857  0.00  0.00     0.000 A 
ATOM      5  C5  BNZ d   1       4.085  -0.810   2.659  0.00  0.00     0.000 A 
ATOM      6  C6  BNZ d   1       2.970  -0.015   2.519  0.00  0.00     0.000 A 
ENDROOT
TORSDOF 0
ENDMDL
