MODEL 1
REMARK minimizedAffinity 6.4603982
REMARK minimizedRMSD -1
REMARK  0 active torsions:
REMARK  status: ('A' for Active; 'I' for Inactive)
ROOT
ATOM      1  C1  BNZ d   1       3.540   5.995  -4.854  0.00  0.00     0.000 A 
ATOM      2  C2  BNZ d   1       3.629   5.215  -3.732  0.00  0.00     0.000 A 
ATOM      3  C3  BNZ d   1       3.193   3.919  -3.744  0.00  0.00     0.000 A 
ATOM      4  C4  BNZ d   1       2.633   3.419  -4.863  0.00  0.00     0.000 A 
ATOM      5  C5  BNZ d   1       2.527   4.196  -6.000  0.00  0.00     0.000 A 
ATOM      6  C6  BNZ d   1       3.002   5.487  -5.996  0.00  0.00     0.000 A 
ENDROOT
TORSDOF 0
ENDMDL
