MODEL 1
REMARK minimizedAffinity 6.94256973
REMARK minimizedRMSD -1
REMARK  0 active torsions:
REMARK  status: ('A' for Active; 'I' for Inactive)
ROOT
ATOM      1  C1  BNZ d   1       1.820   4.883  -5.999  0.00  0.00     0.000 A 
ATOM      2  C2  BNZ d   1       1.843   3.823  -5.132  0.00  0.00     0.000 A 
ATOM      3  C3  BNZ d   1       2.625   3.854  -4.011  0.00  0.00     0.000 A 
ATOM      4  C4  BNZ d   1       3.411   4.924  -3.780  0.00  0.00     0.000 A 
ATOM      5  C5  BNZ d   1       3.407   5.996  -4.650  0.00  0.00     0.000 A 
ATOM      6  C6  BNZ d   1       2.589   5.979  -5.757  0.00  0.00     0.000 A 
ENDROOT
TORSDOF 0
ENDMDL
