MODEL 1
REMARK minimizedAffinity 9.49623203
REMARK minimizedRMSD -1
REMARK  0 active torsions:
REMARK  status: ('A' for Active; 'I' for Inactive)
ROOT
ATOM      1  C1  BNZ d   1       2.193   4.233  -3.924  0.00  0.00     0.000 A 
ATOM      2  C2  BNZ d   1       1.295   4.255  -4.957  0.00  0.00     0.000 A 
ATOM      3  C3  BNZ d   1       1.448   5.126  -5.999  0.00  0.00     0.000 A 
ATOM      4  C4  BNZ d   1       2.476   5.999  -5.988  0.00  0.00     0.000 A 
ATOM      5  C5  BNZ d   1       3.385   5.995  -4.949  0.00  0.00     0.000 A 
ATOM      6  C6  BNZ d   1       3.249   5.091  -3.921  0.00  0.00     0.000 A 
ENDROOT
TORSDOF 0
ENDMDL
