MODEL 1
REMARK minimizedAffinity 7.18979645
REMARK minimizedRMSD -1
REMARK  0 active torsions:
REMARK  status: ('A' for Active; 'I' for Inactive)
ROOT
ATOM      1  C1  BNZ d   1       2.911   4.878  -3.700  0.00  0.00     0.000 A 
ATOM      2  C2  BNZ d   1       2.231   3.753  -4.083  0.00  0.00     0.000 A 
ATOM      3  C3  BNZ d   1       1.509   3.734  -5.244  0.00  0.00     0.000 A 
ATOM      4  C4  BNZ d   1       1.435   4.849  -5.998  0.00  0.00     0.000 A 
ATOM      5  C5  BNZ d   1       2.107   5.994  -5.620  0.00  0.00     0.000 A 
ATOM      6  C6  BNZ d   1       2.865   5.999  -4.471  0.00  0.00     0.000 A 
ENDROOT
TORSDOF 0
ENDMDL
