MODEL 1
REMARK minimizedAffinity 8.54908466
REMARK minimizedRMSD -1
REMARK  0 active torsions:
REMARK  status: ('A' for Active; 'I' for Inactive)
ROOT
ATOM      1  C1  BNZ d   1       4.807   0.720  -4.834  0.00  0.00     0.000 A 
ATOM      2  C2  BNZ d   1       5.982   0.766  -4.134  0.00  0.00     0.000 A 
ATOM      3  C3  BNZ d   1       5.991   1.059  -2.799  0.00  0.00     0.000 A 
ATOM      4  C4  BNZ d   1       4.830   1.345  -2.176  0.00  0.00     0.000 A 
ATOM      5  C5  BNZ d   1       3.637   1.312  -2.870  0.00  0.00     0.000 A 
ATOM      6  C6  BNZ d   1       3.628   0.978  -4.205  0.00  0.00     0.000 A 
ENDROOT
TORSDOF 0
ENDMDL
