MODEL 1
REMARK minimizedAffinity 0.530388594
REMARK minimizedRMSD -1
REMARK  0 active torsions:
REMARK  status: ('A' for Active; 'I' for Inactive)
ROOT
ATOM      1  C   UNL d   1       0.214   1.664  -1.453  0.00  0.00     0.020 A 
ATOM      2  C1  UNL d   1      -0.274   1.016  -0.319  0.00  0.00     0.020 A 
ATOM      3  C2  UNL d   1       0.187   1.382   0.947  0.00  0.00     0.034 A 
ATOM      4  C3  UNL d   1       1.140   2.399   1.083  0.00  0.00     0.017 A 
ATOM      5  C4  UNL d   1       1.629   3.049  -0.056  0.00  0.00     0.017 A 
ATOM      6  C5  UNL d   1       1.163   2.678  -1.322  0.00  0.00     0.034 A 
ATOM      7 Cl   UNL d   1       2.805   4.312   0.031  0.00  0.00    -0.070 Cl
ATOM      8 Cl1  UNL d   1       1.665   2.800   2.679  0.00  0.00    -0.070 Cl
ENDROOT
TORSDOF 0
ENDMDL
