MODEL 1
REMARK minimizedAffinity 1.98350632
REMARK minimizedRMSD -1
REMARK  0 active torsions:
REMARK  status: ('A' for Active; 'I' for Inactive)
ROOT
ATOM      1  C   UNL d   1       1.743   2.555  -1.701  0.00  0.00     0.020 A 
ATOM      2  C1  UNL d   1       2.076   1.434  -2.460  0.00  0.00     0.020 A 
ATOM      3  C2  UNL d   1       1.420   0.221  -2.240  0.00  0.00     0.034 A 
ATOM      4  C3  UNL d   1       0.427   0.126  -1.258  0.00  0.00     0.017 A 
ATOM      5  C4  UNL d   1       0.093   1.252  -0.496  0.00  0.00     0.017 A 
ATOM      6  C5  UNL d   1       0.754   2.464  -0.721  0.00  0.00     0.034 A 
ATOM      7 Cl   UNL d   1      -1.121   1.213   0.734  0.00  0.00    -0.070 Cl
ATOM      8 Cl1  UNL d   1      -0.344  -1.405  -1.040  0.00  0.00    -0.070 Cl
ENDROOT
TORSDOF 0
ENDMDL
