MODEL 1
REMARK minimizedAffinity 6.46499538
REMARK minimizedRMSD -1
REMARK  0 active torsions:
REMARK  status: ('A' for Active; 'I' for Inactive)
ROOT
ATOM      1  C   UNL d   1       4.944   4.057  -5.981  0.00  0.00     0.020 A 
ATOM      2  C1  UNL d   1       4.660   5.422  -5.982  0.00  0.00     0.020 A 
ATOM      3  C2  UNL d   1       3.333   5.859  -5.984  0.00  0.00     0.034 A 
ATOM      4  C3  UNL d   1       2.286   4.930  -5.985  0.00  0.00     0.017 A 
ATOM      5  C4  UNL d   1       2.573   3.560  -5.984  0.00  0.00     0.017 A 
ATOM      6  C5  UNL d   1       3.903   3.128  -5.982  0.00  0.00     0.034 A 
ATOM      7 Cl   UNL d   1       1.335   2.354  -5.984  0.00  0.00    -0.070 Cl
ATOM      8 Cl1  UNL d   1       0.670   5.541  -5.986  0.00  0.00    -0.070 Cl
ENDROOT
TORSDOF 0
ENDMDL
