MODEL 1
REMARK minimizedAffinity 2.30924225
REMARK minimizedRMSD -1
REMARK  0 active torsions:
REMARK  status: ('A' for Active; 'I' for Inactive)
ROOT
ATOM      1  C   UNL d   1      -3.788   4.537  -5.997  0.00  0.00     0.020 A 
ATOM      2  C1  UNL d   1      -3.083   5.740  -5.997  0.00  0.00     0.020 A 
ATOM      3  C2  UNL d   1      -1.687   5.732  -5.998  0.00  0.00     0.034 A 
ATOM      4  C3  UNL d   1      -0.990   4.518  -5.998  0.00  0.00     0.017 A 
ATOM      5  C4  UNL d   1      -1.698   3.311  -5.998  0.00  0.00     0.017 A 
ATOM      6  C5  UNL d   1      -3.096   3.325  -5.997  0.00  0.00     0.034 A 
ATOM      7 Cl   UNL d   1      -0.908   1.773  -5.998  0.00  0.00    -0.070 Cl
ATOM      8 Cl1  UNL d   1       0.736   4.583  -6.000  0.00  0.00    -0.070 Cl
ENDROOT
TORSDOF 0
ENDMDL
