MODEL 1
REMARK minimizedAffinity 3.25659323
REMARK minimizedRMSD -1
REMARK  0 active torsions:
REMARK  status: ('A' for Active; 'I' for Inactive)
ROOT
ATOM      1  C   UNL d   1      -0.948   3.396  -5.973  0.00  0.00     0.020 A 
ATOM      2  C1  UNL d   1      -1.047   4.786  -5.974  0.00  0.00     0.020 A 
ATOM      3  C2  UNL d   1       0.109   5.569  -5.982  0.00  0.00     0.034 A 
ATOM      4  C3  UNL d   1       1.370   4.961  -5.989  0.00  0.00     0.017 A 
ATOM      5  C4  UNL d   1       1.468   3.565  -5.989  0.00  0.00     0.017 A 
ATOM      6  C5  UNL d   1       0.307   2.786  -5.980  0.00  0.00     0.034 A 
ATOM      7 Cl   UNL d   1       2.989   2.742  -5.998  0.00  0.00    -0.070 Cl
ATOM      8 Cl1  UNL d   1       2.758   5.990  -5.999  0.00  0.00    -0.070 Cl
ENDROOT
TORSDOF 0
ENDMDL
