MODEL 1
REMARK minimizedAffinity -1.24793911
REMARK minimizedRMSD -1
REMARK  0 active torsions:
REMARK  status: ('A' for Active; 'I' for Inactive)
ROOT
ATOM      1  C   UNL d   1       0.337   4.418  -5.989  0.00  0.00     0.020 A 
ATOM      2  C1  UNL d   1       0.100   3.044  -5.995  0.00  0.00     0.020 A 
ATOM      3  C2  UNL d   1      -1.210   2.562  -5.998  0.00  0.00     0.034 A 
ATOM      4  C3  UNL d   1      -2.289   3.454  -5.995  0.00  0.00     0.017 A 
ATOM      5  C4  UNL d   1      -2.050   4.833  -5.989  0.00  0.00     0.017 A 
ATOM      6  C5  UNL d   1      -0.735   5.311  -5.986  0.00  0.00     0.034 A 
ATOM      7 Cl   UNL d   1      -3.329   5.995  -5.985  0.00  0.00    -0.070 Cl
ATOM      8 Cl1  UNL d   1      -3.883   2.788  -6.000  0.00  0.00    -0.070 Cl
ENDROOT
TORSDOF 0
ENDMDL
