MODEL 1
REMARK minimizedAffinity 2.64108801
REMARK minimizedRMSD -1
REMARK  0 active torsions:
REMARK  status: ('A' for Active; 'I' for Inactive)
ROOT
ATOM      1  C   UNL d   1      -1.111   5.938  -5.924  0.00  0.00     0.020 A 
ATOM      2  C1  UNL d   1      -2.503   5.855  -5.924  0.00  0.00     0.020 A 
ATOM      3  C2  UNL d   1      -3.128   4.607  -5.946  0.00  0.00     0.034 A 
ATOM      4  C3  UNL d   1      -2.362   3.436  -5.970  0.00  0.00     0.017 A 
ATOM      5  C4  UNL d   1      -0.965   3.520  -5.970  0.00  0.00     0.017 A 
ATOM      6  C5  UNL d   1      -0.344   4.772  -5.948  0.00  0.00     0.034 A 
ATOM      7 Cl   UNL d   1       0.048   2.119  -5.998  0.00  0.00    -0.070 Cl
ATOM      8 Cl1  UNL d   1      -3.202   1.926  -5.997  0.00  0.00    -0.070 Cl
ENDROOT
TORSDOF 0
ENDMDL
