MODEL 1
REMARK minimizedAffinity -1.46834123
REMARK minimizedRMSD -1
REMARK  0 active torsions:
REMARK  status: ('A' for Active; 'I' for Inactive)
ROOT
ATOM      1  C   UNL d   1      -2.886   3.381  -5.987  0.00  0.00     0.020 A 
ATOM      2  C1  UNL d   1      -2.601   4.746  -5.986  0.00  0.00     0.020 A 
ATOM      3  C2  UNL d   1      -1.275   5.183  -5.989  0.00  0.00     0.034 A 
ATOM      4  C3  UNL d   1      -0.228   4.254  -5.994  0.00  0.00     0.017 A 
ATOM      5  C4  UNL d   1      -0.515   2.884  -5.994  0.00  0.00     0.017 A 
ATOM      6  C5  UNL d   1      -1.844   2.452  -5.991  0.00  0.00     0.034 A 
ATOM      7 Cl   UNL d   1       0.724   1.678  -6.000  0.00  0.00    -0.070 Cl
ATOM      8 Cl1  UNL d   1       1.388   4.865  -5.998  0.00  0.00    -0.070 Cl
ENDROOT
TORSDOF 0
ENDMDL
