MODEL 1
REMARK minimizedAffinity -2.20226693
REMARK minimizedRMSD -1
REMARK  0 active torsions:
REMARK  status: ('A' for Active; 'I' for Inactive)
ROOT
ATOM      1  C   UNL d   1       5.976   4.243  -5.970  0.00  0.00     0.020 A 
ATOM      2  C1  UNL d   1       5.654   5.599  -5.983  0.00  0.00     0.020 A 
ATOM      3  C2  UNL d   1       4.316   6.000  -5.992  0.00  0.00     0.034 A 
ATOM      4  C3  UNL d   1       3.295   5.042  -5.988  0.00  0.00     0.017 A 
ATOM      5  C4  UNL d   1       3.620   3.681  -5.975  0.00  0.00     0.017 A 
ATOM      6  C5  UNL d   1       4.961   3.286  -5.965  0.00  0.00     0.034 A 
ATOM      7 Cl   UNL d   1       2.415   2.441  -5.969  0.00  0.00    -0.070 Cl
ATOM      8 Cl1  UNL d   1       1.663   5.608  -6.000  0.00  0.00    -0.070 Cl
ENDROOT
TORSDOF 0
ENDMDL
