MODEL 1
REMARK minimizedAffinity -1.82832098
REMARK minimizedRMSD -1
REMARK  0 active torsions:
REMARK  status: ('A' for Active; 'I' for Inactive)
ROOT
ATOM      1  C   UNL d   1      -3.185   5.392  -5.992  0.00  0.00     0.020 A 
ATOM      2  C1  UNL d   1      -3.638   4.073  -5.962  0.00  0.00     0.020 A 
ATOM      3  C2  UNL d   1      -2.721   3.020  -5.932  0.00  0.00     0.034 A 
ATOM      4  C3  UNL d   1      -1.347   3.284  -5.932  0.00  0.00     0.017 A 
ATOM      5  C4  UNL d   1      -0.893   4.607  -5.963  0.00  0.00     0.017 A 
ATOM      6  C5  UNL d   1      -1.815   5.658  -5.993  0.00  0.00     0.034 A 
ATOM      7 Cl   UNL d   1       0.788   5.011  -5.966  0.00  0.00    -0.070 Cl
ATOM      8 Cl1  UNL d   1      -0.270   1.933  -5.894  0.00  0.00    -0.070 Cl
ENDROOT
TORSDOF 0
ENDMDL
