MODEL 1
REMARK minimizedAffinity -2.82871103
REMARK minimizedRMSD -1
REMARK  0 active torsions:
REMARK  status: ('A' for Active; 'I' for Inactive)
ROOT
ATOM      1  C   UNL d   1       1.120   3.479  -5.996  0.00  0.00     0.020 A 
ATOM      2  C1  UNL d   1       1.190   4.871  -5.997  0.00  0.00     0.020 A 
ATOM      3  C2  UNL d   1       0.017   5.629  -5.997  0.00  0.00     0.034 A 
ATOM      4  C3  UNL d   1      -1.231   4.995  -5.997  0.00  0.00     0.017 A 
ATOM      5  C4  UNL d   1      -1.300   3.597  -5.996  0.00  0.00     0.017 A 
ATOM      6  C5  UNL d   1      -0.122   2.843  -5.996  0.00  0.00     0.034 A 
ATOM      7 Cl   UNL d   1      -2.803   2.743  -5.996  0.00  0.00    -0.070 Cl
ATOM      8 Cl1  UNL d   1      -2.640   5.995  -5.996  0.00  0.00    -0.070 Cl
ENDROOT
TORSDOF 0
ENDMDL
