MODEL 1
REMARK minimizedAffinity 4.60120773
REMARK minimizedRMSD -1
REMARK  0 active torsions:
REMARK  status: ('A' for Active; 'I' for Inactive)
ROOT
ATOM      1  C   UNL d   1      -3.253   6.000  -5.931  0.00  0.00     0.020 A 
ATOM      2  C1  UNL d   1      -4.081   4.878  -5.934  0.00  0.00     0.020 A 
ATOM      3  C2  UNL d   1      -3.522   3.598  -5.953  0.00  0.00     0.034 A 
ATOM      4  C3  UNL d   1      -2.132   3.437  -5.969  0.00  0.00     0.017 A 
ATOM      5  C4  UNL d   1      -1.302   4.564  -5.967  0.00  0.00     0.017 A 
ATOM      6  C5  UNL d   1      -1.867   5.843  -5.948  0.00  0.00     0.034 A 
ATOM      7 Cl   UNL d   1       0.422   4.445  -5.986  0.00  0.00    -0.070 Cl
ATOM      8 Cl1  UNL d   1      -1.510   1.825  -5.992  0.00  0.00    -0.070 Cl
ENDROOT
TORSDOF 0
ENDMDL
