MODEL 1
REMARK minimizedAffinity -2.10180831
REMARK minimizedRMSD -1
REMARK  0 active torsions:
REMARK  status: ('A' for Active; 'I' for Inactive)
ROOT
ATOM      1  C   UNL d   1      -3.206   3.852  -5.998  0.00  0.00     0.020 A 
ATOM      2  C1  UNL d   1      -3.074   5.240  -5.999  0.00  0.00     0.020 A 
ATOM      3  C2  UNL d   1      -1.804   5.821  -6.000  0.00  0.00     0.034 A 
ATOM      4  C3  UNL d   1      -0.661   5.013  -5.999  0.00  0.00     0.017 A 
ATOM      5  C4  UNL d   1      -0.794   3.620  -5.997  0.00  0.00     0.017 A 
ATOM      6  C5  UNL d   1      -2.068   3.044  -5.997  0.00  0.00     0.034 A 
ATOM      7 Cl   UNL d   1       0.570   2.559  -5.996  0.00  0.00    -0.070 Cl
ATOM      8 Cl1  UNL d   1       0.878   5.800  -5.999  0.00  0.00    -0.070 Cl
ENDROOT
TORSDOF 0
ENDMDL
