MODEL 1
REMARK minimizedAffinity -2.20742249
REMARK minimizedRMSD -1
REMARK  0 active torsions:
REMARK  status: ('A' for Active; 'I' for Inactive)
ROOT
ATOM      1  C   UNL d   1       0.565   2.614  -5.996  0.00  0.00     0.020 A 
ATOM      2  C1  UNL d   1       0.981   3.945  -5.997  0.00  0.00     0.020 A 
ATOM      3  C2  UNL d   1       0.034   4.972  -5.998  0.00  0.00     0.034 A 
ATOM      4  C3  UNL d   1      -1.332   4.670  -5.999  0.00  0.00     0.017 A 
ATOM      5  C4  UNL d   1      -1.749   3.334  -5.998  0.00  0.00     0.017 A 
ATOM      6  C5  UNL d   1      -0.797   2.310  -5.997  0.00  0.00     0.034 A 
ATOM      7 Cl   UNL d   1      -3.417   2.883  -5.999  0.00  0.00    -0.070 Cl
ATOM      8 Cl1  UNL d   1      -2.447   5.991  -6.000  0.00  0.00    -0.070 Cl
ENDROOT
TORSDOF 0
ENDMDL
