MODEL 1
REMARK minimizedAffinity 2.97547483
REMARK minimizedRMSD -1
REMARK  0 active torsions:
REMARK  status: ('A' for Active; 'I' for Inactive)
ROOT
ATOM      1  C   UNL d   1       0.250   1.583  -5.954  0.00  0.00     0.020 A 
ATOM      2  C1  UNL d   1       1.262   2.542  -5.987  0.00  0.00     0.020 A 
ATOM      3  C2  UNL d   1       0.936   3.900  -5.998  0.00  0.00     0.034 A 
ATOM      4  C3  UNL d   1      -0.405   4.303  -5.977  0.00  0.00     0.017 A 
ATOM      5  C4  UNL d   1      -1.419   3.339  -5.943  0.00  0.00     0.017 A 
ATOM      6  C5  UNL d   1      -1.087   1.981  -5.932  0.00  0.00     0.034 A 
ATOM      7 Cl   UNL d   1      -3.096   3.758  -5.915  0.00  0.00    -0.070 Cl
ATOM      8 Cl1  UNL d   1      -0.735   5.999  -5.992  0.00  0.00    -0.070 Cl
ENDROOT
TORSDOF 0
ENDMDL
