MODEL 1
REMARK minimizedAffinity -2.35751414
REMARK minimizedRMSD -1
REMARK  0 active torsions:
REMARK  status: ('A' for Active; 'I' for Inactive)
ROOT
ATOM      1  C   UNL d   1      -3.317   3.852  -5.993  0.00  0.00     0.020 A 
ATOM      2  C1  UNL d   1      -3.004   5.211  -5.994  0.00  0.00     0.020 A 
ATOM      3  C2  UNL d   1      -1.669   5.620  -5.996  0.00  0.00     0.034 A 
ATOM      4  C3  UNL d   1      -0.641   4.669  -5.997  0.00  0.00     0.017 A 
ATOM      5  C4  UNL d   1      -0.956   3.306  -5.995  0.00  0.00     0.017 A 
ATOM      6  C5  UNL d   1      -2.295   2.902  -5.993  0.00  0.00     0.034 A 
ATOM      7 Cl   UNL d   1       0.256   2.074  -5.996  0.00  0.00    -0.070 Cl
ATOM      8 Cl1  UNL d   1       0.987   5.246  -6.000  0.00  0.00    -0.070 Cl
ENDROOT
TORSDOF 0
ENDMDL
