MODEL 1
REMARK minimizedAffinity -1.87413168
REMARK minimizedRMSD -1
REMARK  0 active torsions:
REMARK  status: ('A' for Active; 'I' for Inactive)
ROOT
ATOM      1  C   UNL d   1      -0.495   3.737  -4.397  0.00  0.00     0.020 A 
ATOM      2  C1  UNL d   1      -0.905   3.024  -5.524  0.00  0.00     0.020 A 
ATOM      3  C2  UNL d   1      -2.211   3.160  -5.998  0.00  0.00     0.034 A 
ATOM      4  C3  UNL d   1      -3.113   4.010  -5.347  0.00  0.00     0.017 A 
ATOM      5  C4  UNL d   1      -2.700   4.724  -4.216  0.00  0.00     0.017 A 
ATOM      6  C5  UNL d   1      -1.391   4.585  -3.745  0.00  0.00     0.034 A 
ATOM      7 Cl   UNL d   1      -3.755   5.792  -3.358  0.00  0.00    -0.070 Cl
ATOM      8 Cl1  UNL d   1      -4.712   4.130  -5.989  0.00  0.00    -0.070 Cl
ENDROOT
TORSDOF 0
ENDMDL
