MODEL 1
REMARK minimizedAffinity 8.57296562
REMARK minimizedRMSD -1
REMARK  0 active torsions:
REMARK  status: ('A' for Active; 'I' for Inactive)
ROOT
ATOM      1  C   UNL d   1       2.253  -0.266  -4.734  0.00  0.00     0.020 A 
ATOM      2  C1  UNL d   1       2.548   1.075  -4.978  0.00  0.00     0.020 A 
ATOM      3  C2  UNL d   1       2.532   1.996  -3.928  0.00  0.00     0.034 A 
ATOM      4  C3  UNL d   1       2.221   1.577  -2.630  0.00  0.00     0.017 A 
ATOM      5  C4  UNL d   1       1.925   0.231  -2.386  0.00  0.00     0.017 A 
ATOM      6  C5  UNL d   1       1.942  -0.686  -3.440  0.00  0.00     0.034 A 
ATOM      7 Cl   UNL d   1       1.531  -0.360  -0.810  0.00  0.00    -0.070 Cl
ATOM      8 Cl1  UNL d   1       2.220   2.770  -1.380  0.00  0.00    -0.070 Cl
ENDROOT
TORSDOF 0
ENDMDL
