MODEL 1
REMARK minimizedAffinity -1.3030026
REMARK minimizedRMSD -1
REMARK  0 active torsions:
REMARK  status: ('A' for Active; 'I' for Inactive)
ROOT
ATOM      1  C   UNL d   1       1.131   3.953  -5.993  0.00  0.00     0.020 A 
ATOM      2  C1  UNL d   1       1.033   5.344  -5.990  0.00  0.00     0.020 A 
ATOM      3  C2  UNL d   1      -0.223   5.955  -5.988  0.00  0.00     0.034 A 
ATOM      4  C3  UNL d   1      -1.385   5.175  -5.989  0.00  0.00     0.017 A 
ATOM      5  C4  UNL d   1      -1.285   3.779  -5.992  0.00  0.00     0.017 A 
ATOM      6  C5  UNL d   1      -0.025   3.173  -5.994  0.00  0.00     0.034 A 
ATOM      7 Cl   UNL d   1      -2.674   2.751  -5.993  0.00  0.00    -0.070 Cl
ATOM      8 Cl1  UNL d   1      -2.904   5.998  -5.986  0.00  0.00    -0.070 Cl
ENDROOT
TORSDOF 0
ENDMDL
