MODEL 1
REMARK minimizedAffinity 6.9543767
REMARK minimizedRMSD -1
REMARK  0 active torsions:
REMARK  status: ('A' for Active; 'I' for Inactive)
ROOT
ATOM      1  C   UNL d   1       1.523   2.500   1.747  0.00  0.00     0.020 A 
ATOM      2  C1  UNL d   1       0.782   2.105   0.634  0.00  0.00     0.020 A 
ATOM      3  C2  UNL d   1      -0.600   1.931   0.741  0.00  0.00     0.034 A 
ATOM      4  C3  UNL d   1      -1.245   2.152   1.963  0.00  0.00     0.017 A 
ATOM      5  C4  UNL d   1      -0.500   2.548   3.080  0.00  0.00     0.017 A 
ATOM      6  C5  UNL d   1       0.883   2.721   2.967  0.00  0.00     0.034 A 
ATOM      7 Cl   UNL d   1      -1.225   2.840   4.622  0.00  0.00    -0.070 Cl
ATOM      8 Cl1  UNL d   1      -2.956   1.917   2.023  0.00  0.00    -0.070 Cl
ENDROOT
TORSDOF 0
ENDMDL
