MODEL 1
REMARK minimizedAffinity 3.56544423
REMARK minimizedRMSD -1
REMARK  1 active torsions:
REMARK  status: ('A' for Active; 'I' for Inactive)
REMARK    1  A    between atoms: C1_2  and  C2_3 
ROOT
ATOM      1  C2  UNL d   1       1.621  -2.888   0.243  0.00  0.00    -0.077 A 
ATOM      2  C3  UNL d   1       1.191  -4.219   0.149  0.00  0.00     0.002 A 
ATOM      3  C4  UNL d   1       0.911  -4.785  -1.097  0.00  0.00     0.002 A 
ATOM      4  C5  UNL d   1       1.062  -4.029  -2.257  0.00  0.00    -0.004 A 
ATOM      5  C6  UNL d   1       1.487  -2.703  -2.174  0.00  0.00     0.002 A 
ATOM      6  C7  UNL d   1       1.766  -2.136  -0.930  0.00  0.00     0.002 A 
ENDROOT
BRANCH   1   7
ATOM      7  C1  UNL d   1       1.970  -2.291   1.581  0.00  0.00     0.055 C 
ATOM      8  C   UNL d   1       0.964  -1.226   1.992  0.00  0.00     0.019 C 
ENDBRANCH   1   7
TORSDOF 1
ENDMDL
