MODEL 1
REMARK minimizedAffinity 12.7662659
REMARK minimizedRMSD -1
REMARK  1 active torsions:
REMARK  status: ('A' for Active; 'I' for Inactive)
REMARK    1  A    between atoms: C1_2  and  C2_3 
ROOT
ATOM      1  C2  UNL d   1      -0.089   3.591  -0.304  0.00  0.00    -0.077 A 
ATOM      2  C3  UNL d   1      -0.916   3.055  -1.301  0.00  0.00     0.002 A 
ATOM      3  C4  UNL d   1      -1.786   2.003  -1.007  0.00  0.00     0.002 A 
ATOM      4  C5  UNL d   1      -1.842   1.483   0.284  0.00  0.00    -0.004 A 
ATOM      5  C6  UNL d   1      -1.023   2.008   1.282  0.00  0.00     0.002 A 
ATOM      6  C7  UNL d   1      -0.151   3.057   0.990  0.00  0.00     0.002 A 
ENDROOT
BRANCH   1   7
ATOM      7  C1  UNL d   1       0.815   4.757  -0.606  0.00  0.00     0.055 C 
ATOM      8  C   UNL d   1       0.391   6.000   0.162  0.00  0.00     0.019 C 
ENDBRANCH   1   7
TORSDOF 1
ENDMDL
