MODEL 1
REMARK minimizedAffinity 6.93695498
REMARK minimizedRMSD -1
REMARK  1 active torsions:
REMARK  status: ('A' for Active; 'I' for Inactive)
REMARK    1  A    between atoms: C1_2  and  C2_3 
ROOT
ATOM      1  C2  UNL d   1       2.917  -3.315   2.698  0.00  0.00    -0.077 A 
ATOM      2  C3  UNL d   1       2.074  -3.410   3.814  0.00  0.00     0.002 A 
ATOM      3  C4  UNL d   1       0.903  -2.653   3.882  0.00  0.00     0.002 A 
ATOM      4  C5  UNL d   1       0.562  -1.799   2.835  0.00  0.00    -0.004 A 
ATOM      5  C6  UNL d   1       1.394  -1.696   1.721  0.00  0.00     0.002 A 
ATOM      6  C7  UNL d   1       2.566  -2.451   1.653  0.00  0.00     0.002 A 
ENDROOT
BRANCH   1   7
ATOM      7  C1  UNL d   1       4.155  -4.167   2.601  0.00  0.00     0.055 C 
ATOM      8  C   UNL d   1       5.409  -3.311   2.497  0.00  0.00     0.019 C 
ENDBRANCH   1   7
TORSDOF 1
ENDMDL
