MODEL 1
REMARK minimizedAffinity 9.78073215
REMARK minimizedRMSD -1
REMARK  1 active torsions:
REMARK  status: ('A' for Active; 'I' for Inactive)
REMARK    1  A    between atoms: C1_2  and  C2_3 
ROOT
ATOM      1  C2  UNL d   1       1.217  -3.595   2.053  0.00  0.00    -0.077 A 
ATOM      2  C3  UNL d   1       1.905  -4.667   2.639  0.00  0.00     0.002 A 
ATOM      3  C4  UNL d   1       2.161  -5.828   1.906  0.00  0.00     0.002 A 
ATOM      4  C5  UNL d   1       1.738  -5.926   0.583  0.00  0.00    -0.004 A 
ATOM      5  C6  UNL d   1       1.051  -4.866  -0.009  0.00  0.00     0.002 A 
ATOM      6  C7  UNL d   1       0.793  -3.706   0.722  0.00  0.00     0.002 A 
ENDROOT
BRANCH   1   7
ATOM      7  C1  UNL d   1       0.983  -2.324   2.826  0.00  0.00     0.055 C 
ATOM      8  C   UNL d   1       1.136  -1.099   1.936  0.00  0.00     0.019 C 
ENDBRANCH   1   7
TORSDOF 1
ENDMDL
