MODEL 1
REMARK minimizedAffinity 5.33391237
REMARK minimizedRMSD -1
REMARK  1 active torsions:
REMARK  status: ('A' for Active; 'I' for Inactive)
REMARK    1  A    between atoms: C1_2  and  C2_3 
ROOT
ATOM      1  C2  UNL d   1       4.885   3.431  -5.580  0.00  0.00    -0.077 A 
ATOM      2  C3  UNL d   1       3.859   2.869  -4.806  0.00  0.00     0.002 A 
ATOM      3  C4  UNL d   1       3.905   1.521  -4.444  0.00  0.00     0.002 A 
ATOM      4  C5  UNL d   1       4.976   0.726  -4.847  0.00  0.00    -0.004 A 
ATOM      5  C6  UNL d   1       6.000   1.275  -5.618  0.00  0.00     0.002 A 
ATOM      6  C7  UNL d   1       5.955   2.622  -5.982  0.00  0.00     0.002 A 
ENDROOT
BRANCH   1   7
ATOM      7  C1  UNL d   1       4.861   4.896  -5.930  0.00  0.00     0.055 C 
ATOM      8  C   UNL d   1       6.000   5.645  -5.253  0.00  0.00     0.019 C 
ENDBRANCH   1   7
TORSDOF 1
ENDMDL
