MODEL 1
REMARK minimizedAffinity 2.23061299
REMARK minimizedRMSD -1
REMARK  1 active torsions:
REMARK  status: ('A' for Active; 'I' for Inactive)
REMARK    1  A    between atoms: C3_4  and  O_7 
ROOT
ATOM      1  C   UNL d   1       3.759  -5.979   4.066  0.00  0.00    -0.033 A 
ATOM      2  C1  UNL d   1       3.480  -4.782   3.404  0.00  0.00     0.039 A 
ATOM      3  C2  UNL d   1       3.710  -3.561   4.040  0.00  0.00    -0.080 A 
ATOM      4  C3  UNL d   1       4.220  -3.550   5.336  0.00  0.00     0.150 A 
ATOM      5  C4  UNL d   1       4.504  -4.739   6.000  0.00  0.00    -0.007 A 
ATOM      6  C5  UNL d   1       4.272  -5.958   5.363  0.00  0.00     0.039 A 
ENDROOT
BRANCH   4   7
ATOM      7  O   UNL d   1       4.457  -2.383   5.999  0.00  0.00    -0.526 OA
ATOM      8  H5  UNL d   1       4.187  -1.644   5.428  0.00  0.00     0.418 HD
ENDBRANCH   4   7
TORSDOF 1
ENDMDL
