MODEL 1
REMARK minimizedAffinity 2.42878318
REMARK minimizedRMSD -1
REMARK  1 active torsions:
REMARK  status: ('A' for Active; 'I' for Inactive)
REMARK    1  A    between atoms: C3_4  and  O_7 
ROOT
ATOM      1  C   UNL d   1       6.000  -6.000  -1.005  0.00  0.00    -0.033 A 
ATOM      2  C1  UNL d   1       5.951  -5.971   0.391  0.00  0.00     0.039 A 
ATOM      3  C2  UNL d   1       4.832  -5.448   1.041  0.00  0.00    -0.080 A 
ATOM      4  C3  UNL d   1       3.769  -4.960   0.286  0.00  0.00     0.150 A 
ATOM      5  C4  UNL d   1       3.809  -4.990  -1.104  0.00  0.00    -0.007 A 
ATOM      6  C5  UNL d   1       4.928  -5.511  -1.752  0.00  0.00     0.039 A 
ENDROOT
BRANCH   4   7
ATOM      7  O   UNL d   1       2.657  -4.436   0.876  0.00  0.00    -0.526 OA
ATOM      8  H5  UNL d   1       2.782  -4.455   1.839  0.00  0.00     0.418 HD
ENDBRANCH   4   7
TORSDOF 1
ENDMDL
