MODEL 1
REMARK minimizedAffinity 8.58262539
REMARK minimizedRMSD -1
REMARK  1 active torsions:
REMARK  status: ('A' for Active; 'I' for Inactive)
REMARK    1  A    between atoms: C3_4  and  O_7 
ROOT
ATOM      1  C   UNL d   1      -1.370  -1.237   3.012  0.00  0.00    -0.033 A 
ATOM      2  C1  UNL d   1      -1.432  -0.035   3.719  0.00  0.00     0.039 A 
ATOM      3  C2  UNL d   1      -2.572   0.768   3.636  0.00  0.00    -0.080 A 
ATOM      4  C3  UNL d   1      -3.641   0.357   2.845  0.00  0.00     0.150 A 
ATOM      5  C4  UNL d   1      -3.587  -0.841   2.141  0.00  0.00    -0.007 A 
ATOM      6  C5  UNL d   1      -2.448  -1.641   2.224  0.00  0.00     0.039 A 
ENDROOT
BRANCH   4   7
ATOM      7  O   UNL d   1      -4.772   1.110   2.729  0.00  0.00    -0.526 OA
ATOM      8  H5  UNL d   1      -4.655   1.923   3.247  0.00  0.00     0.418 HD
ENDBRANCH   4   7
TORSDOF 1
ENDMDL
