MODEL 1
REMARK minimizedAffinity 5.0545907
REMARK minimizedRMSD -1
REMARK  1 active torsions:
REMARK  status: ('A' for Active; 'I' for Inactive)
REMARK    1  A    between atoms: C3_4  and  O_7 
ROOT
ATOM      1  C   UNL d   1       4.038  -3.876   1.777  0.00  0.00    -0.033 A 
ATOM      2  C1  UNL d   1       5.423  -4.037   1.702  0.00  0.00     0.039 A 
ATOM      3  C2  UNL d   1       5.999  -4.617   0.570  0.00  0.00    -0.080 A 
ATOM      4  C3  UNL d   1       5.181  -5.030  -0.478  0.00  0.00     0.150 A 
ATOM      5  C4  UNL d   1       3.801  -4.869  -0.411  0.00  0.00    -0.007 A 
ATOM      6  C5  UNL d   1       3.227  -4.291   0.720  0.00  0.00     0.039 A 
ENDROOT
BRANCH   4   7
ATOM      7  O   UNL d   1       5.697  -5.605  -1.601  0.00  0.00    -0.526 OA
ATOM      8  H5  UNL d   1       6.661  -5.678  -1.495  0.00  0.00     0.418 HD
ENDBRANCH   4   7
TORSDOF 1
ENDMDL
