MODEL 1
REMARK minimizedAffinity 8.37249947
REMARK minimizedRMSD -1
REMARK  1 active torsions:
REMARK  status: ('A' for Active; 'I' for Inactive)
REMARK    1  A    between atoms: C3_4  and  O_7 
ROOT
ATOM      1  C   UNL d   1       2.793  -4.112   1.742  0.00  0.00    -0.033 A 
ATOM      2  C1  UNL d   1       1.487  -4.085   1.250  0.00  0.00     0.039 A 
ATOM      3  C2  UNL d   1       0.577  -3.142   1.732  0.00  0.00    -0.080 A 
ATOM      4  C3  UNL d   1       0.986  -2.232   2.703  0.00  0.00     0.150 A 
ATOM      5  C4  UNL d   1       2.287  -2.251   3.194  0.00  0.00    -0.007 A 
ATOM      6  C5  UNL d   1       3.194  -3.194   2.713  0.00  0.00     0.039 A 
ENDROOT
BRANCH   4   7
ATOM      7  O   UNL d   1       0.132  -1.297   3.207  0.00  0.00    -0.526 OA
ATOM      8  H5  UNL d   1      -0.739  -1.422   2.796  0.00  0.00     0.418 HD
ENDBRANCH   4   7
TORSDOF 1
ENDMDL
