MODEL 1
REMARK minimizedAffinity -1.06491554
REMARK minimizedRMSD -1
REMARK  1 active torsions:
REMARK  status: ('A' for Active; 'I' for Inactive)
REMARK    1  A    between atoms: C3_4  and  O_7 
ROOT
ATOM      1  C   UNL d   1       3.741  -6.000   4.302  0.00  0.00    -0.033 A 
ATOM      2  C1  UNL d   1       4.532  -5.996   5.453  0.00  0.00     0.039 A 
ATOM      3  C2  UNL d   1       4.965  -4.787   6.000  0.00  0.00    -0.080 A 
ATOM      4  C3  UNL d   1       4.600  -3.590   5.388  0.00  0.00     0.150 A 
ATOM      5  C4  UNL d   1       3.809  -3.587   4.244  0.00  0.00    -0.007 A 
ATOM      6  C5  UNL d   1       3.378  -4.795   3.699  0.00  0.00     0.039 A 
ENDROOT
BRANCH   4   7
ATOM      7  O   UNL d   1       5.003  -2.385   5.883  0.00  0.00    -0.526 OA
ATOM      8  H5  UNL d   1       5.567  -2.544   6.658  0.00  0.00     0.418 HD
ENDBRANCH   4   7
TORSDOF 1
ENDMDL
