MODEL 1
REMARK minimizedAffinity -2.40275288
REMARK minimizedRMSD -1
REMARK  1 active torsions:
REMARK  status: ('A' for Active; 'I' for Inactive)
REMARK    1  A    between atoms: C3_4  and  O_7 
ROOT
ATOM      1  C   UNL d   1       4.868  -5.253   5.998  0.00  0.00    -0.033 A 
ATOM      2  C1  UNL d   1       5.044  -6.000   4.832  0.00  0.00     0.039 A 
ATOM      3  C2  UNL d   1       4.396  -5.623   3.654  0.00  0.00    -0.080 A 
ATOM      4  C3  UNL d   1       3.575  -4.498   3.656  0.00  0.00     0.150 A 
ATOM      5  C4  UNL d   1       3.398  -3.747   4.813  0.00  0.00    -0.007 A 
ATOM      6  C5  UNL d   1       4.045  -4.125   5.988  0.00  0.00     0.039 A 
ENDROOT
BRANCH   4   7
ATOM      7  O   UNL d   1       2.918  -4.094   2.532  0.00  0.00    -0.526 OA
ATOM      8  H5  UNL d   1       3.112  -4.725   1.818  0.00  0.00     0.418 HD
ENDBRANCH   4   7
TORSDOF 1
ENDMDL
