MODEL 1
REMARK minimizedAffinity -2.92186308
REMARK minimizedRMSD -1
REMARK  0 active torsions:
REMARK  status: ('A' for Active; 'I' for Inactive)
ROOT
ATOM      1  C   UNL d   1      -0.661  -0.749   2.930  0.00  0.00    -0.002 A 
ATOM      2  C1  UNL d   1       0.683  -1.092   2.940  0.00  0.00     0.010 A 
ATOM      3  C2  UNL d   1       1.428  -1.081   1.759  0.00  0.00     0.041 A 
ATOM      4  C3  UNL d   1       0.793  -0.713   0.557  0.00  0.00    -0.075 A 
ATOM      5  S   UNL d   1       1.505  -0.627  -1.011  0.00  0.00     0.015 SA
ATOM      6  C4  UNL d   1       0.041  -0.131  -1.730  0.00  0.00     0.022 A 
ATOM      7  C5  UNL d   1      -0.976  -0.030  -0.812  0.00  0.00     0.026 A 
ATOM      8  C6  UNL d   1      -0.560  -0.363   0.522  0.00  0.00    -0.082 A 
ATOM      9  C7  UNL d   1      -1.288  -0.385   1.736  0.00  0.00     0.045 A 
ENDROOT
TORSDOF 0
ENDMDL
