MODEL 1
REMARK minimizedAffinity -2.7387085
REMARK minimizedRMSD -1
REMARK  0 active torsions:
REMARK  status: ('A' for Active; 'I' for Inactive)
ROOT
ATOM      1  C   UNL d   1       1.329  -0.601   3.101  0.00  0.00    -0.002 A 
ATOM      2  C1  UNL d   1       0.035  -0.104   3.057  0.00  0.00     0.010 A 
ATOM      3  C2  UNL d   1      -0.625   0.051   1.836  0.00  0.00     0.041 A 
ATOM      4  C3  UNL d   1       0.044  -0.308   0.649  0.00  0.00    -0.075 A 
ATOM      5  S   UNL d   1      -0.566  -0.206  -0.960  0.00  0.00     0.015 SA
ATOM      6  C4  UNL d   1       0.877  -0.820  -1.626  0.00  0.00     0.022 A 
ATOM      7  C5  UNL d   1       1.813  -1.101  -0.659  0.00  0.00     0.026 A 
ATOM      8  C6  UNL d   1       1.348  -0.811   0.669  0.00  0.00    -0.082 A 
ATOM      9  C7  UNL d   1       1.990  -0.955   1.922  0.00  0.00     0.045 A 
ENDROOT
TORSDOF 0
ENDMDL
