MODEL 1
REMARK minimizedAffinity 3.41615319
REMARK minimizedRMSD -1
REMARK  0 active torsions:
REMARK  status: ('A' for Active; 'I' for Inactive)
ROOT
ATOM      1  C   UNL d   1      -1.244   2.942  -3.274  0.00  0.00    -0.002 A 
ATOM      2  C1  UNL d   1       0.082   2.699  -3.605  0.00  0.00     0.010 A 
ATOM      3  C2  UNL d   1       0.803   1.695  -2.956  0.00  0.00     0.041 A 
ATOM      4  C3  UNL d   1       0.163   0.931  -1.961  0.00  0.00    -0.075 A 
ATOM      5  S   UNL d   1       0.848  -0.351  -1.034  0.00  0.00     0.015 SA
ATOM      6  C4  UNL d   1      -0.603  -0.607  -0.177  0.00  0.00     0.022 A 
ATOM      7  C5  UNL d   1      -1.596   0.256  -0.576  0.00  0.00     0.026 A 
ATOM      8  C6  UNL d   1      -1.171   1.156  -1.611  0.00  0.00    -0.082 A 
ATOM      9  C7  UNL d   1      -1.875   2.182  -2.286  0.00  0.00     0.045 A 
ENDROOT
TORSDOF 0
ENDMDL
