MODEL 1
REMARK minimizedAffinity -1.289379
REMARK minimizedRMSD -1
REMARK  0 active torsions:
REMARK  status: ('A' for Active; 'I' for Inactive)
ROOT
ATOM      1  C   UNL d   1      -1.242  -0.918   2.705  0.00  0.00    -0.002 A 
ATOM      2  C1  UNL d   1       0.060  -1.372   2.545  0.00  0.00     0.010 A 
ATOM      3  C2  UNL d   1       0.838  -0.932   1.473  0.00  0.00     0.041 A 
ATOM      4  C3  UNL d   1       0.282  -0.018   0.556  0.00  0.00    -0.075 A 
ATOM      5  S   UNL d   1       1.049   0.660  -0.831  0.00  0.00     0.015 SA
ATOM      6  C4  UNL d   1      -0.333   1.568  -1.244  0.00  0.00     0.022 A 
ATOM      7  C5  UNL d   1      -1.363   1.371  -0.355  0.00  0.00     0.026 A 
ATOM      8  C6  UNL d   1      -1.026   0.455   0.697  0.00  0.00    -0.082 A 
ATOM      9  C7  UNL d   1      -1.790  -0.011   1.794  0.00  0.00     0.045 A 
ENDROOT
TORSDOF 0
ENDMDL
