MODEL 1
REMARK minimizedAffinity -2.01116514
REMARK minimizedRMSD -1
REMARK  0 active torsions:
REMARK  status: ('A' for Active; 'I' for Inactive)
ROOT
ATOM      1  C   UNL d   1      -0.422  -0.229   2.781  0.00  0.00    -0.002 A 
ATOM      2  C1  UNL d   1       0.745  -0.825   2.324  0.00  0.00     0.010 A 
ATOM      3  C2  UNL d   1       1.071  -0.799   0.967  0.00  0.00     0.041 A 
ATOM      4  C3  UNL d   1       0.196  -0.157   0.068  0.00  0.00    -0.075 A 
ATOM      5  S   UNL d   1       0.391   0.000  -1.638  0.00  0.00     0.015 SA
ATOM      6  C4  UNL d   1      -1.070   0.863  -1.800  0.00  0.00     0.022 A 
ATOM      7  C5  UNL d   1      -1.704   1.035  -0.592  0.00  0.00     0.026 A 
ATOM      8  C6  UNL d   1      -0.984   0.451   0.505  0.00  0.00    -0.082 A 
ATOM      9  C7  UNL d   1      -1.287   0.407   1.887  0.00  0.00     0.045 A 
ENDROOT
TORSDOF 0
ENDMDL
