MODEL 1
REMARK minimizedAffinity -5.7467885
REMARK minimizedRMSD -1
REMARK  0 active torsions:
REMARK  status: ('A' for Active; 'I' for Inactive)
ROOT
ATOM      1  C   UNL d   1       2.176  -1.490   2.548  0.00  0.00    -0.002 A 
ATOM      2  C1  UNL d   1       1.102  -0.663   2.844  0.00  0.00     0.010 A 
ATOM      3  C2  UNL d   1       0.304  -0.141   1.823  0.00  0.00     0.041 A 
ATOM      4  C3  UNL d   1       0.605  -0.471   0.487  0.00  0.00    -0.075 A 
ATOM      5  S   UNL d   1      -0.234   0.050  -0.926  0.00  0.00     0.015 SA
ATOM      6  C4  UNL d   1       0.813  -0.815  -1.957  0.00  0.00     0.022 A 
ATOM      7  C5  UNL d   1       1.785  -1.490  -1.256  0.00  0.00     0.026 A 
ATOM      8  C6  UNL d   1       1.681  -1.303   0.164  0.00  0.00    -0.082 A 
ATOM      9  C7  UNL d   1       2.471  -1.815   1.221  0.00  0.00     0.045 A 
ENDROOT
TORSDOF 0
ENDMDL
