MODEL 1
REMARK minimizedAffinity -4.549716
REMARK minimizedRMSD -1
REMARK  0 active torsions:
REMARK  status: ('A' for Active; 'I' for Inactive)
ROOT
ATOM      1  C   UNL d   1       1.878  -1.957  -0.407  0.00  0.00     0.077 C 
ATOM      2  C1  UNL d   1       0.795  -0.923  -0.500  0.00  0.00    -0.074 A 
ATOM      3  C2  UNL d   1       0.811   0.044  -1.510  0.00  0.00    -0.005 A 
ATOM      4  C3  UNL d   1      -0.208   0.994  -1.590  0.00  0.00     0.006 A 
ATOM      5  C4  UNL d   1      -1.251   0.985  -0.663  0.00  0.00    -0.005 A 
ATOM      6  C5  UNL d   1      -1.284   0.024   0.352  0.00  0.00    -0.074 A 
ATOM      7  C6  UNL d   1      -2.403  -0.005   1.351  0.00  0.00     0.077 C 
ATOM      8  C7  UNL d   1      -0.260  -0.930   0.422  0.00  0.00    -0.001 A 
ENDROOT
TORSDOF 0
ENDMDL
