MODEL 1
REMARK minimizedAffinity -4.78393793
REMARK minimizedRMSD -1
REMARK  0 active torsions:
REMARK  status: ('A' for Active; 'I' for Inactive)
ROOT
ATOM      1  C   UNL d   1      -1.115   1.096   0.602  0.00  0.00     0.077 C 
ATOM      2  C1  UNL d   1      -0.142   0.075   0.090  0.00  0.00    -0.074 A 
ATOM      3  C2  UNL d   1      -0.484  -1.280   0.034  0.00  0.00    -0.005 A 
ATOM      4  C3  UNL d   1       0.428  -2.216  -0.453  0.00  0.00     0.006 A 
ATOM      5  C4  UNL d   1       1.689  -1.808  -0.889  0.00  0.00    -0.005 A 
ATOM      6  C5  UNL d   1       2.049  -0.457  -0.841  0.00  0.00    -0.074 A 
ATOM      7  C6  UNL d   1       3.397  -0.000  -1.314  0.00  0.00     0.077 C 
ATOM      8  C7  UNL d   1       1.124   0.479  -0.356  0.00  0.00    -0.001 A 
ENDROOT
TORSDOF 0
ENDMDL
