MODEL 1
REMARK minimizedAffinity -1.65717471
REMARK minimizedRMSD -1
REMARK  0 active torsions:
REMARK  status: ('A' for Active; 'I' for Inactive)
ROOT
ATOM      1  C   UNL d   1       5.908   3.040   6.000  0.00  0.00     0.077 C 
ATOM      2  C1  UNL d   1       5.659   1.761   5.256  0.00  0.00    -0.074 A 
ATOM      3  C2  UNL d   1       5.366   1.770   3.889  0.00  0.00    -0.005 A 
ATOM      4  C3  UNL d   1       5.146   0.572   3.209  0.00  0.00     0.006 A 
ATOM      5  C4  UNL d   1       5.217  -0.645   3.889  0.00  0.00    -0.005 A 
ATOM      6  C5  UNL d   1       5.510  -0.673   5.256  0.00  0.00    -0.074 A 
ATOM      7  C6  UNL d   1       5.599  -1.973   5.999  0.00  0.00     0.077 C 
ATOM      8  C7  UNL d   1       5.736   0.534   5.930  0.00  0.00    -0.001 A 
ENDROOT
TORSDOF 0
ENDMDL
