MODEL 1
REMARK minimizedAffinity 8.10004807
REMARK minimizedRMSD -1
REMARK  0 active torsions:
REMARK  status: ('A' for Active; 'I' for Inactive)
ROOT
ATOM      1  C   UNL d   1       0.521  -2.758   1.145  0.00  0.00     0.077 C 
ATOM      2  C1  UNL d   1      -0.010  -1.501   0.522  0.00  0.00    -0.074 A 
ATOM      3  C2  UNL d   1      -1.073  -0.804   1.105  0.00  0.00    -0.005 A 
ATOM      4  C3  UNL d   1      -1.549   0.369   0.519  0.00  0.00     0.006 A 
ATOM      5  C4  UNL d   1      -0.968   0.856  -0.652  0.00  0.00    -0.005 A 
ATOM      6  C5  UNL d   1       0.096   0.173  -1.249  0.00  0.00    -0.074 A 
ATOM      7  C6  UNL d   1       0.738   0.687  -2.503  0.00  0.00     0.077 C 
ATOM      8  C7  UNL d   1       0.574  -1.002  -0.651  0.00  0.00    -0.001 A 
ENDROOT
TORSDOF 0
ENDMDL
