MODEL 1
REMARK minimizedAffinity 2.92190051
REMARK minimizedRMSD -1
REMARK  0 active torsions:
REMARK  status: ('A' for Active; 'I' for Inactive)
ROOT
ATOM      1  C   UNL d   1       2.428   3.748   3.407  0.00  0.00     0.077 C 
ATOM      2  C1  UNL d   1       3.680   3.080   3.892  0.00  0.00    -0.074 A 
ATOM      3  C2  UNL d   1       4.846   3.817   4.122  0.00  0.00    -0.005 A 
ATOM      4  C3  UNL d   1       6.000   3.184   4.583  0.00  0.00     0.006 A 
ATOM      5  C4  UNL d   1       6.000   1.808   4.817  0.00  0.00    -0.005 A 
ATOM      6  C5  UNL d   1       4.843   1.054   4.594  0.00  0.00    -0.074 A 
ATOM      7  C6  UNL d   1       4.824  -0.423   4.850  0.00  0.00     0.077 C 
ATOM      8  C7  UNL d   1       3.686   1.700   4.138  0.00  0.00    -0.001 A 
ENDROOT
TORSDOF 0
ENDMDL
