MODEL 1
REMARK minimizedAffinity -1.72503579
REMARK minimizedRMSD -1
REMARK  0 active torsions:
REMARK  status: ('A' for Active; 'I' for Inactive)
ROOT
ATOM      1  C   UNL d   1       0.818  -0.889  -0.232  0.00  0.00     0.077 C 
ATOM      2  C1  UNL d   1      -0.329  -0.201   0.446  0.00  0.00    -0.074 A 
ATOM      3  C2  UNL d   1      -1.622  -0.270  -0.082  0.00  0.00    -0.005 A 
ATOM      4  C3  UNL d   1      -2.681   0.367   0.565  0.00  0.00     0.006 A 
ATOM      5  C4  UNL d   1      -2.458   1.079   1.744  0.00  0.00    -0.005 A 
ATOM      6  C5  UNL d   1      -1.171   1.159   2.287  0.00  0.00    -0.074 A 
ATOM      7  C6  UNL d   1      -0.915   1.912   3.559  0.00  0.00     0.077 C 
ATOM      8  C7  UNL d   1      -0.114   0.510   1.635  0.00  0.00    -0.001 A 
ENDROOT
TORSDOF 0
ENDMDL
