MODEL 1
REMARK minimizedAffinity -3.41254973
REMARK minimizedRMSD -1
REMARK  0 active torsions:
REMARK  status: ('A' for Active; 'I' for Inactive)
ROOT
ATOM      1  C   UNL d   1      -0.187   0.940  -0.363  0.00  0.00     0.077 C 
ATOM      2  C1  UNL d   1      -0.844   0.922   0.985  0.00  0.00    -0.074 A 
ATOM      3  C2  UNL d   1      -0.611   1.942   1.913  0.00  0.00    -0.005 A 
ATOM      4  C3  UNL d   1      -1.237   1.916   3.159  0.00  0.00     0.006 A 
ATOM      5  C4  UNL d   1      -2.101   0.871   3.490  0.00  0.00    -0.005 A 
ATOM      6  C5  UNL d   1      -2.347  -0.157   2.575  0.00  0.00    -0.074 A 
ATOM      7  C6  UNL d   1      -3.280  -1.282   2.911  0.00  0.00     0.077 C 
ATOM      8  C7  UNL d   1      -1.720  -0.120   1.322  0.00  0.00    -0.001 A 
ENDROOT
TORSDOF 0
ENDMDL
