MODEL 1
REMARK minimizedAffinity -4.501266
REMARK minimizedRMSD -1
REMARK  0 active torsions:
REMARK  status: ('A' for Active; 'I' for Inactive)
ROOT
ATOM      1  C   UNL d   1       3.276  -1.092  -0.765  0.00  0.00     0.077 C 
ATOM      2  C1  UNL d   1       1.817  -0.747  -0.770  0.00  0.00    -0.074 A 
ATOM      3  C2  UNL d   1       0.862  -1.654  -0.299  0.00  0.00    -0.005 A 
ATOM      4  C3  UNL d   1      -0.491  -1.315  -0.301  0.00  0.00     0.006 A 
ATOM      5  C4  UNL d   1      -0.903  -0.068  -0.773  0.00  0.00    -0.005 A 
ATOM      6  C5  UNL d   1       0.038   0.852  -1.246  0.00  0.00    -0.074 A 
ATOM      7  C6  UNL d   1      -0.386   2.201  -1.748  0.00  0.00     0.077 C 
ATOM      8  C7  UNL d   1       1.396   0.507  -1.235  0.00  0.00    -0.001 A 
ENDROOT
TORSDOF 0
ENDMDL
