MODEL 1
REMARK minimizedAffinity -3.20751309
REMARK minimizedRMSD -1
REMARK  0 active torsions:
REMARK  status: ('A' for Active; 'I' for Inactive)
ROOT
ATOM      1  C   UNL d   1      -3.665  -1.490   4.373  0.00  0.00     0.077 C 
ATOM      2  C1  UNL d   1      -2.906  -0.379   3.712  0.00  0.00    -0.074 A 
ATOM      3  C2  UNL d   1      -2.297   0.626   4.470  0.00  0.00    -0.005 A 
ATOM      4  C3  UNL d   1      -1.585   1.649   3.841  0.00  0.00     0.006 A 
ATOM      5  C4  UNL d   1      -1.476   1.676   2.450  0.00  0.00    -0.005 A 
ATOM      6  C5  UNL d   1      -2.078   0.679   1.676  0.00  0.00    -0.074 A 
ATOM      7  C6  UNL d   1      -1.962   0.688   0.180  0.00  0.00     0.077 C 
ATOM      8  C7  UNL d   1      -2.785  -0.348   2.315  0.00  0.00    -0.001 A 
ENDROOT
TORSDOF 0
ENDMDL
