MODEL 1
REMARK minimizedAffinity -3.61990786
REMARK minimizedRMSD -1
REMARK  0 active torsions:
REMARK  status: ('A' for Active; 'I' for Inactive)
ROOT
ATOM      1  C   UNL d   1      -0.759   1.866   0.304  0.00  0.00     0.077 C 
ATOM      2  C1  UNL d   1      -0.101   0.546   0.028  0.00  0.00    -0.074 A 
ATOM      3  C2  UNL d   1      -0.730  -0.656   0.368  0.00  0.00    -0.005 A 
ATOM      4  C3  UNL d   1      -0.110  -1.875   0.096  0.00  0.00     0.006 A 
ATOM      5  C4  UNL d   1       1.142  -1.905  -0.517  0.00  0.00    -0.005 A 
ATOM      6  C5  UNL d   1       1.786  -0.714  -0.866  0.00  0.00    -0.074 A 
ATOM      7  C6  UNL d   1       3.129  -0.728  -1.535  0.00  0.00     0.077 C 
ATOM      8  C7  UNL d   1       1.154   0.508  -0.596  0.00  0.00    -0.001 A 
ENDROOT
TORSDOF 0
ENDMDL
