MODEL 1
REMARK minimizedAffinity -0.585667491
REMARK minimizedRMSD -1
REMARK  0 active torsions:
REMARK  status: ('A' for Active; 'I' for Inactive)
ROOT
ATOM      1  C   UNL d   1      -3.269  -1.070   4.429  0.00  0.00     0.077 C 
ATOM      2  C1  UNL d   1      -2.504  -0.032   3.662  0.00  0.00    -0.074 A 
ATOM      3  C2  UNL d   1      -2.205   1.209   4.234  0.00  0.00    -0.005 A 
ATOM      4  C3  UNL d   1      -1.484   2.160   3.513  0.00  0.00     0.006 A 
ATOM      5  C4  UNL d   1      -1.056   1.881   2.214  0.00  0.00    -0.005 A 
ATOM      6  C5  UNL d   1      -1.345   0.646   1.626  0.00  0.00    -0.074 A 
ATOM      7  C6  UNL d   1      -0.885   0.327   0.235  0.00  0.00     0.077 C 
ATOM      8  C7  UNL d   1      -2.064  -0.308   2.360  0.00  0.00    -0.001 A 
ENDROOT
TORSDOF 0
ENDMDL
