MODEL 1
REMARK minimizedAffinity -4.89165068
REMARK minimizedRMSD -1
REMARK  0 active torsions:
REMARK  status: ('A' for Active; 'I' for Inactive)
ROOT
ATOM      1  C   UNL d   1       0.759   2.437  -1.732  0.00  0.00     0.077 C 
ATOM      2  C1  UNL d   1       0.408   1.113  -1.122  0.00  0.00    -0.074 A 
ATOM      3  C2  UNL d   1      -0.823   0.917  -0.488  0.00  0.00    -0.005 A 
ATOM      4  C3  UNL d   1      -1.139  -0.323   0.067  0.00  0.00     0.006 A 
ATOM      5  C4  UNL d   1      -0.229  -1.378  -0.005  0.00  0.00    -0.005 A 
ATOM      6  C5  UNL d   1       1.007  -1.201  -0.636  0.00  0.00    -0.074 A 
ATOM      7  C6  UNL d   1       1.993  -2.327  -0.731  0.00  0.00     0.077 C 
ATOM      8  C7  UNL d   1       1.315   0.046  -1.197  0.00  0.00    -0.001 A 
ENDROOT
TORSDOF 0
ENDMDL
