MODEL 1
REMARK minimizedAffinity -2.73754215
REMARK minimizedRMSD -1
REMARK  0 active torsions:
REMARK  status: ('A' for Active; 'I' for Inactive)
ROOT
ATOM      1  C   UNL d   1      -0.676   1.792  -1.001  0.00  0.00     0.077 C 
ATOM      2  C1  UNL d   1      -0.958   2.079   0.444  0.00  0.00    -0.074 A 
ATOM      3  C2  UNL d   1      -0.574   3.292   1.025  0.00  0.00    -0.005 A 
ATOM      4  C3  UNL d   1      -0.852   3.548   2.367  0.00  0.00     0.006 A 
ATOM      5  C4  UNL d   1      -1.515   2.595   3.142  0.00  0.00    -0.005 A 
ATOM      6  C5  UNL d   1      -1.908   1.377   2.578  0.00  0.00    -0.074 A 
ATOM      7  C6  UNL d   1      -2.631   0.347   3.394  0.00  0.00     0.077 C 
ATOM      8  C7  UNL d   1      -1.632   1.130   1.227  0.00  0.00    -0.001 A 
ENDROOT
TORSDOF 0
ENDMDL
