MODEL 1
REMARK minimizedAffinity -6.39449453
REMARK minimizedRMSD -1
REMARK  0 active torsions:
REMARK  status: ('A' for Active; 'I' for Inactive)
ROOT
ATOM      1  C   UNL d   1       3.196   0.250  -1.863  0.00  0.00     0.077 C 
ATOM      2  C1  UNL d   1       2.054  -0.489  -1.233  0.00  0.00    -0.074 A 
ATOM      3  C2  UNL d   1       2.015  -1.887  -1.232  0.00  0.00    -0.005 A 
ATOM      4  C3  UNL d   1       0.951  -2.561  -0.633  0.00  0.00     0.006 A 
ATOM      5  C4  UNL d   1      -0.085  -1.845  -0.031  0.00  0.00    -0.005 A 
ATOM      6  C5  UNL d   1      -0.063  -0.447  -0.022  0.00  0.00    -0.074 A 
ATOM      7  C6  UNL d   1      -1.163   0.338   0.629  0.00  0.00     0.077 C 
ATOM      8  C7  UNL d   1       1.014   0.223  -0.619  0.00  0.00    -0.001 A 
ENDROOT
TORSDOF 0
ENDMDL
