MODEL 1
REMARK minimizedAffinity -4.80847168
REMARK minimizedRMSD -1
REMARK  0 active torsions:
REMARK  status: ('A' for Active; 'I' for Inactive)
ROOT
ATOM      1  C   UNL d   1      -1.249   0.452   0.522  0.00  0.00     0.077 C 
ATOM      2  C1  UNL d   1      -2.112   0.676   1.728  0.00  0.00    -0.074 A 
ATOM      3  C2  UNL d   1      -2.093   1.898   2.408  0.00  0.00    -0.005 A 
ATOM      4  C3  UNL d   1      -2.909   2.095   3.522  0.00  0.00     0.006 A 
ATOM      5  C4  UNL d   1      -3.751   1.075   3.966  0.00  0.00    -0.005 A 
ATOM      6  C5  UNL d   1      -3.784  -0.154   3.298  0.00  0.00    -0.074 A 
ATOM      7  C6  UNL d   1      -4.689  -1.258   3.756  0.00  0.00     0.077 C 
ATOM      8  C7  UNL d   1      -2.966  -0.342   2.175  0.00  0.00    -0.001 A 
ENDROOT
TORSDOF 0
ENDMDL
