MODEL 1
REMARK minimizedAffinity -3.52158093
REMARK minimizedRMSD -1
REMARK  0 active torsions:
REMARK  status: ('A' for Active; 'I' for Inactive)
ROOT
ATOM      1  C   UNL d   1      -1.215   0.959   1.025  0.00  0.00     0.077 C 
ATOM      2  C1  UNL d   1      -0.283  -0.071   0.458  0.00  0.00    -0.074 A 
ATOM      3  C2  UNL d   1      -0.585  -1.434   0.537  0.00  0.00    -0.005 A 
ATOM      4  C3  UNL d   1       0.287  -2.380  -0.004  0.00  0.00     0.006 A 
ATOM      5  C4  UNL d   1       1.466  -1.972  -0.628  0.00  0.00    -0.005 A 
ATOM      6  C5  UNL d   1       1.784  -0.613  -0.718  0.00  0.00    -0.074 A 
ATOM      7  C6  UNL d   1       3.043  -0.158  -1.394  0.00  0.00     0.077 C 
ATOM      8  C7  UNL d   1       0.900   0.331  -0.178  0.00  0.00    -0.001 A 
ENDROOT
TORSDOF 0
ENDMDL
