MODEL 1
REMARK minimizedAffinity -6.14112806
REMARK minimizedRMSD -1
REMARK  0 active torsions:
REMARK  status: ('A' for Active; 'I' for Inactive)
ROOT
ATOM      1  C1  DEN d   1       0.782  -0.567  -0.274  0.00  0.00     0.130 A 
ATOM      2  C2  DEN d   1      -0.512  -0.821  -0.902  0.00  0.00    -0.031 A 
ATOM      3  C3  DEN d   1      -1.567  -0.370   0.028  0.00  0.00     0.027 A 
ATOM      4  C4  DEN d   1      -1.324   0.697   2.364  0.00  0.00     0.027 A 
ATOM      5  C5  DEN d   1      -0.424   1.101   3.325  0.00  0.00    -0.003 A 
ATOM      6  C6  DEN d   1       0.928   0.948   3.170  0.00  0.00     0.001 A 
ATOM      7  C7  DEN d   1       1.422   0.417   2.008  0.00  0.00     0.017 A 
ATOM      8  C8  DEN d   1       0.521  -0.000   1.037  0.00  0.00    -0.094 A 
ATOM      9  C9  DEN d   1      -0.842   0.175   1.208  0.00  0.00    -0.072 A 
ENDROOT
TORSDOF 0
ENDMDL
