MODEL 1
REMARK minimizedAffinity -4.76230145
REMARK minimizedRMSD -1
REMARK  0 active torsions:
REMARK  status: ('A' for Active; 'I' for Inactive)
ROOT
ATOM      1  C1  DEN d   1      -0.370   1.242   3.048  0.00  0.00     0.130 A 
ATOM      2  C2  DEN d   1       1.067   1.101   3.268  0.00  0.00    -0.031 A 
ATOM      3  C3  DEN d   1       1.632   0.352   2.129  0.00  0.00     0.027 A 
ATOM      4  C4  DEN d   1       0.430  -0.595   0.053  0.00  0.00     0.027 A 
ATOM      5  C5  DEN d   1      -0.790  -0.735  -0.571  0.00  0.00    -0.003 A 
ATOM      6  C6  DEN d   1      -1.951  -0.260  -0.021  0.00  0.00     0.001 A 
ATOM      7  C7  DEN d   1      -1.910   0.419   1.168  0.00  0.00     0.017 A 
ATOM      8  C8  DEN d   1      -0.685   0.558   1.807  0.00  0.00    -0.094 A 
ATOM      9  C9  DEN d   1       0.479   0.081   1.228  0.00  0.00    -0.072 A 
ENDROOT
TORSDOF 0
ENDMDL
