MODEL 1
REMARK minimizedAffinity -3.20468903
REMARK minimizedRMSD -1
REMARK  0 active torsions:
REMARK  status: ('A' for Active; 'I' for Inactive)
ROOT
ATOM      1  C1  DEN d   1      -1.838  -0.394   0.764  0.00  0.00     0.130 A 
ATOM      2  C2  DEN d   1      -1.793  -1.720   0.154  0.00  0.00    -0.031 A 
ATOM      3  C3  DEN d   1      -0.384  -2.161   0.124  0.00  0.00     0.027 A 
ATOM      4  C4  DEN d   1       1.721  -0.928   0.962  0.00  0.00     0.027 A 
ATOM      5  C5  DEN d   1       2.186   0.230   1.545  0.00  0.00    -0.003 A 
ATOM      6  C6  DEN d   1       1.354   1.266   1.875  0.00  0.00     0.001 A 
ATOM      7  C7  DEN d   1       0.005   1.147   1.665  0.00  0.00     0.017 A 
ATOM      8  C8  DEN d   1      -0.470  -0.014   1.071  0.00  0.00    -0.094 A 
ATOM      9  C9  DEN d   1       0.385  -1.056   0.756  0.00  0.00    -0.072 A 
ENDROOT
TORSDOF 0
ENDMDL
