MODEL 1
REMARK minimizedAffinity 1.76955783
REMARK minimizedRMSD -1
REMARK  0 active torsions:
REMARK  status: ('A' for Active; 'I' for Inactive)
ROOT
ATOM      1  C1  DEN d   1       0.885  -0.631  -3.045  0.00  0.00     0.130 A 
ATOM      2  C2  DEN d   1       1.235   0.737  -3.417  0.00  0.00    -0.031 A 
ATOM      3  C3  DEN d   1       0.447   1.102  -4.612  0.00  0.00     0.027 A 
ATOM      4  C4  DEN d   1      -1.277  -0.311  -5.911  0.00  0.00     0.027 A 
ATOM      5  C5  DEN d   1      -1.899  -1.538  -5.980  0.00  0.00    -0.003 A 
ATOM      6  C6  DEN d   1      -1.615  -2.551  -5.103  0.00  0.00     0.001 A 
ATOM      7  C7  DEN d   1      -0.716  -2.341  -4.091  0.00  0.00     0.017 A 
ATOM      8  C8  DEN d   1      -0.079  -1.109  -4.020  0.00  0.00    -0.094 A 
ATOM      9  C9  DEN d   1      -0.389  -0.093  -4.908  0.00  0.00    -0.072 A 
ENDROOT
TORSDOF 0
ENDMDL
