MODEL 1
REMARK minimizedAffinity 6.9221139
REMARK minimizedRMSD -1
REMARK  0 active torsions:
REMARK  status: ('A' for Active; 'I' for Inactive)
ROOT
ATOM      1  C   UNL d   1      -4.128   5.367   2.255  0.00  0.00    -0.002 A 
ATOM      2  C1  UNL d   1      -5.352   5.031   2.817  0.00  0.00     0.010 A 
ATOM      3  C2  UNL d   1      -6.000   3.849   2.453  0.00  0.00     0.041 A 
ATOM      4  C3  UNL d   1      -5.391   3.001   1.507  0.00  0.00    -0.075 A 
ATOM      5  S   UNL d   1      -6.000   1.503   0.910  0.00  0.00     0.015 SA
ATOM      6  C4  UNL d   1      -4.650   1.273  -0.104  0.00  0.00     0.022 A 
ATOM      7  C5  UNL d   1      -3.747   2.305  -0.003  0.00  0.00     0.026 A 
ATOM      8  C6  UNL d   1      -4.159   3.318   0.927  0.00  0.00    -0.082 A 
ATOM      9  C7  UNL d   1      -3.528   4.523   1.317  0.00  0.00     0.045 A 
ENDROOT
TORSDOF 0
ENDMDL
