MODEL 1
REMARK minimizedAffinity 7.49381542
REMARK minimizedRMSD -1
REMARK  0 active torsions:
REMARK  status: ('A' for Active; 'I' for Inactive)
ROOT
ATOM      1  C   UNL d   1       1.827  -1.918  -0.006  0.00  0.00    -0.002 A 
ATOM      2  C1  UNL d   1       1.811  -2.236  -1.357  0.00  0.00     0.010 A 
ATOM      3  C2  UNL d   1       2.319  -1.344  -2.302  0.00  0.00     0.041 A 
ATOM      4  C3  UNL d   1       2.852  -0.115  -1.863  0.00  0.00    -0.075 A 
ATOM      5  S   UNL d   1       3.531   1.132  -2.840  0.00  0.00     0.015 SA
ATOM      6  C4  UNL d   1       3.860   2.116  -1.488  0.00  0.00     0.022 A 
ATOM      7  C5  UNL d   1       3.467   1.522  -0.311  0.00  0.00     0.026 A 
ATOM      8  C6  UNL d   1       2.880   0.227  -0.508  0.00  0.00    -0.082 A 
ATOM      9  C7  UNL d   1       2.356  -0.699   0.426  0.00  0.00     0.045 A 
ENDROOT
TORSDOF 0
ENDMDL
