MODEL 1
REMARK minimizedAffinity 9.60028839
REMARK minimizedRMSD -1
REMARK  0 active torsions:
REMARK  status: ('A' for Active; 'I' for Inactive)
ROOT
ATOM      1  C   UNL d   1      -5.851   2.368   1.952  0.00  0.00    -0.002 A 
ATOM      2  C1  UNL d   1      -5.271   3.289   1.093  0.00  0.00     0.010 A 
ATOM      3  C2  UNL d   1      -4.825   2.898  -0.171  0.00  0.00     0.041 A 
ATOM      4  C3  UNL d   1      -4.976   1.553  -0.562  0.00  0.00    -0.075 A 
ATOM      5  S   UNL d   1      -4.504   0.847  -2.062  0.00  0.00     0.015 SA
ATOM      6  C4  UNL d   1      -5.064  -0.694  -1.598  0.00  0.00     0.022 A 
ATOM      7  C5  UNL d   1      -5.600  -0.689  -0.332  0.00  0.00     0.026 A 
ATOM      8  C6  UNL d   1      -5.558   0.607   0.286  0.00  0.00    -0.082 A 
ATOM      9  C7  UNL d   1      -5.999   1.034   1.562  0.00  0.00     0.045 A 
ENDROOT
TORSDOF 0
ENDMDL
