MODEL 1
REMARK minimizedAffinity 0.0498594046
REMARK minimizedRMSD -1
REMARK  0 active torsions:
REMARK  status: ('A' for Active; 'I' for Inactive)
ROOT
ATOM      1  C   UNL d   1      -5.489   0.154  -4.751  0.00  0.00    -0.002 A 
ATOM      2  C1  UNL d   1      -4.216   0.376  -5.257  0.00  0.00     0.010 A 
ATOM      3  C2  UNL d   1      -3.430   1.421  -4.769  0.00  0.00     0.041 A 
ATOM      4  C3  UNL d   1      -3.949   2.246  -3.751  0.00  0.00    -0.075 A 
ATOM      5  S   UNL d   1      -3.166   3.585  -2.999  0.00  0.00     0.015 SA
ATOM      6  C4  UNL d   1      -4.503   3.893  -1.987  0.00  0.00     0.022 A 
ATOM      7  C5  UNL d   1      -5.530   3.006  -2.205  0.00  0.00     0.026 A 
ATOM      8  C6  UNL d   1      -5.227   2.041  -3.225  0.00  0.00    -0.082 A 
ATOM      9  C7  UNL d   1      -6.000   0.974  -3.742  0.00  0.00     0.045 A 
ENDROOT
TORSDOF 0
ENDMDL
