MODEL 1
REMARK minimizedAffinity 4.04415751
REMARK minimizedRMSD -1
REMARK  0 active torsions:
REMARK  status: ('A' for Active; 'I' for Inactive)
ROOT
ATOM      1  C   UNL d   1      -4.716   0.076  -0.330  0.00  0.00    -0.002 A 
ATOM      2  C1  UNL d   1      -5.633   1.089  -0.570  0.00  0.00     0.010 A 
ATOM      3  C2  UNL d   1      -5.661   1.744  -1.803  0.00  0.00     0.041 A 
ATOM      4  C3  UNL d   1      -4.745   1.358  -2.801  0.00  0.00    -0.075 A 
ATOM      5  S   UNL d   1      -4.595   2.018  -4.387  0.00  0.00     0.015 SA
ATOM      6  C4  UNL d   1      -3.311   0.970  -4.783  0.00  0.00     0.022 A 
ATOM      7  C5  UNL d   1      -2.991   0.130  -3.742  0.00  0.00     0.026 A 
ATOM      8  C6  UNL d   1      -3.812   0.340  -2.583  0.00  0.00    -0.082 A 
ATOM      9  C7  UNL d   1      -3.809  -0.304  -1.322  0.00  0.00     0.045 A 
ENDROOT
TORSDOF 0
ENDMDL
