MODEL 1
REMARK minimizedAffinity 4.1542654
REMARK minimizedRMSD -1
REMARK  0 active torsions:
REMARK  status: ('A' for Active; 'I' for Inactive)
ROOT
ATOM      1  C   UNL d   1      -2.893   3.771  -3.397  0.00  0.00    -0.002 A 
ATOM      2  C1  UNL d   1      -1.949   2.756  -3.331  0.00  0.00     0.010 A 
ATOM      3  C2  UNL d   1      -2.341   1.417  -3.375  0.00  0.00     0.041 A 
ATOM      4  C3  UNL d   1      -3.711   1.111  -3.491  0.00  0.00    -0.075 A 
ATOM      5  S   UNL d   1      -4.424  -0.457  -3.564  0.00  0.00     0.015 SA
ATOM      6  C4  UNL d   1      -5.999   0.183  -3.687  0.00  0.00     0.022 A 
ATOM      7  C5  UNL d   1      -6.000   1.558  -3.673  0.00  0.00     0.026 A 
ATOM      8  C6  UNL d   1      -4.681   2.116  -3.560  0.00  0.00    -0.082 A 
ATOM      9  C7  UNL d   1      -4.252   3.464  -3.512  0.00  0.00     0.045 A 
ENDROOT
TORSDOF 0
ENDMDL
