MODEL 1
REMARK minimizedAffinity 5.7216773
REMARK minimizedRMSD -1
REMARK  0 active torsions:
REMARK  status: ('A' for Active; 'I' for Inactive)
ROOT
ATOM      1  C   UNL d   1      -3.394   0.835  -5.020  0.00  0.00    -0.002 A 
ATOM      2  C1  UNL d   1      -2.632   0.003  -4.211  0.00  0.00     0.010 A 
ATOM      3  C2  UNL d   1      -2.973  -0.191  -2.871  0.00  0.00     0.041 A 
ATOM      4  C3  UNL d   1      -4.105   0.468  -2.353  0.00  0.00    -0.075 A 
ATOM      5  S   UNL d   1      -4.714   0.379  -0.742  0.00  0.00     0.015 SA
ATOM      6  C4  UNL d   1      -6.000   1.442  -1.090  0.00  0.00     0.022 A 
ATOM      7  C5  UNL d   1      -5.980   1.864  -2.398  0.00  0.00     0.026 A 
ATOM      8  C6  UNL d   1      -4.888   1.310  -3.148  0.00  0.00    -0.082 A 
ATOM      9  C7  UNL d   1      -4.516   1.487  -4.502  0.00  0.00     0.045 A 
ENDROOT
TORSDOF 0
ENDMDL
