MODEL 1
REMARK minimizedAffinity 8.93629265
REMARK minimizedRMSD -1
REMARK  0 active torsions:
REMARK  status: ('A' for Active; 'I' for Inactive)
ROOT
ATOM      1  C   UNL d   1       1.130   1.318   2.065  0.00  0.00    -0.002 A 
ATOM      2  C1  UNL d   1       1.935   1.937   3.011  0.00  0.00     0.010 A 
ATOM      3  C2  UNL d   1       3.248   2.295   2.701  0.00  0.00     0.041 A 
ATOM      4  C3  UNL d   1       3.743   2.019   1.411  0.00  0.00    -0.075 A 
ATOM      5  S   UNL d   1       5.320   2.369   0.806  0.00  0.00     0.015 SA
ATOM      6  C4  UNL d   1       4.961   1.705  -0.723  0.00  0.00     0.022 A 
ATOM      7  C5  UNL d   1       3.675   1.224  -0.787  0.00  0.00     0.026 A 
ATOM      8  C6  UNL d   1       2.952   1.397   0.441  0.00  0.00    -0.082 A 
ATOM      9  C7  UNL d   1       1.625   1.046   0.787  0.00  0.00     0.045 A 
ENDROOT
TORSDOF 0
ENDMDL
