MODEL 1
REMARK minimizedAffinity 4.74358749
REMARK minimizedRMSD -1
REMARK  2 active torsions:
REMARK  status: ('A' for Active; 'I' for Inactive)
REMARK    1  A    between atoms: C2'_3  and  C1'_4 
REMARK    2  A    between atoms: C1'_4  and  C1_5 
ROOT
ATOM      1  C1  I4B d   1       2.714  -5.538   1.951  0.00  0.00    -0.075 A 
ATOM      2  C2  I4B d   1       2.288  -4.667   0.980  0.00  0.00     0.003 A 
ATOM      3  C3  I4B d   1       0.938  -4.239   0.950  0.00  0.00     0.002 A 
ATOM      4  C4  I4B d   1       0.044  -4.743   1.872  0.00  0.00    -0.004 A 
ATOM      5  C5  I4B d   1       0.484  -5.609   2.870  0.00  0.00     0.002 A 
ATOM      6  C6  I4B d   1       1.830  -6.000   2.917  0.00  0.00     0.003 A 
ENDROOT
BRANCH   1   7
ATOM      7  C1' I4B d   1       4.139  -5.995   1.933  0.00  0.00     0.060 C 
BRANCH   7   8
ATOM      8  C2' I4B d   1       4.914  -5.144   2.918  0.00  0.00    -0.013 C 
ATOM      9  C4' I4B d   1       5.681  -5.999   3.892  0.00  0.00     0.013 C 
ATOM     10  C3' I4B d   1       5.835  -4.255   2.137  0.00  0.00     0.013 C 
ENDBRANCH   7   8
ENDBRANCH   1   7
TORSDOF 2
ENDMDL
