MODEL 1
REMARK minimizedAffinity 15.7203674
REMARK minimizedRMSD -1
REMARK  2 active torsions:
REMARK  status: ('A' for Active; 'I' for Inactive)
REMARK    1  A    between atoms: C2'_3  and  C1'_4 
REMARK    2  A    between atoms: C1'_4  and  C1_5 
ROOT
ATOM      1  C1  I4B d   1      -5.012   1.655   5.933  0.00  0.00    -0.075 A 
ATOM      2  C2  I4B d   1      -3.686   2.004   5.972  0.00  0.00     0.003 A 
ATOM      3  C3  I4B d   1      -3.306   3.367   5.922  0.00  0.00     0.002 A 
ATOM      4  C4  I4B d   1      -4.276   4.339   5.784  0.00  0.00    -0.004 A 
ATOM      5  C5  I4B d   1      -5.622   3.984   5.768  0.00  0.00     0.002 A 
ATOM      6  C6  I4B d   1      -5.994   2.634   5.855  0.00  0.00     0.003 A 
ENDROOT
BRANCH   1   7
ATOM      7  C1' I4B d   1      -5.376   0.204   5.954  0.00  0.00     0.060 C 
BRANCH   7   8
ATOM      8  C2' I4B d   1      -4.249  -0.570   5.302  0.00  0.00    -0.013 C 
ATOM      9  C4' I4B d   1      -4.035  -1.897   5.980  0.00  0.00     0.013 C 
ATOM     10  C3' I4B d   1      -4.589  -0.751   3.853  0.00  0.00     0.013 C 
ENDBRANCH   7   8
ENDBRANCH   1   7
TORSDOF 2
ENDMDL
