MODEL 1
REMARK minimizedAffinity 18.6931267
REMARK minimizedRMSD -1
REMARK  2 active torsions:
REMARK  status: ('A' for Active; 'I' for Inactive)
REMARK    1  A    between atoms: C2'_3  and  C1'_4 
REMARK    2  A    between atoms: C1'_4  and  C1_5 
ROOT
ATOM      1  C1  I4B d   1      -5.526  -1.592   3.298  0.00  0.00    -0.075 A 
ATOM      2  C2  I4B d   1      -5.610  -2.862   3.812  0.00  0.00     0.003 A 
ATOM      3  C3  I4B d   1      -5.372  -3.091   5.189  0.00  0.00     0.002 A 
ATOM      4  C4  I4B d   1      -5.005  -2.036   5.999  0.00  0.00    -0.004 A 
ATOM      5  C5  I4B d   1      -4.943  -0.745   5.481  0.00  0.00     0.002 A 
ATOM      6  C6  I4B d   1      -5.217  -0.520   4.124  0.00  0.00     0.003 A 
ENDROOT
BRANCH   1   7
ATOM      7  C1' I4B d   1      -5.752  -1.391   1.832  0.00  0.00     0.060 C 
BRANCH   7   8
ATOM      8  C2' I4B d   1      -4.397  -1.297   1.160  0.00  0.00    -0.013 C 
ATOM      9  C4' I4B d   1      -4.360  -2.110  -0.107  0.00  0.00     0.013 C 
ATOM     10  C3' I4B d   1      -4.118   0.150   0.883  0.00  0.00     0.013 C 
ENDBRANCH   7   8
ENDBRANCH   1   7
TORSDOF 2
ENDMDL
