MODEL 1
REMARK minimizedAffinity 9.35897541
REMARK minimizedRMSD -1
REMARK  2 active torsions:
REMARK  status: ('A' for Active; 'I' for Inactive)
REMARK    1  A    between atoms: C2'_3  and  C1'_4 
REMARK    2  A    between atoms: C1'_4  and  C1_5 
ROOT
ATOM      1  C1  I4B d   1      -3.062  -0.059   3.426  0.00  0.00    -0.075 A 
ATOM      2  C2  I4B d   1      -1.830  -0.047   2.819  0.00  0.00     0.003 A 
ATOM      3  C3  I4B d   1      -1.687   0.465   1.507  0.00  0.00     0.002 A 
ATOM      4  C4  I4B d   1      -2.802   0.905   0.824  0.00  0.00    -0.004 A 
ATOM      5  C5  I4B d   1      -4.046   0.914   1.449  0.00  0.00     0.002 A 
ATOM      6  C6  I4B d   1      -4.175   0.440   2.762  0.00  0.00     0.003 A 
ENDROOT
BRANCH   1   7
ATOM      7  C1' I4B d   1      -3.183  -0.637   4.800  0.00  0.00     0.060 C 
BRANCH   7   8
ATOM      8  C2' I4B d   1      -4.651  -0.645   5.175  0.00  0.00    -0.013 C 
ATOM      9  C4' I4B d   1      -4.997  -1.857   6.000  0.00  0.00     0.013 C 
ATOM     10  C3' I4B d   1      -4.944   0.621   5.925  0.00  0.00     0.013 C 
ENDBRANCH   7   8
ENDBRANCH   1   7
TORSDOF 2
ENDMDL
