MODEL 1
REMARK minimizedAffinity 5.21782064
REMARK minimizedRMSD -1
REMARK  2 active torsions:
REMARK  status: ('A' for Active; 'I' for Inactive)
REMARK    1  A    between atoms: C2'_3  and  C1'_4 
REMARK    2  A    between atoms: C1'_4  and  C1_5 
ROOT
ATOM      1  C1  I4B d   1      -0.252  -5.290   0.854  0.00  0.00    -0.075 A 
ATOM      2  C2  I4B d   1      -0.264  -3.920   0.776  0.00  0.00     0.003 A 
ATOM      3  C3  I4B d   1      -1.493  -3.219   0.736  0.00  0.00     0.002 A 
ATOM      4  C4  I4B d   1      -2.679  -3.926   0.725  0.00  0.00    -0.004 A 
ATOM      5  C5  I4B d   1      -2.665  -5.314   0.827  0.00  0.00     0.002 A 
ATOM      6  C6  I4B d   1      -1.444  -6.000   0.904  0.00  0.00     0.003 A 
ENDROOT
BRANCH   1   7
ATOM      7  C1' I4B d   1       1.065  -6.000   0.861  0.00  0.00     0.060 C 
BRANCH   7   8
ATOM      8  C2' I4B d   1       1.918  -5.390   1.955  0.00  0.00    -0.013 C 
ATOM      9  C4' I4B d   1       1.336  -5.665   3.317  0.00  0.00     0.013 C 
ATOM     10  C3' I4B d   1       3.301  -5.956   1.833  0.00  0.00     0.013 C 
ENDBRANCH   7   8
ENDBRANCH   1   7
TORSDOF 2
ENDMDL
