MODEL 1
REMARK minimizedAffinity 9.61411953
REMARK minimizedRMSD -1
REMARK  2 active torsions:
REMARK  status: ('A' for Active; 'I' for Inactive)
REMARK    1  A    between atoms: C2'_3  and  C1'_4 
REMARK    2  A    between atoms: C1'_4  and  C1_5 
ROOT
ATOM      1  C1  I4B d   1       2.465  -5.846   2.163  0.00  0.00    -0.075 A 
ATOM      2  C2  I4B d   1       3.028  -5.930   0.914  0.00  0.00     0.003 A 
ATOM      3  C3  I4B d   1       4.434  -6.000   0.770  0.00  0.00     0.002 A 
ATOM      4  C4  I4B d   1       5.237  -5.932   1.890  0.00  0.00    -0.004 A 
ATOM      5  C5  I4B d   1       4.664  -5.870   3.157  0.00  0.00     0.002 A 
ATOM      6  C6  I4B d   1       3.269  -5.839   3.296  0.00  0.00     0.003 A 
ENDROOT
BRANCH   1   7
ATOM      7  C1' I4B d   1       0.977  -5.741   2.278  0.00  0.00     0.060 C 
BRANCH   7   8
ATOM      8  C2' I4B d   1       0.444  -5.205   0.964  0.00  0.00    -0.013 C 
ATOM      9  C4' I4B d   1       1.000  -5.976  -0.204  0.00  0.00     0.013 C 
ATOM     10  C3' I4B d   1      -1.053  -5.286   1.004  0.00  0.00     0.013 C 
ENDBRANCH   7   8
ENDBRANCH   1   7
TORSDOF 2
ENDMDL
