MODEL 1
REMARK minimizedAffinity 0.363364071
REMARK minimizedRMSD -1
REMARK  2 active torsions:
REMARK  status: ('A' for Active; 'I' for Inactive)
REMARK    1  A    between atoms: C2'_3  and  C1'_4 
REMARK    2  A    between atoms: C1'_4  and  C1_5 
ROOT
ATOM      1  C1  I4B d   1       2.288   0.261   2.086  0.00  0.00    -0.075 A 
ATOM      2  C2  I4B d   1       3.596  -0.095   2.301  0.00  0.00     0.003 A 
ATOM      3  C3  I4B d   1       4.500  -0.178   1.215  0.00  0.00     0.002 A 
ATOM      4  C4  I4B d   1       4.045   0.053  -0.067  0.00  0.00    -0.004 A 
ATOM      5  C5  I4B d   1       2.724   0.437  -0.281  0.00  0.00     0.002 A 
ATOM      6  C6  I4B d   1       1.842   0.554   0.803  0.00  0.00     0.003 A 
ENDROOT
BRANCH   1   7
ATOM      7  C1' I4B d   1       1.352   0.307   3.252  0.00  0.00     0.060 C 
BRANCH   7   8
ATOM      8  C2' I4B d   1       0.501   1.554   3.119  0.00  0.00    -0.013 C 
ATOM      9  C4' I4B d   1      -0.964   1.230   3.248  0.00  0.00     0.013 C 
ATOM     10  C3' I4B d   1       0.935   2.526   4.175  0.00  0.00     0.013 C 
ENDBRANCH   7   8
ENDBRANCH   1   7
TORSDOF 2
ENDMDL
