MODEL 1
REMARK minimizedAffinity 5.56733179
REMARK minimizedRMSD -1
REMARK  2 active torsions:
REMARK  status: ('A' for Active; 'I' for Inactive)
REMARK    1  A    between atoms: C2'_3  and  C1'_4 
REMARK    2  A    between atoms: C1'_4  and  C1_5 
ROOT
ATOM      1  C1  I4B d   1      -1.854   0.962   1.594  0.00  0.00    -0.075 A 
ATOM      2  C2  I4B d   1      -0.774   0.227   2.015  0.00  0.00     0.003 A 
ATOM      3  C3  I4B d   1       0.038   0.696   3.076  0.00  0.00     0.002 A 
ATOM      4  C4  I4B d   1      -0.234   1.922   3.649  0.00  0.00    -0.004 A 
ATOM      5  C5  I4B d   1      -1.343   2.655   3.236  0.00  0.00     0.002 A 
ATOM      6  C6  I4B d   1      -2.166   2.167   2.211  0.00  0.00     0.003 A 
ENDROOT
BRANCH   1   7
ATOM      7  C1' I4B d   1      -2.671   0.452   0.450  0.00  0.00     0.060 C 
BRANCH   7   8
ATOM      8  C2' I4B d   1      -3.592  -0.629   0.978  0.00  0.00    -0.013 C 
ATOM      9  C4' I4B d   1      -4.971  -0.508   0.387  0.00  0.00     0.013 C 
ATOM     10  C3' I4B d   1      -2.979  -1.959   0.653  0.00  0.00     0.013 C 
ENDBRANCH   7   8
ENDBRANCH   1   7
TORSDOF 2
ENDMDL
