MODEL 1
REMARK minimizedAffinity 3.12943459
REMARK minimizedRMSD -1
REMARK  2 active torsions:
REMARK  status: ('A' for Active; 'I' for Inactive)
REMARK    1  A    between atoms: C2'_3  and  C1'_4 
REMARK    2  A    between atoms: C1'_4  and  C1_5 
ROOT
ATOM      1  C1  I4B d   1       2.753  -5.584   1.746  0.00  0.00    -0.075 A 
ATOM      2  C2  I4B d   1       2.142  -5.968   2.914  0.00  0.00     0.003 A 
ATOM      3  C3  I4B d   1       0.794  -5.612   3.164  0.00  0.00     0.002 A 
ATOM      4  C4  I4B d   1       0.116  -4.834   2.248  0.00  0.00    -0.004 A 
ATOM      5  C5  I4B d   1       0.729  -4.466   1.054  0.00  0.00     0.002 A 
ATOM      6  C6  I4B d   1       2.052  -4.853   0.795  0.00  0.00     0.003 A 
ENDROOT
BRANCH   1   7
ATOM      7  C1' I4B d   1       4.187  -5.950   1.529  0.00  0.00     0.060 C 
BRANCH   7   8
ATOM      8  C2' I4B d   1       5.027  -5.130   2.487  0.00  0.00    -0.013 C 
ATOM      9  C4' I4B d   1       5.999  -6.000   3.240  0.00  0.00     0.013 C 
ATOM     10  C3' I4B d   1       5.744  -4.080   1.692  0.00  0.00     0.013 C 
ENDBRANCH   7   8
ENDBRANCH   1   7
TORSDOF 2
ENDMDL
