MODEL 1
REMARK minimizedAffinity 5.7751832
REMARK minimizedRMSD -1
REMARK  0 active torsions:
REMARK  status: ('A' for Active; 'I' for Inactive)
ROOT
ATOM      1  C2' OXE d   1       1.424  -4.569  -0.534  0.00  0.00     0.078 C 
ATOM      2  C1' OXE d   1       3.306  -2.533  -0.095  0.00  0.00     0.078 C 
ATOM      3  C1  OXE d   1       2.030  -2.169  -0.813  0.00  0.00    -0.078 A 
ATOM      4  C2  OXE d   1       1.136  -3.181  -1.065  0.00  0.00    -0.078 A 
ATOM      5  C3  OXE d   1      -0.081  -2.890  -1.675  0.00  0.00     0.003 A 
ATOM      6  C4  OXE d   1      -0.336  -1.606  -2.171  0.00  0.00    -0.002 A 
ATOM      7  C5  OXE d   1       0.579  -0.569  -1.961  0.00  0.00    -0.002 A 
ATOM      8  C6  OXE d   1       1.746  -0.824  -1.248  0.00  0.00     0.003 A 
ENDROOT
TORSDOF 0
ENDMDL
