MODEL 1
REMARK minimizedAffinity 7.64993858
REMARK minimizedRMSD -1
REMARK  0 active torsions:
REMARK  status: ('A' for Active; 'I' for Inactive)
ROOT
ATOM      1  C2' OXE d   1      -0.698   1.519  -0.627  0.00  0.00     0.078 C 
ATOM      2  C1' OXE d   1      -0.958   2.744   1.885  0.00  0.00     0.078 C 
ATOM      3  C1  OXE d   1      -0.875   3.637   0.672  0.00  0.00    -0.078 A 
ATOM      4  C2  OXE d   1      -0.701   3.030  -0.549  0.00  0.00    -0.078 A 
ATOM      5  C3  OXE d   1      -0.673   3.804  -1.706  0.00  0.00     0.003 A 
ATOM      6  C4  OXE d   1      -0.666   5.202  -1.624  0.00  0.00    -0.002 A 
ATOM      7  C5  OXE d   1      -0.802   5.841  -0.387  0.00  0.00    -0.002 A 
ATOM      8  C6  OXE d   1      -0.950   5.074   0.764  0.00  0.00     0.003 A 
ENDROOT
TORSDOF 0
ENDMDL
