MODEL 1
REMARK minimizedAffinity 5.44191837
REMARK minimizedRMSD -1
REMARK  0 active torsions:
REMARK  status: ('A' for Active; 'I' for Inactive)
ROOT
ATOM      1  C2' OXE d   1      -3.951   0.614   0.823  0.00  0.00     0.078 C 
ATOM      2  C1' OXE d   1      -4.690   2.112  -1.433  0.00  0.00     0.078 C 
ATOM      3  C1  OXE d   1      -4.030   0.775  -1.661  0.00  0.00    -0.078 A 
ATOM      4  C2  OXE d   1      -3.630   0.070  -0.552  0.00  0.00    -0.078 A 
ATOM      5  C3  OXE d   1      -3.066  -1.193  -0.705  0.00  0.00     0.003 A 
ATOM      6  C4  OXE d   1      -2.763  -1.685  -1.980  0.00  0.00    -0.002 A 
ATOM      7  C5  OXE d   1      -3.126  -0.965  -3.123  0.00  0.00    -0.002 A 
ATOM      8  C6  OXE d   1      -3.797   0.244  -2.982  0.00  0.00     0.003 A 
ENDROOT
TORSDOF 0
ENDMDL
