MODEL 1
REMARK minimizedAffinity 6.72586489
REMARK minimizedRMSD -1
REMARK  0 active torsions:
REMARK  status: ('A' for Active; 'I' for Inactive)
ROOT
ATOM      1  C2' OXE d   1       0.702  -0.752  -1.542  0.00  0.00     0.078 C 
ATOM      2  C1' OXE d   1      -0.270   1.664  -0.493  0.00  0.00     0.078 C 
ATOM      3  C1  OXE d   1      -1.275   0.599  -0.856  0.00  0.00    -0.078 A 
ATOM      4  C2  OXE d   1      -0.794  -0.561  -1.412  0.00  0.00    -0.078 A 
ATOM      5  C3  OXE d   1      -1.673  -1.597  -1.715  0.00  0.00     0.003 A 
ATOM      6  C4  OXE d   1      -3.055  -1.409  -1.601  0.00  0.00    -0.002 A 
ATOM      7  C5  OXE d   1      -3.569  -0.220  -1.075  0.00  0.00    -0.002 A 
ATOM      8  C6  OXE d   1      -2.693   0.776  -0.658  0.00  0.00     0.003 A 
ENDROOT
TORSDOF 0
ENDMDL
