MODEL 1
REMARK minimizedAffinity 9.14752579
REMARK minimizedRMSD -1
REMARK  0 active torsions:
REMARK  status: ('A' for Active; 'I' for Inactive)
ROOT
ATOM      1  C2' OXE d   1      -0.339   0.475  -0.555  0.00  0.00     0.078 C 
ATOM      2  C1' OXE d   1      -3.019  -0.288  -0.898  0.00  0.00     0.078 C 
ATOM      3  C1  OXE d   1      -2.015  -0.768  -1.916  0.00  0.00    -0.078 A 
ATOM      4  C2  OXE d   1      -0.714  -0.352  -1.766  0.00  0.00    -0.078 A 
ATOM      5  C3  OXE d   1       0.262  -0.811  -2.646  0.00  0.00     0.003 A 
ATOM      6  C4  OXE d   1      -0.094  -1.567  -3.769  0.00  0.00    -0.002 A 
ATOM      7  C5  OXE d   1      -1.420  -1.968  -3.962  0.00  0.00    -0.002 A 
ATOM      8  C6  OXE d   1      -2.383  -1.614  -3.024  0.00  0.00     0.003 A 
ENDROOT
TORSDOF 0
ENDMDL
