MODEL 1
REMARK minimizedAffinity 12.0731812
REMARK minimizedRMSD -1
REMARK  0 active torsions:
REMARK  status: ('A' for Active; 'I' for Inactive)
ROOT
ATOM      1  C2' OXE d   1      -1.010  -1.580  -2.331  0.00  0.00     0.078 C 
ATOM      2  C1' OXE d   1      -0.581   0.933  -1.156  0.00  0.00     0.078 C 
ATOM      3  C1  OXE d   1      -1.948   0.311  -1.009  0.00  0.00    -0.078 A 
ATOM      4  C2  OXE d   1      -2.163  -0.897  -1.628  0.00  0.00    -0.078 A 
ATOM      5  C3  OXE d   1      -3.388  -1.539  -1.478  0.00  0.00     0.003 A 
ATOM      6  C4  OXE d   1      -4.452  -0.896  -0.834  0.00  0.00    -0.002 A 
ATOM      7  C5  OXE d   1      -4.266   0.353  -0.232  0.00  0.00    -0.002 A 
ATOM      8  C6  OXE d   1      -3.011   0.950  -0.273  0.00  0.00     0.003 A 
ENDROOT
TORSDOF 0
ENDMDL
