MODEL 1
REMARK minimizedAffinity 5.32196188
REMARK minimizedRMSD -1
REMARK  0 active torsions:
REMARK  status: ('A' for Active; 'I' for Inactive)
ROOT
ATOM      1  C2' OXE d   1      -5.255   0.743   2.086  0.00  0.00     0.078 C 
ATOM      2  C1' OXE d   1      -5.995   1.814  -0.401  0.00  0.00     0.078 C 
ATOM      3  C1  OXE d   1      -4.916   0.761  -0.382  0.00  0.00    -0.078 A 
ATOM      4  C2  OXE d   1      -4.527   0.276   0.844  0.00  0.00    -0.078 A 
ATOM      5  C3  OXE d   1      -3.575  -0.737   0.914  0.00  0.00     0.003 A 
ATOM      6  C4  OXE d   1      -2.899  -1.156  -0.239  0.00  0.00    -0.002 A 
ATOM      7  C5  OXE d   1      -3.252  -0.646  -1.493  0.00  0.00    -0.002 A 
ATOM      8  C6  OXE d   1      -4.285   0.280  -1.586  0.00  0.00     0.003 A 
ENDROOT
TORSDOF 0
ENDMDL
