MODEL 1
REMARK minimizedAffinity 6.68253136
REMARK minimizedRMSD -1
REMARK  0 active torsions:
REMARK  status: ('A' for Active; 'I' for Inactive)
ROOT
ATOM      1  C2' OXE d   1       1.844   3.532   4.071  0.00  0.00     0.078 C 
ATOM      2  C1' OXE d   1       0.270   1.248   3.635  0.00  0.00     0.078 C 
ATOM      3  C1  OXE d   1       0.308   2.294   2.549  0.00  0.00    -0.078 A 
ATOM      4  C2  OXE d   1       1.043   3.430   2.791  0.00  0.00    -0.078 A 
ATOM      5  C3  OXE d   1       1.156   4.402   1.800  0.00  0.00     0.003 A 
ATOM      6  C4  OXE d   1       0.404   4.304   0.623  0.00  0.00    -0.002 A 
ATOM      7  C5  OXE d   1      -0.382   3.174   0.374  0.00  0.00    -0.002 A 
ATOM      8  C6  OXE d   1      -0.408   2.143   1.306  0.00  0.00     0.003 A 
ENDROOT
TORSDOF 0
ENDMDL
