MODEL 1
REMARK minimizedAffinity 8.13152027
REMARK minimizedRMSD -1
REMARK  0 active torsions:
REMARK  status: ('A' for Active; 'I' for Inactive)
ROOT
ATOM      1  C2' OXE d   1      -0.380   0.881  -0.591  0.00  0.00     0.078 C 
ATOM      2  C1' OXE d   1      -0.895   1.870   1.986  0.00  0.00     0.078 C 
ATOM      3  C1  OXE d   1      -0.891   2.854   0.843  0.00  0.00    -0.078 A 
ATOM      4  C2  OXE d   1      -0.592   2.369  -0.408  0.00  0.00    -0.078 A 
ATOM      5  C3  OXE d   1      -0.629   3.224  -1.506  0.00  0.00     0.003 A 
ATOM      6  C4  OXE d   1      -0.816   4.600  -1.327  0.00  0.00    -0.002 A 
ATOM      7  C5  OXE d   1      -1.083   5.120  -0.056  0.00  0.00    -0.002 A 
ATOM      8  C6  OXE d   1      -1.166   4.257   1.031  0.00  0.00     0.003 A 
ENDROOT
TORSDOF 0
ENDMDL
