MODEL 1
REMARK minimizedAffinity 9.51516151
REMARK minimizedRMSD -1
REMARK  0 active torsions:
REMARK  status: ('A' for Active; 'I' for Inactive)
ROOT
ATOM      1  C2' OXE d   1       3.279  -5.633  -2.716  0.00  0.00     0.078 C 
ATOM      2  C1' OXE d   1       4.790  -5.155  -5.033  0.00  0.00     0.078 C 
ATOM      3  C1  OXE d   1       3.437  -4.496  -4.927  0.00  0.00    -0.078 A 
ATOM      4  C2  OXE d   1       2.685  -4.773  -3.811  0.00  0.00    -0.078 A 
ATOM      5  C3  OXE d   1       1.453  -4.149  -3.638  0.00  0.00     0.003 A 
ATOM      6  C4  OXE d   1       0.907  -3.363  -4.660  0.00  0.00    -0.002 A 
ATOM      7  C5  OXE d   1       1.639  -3.101  -5.823  0.00  0.00    -0.002 A 
ATOM      8  C6  OXE d   1       2.921  -3.624  -5.953  0.00  0.00     0.003 A 
ENDROOT
TORSDOF 0
ENDMDL
