MODEL 1
REMARK minimizedAffinity 11.8885136
REMARK minimizedRMSD -1
REMARK  0 active torsions:
REMARK  status: ('A' for Active; 'I' for Inactive)
ROOT
ATOM      1  C2' OXE d   1      -0.943   1.662   2.303  0.00  0.00     0.078 C 
ATOM      2  C1' OXE d   1      -0.433   2.160  -0.412  0.00  0.00     0.078 C 
ATOM      3  C1  OXE d   1      -1.816   1.696  -0.029  0.00  0.00    -0.078 A 
ATOM      4  C2  OXE d   1      -2.043   1.410   1.295  0.00  0.00    -0.078 A 
ATOM      5  C3  OXE d   1      -3.317   1.030   1.710  0.00  0.00     0.003 A 
ATOM      6  C4  OXE d   1      -4.326   0.789   0.770  0.00  0.00    -0.002 A 
ATOM      7  C5  OXE d   1      -4.104   1.036  -0.589  0.00  0.00    -0.002 A 
ATOM      8  C6  OXE d   1      -2.870   1.529  -0.999  0.00  0.00     0.003 A 
ENDROOT
TORSDOF 0
ENDMDL
