MODEL 1
REMARK minimizedAffinity 6.73181391
REMARK minimizedRMSD -1
REMARK  0 active torsions:
REMARK  status: ('A' for Active; 'I' for Inactive)
ROOT
ATOM      1  C2' OXE d   1       3.265  -5.233  -1.277  0.00  0.00     0.078 C 
ATOM      2  C1' OXE d   1       2.785  -3.543   0.912  0.00  0.00     0.078 C 
ATOM      3  C1  OXE d   1       3.699  -3.041  -0.178  0.00  0.00    -0.078 A 
ATOM      4  C2  OXE d   1       3.965  -3.893  -1.222  0.00  0.00    -0.078 A 
ATOM      5  C3  OXE d   1       4.757  -3.458  -2.282  0.00  0.00     0.003 A 
ATOM      6  C4  OXE d   1       5.408  -2.220  -2.218  0.00  0.00    -0.002 A 
ATOM      7  C5  OXE d   1       5.182  -1.353  -1.144  0.00  0.00    -0.002 A 
ATOM      8  C6  OXE d   1       4.299  -1.730  -0.138  0.00  0.00     0.003 A 
ENDROOT
TORSDOF 0
ENDMDL
