MODEL 1
REMARK minimizedAffinity -0.397209913
REMARK minimizedRMSD -1
REMARK  0 active torsions:
REMARK  status: ('A' for Active; 'I' for Inactive)
ROOT
ATOM      1  C   UNL d   1       5.503   5.624   3.133  0.00  0.00     0.172 C 
ATOM      2  N   UNL d   1       4.878   4.901   4.216  0.00  0.00    -0.070 N 
ATOM      3  C1  UNL d   1       3.537   4.882   4.494  0.00  0.00    -0.004 A 
ATOM      4  C2  UNL d   1       3.347   4.081   5.599  0.00  0.00    -0.047 A 
ATOM      5  C3  UNL d   1       4.617   3.603   6.000  0.00  0.00    -0.047 A 
ATOM      6  C4  UNL d   1       5.547   4.127   5.126  0.00  0.00    -0.004 A 
ENDROOT
TORSDOF 0
ENDMDL
