MODEL 1
REMARK minimizedAffinity 2.21006989
REMARK minimizedRMSD -1
REMARK  0 active torsions:
REMARK  status: ('A' for Active; 'I' for Inactive)
ROOT
ATOM      1  C   UNL d   1       5.723   3.358  -0.539  0.00  0.00     0.172 C 
ATOM      2  N   UNL d   1       4.878   2.194  -0.673  0.00  0.00    -0.070 N 
ATOM      3  C1  UNL d   1       5.145   1.099  -1.450  0.00  0.00    -0.004 A 
ATOM      4  C2  UNL d   1       4.099   0.213  -1.305  0.00  0.00    -0.047 A 
ATOM      5  C3  UNL d   1       3.171   0.797  -0.410  0.00  0.00    -0.047 A 
ATOM      6  C4  UNL d   1       3.678   2.023  -0.034  0.00  0.00    -0.004 A 
ENDROOT
TORSDOF 0
ENDMDL
