MODEL 1
REMARK minimizedAffinity 0.74720037
REMARK minimizedRMSD -1
REMARK  0 active torsions:
REMARK  status: ('A' for Active; 'I' for Inactive)
ROOT
ATOM      1  C   UNL d   1       4.397   1.989   1.627  0.00  0.00     0.172 C 
ATOM      2  N   UNL d   1       4.047   1.077   0.564  0.00  0.00    -0.070 N 
ATOM      3  C1  UNL d   1       2.895   1.117  -0.176  0.00  0.00    -0.004 A 
ATOM      4  C2  UNL d   1       2.941   0.082  -1.085  0.00  0.00    -0.047 A 
ATOM      5  C3  UNL d   1       4.163  -0.604  -0.885  0.00  0.00    -0.047 A 
ATOM      6  C4  UNL d   1       4.828   0.033   0.142  0.00  0.00    -0.004 A 
ENDROOT
TORSDOF 0
ENDMDL
