MODEL 1
REMARK minimizedAffinity 1.19189763
REMARK minimizedRMSD -1
REMARK  0 active torsions:
REMARK  status: ('A' for Active; 'I' for Inactive)
ROOT
ATOM      1  C   UNL d   1       2.999   2.419   5.993  0.00  0.00     0.172 C 
ATOM      2  N   UNL d   1       2.483   3.767   5.994  0.00  0.00    -0.070 N 
ATOM      3  C1  UNL d   1       1.158   4.115   6.000  0.00  0.00    -0.004 A 
ATOM      4  C2  UNL d   1       1.083   5.491   5.999  0.00  0.00    -0.047 A 
ATOM      5  C3  UNL d   1       2.408   5.987   5.992  0.00  0.00    -0.047 A 
ATOM      6  C4  UNL d   1       3.254   4.899   5.989  0.00  0.00    -0.004 A 
ENDROOT
TORSDOF 0
ENDMDL
