MODEL 1
REMARK minimizedAffinity 8.13242626
REMARK minimizedRMSD -1
REMARK  0 active torsions:
REMARK  status: ('A' for Active; 'I' for Inactive)
ROOT
ATOM      1  O1  BZF d   1      -0.921   0.494   0.489  0.00  0.00    -0.204 OA
ATOM      2  C2  BZF d   1      -1.944  -0.255  -0.060  0.00  0.00     0.174 A 
ATOM      3  C3  BZF d   1      -2.376  -1.188   0.813  0.00  0.00    -0.012 A 
ATOM      4  C3A BZF d   1      -1.635  -0.951   2.014  0.00  0.00    -0.107 A 
ATOM      5  C4  BZF d   1      -1.629  -1.541   3.246  0.00  0.00     0.055 A 
ATOM      6  C5  BZF d   1      -0.733  -1.119   4.176  0.00  0.00    -0.016 A 
ATOM      7  C6  BZF d   1       0.172  -0.113   3.909  0.00  0.00     0.022 A 
ATOM      8  C7  BZF d   1       0.200   0.507   2.704  0.00  0.00     0.029 A 
ATOM      9  C7A BZF d   1      -0.725   0.105   1.772  0.00  0.00     0.058 A 
ENDROOT
TORSDOF 0
ENDMDL
