MODEL 1
REMARK minimizedAffinity 2.44507504
REMARK minimizedRMSD -1
REMARK  0 active torsions:
REMARK  status: ('A' for Active; 'I' for Inactive)
ROOT
ATOM      1  O1  BZF d   1      -1.582   0.825   0.536  0.00  0.00    -0.204 OA
ATOM      2  C2  BZF d   1      -2.829   0.231   0.564  0.00  0.00     0.174 A 
ATOM      3  C3  BZF d   1      -2.869  -0.755   1.483  0.00  0.00    -0.012 A 
ATOM      4  C3A BZF d   1      -1.593  -0.719   2.130  0.00  0.00    -0.107 A 
ATOM      5  C4  BZF d   1      -1.032  -1.444   3.142  0.00  0.00     0.055 A 
ATOM      6  C5  BZF d   1       0.260  -1.206   3.487  0.00  0.00    -0.016 A 
ATOM      7  C6  BZF d   1       1.022  -0.255   2.840  0.00  0.00     0.022 A 
ATOM      8  C7  BZF d   1       0.508   0.493   1.833  0.00  0.00     0.029 A 
ATOM      9  C7A BZF d   1      -0.808   0.277   1.504  0.00  0.00     0.058 A 
ENDROOT
TORSDOF 0
ENDMDL
