MODEL 1
REMARK minimizedAffinity 2.03938103
REMARK minimizedRMSD -1
REMARK  0 active torsions:
REMARK  status: ('A' for Active; 'I' for Inactive)
ROOT
ATOM      1  O1  BZF d   1      -0.303   1.301  -0.046  0.00  0.00    -0.204 OA
ATOM      2  C2  BZF d   1      -1.217   0.781  -0.942  0.00  0.00     0.174 A 
ATOM      3  C3  BZF d   1      -1.991  -0.150  -0.349  0.00  0.00    -0.012 A 
ATOM      4  C3A BZF d   1      -1.594  -0.150   1.026  0.00  0.00    -0.107 A 
ATOM      5  C4  BZF d   1      -2.009  -0.850   2.123  0.00  0.00     0.055 A 
ATOM      6  C5  BZF d   1      -1.366  -0.666   3.305  0.00  0.00    -0.016 A 
ATOM      7  C6  BZF d   1      -0.302   0.203   3.426  0.00  0.00     0.022 A 
ATOM      8  C7  BZF d   1       0.143   0.923   2.367  0.00  0.00     0.029 A 
ATOM      9  C7A BZF d   1      -0.527   0.764   1.178  0.00  0.00     0.058 A 
ENDROOT
TORSDOF 0
ENDMDL
