MODEL 1
REMARK minimizedAffinity -3.41034746
REMARK minimizedRMSD -1
REMARK  0 active torsions:
REMARK  status: ('A' for Active; 'I' for Inactive)
ROOT
ATOM      1  O1  BZF d   1       5.949  -4.740   5.254  0.00  0.00    -0.204 OA
ATOM      2  C2  BZF d   1       5.899  -5.608   4.181  0.00  0.00     0.174 A 
ATOM      3  C3  BZF d   1       5.827  -4.929   3.018  0.00  0.00    -0.012 A 
ATOM      4  C3A BZF d   1       5.926  -3.549   3.382  0.00  0.00    -0.107 A 
ATOM      5  C4  BZF d   1       5.932  -2.387   2.665  0.00  0.00     0.055 A 
ATOM      6  C5  BZF d   1       5.968  -1.201   3.329  0.00  0.00    -0.016 A 
ATOM      7  C6  BZF d   1       5.994  -1.141   4.707  0.00  0.00     0.022 A 
ATOM      8  C7  BZF d   1       5.995  -2.267   5.461  0.00  0.00     0.029 A 
ATOM      9  C7A BZF d   1       5.991  -3.467   4.793  0.00  0.00     0.058 A 
ENDROOT
TORSDOF 0
ENDMDL
