MODEL 1
REMARK minimizedAffinity 10.1253977
REMARK minimizedRMSD -1
REMARK  0 active torsions:
REMARK  status: ('A' for Active; 'I' for Inactive)
ROOT
ATOM      1  O1  BZF d   1      -1.057   1.136  -0.334  0.00  0.00    -0.204 OA
ATOM      2  C2  BZF d   1      -2.190   0.393  -0.604  0.00  0.00     0.174 A 
ATOM      3  C3  BZF d   1      -2.502  -0.400   0.441  0.00  0.00    -0.012 A 
ATOM      4  C3A BZF d   1      -1.555  -0.069   1.461  0.00  0.00    -0.107 A 
ATOM      5  C4  BZF d   1      -1.359  -0.508   2.739  0.00  0.00     0.055 A 
ATOM      6  C5  BZF d   1      -0.299  -0.035   3.445  0.00  0.00    -0.016 A 
ATOM      7  C6  BZF d   1       0.587   0.873   2.903  0.00  0.00     0.022 A 
ATOM      8  C7  BZF d   1       0.431   1.342   1.641  0.00  0.00     0.029 A 
ATOM      9  C7A BZF d   1      -0.658   0.890   0.937  0.00  0.00     0.058 A 
ENDROOT
TORSDOF 0
ENDMDL
