MODEL 1
REMARK minimizedAffinity 10.4436512
REMARK minimizedRMSD -1
REMARK  0 active torsions:
REMARK  status: ('A' for Active; 'I' for Inactive)
ROOT
ATOM      1  O1  BZF d   1      -0.610   0.886  -0.589  0.00  0.00    -0.204 OA
ATOM      2  C2  BZF d   1      -1.961   0.612  -0.492  0.00  0.00     0.174 A 
ATOM      3  C3  BZF d   1      -2.245   0.017   0.685  0.00  0.00    -0.012 A 
ATOM      4  C3A BZF d   1      -1.008  -0.004   1.404  0.00  0.00    -0.107 A 
ATOM      5  C4  BZF d   1      -0.649  -0.454   2.643  0.00  0.00     0.055 A 
ATOM      6  C5  BZF d   1       0.656  -0.392   3.015  0.00  0.00    -0.016 A 
ATOM      7  C6  BZF d   1       1.629   0.107   2.174  0.00  0.00     0.022 A 
ATOM      8  C7  BZF d   1       1.321   0.570   0.938  0.00  0.00     0.029 A 
ATOM      9  C7A BZF d   1      -0.003   0.540   0.571  0.00  0.00     0.058 A 
ENDROOT
TORSDOF 0
ENDMDL
