MODEL 1
REMARK minimizedAffinity 9.34935856
REMARK minimizedRMSD -1
REMARK  0 active torsions:
REMARK  status: ('A' for Active; 'I' for Inactive)
ROOT
ATOM      1  O1  BZF d   1       0.709  -0.047   3.797  0.00  0.00    -0.204 OA
ATOM      2  C2  BZF d   1       1.274   1.070   3.212  0.00  0.00     0.174 A 
ATOM      3  C3  BZF d   1       0.671   1.353   2.039  0.00  0.00    -0.012 A 
ATOM      4  C3A BZF d   1      -0.395   0.405   1.925  0.00  0.00    -0.107 A 
ATOM      5  C4  BZF d   1      -1.361   0.187   0.986  0.00  0.00     0.055 A 
ATOM      6  C5  BZF d   1      -2.204  -0.867   1.138  0.00  0.00    -0.016 A 
ATOM      7  C6  BZF d   1      -2.107  -1.726   2.213  0.00  0.00     0.022 A 
ATOM      8  C7  BZF d   1      -1.167  -1.547   3.174  0.00  0.00     0.029 A 
ATOM      9  C7A BZF d   1      -0.335  -0.463   3.040  0.00  0.00     0.058 A 
ENDROOT
TORSDOF 0
ENDMDL
