MODEL 1
REMARK minimizedAffinity 8.50214958
REMARK minimizedRMSD -1
REMARK  0 active torsions:
REMARK  status: ('A' for Active; 'I' for Inactive)
ROOT
ATOM      1  O1  BZF d   1      -3.428   0.047  -0.925  0.00  0.00    -0.204 OA
ATOM      2  C2  BZF d   1      -2.365  -0.462  -1.646  0.00  0.00     0.174 A 
ATOM      3  C3  BZF d   1      -1.245  -0.482  -0.896  0.00  0.00    -0.012 A 
ATOM      4  C3A BZF d   1      -1.653  -0.039   0.402  0.00  0.00    -0.107 A 
ATOM      5  C4  BZF d   1      -0.992   0.138   1.584  0.00  0.00     0.055 A 
ATOM      6  C5  BZF d   1      -1.665   0.654   2.646  0.00  0.00    -0.016 A 
ATOM      7  C6  BZF d   1      -2.996   1.007   2.560  0.00  0.00     0.022 A 
ATOM      8  C7  BZF d   1      -3.695   0.845   1.410  0.00  0.00     0.029 A 
ATOM      9  C7A BZF d   1      -3.026   0.293   0.345  0.00  0.00     0.058 A 
ENDROOT
TORSDOF 0
ENDMDL
