MODEL 1
REMARK minimizedAffinity 18.8055267
REMARK minimizedRMSD -1
REMARK  0 active torsions:
REMARK  status: ('A' for Active; 'I' for Inactive)
ROOT
ATOM      1  O1  BZF d   1       2.948   5.303  -4.067  0.00  0.00    -0.204 OA
ATOM      2  C2  BZF d   1       1.626   5.689  -3.948  0.00  0.00     0.174 A 
ATOM      3  C3  BZF d   1       0.812   4.797  -4.547  0.00  0.00    -0.012 A 
ATOM      4  C3A BZF d   1       1.671   3.743  -4.994  0.00  0.00    -0.107 A 
ATOM      5  C4  BZF d   1       1.450   2.564  -5.646  0.00  0.00     0.055 A 
ATOM      6  C5  BZF d   1       2.514   1.796  -6.000  0.00  0.00    -0.016 A 
ATOM      7  C6  BZF d   1       3.810   2.178  -5.722  0.00  0.00     0.022 A 
ATOM      8  C7  BZF d   1       4.079   3.336  -5.073  0.00  0.00     0.029 A 
ATOM      9  C7A BZF d   1       3.004   4.099  -4.684  0.00  0.00     0.058 A 
ENDROOT
TORSDOF 0
ENDMDL
