MODEL 1
REMARK minimizedAffinity 5.39897776
REMARK minimizedRMSD -1
REMARK  0 active torsions:
REMARK  status: ('A' for Active; 'I' for Inactive)
ROOT
ATOM      1  O1  BZF d   1      -2.718   1.670   4.493  0.00  0.00    -0.204 OA
ATOM      2  C2  BZF d   1      -2.036   2.787   4.051  0.00  0.00     0.174 A 
ATOM      3  C3  BZF d   1      -0.800   2.455   3.626  0.00  0.00    -0.012 A 
ATOM      4  C3A BZF d   1      -0.737   1.029   3.728  0.00  0.00    -0.107 A 
ATOM      5  C4  BZF d   1       0.229   0.108   3.437  0.00  0.00     0.055 A 
ATOM      6  C5  BZF d   1       0.000  -1.201   3.721  0.00  0.00    -0.016 A 
ATOM      7  C6  BZF d   1      -1.179  -1.623   4.299  0.00  0.00     0.022 A 
ATOM      8  C7  BZF d   1      -2.168  -0.748   4.600  0.00  0.00     0.029 A 
ATOM      9  C7A BZF d   1      -1.954   0.571   4.285  0.00  0.00     0.058 A 
ENDROOT
TORSDOF 0
ENDMDL
