MODEL 1
REMARK minimizedAffinity 0.660192668
REMARK minimizedRMSD -1
REMARK  0 active torsions:
REMARK  status: ('A' for Active; 'I' for Inactive)
ROOT
ATOM      1  O1  BZF d   1       1.680   4.001  -1.930  0.00  0.00    -0.204 OA
ATOM      2  C2  BZF d   1       2.129   3.022  -1.065  0.00  0.00     0.174 A 
ATOM      3  C3  BZF d   1       3.281   2.482  -1.511  0.00  0.00    -0.012 A 
ATOM      4  C3A BZF d   1       3.619   3.230  -2.682  0.00  0.00    -0.107 A 
ATOM      5  C4  BZF d   1       4.663   3.178  -3.561  0.00  0.00     0.055 A 
ATOM      6  C5  BZF d   1       4.658   4.001  -4.643  0.00  0.00    -0.016 A 
ATOM      7  C6  BZF d   1       3.624   4.883  -4.879  0.00  0.00     0.022 A 
ATOM      8  C7  BZF d   1       2.569   4.974  -4.033  0.00  0.00     0.029 A 
ATOM      9  C7A BZF d   1       2.588   4.167  -2.921  0.00  0.00     0.058 A 
ENDROOT
TORSDOF 0
ENDMDL
