MODEL 1
REMARK minimizedAffinity 5.92245388
REMARK minimizedRMSD -1
REMARK  0 active torsions:
REMARK  status: ('A' for Active; 'I' for Inactive)
ROOT
ATOM      1  O1  BZF d   1      -3.006   0.337   1.133  0.00  0.00    -0.204 OA
ATOM      2  C2  BZF d   1      -2.188   0.070   2.214  0.00  0.00     0.174 A 
ATOM      3  C3  BZF d   1      -1.220  -0.806   1.876  0.00  0.00    -0.012 A 
ATOM      4  C3A BZF d   1      -1.391  -1.034   0.474  0.00  0.00    -0.107 A 
ATOM      5  C4  BZF d   1      -0.724  -1.797  -0.441  0.00  0.00     0.055 A 
ATOM      6  C5  BZF d   1      -1.190  -1.857  -1.717  0.00  0.00    -0.016 A 
ATOM      7  C6  BZF d   1      -2.322  -1.172  -2.109  0.00  0.00     0.022 A 
ATOM      8  C7  BZF d   1      -3.014  -0.399  -1.238  0.00  0.00     0.029 A 
ATOM      9  C7A BZF d   1      -2.527  -0.310   0.043  0.00  0.00     0.058 A 
ENDROOT
TORSDOF 0
ENDMDL
