MODEL 1
REMARK minimizedAffinity 3.22087622
REMARK minimizedRMSD -1
REMARK  0 active torsions:
REMARK  status: ('A' for Active; 'I' for Inactive)
ROOT
ATOM      1  O1  BZF d   1      -1.234  -0.043   0.654  0.00  0.00    -0.204 OA
ATOM      2  C2  BZF d   1      -2.586   0.189   0.493  0.00  0.00     0.174 A 
ATOM      3  C3  BZF d   1      -3.261  -0.112   1.622  0.00  0.00    -0.012 A 
ATOM      4  C3A BZF d   1      -2.257  -0.471   2.576  0.00  0.00    -0.107 A 
ATOM      5  C4  BZF d   1      -2.301  -0.855   3.886  0.00  0.00     0.055 A 
ATOM      6  C5  BZF d   1      -1.146  -1.207   4.510  0.00  0.00    -0.016 A 
ATOM      7  C6  BZF d   1       0.067  -1.192   3.854  0.00  0.00     0.022 A 
ATOM      8  C7  BZF d   1       0.162  -0.815   2.556  0.00  0.00     0.029 A 
ATOM      9  C7A BZF d   1      -0.999  -0.427   1.932  0.00  0.00     0.058 A 
ENDROOT
TORSDOF 0
ENDMDL
