MODEL 1
REMARK minimizedAffinity 10.5968046
REMARK minimizedRMSD -1
REMARK  0 active torsions:
REMARK  status: ('A' for Active; 'I' for Inactive)
ROOT
ATOM      1  O1  BZF d   1      -2.257   0.861   1.238  0.00  0.00    -0.204 OA
ATOM      2  C2  BZF d   1      -3.193  -0.043   0.772  0.00  0.00     0.174 A 
ATOM      3  C3  BZF d   1      -2.917  -1.287   1.214  0.00  0.00    -0.012 A 
ATOM      4  C3A BZF d   1      -1.788  -1.138   2.079  0.00  0.00    -0.107 A 
ATOM      5  C4  BZF d   1      -1.059  -2.014   2.831  0.00  0.00     0.055 A 
ATOM      6  C5  BZF d   1       0.029  -1.559   3.507  0.00  0.00    -0.016 A 
ATOM      7  C6  BZF d   1       0.419  -0.237   3.449  0.00  0.00     0.022 A 
ATOM      8  C7  BZF d   1      -0.275   0.671   2.720  0.00  0.00     0.029 A 
ATOM      9  C7A BZF d   1      -1.394   0.220   2.063  0.00  0.00     0.058 A 
ENDROOT
TORSDOF 0
ENDMDL
