MODEL 1
REMARK minimizedAffinity 9.10227394
REMARK minimizedRMSD -1
REMARK  0 active torsions:
REMARK  status: ('A' for Active; 'I' for Inactive)
ROOT
ATOM      1  O1  BZF d   1      -0.829   0.426   0.370  0.00  0.00    -0.204 OA
ATOM      2  C2  BZF d   1      -2.008  -0.086  -0.134  0.00  0.00     0.174 A 
ATOM      3  C3  BZF d   1      -2.665  -0.792   0.809  0.00  0.00    -0.012 A 
ATOM      4  C3A BZF d   1      -1.890  -0.639   2.002  0.00  0.00    -0.107 A 
ATOM      5  C4  BZF d   1      -2.036  -1.094   3.281  0.00  0.00     0.055 A 
ATOM      6  C5  BZF d   1      -1.063  -0.827   4.192  0.00  0.00    -0.016 A 
ATOM      7  C6  BZF d   1       0.069  -0.114   3.857  0.00  0.00     0.022 A 
ATOM      8  C7  BZF d   1       0.256   0.362   2.602  0.00  0.00     0.029 A 
ATOM      9  C7A BZF d   1      -0.740   0.122   1.687  0.00  0.00     0.058 A 
ENDROOT
TORSDOF 0
ENDMDL
