MODEL 1
REMARK minimizedAffinity 4.6640892
REMARK minimizedRMSD -1
REMARK  0 active torsions:
REMARK  status: ('A' for Active; 'I' for Inactive)
ROOT
ATOM      1  O1  BZF d   1      -0.991   0.429   0.286  0.00  0.00    -0.204 OA
ATOM      2  C2  BZF d   1      -2.259   0.068  -0.128  0.00  0.00     0.174 A 
ATOM      3  C3  BZF d   1      -2.867  -0.695   0.802  0.00  0.00    -0.012 A 
ATOM      4  C3A BZF d   1      -1.956  -0.743   1.905  0.00  0.00    -0.107 A 
ATOM      5  C4  BZF d   1      -2.000  -1.335   3.134  0.00  0.00     0.055 A 
ATOM      6  C5  BZF d   1      -0.915  -1.250   3.947  0.00  0.00    -0.016 A 
ATOM      7  C6  BZF d   1       0.232  -0.587   3.561  0.00  0.00     0.022 A 
ATOM      8  C7  BZF d   1       0.321   0.020   2.353  0.00  0.00     0.029 A 
ATOM      9  C7A BZF d   1      -0.786  -0.036   1.542  0.00  0.00     0.058 A 
ENDROOT
TORSDOF 0
ENDMDL
