MODEL 1
REMARK minimizedAffinity 8.33887672
REMARK minimizedRMSD -1
REMARK  0 active torsions:
REMARK  status: ('A' for Active; 'I' for Inactive)
ROOT
ATOM      1  O1  BZF d   1      -1.814   0.874   0.220  0.00  0.00    -0.204 OA
ATOM      2  C2  BZF d   1      -2.673   1.168   1.261  0.00  0.00     0.174 A 
ATOM      3  C3  BZF d   1      -2.044   1.051   2.448  0.00  0.00    -0.012 A 
ATOM      4  C3A BZF d   1      -0.683   0.749   2.124  0.00  0.00    -0.107 A 
ATOM      5  C4  BZF d   1       0.435   0.532   2.877  0.00  0.00     0.055 A 
ATOM      6  C5  BZF d   1       1.594   0.188   2.255  0.00  0.00    -0.016 A 
ATOM      7  C6  BZF d   1       1.668   0.046   0.885  0.00  0.00     0.022 A 
ATOM      8  C7  BZF d   1       0.586   0.255   0.096  0.00  0.00     0.029 A 
ATOM      9  C7A BZF d   1      -0.578   0.635   0.718  0.00  0.00     0.058 A 
ENDROOT
TORSDOF 0
ENDMDL
