MODEL 1
REMARK minimizedAffinity 13.8742161
REMARK minimizedRMSD -1
REMARK  0 active torsions:
REMARK  status: ('A' for Active; 'I' for Inactive)
ROOT
ATOM      1  N1  IND d   1       1.144  -0.780   2.408  0.00  0.00    -0.196 N 
ATOM      2  C2  IND d   1       1.959   0.125   1.787  0.00  0.00     0.054 A 
ATOM      3  C3  IND d   1       3.216   0.041   2.279  0.00  0.00    -0.031 A 
ATOM      4  C4  IND d   1       4.182  -1.578   4.031  0.00  0.00     0.051 A 
ATOM      5  C5  IND d   1       3.815  -2.562   4.907  0.00  0.00    -0.031 A 
ATOM      6  C6  IND d   1       2.514  -3.013   4.993  0.00  0.00     0.015 A 
ATOM      7  C7  IND d   1       1.529  -2.503   4.196  0.00  0.00    -0.016 A 
ATOM      8  C8  IND d   1       1.896  -1.499   3.311  0.00  0.00    -0.047 A 
ATOM      9  C9  IND d   1       3.206  -1.007   3.249  0.00  0.00    -0.096 A 
ATOM     10  HN1 IND d   1       0.304  -0.884   2.258  0.00  0.00     0.298 HD
ENDROOT
TORSDOF 0
ENDMDL
