MODEL 1
REMARK minimizedAffinity 15.3792753
REMARK minimizedRMSD -1
REMARK  0 active torsions:
REMARK  status: ('A' for Active; 'I' for Inactive)
ROOT
ATOM      1  N1  IND d   1       2.267  -1.837   2.508  0.00  0.00    -0.196 N 
ATOM      2  C2  IND d   1       1.859  -2.291   3.731  0.00  0.00     0.054 A 
ATOM      3  C3  IND d   1       1.744  -1.263   4.601  0.00  0.00    -0.031 A 
ATOM      4  C4  IND d   1       2.077   1.259   4.204  0.00  0.00     0.051 A 
ATOM      5  C5  IND d   1       2.488   2.156   3.258  0.00  0.00    -0.031 A 
ATOM      6  C6  IND d   1       2.850   1.759   1.987  0.00  0.00     0.015 A 
ATOM      7  C7  IND d   1       2.805   0.447   1.610  0.00  0.00    -0.016 A 
ATOM      8  C8  IND d   1       2.396  -0.467   2.570  0.00  0.00    -0.047 A 
ATOM      9  C9  IND d   1       2.067  -0.076   3.875  0.00  0.00    -0.096 A 
ATOM     10  HN1 IND d   1       2.419  -2.325   1.817  0.00  0.00     0.298 HD
ENDROOT
TORSDOF 0
ENDMDL
