MODEL 1
REMARK minimizedAffinity 6.63206148
REMARK minimizedRMSD -1
REMARK  0 active torsions:
REMARK  status: ('A' for Active; 'I' for Inactive)
ROOT
ATOM      1  N1  IND d   1       5.680  -1.786   4.095  0.00  0.00    -0.196 N 
ATOM      2  C2  IND d   1       6.000  -2.283   5.328  0.00  0.00     0.054 A 
ATOM      3  C3  IND d   1       4.880  -2.633   6.000  0.00  0.00    -0.031 A 
ATOM      4  C4  IND d   1       2.424  -2.572   5.228  0.00  0.00     0.051 A 
ATOM      5  C5  IND d   1       1.630  -2.164   4.194  0.00  0.00    -0.031 A 
ATOM      6  C6  IND d   1       2.156  -1.600   3.050  0.00  0.00     0.015 A 
ATOM      7  C7  IND d   1       3.502  -1.433   2.892  0.00  0.00    -0.016 A 
ATOM      8  C8  IND d   1       4.312  -1.840   3.943  0.00  0.00    -0.047 A 
ATOM      9  C9  IND d   1       3.781  -2.374   5.124  0.00  0.00    -0.096 A 
ATOM     10  HN1 IND d   1       6.239  -1.490   3.513  0.00  0.00     0.298 HD
ENDROOT
TORSDOF 0
ENDMDL
