MODEL 1
REMARK minimizedAffinity -1.60610723
REMARK minimizedRMSD -1
REMARK  0 active torsions:
REMARK  status: ('A' for Active; 'I' for Inactive)
ROOT
ATOM      1  N1  IND d   1       2.022  -1.519   4.497  0.00  0.00    -0.196 N 
ATOM      2  C2  IND d   1       1.964  -1.138   3.186  0.00  0.00     0.054 A 
ATOM      3  C3  IND d   1       3.194  -1.182   2.628  0.00  0.00    -0.031 A 
ATOM      4  C4  IND d   1       5.428  -1.949   3.653  0.00  0.00     0.051 A 
ATOM      5  C5  IND d   1       5.990  -2.352   4.832  0.00  0.00    -0.031 A 
ATOM      6  C6  IND d   1       5.242  -2.504   5.982  0.00  0.00     0.015 A 
ATOM      7  C7  IND d   1       3.897  -2.269   5.993  0.00  0.00    -0.016 A 
ATOM      8  C8  IND d   1       3.324  -1.852   4.800  0.00  0.00    -0.047 A 
ATOM      9  C9  IND d   1       4.085  -1.655   3.640  0.00  0.00    -0.096 A 
ATOM     10  HN1 IND d   1       1.357  -1.547   5.042  0.00  0.00     0.298 HD
ENDROOT
TORSDOF 0
ENDMDL
