MODEL 1
REMARK minimizedAffinity 9.13333225
REMARK minimizedRMSD -1
REMARK  0 active torsions:
REMARK  status: ('A' for Active; 'I' for Inactive)
ROOT
ATOM      1  N1  IND d   1       5.742  -1.507   4.122  0.00  0.00    -0.196 N 
ATOM      2  C2  IND d   1       5.999  -2.250   5.240  0.00  0.00     0.054 A 
ATOM      3  C3  IND d   1       4.851  -2.756   5.743  0.00  0.00    -0.031 A 
ATOM      4  C4  IND d   1       2.449  -2.579   4.834  0.00  0.00     0.051 A 
ATOM      5  C5  IND d   1       1.709  -1.974   3.857  0.00  0.00    -0.031 A 
ATOM      6  C6  IND d   1       2.287  -1.168   2.898  0.00  0.00     0.015 A 
ATOM      7  C7  IND d   1       3.635  -0.946   2.872  0.00  0.00    -0.016 A 
ATOM      8  C8  IND d   1       4.389  -1.553   3.867  0.00  0.00    -0.047 A 
ATOM      9  C9  IND d   1       3.802  -2.337   4.869  0.00  0.00    -0.096 A 
ATOM     10  HN1 IND d   1       6.327  -1.083   3.656  0.00  0.00     0.298 HD
ENDROOT
TORSDOF 0
ENDMDL
