MODEL 1
REMARK minimizedAffinity 3.47378373
REMARK minimizedRMSD -1
REMARK  0 active torsions:
REMARK  status: ('A' for Active; 'I' for Inactive)
ROOT
ATOM      1  N1  IND d   1       4.757  -3.369   6.000  0.00  0.00    -0.196 N 
ATOM      2  C2  IND d   1       6.000  -2.860   5.743  0.00  0.00     0.054 A 
ATOM      3  C3  IND d   1       5.943  -1.971   4.725  0.00  0.00    -0.031 A 
ATOM      4  C4  IND d   1       3.902  -1.125   3.405  0.00  0.00     0.051 A 
ATOM      5  C5  IND d   1       2.558  -1.326   3.253  0.00  0.00    -0.031 A 
ATOM      6  C6  IND d   1       1.865  -2.233   4.027  0.00  0.00     0.015 A 
ATOM      7  C7  IND d   1       2.490  -2.970   4.993  0.00  0.00    -0.016 A 
ATOM      8  C8  IND d   1       3.855  -2.774   5.145  0.00  0.00    -0.047 A 
ATOM      9  C9  IND d   1       4.572  -1.885   4.334  0.00  0.00    -0.096 A 
ATOM     10  HN1 IND d   1       4.571  -3.960   6.595  0.00  0.00     0.298 HD
ENDROOT
TORSDOF 0
ENDMDL
