MODEL 1
REMARK minimizedAffinity 9.13779354
REMARK minimizedRMSD -1
REMARK  0 active torsions:
REMARK  status: ('A' for Active; 'I' for Inactive)
ROOT
ATOM      1  N1  IND d   1      -5.844  -0.957  -3.836  0.00  0.00    -0.196 N 
ATOM      2  C2  IND d   1      -5.712  -1.342  -5.141  0.00  0.00     0.054 A 
ATOM      3  C3  IND d   1      -5.670  -0.259  -5.949  0.00  0.00    -0.031 A 
ATOM      4  C4  IND d   1      -5.697   2.241  -5.335  0.00  0.00     0.051 A 
ATOM      5  C5  IND d   1      -5.843   3.088  -4.272  0.00  0.00    -0.031 A 
ATOM      6  C6  IND d   1      -5.997   2.620  -2.983  0.00  0.00     0.015 A 
ATOM      7  C7  IND d   1      -5.999   1.282  -2.706  0.00  0.00    -0.016 A 
ATOM      8  C8  IND d   1      -5.859   0.419  -3.784  0.00  0.00    -0.047 A 
ATOM      9  C9  IND d   1      -5.745   0.888  -5.099  0.00  0.00    -0.096 A 
ATOM     10  HN1 IND d   1      -5.907  -1.486  -3.161  0.00  0.00     0.298 HD
ENDROOT
TORSDOF 0
ENDMDL
