MODEL 1
REMARK minimizedAffinity -4.03367424
REMARK minimizedRMSD -1
REMARK  0 active torsions:
REMARK  status: ('A' for Active; 'I' for Inactive)
ROOT
ATOM      1  O1  BZF d   1       0.636  -0.786   0.232  0.00  0.00    -0.204 OA
ATOM      2  C2  BZF d   1      -0.743  -0.847   0.173  0.00  0.00     0.174 A 
ATOM      3  C3  BZF d   1      -1.288   0.352   0.461  0.00  0.00    -0.012 A 
ATOM      4  C3A BZF d   1      -0.179   1.240   0.627  0.00  0.00    -0.107 A 
ATOM      5  C4  BZF d   1      -0.076   2.572   0.910  0.00  0.00     0.055 A 
ATOM      6  C5  BZF d   1       1.157   3.119   1.076  0.00  0.00    -0.016 A 
ATOM      7  C6  BZF d   1       2.306   2.363   0.972  0.00  0.00     0.022 A 
ATOM      8  C7  BZF d   1       2.255   1.039   0.688  0.00  0.00     0.029 A 
ATOM      9  C7A BZF d   1       1.012   0.490   0.486  0.00  0.00     0.058 A 
ENDROOT
TORSDOF 0
ENDMDL
