MODEL 1
REMARK minimizedAffinity -3.81521153
REMARK minimizedRMSD -1
REMARK  0 active torsions:
REMARK  status: ('A' for Active; 'I' for Inactive)
ROOT
ATOM      1  O1  BZF d   1       2.629   1.070   0.825  0.00  0.00    -0.204 OA
ATOM      2  C2  BZF d   1       2.907   2.294   1.402  0.00  0.00     0.174 A 
ATOM      3  C3  BZF d   1       1.836   3.111   1.330  0.00  0.00    -0.012 A 
ATOM      4  C3A BZF d   1       0.797   2.318   0.748  0.00  0.00    -0.107 A 
ATOM      5  C4  BZF d   1      -0.509   2.566   0.435  0.00  0.00     0.055 A 
ATOM      6  C5  BZF d   1      -1.233   1.600  -0.191  0.00  0.00    -0.016 A 
ATOM      7  C6  BZF d   1      -0.682   0.380  -0.521  0.00  0.00     0.022 A 
ATOM      8  C7  BZF d   1       0.608   0.086  -0.226  0.00  0.00     0.029 A 
ATOM      9  C7A BZF d   1       1.332   1.047   0.436  0.00  0.00     0.058 A 
ENDROOT
TORSDOF 0
ENDMDL
