MODEL 1
REMARK minimizedAffinity -2.54639554
REMARK minimizedRMSD -1
REMARK  0 active torsions:
REMARK  status: ('A' for Active; 'I' for Inactive)
ROOT
ATOM      1  O1  BZF d   1       1.564  -0.881   0.544  0.00  0.00    -0.204 OA
ATOM      2  C2  BZF d   1       0.592  -1.821   0.262  0.00  0.00     0.174 A 
ATOM      3  C3  BZF d   1      -0.622  -1.242   0.168  0.00  0.00    -0.012 A 
ATOM      4  C3A BZF d   1      -0.381   0.161   0.316  0.00  0.00    -0.107 A 
ATOM      5  C4  BZF d   1      -1.192   1.259   0.299  0.00  0.00     0.055 A 
ATOM      6  C5  BZF d   1      -0.654   2.482   0.547  0.00  0.00    -0.016 A 
ATOM      7  C6  BZF d   1       0.689   2.642   0.820  0.00  0.00     0.022 A 
ATOM      8  C7  BZF d   1       1.534   1.583   0.842  0.00  0.00     0.029 A 
ATOM      9  C7A BZF d   1       0.999   0.350   0.560  0.00  0.00     0.058 A 
ENDROOT
TORSDOF 0
ENDMDL
