MODEL 1
REMARK minimizedAffinity -2.14827609
REMARK minimizedRMSD -1
REMARK  0 active torsions:
REMARK  status: ('A' for Active; 'I' for Inactive)
ROOT
ATOM      1  O1  BZF d   1      -1.644  -1.556  -2.565  0.00  0.00    -0.204 OA
ATOM      2  C2  BZF d   1      -1.208  -2.863  -2.471  0.00  0.00     0.174 A 
ATOM      3  C3  BZF d   1      -0.369  -3.013  -1.426  0.00  0.00    -0.012 A 
ATOM      4  C3A BZF d   1      -0.347  -1.739  -0.775  0.00  0.00    -0.107 A 
ATOM      5  C4  BZF d   1       0.292  -1.263   0.334  0.00  0.00     0.055 A 
ATOM      6  C5  BZF d   1       0.159   0.050   0.659  0.00  0.00    -0.016 A 
ATOM      7  C6  BZF d   1      -0.599   0.914  -0.104  0.00  0.00     0.022 A 
ATOM      8  C7  BZF d   1      -1.255   0.486  -1.210  0.00  0.00     0.029 A 
ATOM      9  C7A BZF d   1      -1.150  -0.847  -1.522  0.00  0.00     0.058 A 
ENDROOT
TORSDOF 0
ENDMDL
