MODEL 1
REMARK minimizedAffinity -4.64390659
REMARK minimizedRMSD -1
REMARK  0 active torsions:
REMARK  status: ('A' for Active; 'I' for Inactive)
ROOT
ATOM      1  O1  BZF d   1       0.238  -1.875  -0.891  0.00  0.00    -0.204 OA
ATOM      2  C2  BZF d   1      -0.283  -2.199  -2.128  0.00  0.00     0.174 A 
ATOM      3  C3  BZF d   1      -1.081  -1.212  -2.585  0.00  0.00    -0.012 A 
ATOM      4  C3A BZF d   1      -0.983  -0.168  -1.611  0.00  0.00    -0.107 A 
ATOM      5  C4  BZF d   1      -1.534   1.077  -1.512  0.00  0.00     0.055 A 
ATOM      6  C5  BZF d   1      -1.294   1.818  -0.398  0.00  0.00    -0.016 A 
ATOM      7  C6  BZF d   1      -0.514   1.344   0.636  0.00  0.00     0.022 A 
ATOM      8  C7  BZF d   1       0.058   0.116   0.581  0.00  0.00     0.029 A 
ATOM      9  C7A BZF d   1      -0.156  -0.622  -0.558  0.00  0.00     0.058 A 
ENDROOT
TORSDOF 0
ENDMDL
