MODEL 1
REMARK minimizedAffinity -2.98665929
REMARK minimizedRMSD -1
REMARK  0 active torsions:
REMARK  status: ('A' for Active; 'I' for Inactive)
ROOT
ATOM      1  O1  BZF d   1       1.597   3.082   1.100  0.00  0.00    -0.204 OA
ATOM      2  C2  BZF d   1       2.827   2.453   1.067  0.00  0.00     0.174 A 
ATOM      3  C3  BZF d   1       2.689   1.148   0.757  0.00  0.00    -0.012 A 
ATOM      4  C3A BZF d   1       1.294   0.968   0.496  0.00  0.00    -0.107 A 
ATOM      5  C4  BZF d   1       0.539  -0.107   0.123  0.00  0.00     0.055 A 
ATOM      6  C5  BZF d   1      -0.809   0.035   0.022  0.00  0.00    -0.016 A 
ATOM      7  C6  BZF d   1      -1.434   1.235   0.291  0.00  0.00     0.022 A 
ATOM      8  C7  BZF d   1      -0.727   2.331   0.659  0.00  0.00     0.029 A 
ATOM      9  C7A BZF d   1       0.638   2.199   0.730  0.00  0.00     0.058 A 
ENDROOT
TORSDOF 0
ENDMDL
