MODEL 1
REMARK minimizedAffinity -2.71135092
REMARK minimizedRMSD -1
REMARK  0 active torsions:
REMARK  status: ('A' for Active; 'I' for Inactive)
ROOT
ATOM      1  O1  BZF d   1       0.912  -1.053   0.136  0.00  0.00    -0.204 OA
ATOM      2  C2  BZF d   1       0.013  -1.927  -0.444  0.00  0.00     0.174 A 
ATOM      3  C3  BZF d   1      -1.173  -1.322  -0.659  0.00  0.00    -0.012 A 
ATOM      4  C3A BZF d   1      -0.976   0.040  -0.268  0.00  0.00    -0.107 A 
ATOM      5  C4  BZF d   1      -1.783   1.141  -0.263  0.00  0.00     0.055 A 
ATOM      6  C5  BZF d   1      -1.308   2.307   0.250  0.00  0.00    -0.016 A 
ATOM      7  C6  BZF d   1      -0.034   2.405   0.770  0.00  0.00     0.022 A 
ATOM      8  C7  BZF d   1       0.806   1.341   0.782  0.00  0.00     0.029 A 
ATOM      9  C7A BZF d   1       0.340   0.171   0.234  0.00  0.00     0.058 A 
ENDROOT
TORSDOF 0
ENDMDL
