MODEL 1
REMARK minimizedAffinity -1.47243166
REMARK minimizedRMSD -1
REMARK  0 active torsions:
REMARK  status: ('A' for Active; 'I' for Inactive)
ROOT
ATOM      1  O1  BZF d   1      -0.584  -1.286  -1.471  0.00  0.00    -0.204 OA
ATOM      2  C2  BZF d   1      -0.293  -2.258  -0.533  0.00  0.00     0.174 A 
ATOM      3  C3  BZF d   1      -0.214  -1.723   0.702  0.00  0.00    -0.012 A 
ATOM      4  C3A BZF d   1      -0.563  -0.345   0.538  0.00  0.00    -0.107 A 
ATOM      5  C4  BZF d   1      -0.679   0.703   1.406  0.00  0.00     0.055 A 
ATOM      6  C5  BZF d   1      -0.966   1.938   0.915  0.00  0.00    -0.016 A 
ATOM      7  C6  BZF d   1      -1.137   2.160  -0.436  0.00  0.00     0.022 A 
ATOM      8  C7  BZF d   1      -1.036   1.151  -1.334  0.00  0.00     0.029 A 
ATOM      9  C7A BZF d   1      -0.779  -0.104  -0.838  0.00  0.00     0.058 A 
ENDROOT
TORSDOF 0
ENDMDL
