MODEL 1
REMARK minimizedAffinity -4.31570435
REMARK minimizedRMSD -1
REMARK  0 active torsions:
REMARK  status: ('A' for Active; 'I' for Inactive)
ROOT
ATOM      1  O1  BZF d   1       1.085  -0.801   0.622  0.00  0.00    -0.204 OA
ATOM      2  C2  BZF d   1       0.164  -1.819   0.467  0.00  0.00     0.174 A 
ATOM      3  C3  BZF d   1      -1.085  -1.322   0.357  0.00  0.00    -0.012 A 
ATOM      4  C3A BZF d   1      -0.926   0.099   0.357  0.00  0.00    -0.107 A 
ATOM      5  C4  BZF d   1      -1.802   1.142   0.259  0.00  0.00     0.055 A 
ATOM      6  C5  BZF d   1      -1.331   2.413   0.366  0.00  0.00    -0.016 A 
ATOM      7  C6  BZF d   1       0.007   2.676   0.577  0.00  0.00     0.022 A 
ATOM      8  C7  BZF d   1       0.914   1.674   0.676  0.00  0.00     0.029 A 
ATOM      9  C7A BZF d   1       0.447   0.391   0.535  0.00  0.00     0.058 A 
ENDROOT
TORSDOF 0
ENDMDL
