MODEL 1
REMARK minimizedAffinity -3.13150859
REMARK minimizedRMSD -1
REMARK  0 active torsions:
REMARK  status: ('A' for Active; 'I' for Inactive)
ROOT
ATOM      1  O1  BZF d   1      -1.430  -2.381  -2.508  0.00  0.00    -0.204 OA
ATOM      2  C2  BZF d   1      -0.866  -3.602  -2.192  0.00  0.00     0.174 A 
ATOM      3  C3  BZF d   1      -0.074  -3.496  -1.106  0.00  0.00    -0.012 A 
ATOM      4  C3A BZF d   1      -0.219  -2.143  -0.664  0.00  0.00    -0.107 A 
ATOM      5  C4  BZF d   1       0.305  -1.435   0.379  0.00  0.00     0.055 A 
ATOM      6  C5  BZF d   1       0.020  -0.111   0.488  0.00  0.00    -0.016 A 
ATOM      7  C6  BZF d   1      -0.782   0.537  -0.429  0.00  0.00     0.022 A 
ATOM      8  C7  BZF d   1      -1.329  -0.125  -1.478  0.00  0.00     0.029 A 
ATOM      9  C7A BZF d   1      -1.069  -1.470  -1.572  0.00  0.00     0.058 A 
ENDROOT
TORSDOF 0
ENDMDL
