MODEL 1
REMARK minimizedAffinity -4.12020063
REMARK minimizedRMSD -1
REMARK  0 active torsions:
REMARK  status: ('A' for Active; 'I' for Inactive)
ROOT
ATOM      1  O1  BZF d   1      -0.994   0.053  -1.182  0.00  0.00    -0.204 OA
ATOM      2  C2  BZF d   1      -0.592   0.280   0.120  0.00  0.00     0.174 A 
ATOM      3  C3  BZF d   1      -0.147  -0.859   0.688  0.00  0.00    -0.012 A 
ATOM      4  C3A BZF d   1      -0.194  -1.841  -0.351  0.00  0.00    -0.107 A 
ATOM      5  C4  BZF d   1       0.137  -3.165  -0.407  0.00  0.00     0.055 A 
ATOM      6  C5  BZF d   1      -0.098  -3.857  -1.553  0.00  0.00    -0.016 A 
ATOM      7  C6  BZF d   1      -0.665  -3.258  -2.659  0.00  0.00     0.022 A 
ATOM      8  C7  BZF d   1      -1.006  -1.946  -2.653  0.00  0.00     0.029 A 
ATOM      9  C7A BZF d   1      -0.739  -1.237  -1.507  0.00  0.00     0.058 A 
ENDROOT
TORSDOF 0
ENDMDL
