MODEL 1
REMARK minimizedAffinity -0.652898848
REMARK minimizedRMSD -1
REMARK  0 active torsions:
REMARK  status: ('A' for Active; 'I' for Inactive)
ROOT
ATOM      1  O1  BZF d   1       2.614   1.003   1.141  0.00  0.00    -0.204 OA
ATOM      2  C2  BZF d   1       2.978   2.235   1.648  0.00  0.00     0.174 A 
ATOM      3  C3  BZF d   1       1.907   3.049   1.743  0.00  0.00    -0.012 A 
ATOM      4  C3A BZF d   1       0.789   2.247   1.351  0.00  0.00    -0.107 A 
ATOM      5  C4  BZF d   1      -0.552   2.488   1.254  0.00  0.00     0.055 A 
ATOM      6  C5  BZF d   1      -1.365   1.513   0.770  0.00  0.00    -0.016 A 
ATOM      7  C6  BZF d   1      -0.872   0.289   0.368  0.00  0.00     0.022 A 
ATOM      8  C7  BZF d   1       0.450   0.002   0.450  0.00  0.00     0.029 A 
ATOM      9  C7A BZF d   1       1.270   0.973   0.970  0.00  0.00     0.058 A 
ENDROOT
TORSDOF 0
ENDMDL
