MODEL 1
REMARK minimizedAffinity -3.21033263
REMARK minimizedRMSD -1
REMARK  0 active torsions:
REMARK  status: ('A' for Active; 'I' for Inactive)
ROOT
ATOM      1  O1  BZF d   1      -0.152  -1.464  -1.749  0.00  0.00    -0.204 OA
ATOM      2  C2  BZF d   1      -0.288  -2.624  -1.012  0.00  0.00     0.174 A 
ATOM      3  C3  BZF d   1      -0.573  -2.343   0.275  0.00  0.00    -0.012 A 
ATOM      4  C3A BZF d   1      -0.709  -0.920   0.329  0.00  0.00    -0.107 A 
ATOM      5  C4  BZF d   1      -1.005  -0.042   1.332  0.00  0.00     0.055 A 
ATOM      6  C5  BZF d   1      -0.987   1.291   1.069  0.00  0.00    -0.016 A 
ATOM      7  C6  BZF d   1      -0.675   1.781  -0.182  0.00  0.00     0.022 A 
ATOM      8  C7  BZF d   1      -0.380   0.949  -1.210  0.00  0.00     0.029 A 
ATOM      9  C7A BZF d   1      -0.429  -0.400  -0.956  0.00  0.00     0.058 A 
ENDROOT
TORSDOF 0
ENDMDL
