MODEL 1
REMARK minimizedAffinity 0.219048873
REMARK minimizedRMSD -1
REMARK  0 active torsions:
REMARK  status: ('A' for Active; 'I' for Inactive)
ROOT
ATOM      1  O1  BZF d   1       0.850  -1.199   0.409  0.00  0.00    -0.204 OA
ATOM      2  C2  BZF d   1      -0.021  -1.983  -0.324  0.00  0.00     0.174 A 
ATOM      3  C3  BZF d   1      -1.145  -1.299  -0.621  0.00  0.00    -0.012 A 
ATOM      4  C3A BZF d   1      -0.926   0.022  -0.116  0.00  0.00    -0.107 A 
ATOM      5  C4  BZF d   1      -1.675   1.164  -0.120  0.00  0.00     0.055 A 
ATOM      6  C5  BZF d   1      -1.203   2.265   0.522  0.00  0.00    -0.016 A 
ATOM      7  C6  BZF d   1       0.009   2.258   1.181  0.00  0.00     0.022 A 
ATOM      8  C7  BZF d   1       0.789   1.150   1.208  0.00  0.00     0.029 A 
ATOM      9  C7A BZF d   1       0.330   0.046   0.532  0.00  0.00     0.058 A 
ENDROOT
TORSDOF 0
ENDMDL
