MODEL 1
REMARK minimizedAffinity -1.90699875
REMARK minimizedRMSD -1
REMARK  0 active torsions:
REMARK  status: ('A' for Active; 'I' for Inactive)
ROOT
ATOM      1  O1  BZF d   1      -1.233  -2.408  -2.563  0.00  0.00    -0.204 OA
ATOM      2  C2  BZF d   1      -0.917  -3.752  -2.537  0.00  0.00     0.174 A 
ATOM      3  C3  BZF d   1      -0.131  -4.038  -1.479  0.00  0.00    -0.012 A 
ATOM      4  C3A BZF d   1      -0.021  -2.813  -0.749  0.00  0.00    -0.107 A 
ATOM      5  C4  BZF d   1       0.617  -2.462   0.406  0.00  0.00     0.055 A 
ATOM      6  C5  BZF d   1       0.588  -1.164   0.809  0.00  0.00    -0.016 A 
ATOM      7  C6  BZF d   1      -0.065  -0.192   0.079  0.00  0.00     0.022 A 
ATOM      8  C7  BZF d   1      -0.716  -0.493  -1.070  0.00  0.00     0.029 A 
ATOM      9  C7A BZF d   1      -0.716  -1.809  -1.463  0.00  0.00     0.058 A 
ENDROOT
TORSDOF 0
ENDMDL
