MODEL 1
REMARK minimizedAffinity -2.09358597
REMARK minimizedRMSD -1
REMARK  0 active torsions:
REMARK  status: ('A' for Active; 'I' for Inactive)
ROOT
ATOM      1  O1  BZF d   1       0.182   0.772  -0.335  0.00  0.00    -0.204 OA
ATOM      2  C2  BZF d   1      -0.938   1.054   0.423  0.00  0.00     0.174 A 
ATOM      3  C3  BZF d   1      -1.783   0.003   0.437  0.00  0.00    -0.012 A 
ATOM      4  C3A BZF d   1      -1.110  -1.031  -0.287  0.00  0.00    -0.107 A 
ATOM      5  C4  BZF d   1      -1.434  -2.320  -0.603  0.00  0.00     0.055 A 
ATOM      6  C5  BZF d   1      -0.589  -3.040  -1.385  0.00  0.00    -0.016 A 
ATOM      7  C6  BZF d   1       0.585  -2.503  -1.874  0.00  0.00     0.022 A 
ATOM      8  C7  BZF d   1       0.951  -1.231  -1.583  0.00  0.00     0.029 A 
ATOM      9  C7A BZF d   1       0.115  -0.511  -0.766  0.00  0.00     0.058 A 
ENDROOT
TORSDOF 0
ENDMDL
