MODEL 1
REMARK minimizedAffinity -1.86622739
REMARK minimizedRMSD -1
REMARK  0 active torsions:
REMARK  status: ('A' for Active; 'I' for Inactive)
ROOT
ATOM      1  O1  BZF d   1       0.519  -1.307   0.376  0.00  0.00    -0.204 OA
ATOM      2  C2  BZF d   1       0.059  -2.068  -0.681  0.00  0.00     0.174 A 
ATOM      3  C3  BZF d   1      -0.811  -1.364  -1.435  0.00  0.00    -0.012 A 
ATOM      4  C3A BZF d   1      -0.830  -0.053  -0.862  0.00  0.00    -0.107 A 
ATOM      5  C4  BZF d   1      -1.491   1.099  -1.177  0.00  0.00     0.055 A 
ATOM      6  C5  BZF d   1      -1.346   2.185  -0.373  0.00  0.00    -0.016 A 
ATOM      7  C6  BZF d   1      -0.554   2.152   0.756  0.00  0.00     0.022 A 
ATOM      8  C7  BZF d   1       0.125   1.033   1.107  0.00  0.00     0.029 A 
ATOM      9  C7A BZF d   1       0.007  -0.056   0.278  0.00  0.00     0.058 A 
ENDROOT
TORSDOF 0
ENDMDL
