MODEL 1
REMARK minimizedAffinity 7.2071681
REMARK minimizedRMSD -1
REMARK  0 active torsions:
REMARK  status: ('A' for Active; 'I' for Inactive)
ROOT
ATOM      1  C1  DEN d   1       2.509   2.511  -3.797  0.00  0.00     0.130 A 
ATOM      2  C2  DEN d   1       3.750   1.824  -4.142  0.00  0.00    -0.031 A 
ATOM      3  C3  DEN d   1       4.507   2.688  -5.071  0.00  0.00     0.027 A 
ATOM      4  C4  DEN d   1       3.882   5.013  -5.998  0.00  0.00     0.027 A 
ATOM      5  C5  DEN d   1       2.921   5.999  -5.999  0.00  0.00    -0.003 A 
ATOM      6  C6  DEN d   1       1.750   5.879  -5.299  0.00  0.00     0.001 A 
ATOM      7  C7  DEN d   1       1.529   4.766  -4.532  0.00  0.00     0.017 A 
ATOM      8  C8  DEN d   1       2.490   3.763  -4.531  0.00  0.00    -0.094 A 
ATOM      9  C9  DEN d   1       3.673   3.909  -5.236  0.00  0.00    -0.072 A 
ENDROOT
TORSDOF 0
ENDMDL
