MODEL 1
REMARK minimizedAffinity 11.6926451
REMARK minimizedRMSD -1
REMARK  0 active torsions:
REMARK  status: ('A' for Active; 'I' for Inactive)
ROOT
ATOM      1  C1  DEN d   1      -5.450   0.368   3.700  0.00  0.00     0.130 A 
ATOM      2  C2  DEN d   1      -5.891  -0.359   4.888  0.00  0.00    -0.031 A 
ATOM      3  C3  DEN d   1      -6.000   0.607   6.000  0.00  0.00     0.027 A 
ATOM      4  C4  DEN d   1      -5.536   3.144   5.997  0.00  0.00     0.027 A 
ATOM      5  C5  DEN d   1      -5.129   4.210   5.225  0.00  0.00    -0.003 A 
ATOM      6  C6  DEN d   1      -4.771   4.065   3.911  0.00  0.00     0.001 A 
ATOM      7  C7  DEN d   1      -4.856   2.834   3.316  0.00  0.00     0.017 A 
ATOM      8  C8  DEN d   1      -5.258   1.753   4.090  0.00  0.00    -0.094 A 
ATOM      9  C9  DEN d   1      -5.628   1.922   5.413  0.00  0.00    -0.072 A 
ENDROOT
TORSDOF 0
ENDMDL
