MODEL 1
REMARK minimizedAffinity 25.0224705
REMARK minimizedRMSD -1
REMARK  0 active torsions:
REMARK  status: ('A' for Active; 'I' for Inactive)
ROOT
ATOM      1  C1  DEN d   1      -3.352   1.720   2.778  0.00  0.00     0.130 A 
ATOM      2  C2  DEN d   1      -2.970   3.044   3.263  0.00  0.00    -0.031 A 
ATOM      3  C3  DEN d   1      -3.541   3.216   4.614  0.00  0.00     0.027 A 
ATOM      4  C4  DEN d   1      -4.966   1.570   5.997  0.00  0.00     0.027 A 
ATOM      5  C5  DEN d   1      -5.558   0.327   6.000  0.00  0.00    -0.003 A 
ATOM      6  C6  DEN d   1      -5.486  -0.519   4.925  0.00  0.00     0.001 A 
ATOM      7  C7  DEN d   1      -4.768  -0.150   3.818  0.00  0.00     0.017 A 
ATOM      8  C8  DEN d   1      -4.174   1.105   3.805  0.00  0.00    -0.094 A 
ATOM      9  C9  DEN d   1      -4.248   1.941   4.906  0.00  0.00    -0.072 A 
ENDROOT
TORSDOF 0
ENDMDL
