MODEL 1
REMARK minimizedAffinity 4.41667461
REMARK minimizedRMSD -1
REMARK  0 active torsions:
REMARK  status: ('A' for Active; 'I' for Inactive)
ROOT
ATOM      1  C1  DEN d   1      -6.000   2.736   6.000  0.00  0.00     0.130 A 
ATOM      2  C2  DEN d   1      -5.492   4.000   5.474  0.00  0.00    -0.031 A 
ATOM      3  C3  DEN d   1      -4.918   3.741   4.139  0.00  0.00     0.027 A 
ATOM      4  C4  DEN d   1      -4.770   1.519   2.838  0.00  0.00     0.027 A 
ATOM      5  C5  DEN d   1      -5.056   0.172   2.881  0.00  0.00    -0.003 A 
ATOM      6  C6  DEN d   1      -5.641  -0.416   3.972  0.00  0.00     0.001 A 
ATOM      7  C7  DEN d   1      -6.000   0.354   5.047  0.00  0.00     0.017 A 
ATOM      8  C8  DEN d   1      -5.708   1.711   5.014  0.00  0.00    -0.094 A 
ATOM      9  C9  DEN d   1      -5.128   2.289   3.897  0.00  0.00    -0.072 A 
ENDROOT
TORSDOF 0
ENDMDL
