MODEL 1
REMARK minimizedAffinity 16.0214119
REMARK minimizedRMSD -1
REMARK  0 active torsions:
REMARK  status: ('A' for Active; 'I' for Inactive)
ROOT
ATOM      1  C1  DEN d   1      -2.275  -2.262   0.368  0.00  0.00     0.130 A 
ATOM      2  C2  DEN d   1      -0.918  -1.723   0.406  0.00  0.00    -0.031 A 
ATOM      3  C3  DEN d   1      -0.037  -2.746   1.006  0.00  0.00     0.027 A 
ATOM      4  C4  DEN d   1      -0.639  -5.101   1.870  0.00  0.00     0.027 A 
ATOM      5  C5  DEN d   1      -1.666  -5.999   2.058  0.00  0.00    -0.003 A 
ATOM      6  C6  DEN d   1      -2.963  -5.704   1.730  0.00  0.00     0.001 A 
ATOM      7  C7  DEN d   1      -3.260  -4.497   1.155  0.00  0.00     0.017 A 
ATOM      8  C8  DEN d   1      -2.231  -3.583   0.968  0.00  0.00    -0.094 A 
ATOM      9  C9  DEN d   1      -0.924  -3.905   1.295  0.00  0.00    -0.072 A 
ENDROOT
TORSDOF 0
ENDMDL
