MODEL 1
REMARK minimizedAffinity 15.6577625
REMARK minimizedRMSD -1
REMARK  0 active torsions:
REMARK  status: ('A' for Active; 'I' for Inactive)
ROOT
ATOM      1  C1  DEN d   1       1.379   2.528   0.767  0.00  0.00     0.130 A 
ATOM      2  C2  DEN d   1       0.762   1.785   1.862  0.00  0.00    -0.031 A 
ATOM      3  C3  DEN d   1       1.604   0.606   2.146  0.00  0.00     0.027 A 
ATOM      4  C4  DEN d   1       3.796  -0.135   1.006  0.00  0.00     0.027 A 
ATOM      5  C5  DEN d   1       4.705   0.170   0.017  0.00  0.00    -0.003 A 
ATOM      6  C6  DEN d   1       4.553   1.253  -0.807  0.00  0.00     0.001 A 
ATOM      7  C7  DEN d   1       3.490   2.099  -0.627  0.00  0.00     0.017 A 
ATOM      8  C8  DEN d   1       2.565   1.794   0.363  0.00  0.00    -0.094 A 
ATOM      9  C9  DEN d   1       2.743   0.701   1.193  0.00  0.00    -0.072 A 
ENDROOT
TORSDOF 0
ENDMDL
