MODEL 1
REMARK minimizedAffinity 22.4246483
REMARK minimizedRMSD -1
REMARK  0 active torsions:
REMARK  status: ('A' for Active; 'I' for Inactive)
ROOT
ATOM      1  C1  DEN d   1      -1.401   4.625   1.625  0.00  0.00     0.130 A 
ATOM      2  C2  DEN d   1      -2.155   5.147   0.488  0.00  0.00    -0.031 A 
ATOM      3  C3  DEN d   1      -3.483   4.501   0.486  0.00  0.00     0.027 A 
ATOM      4  C4  DEN d   1      -4.441   2.755   2.126  0.00  0.00     0.027 A 
ATOM      5  C5  DEN d   1      -4.169   1.997   3.243  0.00  0.00    -0.003 A 
ATOM      6  C6  DEN d   1      -2.954   2.037   3.875  0.00  0.00     0.001 A 
ATOM      7  C7  DEN d   1      -1.980   2.885   3.419  0.00  0.00     0.017 A 
ATOM      8  C8  DEN d   1      -2.243   3.646   2.288  0.00  0.00    -0.094 A 
ATOM      9  C9  DEN d   1      -3.482   3.602   1.672  0.00  0.00    -0.072 A 
ENDROOT
TORSDOF 0
ENDMDL
