MODEL 1
REMARK minimizedAffinity 8.66006565
REMARK minimizedRMSD -1
REMARK  0 active torsions:
REMARK  status: ('A' for Active; 'I' for Inactive)
ROOT
ATOM      1  C1  DEN d   1      -1.174   2.808  -1.700  0.00  0.00     0.130 A 
ATOM      2  C2  DEN d   1      -2.243   3.791  -1.541  0.00  0.00    -0.031 A 
ATOM      3  C3  DEN d   1      -1.994   4.537  -0.291  0.00  0.00     0.027 A 
ATOM      4  C4  DEN d   1      -0.067   4.271   1.402  0.00  0.00     0.027 A 
ATOM      5  C5  DEN d   1       1.074   3.560   1.702  0.00  0.00    -0.003 A 
ATOM      6  C6  DEN d   1       1.523   2.534   0.912  0.00  0.00     0.001 A 
ATOM      7  C7  DEN d   1       0.852   2.220  -0.240  0.00  0.00     0.017 A 
ATOM      8  C8  DEN d   1      -0.303   2.928  -0.544  0.00  0.00    -0.094 A 
ATOM      9  C9  DEN d   1      -0.734   3.969   0.260  0.00  0.00    -0.072 A 
ENDROOT
TORSDOF 0
ENDMDL
