MODEL 1
REMARK minimizedAffinity 22.1520386
REMARK minimizedRMSD -1
REMARK  0 active torsions:
REMARK  status: ('A' for Active; 'I' for Inactive)
ROOT
ATOM      1  C1  DEN d   1      -0.992   1.218   4.110  0.00  0.00     0.130 A 
ATOM      2  C2  DEN d   1      -0.392  -0.055   4.497  0.00  0.00    -0.031 A 
ATOM      3  C3  DEN d   1       0.874  -0.209   3.753  0.00  0.00     0.027 A 
ATOM      4  C4  DEN d   1       1.961   1.396   2.051  0.00  0.00     0.027 A 
ATOM      5  C5  DEN d   1       1.819   2.596   1.391  0.00  0.00    -0.003 A 
ATOM      6  C6  DEN d   1       0.722   3.399   1.563  0.00  0.00     0.001 A 
ATOM      7  C7  DEN d   1      -0.254   3.032   2.451  0.00  0.00     0.017 A 
ATOM      8  C8  DEN d   1      -0.121   1.820   3.115  0.00  0.00    -0.094 A 
ATOM      9  C9  DEN d   1       1.000   1.028   2.936  0.00  0.00    -0.072 A 
ENDROOT
TORSDOF 0
ENDMDL
