MODEL 1
REMARK minimizedAffinity 18.3313541
REMARK minimizedRMSD -1
REMARK  0 active torsions:
REMARK  status: ('A' for Active; 'I' for Inactive)
ROOT
ATOM      1  C1  DEN d   1      -4.360  -4.672   1.138  0.00  0.00     0.130 A 
ATOM      2  C2  DEN d   1      -4.019  -6.000   1.641  0.00  0.00    -0.031 A 
ATOM      3  C3  DEN d   1      -2.586  -6.000   1.997  0.00  0.00     0.027 A 
ATOM      4  C4  DEN d   1      -0.872  -4.081   1.825  0.00  0.00     0.027 A 
ATOM      5  C5  DEN d   1      -0.689  -2.769   1.445  0.00  0.00    -0.003 A 
ATOM      6  C6  DEN d   1      -1.700  -2.016   0.910  0.00  0.00     0.001 A 
ATOM      7  C7  DEN d   1      -2.953  -2.556   0.780  0.00  0.00     0.017 A 
ATOM      8  C8  DEN d   1      -3.143  -3.880   1.154  0.00  0.00    -0.094 A 
ATOM      9  C9  DEN d   1      -2.111  -4.621   1.704  0.00  0.00    -0.072 A 
ENDROOT
TORSDOF 0
ENDMDL
