MODEL 1
REMARK minimizedAffinity 27.07938
REMARK minimizedRMSD -1
REMARK  0 active torsions:
REMARK  status: ('A' for Active; 'I' for Inactive)
ROOT
ATOM      1  C1  DEN d   1      -2.882  -2.597   0.220  0.00  0.00     0.130 A 
ATOM      2  C2  DEN d   1      -1.662  -1.804   0.341  0.00  0.00    -0.031 A 
ATOM      3  C3  DEN d   1      -0.686  -2.585   1.127  0.00  0.00     0.027 A 
ATOM      4  C4  DEN d   1      -0.942  -4.935   2.159  0.00  0.00     0.027 A 
ATOM      5  C5  DEN d   1      -1.801  -5.998   2.331  0.00  0.00    -0.003 A 
ATOM      6  C6  DEN d   1      -3.082  -5.987   1.846  0.00  0.00     0.001 A 
ATOM      7  C7  DEN d   1      -3.525  -4.911   1.124  0.00  0.00     0.017 A 
ATOM      8  C8  DEN d   1      -2.667  -3.833   0.952  0.00  0.00    -0.094 A 
ATOM      9  C9  DEN d   1      -1.372  -3.867   1.440  0.00  0.00    -0.072 A 
ENDROOT
TORSDOF 0
ENDMDL
