MODEL 1
REMARK minimizedAffinity 26.2215691
REMARK minimizedRMSD -1
REMARK  0 active torsions:
REMARK  status: ('A' for Active; 'I' for Inactive)
ROOT
ATOM      1  C1  DEN d   1       1.017   0.614   4.847  0.00  0.00     0.130 A 
ATOM      2  C2  DEN d   1       0.006   0.021   5.719  0.00  0.00    -0.031 A 
ATOM      3  C3  DEN d   1      -0.757  -0.965   4.928  0.00  0.00     0.027 A 
ATOM      4  C4  DEN d   1      -0.471  -1.631   2.452  0.00  0.00     0.027 A 
ATOM      5  C5  DEN d   1       0.247  -1.392   1.301  0.00  0.00    -0.003 A 
ATOM      6  C6  DEN d   1       1.241  -0.451   1.243  0.00  0.00     0.001 A 
ATOM      7  C7  DEN d   1       1.575   0.254   2.369  0.00  0.00     0.017 A 
ATOM      8  C8  DEN d   1       0.851   0.024   3.531  0.00  0.00    -0.094 A 
ATOM      9  C9  DEN d   1      -0.142  -0.940   3.573  0.00  0.00    -0.072 A 
ENDROOT
TORSDOF 0
ENDMDL
