MODEL 1
REMARK minimizedAffinity 18.0121574
REMARK minimizedRMSD -1
REMARK  0 active torsions:
REMARK  status: ('A' for Active; 'I' for Inactive)
ROOT
ATOM      1  C1  DEN d   1       0.336   2.798  -1.172  0.00  0.00     0.130 A 
ATOM      2  C2  DEN d   1       1.342   3.269  -2.120  0.00  0.00    -0.031 A 
ATOM      3  C3  DEN d   1       0.932   4.606  -2.594  0.00  0.00     0.027 A 
ATOM      4  C4  DEN d   1      -1.149   5.988  -1.951  0.00  0.00     0.027 A 
ATOM      5  C5  DEN d   1      -2.298   5.999  -1.192  0.00  0.00    -0.003 A 
ATOM      6  C6  DEN d   1      -2.664   4.940  -0.405  0.00  0.00     0.001 A 
ATOM      7  C7  DEN d   1      -1.850   3.841  -0.324  0.00  0.00     0.017 A 
ATOM      8  C8  DEN d   1      -0.693   3.819  -1.093  0.00  0.00    -0.094 A 
ATOM      9  C9  DEN d   1      -0.335   4.905  -1.873  0.00  0.00    -0.072 A 
ENDROOT
TORSDOF 0
ENDMDL
