MODEL 1
REMARK minimizedAffinity 21.7534885
REMARK minimizedRMSD -1
REMARK  0 active torsions:
REMARK  status: ('A' for Active; 'I' for Inactive)
ROOT
ATOM      1  C1  DEN d   1      -3.035  -2.357   1.028  0.00  0.00     0.130 A 
ATOM      2  C2  DEN d   1      -1.833  -1.540   1.170  0.00  0.00    -0.031 A 
ATOM      3  C3  DEN d   1      -0.765  -2.393   1.730  0.00  0.00     0.027 A 
ATOM      4  C4  DEN d   1      -0.855  -4.886   2.383  0.00  0.00     0.027 A 
ATOM      5  C5  DEN d   1      -1.662  -6.000   2.454  0.00  0.00    -0.003 A 
ATOM      6  C6  DEN d   1      -2.982  -5.969   2.090  0.00  0.00     0.001 A 
ATOM      7  C7  DEN d   1      -3.523  -4.811   1.595  0.00  0.00     0.017 A 
ATOM      8  C8  DEN d   1      -2.717  -3.683   1.527  0.00  0.00    -0.094 A 
ATOM      9  C9  DEN d   1      -1.381  -3.737   1.888  0.00  0.00    -0.072 A 
ENDROOT
TORSDOF 0
ENDMDL
