MODEL 1
REMARK minimizedAffinity 17.0026093
REMARK minimizedRMSD -1
REMARK  0 active torsions:
REMARK  status: ('A' for Active; 'I' for Inactive)
ROOT
ATOM      1  C1  DEN d   1      -2.362  -5.966  -2.992  0.00  0.00     0.130 A 
ATOM      2  C2  DEN d   1      -1.465  -4.892  -3.413  0.00  0.00    -0.031 A 
ATOM      3  C3  DEN d   1      -2.250  -3.643  -3.484  0.00  0.00     0.027 A 
ATOM      4  C4  DEN d   1      -4.752  -3.269  -2.981  0.00  0.00     0.027 A 
ATOM      5  C5  DEN d   1      -5.925  -3.883  -2.600  0.00  0.00    -0.003 A 
ATOM      6  C6  DEN d   1      -5.999  -5.229  -2.358  0.00  0.00     0.001 A 
ATOM      7  C7  DEN d   1      -4.869  -5.999  -2.451  0.00  0.00     0.017 A 
ATOM      8  C8  DEN d   1      -3.685  -5.388  -2.841  0.00  0.00    -0.094 A 
ATOM      9  C9  DEN d   1      -3.628  -4.023  -3.069  0.00  0.00    -0.072 A 
ENDROOT
TORSDOF 0
ENDMDL
