MODEL 1
REMARK minimizedAffinity 20.1606331
REMARK minimizedRMSD -1
REMARK  0 active torsions:
REMARK  status: ('A' for Active; 'I' for Inactive)
ROOT
ATOM      1  C1  DEN d   1      -0.859  -1.915   0.558  0.00  0.00     0.130 A 
ATOM      2  C2  DEN d   1      -1.617  -3.092   0.972  0.00  0.00    -0.031 A 
ATOM      3  C3  DEN d   1      -1.597  -3.154   2.447  0.00  0.00     0.027 A 
ATOM      4  C4  DEN d   1      -0.474  -1.546   4.123  0.00  0.00     0.027 A 
ATOM      5  C5  DEN d   1       0.294  -0.409   4.245  0.00  0.00    -0.003 A 
ATOM      6  C6  DEN d   1       0.756   0.281   3.156  0.00  0.00     0.001 A 
ATOM      7  C7  DEN d   1       0.416  -0.134   1.895  0.00  0.00     0.017 A 
ATOM      8  C8  DEN d   1      -0.351  -1.284   1.764  0.00  0.00    -0.094 A 
ATOM      9  C9  DEN d   1      -0.819  -1.961   2.877  0.00  0.00    -0.072 A 
ENDROOT
TORSDOF 0
ENDMDL
