MODEL 1
REMARK minimizedAffinity 19.9962082
REMARK minimizedRMSD -1
REMARK  0 active torsions:
REMARK  status: ('A' for Active; 'I' for Inactive)
ROOT
ATOM      1  C1  DEN d   1      -5.847  -3.244  -3.043  0.00  0.00     0.130 A 
ATOM      2  C2  DEN d   1      -5.996  -3.276  -4.495  0.00  0.00    -0.031 A 
ATOM      3  C3  DEN d   1      -4.688  -2.945  -5.096  0.00  0.00     0.027 A 
ATOM      4  C4  DEN d   1      -2.457  -2.394  -3.924  0.00  0.00     0.027 A 
ATOM      5  C5  DEN d   1      -1.841  -2.233  -2.703  0.00  0.00    -0.003 A 
ATOM      6  C6  DEN d   1      -2.518  -2.363  -1.520  0.00  0.00     0.001 A 
ATOM      7  C7  DEN d   1      -3.844  -2.708  -1.531  0.00  0.00     0.017 A 
ATOM      8  C8  DEN d   1      -4.475  -2.865  -2.759  0.00  0.00    -0.094 A 
ATOM      9  C9  DEN d   1      -3.769  -2.741  -3.944  0.00  0.00    -0.072 A 
ENDROOT
TORSDOF 0
ENDMDL
