MODEL 1
REMARK minimizedAffinity 12.4729376
REMARK minimizedRMSD -1
REMARK  0 active torsions:
REMARK  status: ('A' for Active; 'I' for Inactive)
ROOT
ATOM      1  C1  DEN d   1      -2.587  -4.129  -1.485  0.00  0.00     0.130 A 
ATOM      2  C2  DEN d   1      -2.165  -2.829  -2.000  0.00  0.00    -0.031 A 
ATOM      3  C3  DEN d   1      -3.130  -2.414  -3.037  0.00  0.00     0.027 A 
ATOM      4  C4  DEN d   1      -5.229  -3.649  -3.888  0.00  0.00     0.027 A 
ATOM      5  C5  DEN d   1      -5.989  -4.791  -3.760  0.00  0.00    -0.003 A 
ATOM      6  C6  DEN d   1      -5.652  -5.799  -2.897  0.00  0.00     0.001 A 
ATOM      7  C7  DEN d   1      -4.550  -5.665  -2.094  0.00  0.00     0.017 A 
ATOM      8  C8  DEN d   1      -3.775  -4.520  -2.223  0.00  0.00    -0.094 A 
ATOM      9  C9  DEN d   1      -4.139  -3.506  -3.093  0.00  0.00    -0.072 A 
ENDROOT
TORSDOF 0
ENDMDL
