MODEL 1
REMARK minimizedAffinity 7.07661057
REMARK minimizedRMSD -1
REMARK  0 active torsions:
REMARK  status: ('A' for Active; 'I' for Inactive)
ROOT
ATOM      1  O1  BZF d   1      -1.559   1.982   2.655  0.00  0.00    -0.204 OA
ATOM      2  C2  BZF d   1      -0.910   0.839   2.231  0.00  0.00     0.174 A 
ATOM      3  C3  BZF d   1      -1.603  -0.263   2.582  0.00  0.00    -0.012 A 
ATOM      4  C3A BZF d   1      -2.804   0.225   3.187  0.00  0.00    -0.107 A 
ATOM      5  C4  BZF d   1      -3.901  -0.386   3.724  0.00  0.00     0.055 A 
ATOM      6  C5  BZF d   1      -4.867   0.376   4.299  0.00  0.00    -0.016 A 
ATOM      7  C6  BZF d   1      -4.767   1.751   4.360  0.00  0.00     0.022 A 
ATOM      8  C7  BZF d   1      -3.701   2.403   3.837  0.00  0.00     0.029 A 
ATOM      9  C7A BZF d   1      -2.738   1.637   3.225  0.00  0.00     0.058 A 
ENDROOT
TORSDOF 0
ENDMDL
