MODEL 1
REMARK minimizedAffinity 8.61186504
REMARK minimizedRMSD -1
REMARK  0 active torsions:
REMARK  status: ('A' for Active; 'I' for Inactive)
ROOT
ATOM      1  O1  BZF d   1       1.745  -5.944   4.155  0.00  0.00    -0.204 OA
ATOM      2  C2  BZF d   1       0.977  -5.946   5.303  0.00  0.00     0.174 A 
ATOM      3  C3  BZF d   1      -0.336  -5.910   5.001  0.00  0.00    -0.012 A 
ATOM      4  C3A BZF d   1      -0.396  -5.977   3.573  0.00  0.00    -0.107 A 
ATOM      5  C4  BZF d   1      -1.426  -5.996   2.676  0.00  0.00     0.055 A 
ATOM      6  C5  BZF d   1      -1.144  -5.992   1.347  0.00  0.00    -0.016 A 
ATOM      7  C6  BZF d   1       0.154  -5.964   0.880  0.00  0.00     0.022 A 
ATOM      8  C7  BZF d   1       1.209  -5.949   1.731  0.00  0.00     0.029 A 
ATOM      9  C7A BZF d   1       0.927  -5.987   3.075  0.00  0.00     0.058 A 
ENDROOT
TORSDOF 0
ENDMDL
