MODEL 1
REMARK minimizedAffinity 3.7937355
REMARK minimizedRMSD -1
REMARK  0 active torsions:
REMARK  status: ('A' for Active; 'I' for Inactive)
ROOT
ATOM      1  O1  BZF d   1      -1.184   0.797   2.251  0.00  0.00    -0.204 OA
ATOM      2  C2  BZF d   1      -1.706  -0.469   2.436  0.00  0.00     0.174 A 
ATOM      3  C3  BZF d   1      -0.770  -1.411   2.200  0.00  0.00    -0.012 A 
ATOM      4  C3A BZF d   1       0.435  -0.686   1.936  0.00  0.00    -0.107 A 
ATOM      5  C4  BZF d   1       1.715  -1.066   1.647  0.00  0.00     0.055 A 
ATOM      6  C5  BZF d   1       2.641  -0.110   1.371  0.00  0.00    -0.016 A 
ATOM      7  C6  BZF d   1       2.321   1.231   1.368  0.00  0.00     0.022 A 
ATOM      8  C7  BZF d   1       1.066   1.657   1.654  0.00  0.00     0.029 A 
ATOM      9  C7A BZF d   1       0.136   0.695   1.966  0.00  0.00     0.058 A 
ENDROOT
TORSDOF 0
ENDMDL
