MODEL 1
REMARK minimizedAffinity 10.0692539
REMARK minimizedRMSD -1
REMARK  0 active torsions:
REMARK  status: ('A' for Active; 'I' for Inactive)
ROOT
ATOM      1  O1  BZF d   1       0.189  -1.345  -3.797  0.00  0.00    -0.204 OA
ATOM      2  C2  BZF d   1       0.789  -2.003  -4.853  0.00  0.00     0.174 A 
ATOM      3  C3  BZF d   1      -0.042  -2.929  -5.374  0.00  0.00    -0.012 A 
ATOM      4  C3A BZF d   1      -1.269  -2.780  -4.655  0.00  0.00    -0.107 A 
ATOM      5  C4  BZF d   1      -2.481  -3.407  -4.726  0.00  0.00     0.055 A 
ATOM      6  C5  BZF d   1      -3.449  -3.076  -3.831  0.00  0.00    -0.016 A 
ATOM      7  C6  BZF d   1      -3.238  -2.129  -2.851  0.00  0.00     0.022 A 
ATOM      8  C7  BZF d   1      -2.055  -1.477  -2.744  0.00  0.00     0.029 A 
ATOM      9  C7A BZF d   1      -1.086  -1.785  -3.667  0.00  0.00     0.058 A 
ENDROOT
TORSDOF 0
ENDMDL
