MODEL 1
REMARK minimizedAffinity 12.3602638
REMARK minimizedRMSD -1
REMARK  0 active torsions:
REMARK  status: ('A' for Active; 'I' for Inactive)
ROOT
ATOM      1  O1  BZF d   1      -0.420  -5.638   5.289  0.00  0.00    -0.204 OA
ATOM      2  C2  BZF d   1       0.765  -5.548   5.994  0.00  0.00     0.174 A 
ATOM      3  C3  BZF d   1       1.824  -5.657   5.167  0.00  0.00    -0.012 A 
ATOM      4  C3A BZF d   1       1.267  -5.733   3.851  0.00  0.00    -0.107 A 
ATOM      5  C4  BZF d   1       1.815  -5.836   2.604  0.00  0.00     0.055 A 
ATOM      6  C5  BZF d   1       0.992  -5.962   1.530  0.00  0.00    -0.016 A 
ATOM      7  C6  BZF d   1      -0.380  -5.993   1.666  0.00  0.00     0.022 A 
ATOM      8  C7  BZF d   1      -0.970  -5.889   2.882  0.00  0.00     0.029 A 
ATOM      9  C7A BZF d   1      -0.142  -5.728   3.966  0.00  0.00     0.058 A 
ENDROOT
TORSDOF 0
ENDMDL
