MODEL 1
REMARK minimizedAffinity 3.25647593
REMARK minimizedRMSD -1
REMARK  0 active torsions:
REMARK  status: ('A' for Active; 'I' for Inactive)
ROOT
ATOM      1  O1  BZF d   1      -1.308  -5.957   3.704  0.00  0.00    -0.204 OA
ATOM      2  C2  BZF d   1      -1.784  -5.951   2.407  0.00  0.00     0.174 A 
ATOM      3  C3  BZF d   1      -0.766  -5.908   1.524  0.00  0.00    -0.012 A 
ATOM      4  C3A BZF d   1       0.423  -5.980   2.317  0.00  0.00    -0.107 A 
ATOM      5  C4  BZF d   1       1.754  -5.997   2.014  0.00  0.00     0.055 A 
ATOM      6  C5  BZF d   1       2.662  -5.999   3.025  0.00  0.00    -0.016 A 
ATOM      7  C6  BZF d   1       2.275  -5.980   4.349  0.00  0.00     0.022 A 
ATOM      8  C7  BZF d   1       0.965  -5.969   4.699  0.00  0.00     0.029 A 
ATOM      9  C7A BZF d   1       0.045  -6.000   3.680  0.00  0.00     0.058 A 
ENDROOT
TORSDOF 0
ENDMDL
