MODEL 1
REMARK minimizedAffinity 7.95282412
REMARK minimizedRMSD -1
REMARK  0 active torsions:
REMARK  status: ('A' for Active; 'I' for Inactive)
ROOT
ATOM      1  O1  BZF d   1      -1.203  -5.957   0.710  0.00  0.00    -0.204 OA
ATOM      2  C2  BZF d   1      -2.461  -5.954   1.281  0.00  0.00     0.174 A 
ATOM      3  C3  BZF d   1      -2.376  -5.996   2.626  0.00  0.00    -0.012 A 
ATOM      4  C3A BZF d   1      -0.976  -5.934   2.917  0.00  0.00    -0.107 A 
ATOM      5  C4  BZF d   1      -0.258  -5.923   4.078  0.00  0.00     0.055 A 
ATOM      6  C5  BZF d   1       1.099  -5.931   4.016  0.00  0.00    -0.016 A 
ATOM      7  C6  BZF d   1       1.770  -5.955   2.811  0.00  0.00     0.022 A 
ATOM      8  C7  BZF d   1       1.101  -5.961   1.632  0.00  0.00     0.029 A 
ATOM      9  C7A BZF d   1      -0.270  -5.921   1.692  0.00  0.00     0.058 A 
ENDROOT
TORSDOF 0
ENDMDL
