MODEL 1
REMARK minimizedAffinity 4.97031593
REMARK minimizedRMSD -1
REMARK  0 active torsions:
REMARK  status: ('A' for Active; 'I' for Inactive)
ROOT
ATOM      1  O1  BZF d   1      -0.686  -5.956   3.591  0.00  0.00    -0.204 OA
ATOM      2  C2  BZF d   1      -0.985  -5.953   2.242  0.00  0.00     0.174 A 
ATOM      3  C3  BZF d   1       0.142  -5.911   1.503  0.00  0.00    -0.012 A 
ATOM      4  C3A BZF d   1       1.215  -5.981   2.447  0.00  0.00    -0.107 A 
ATOM      5  C4  BZF d   1       2.575  -5.996   2.324  0.00  0.00     0.055 A 
ATOM      6  C5  BZF d   1       3.340  -5.996   3.447  0.00  0.00    -0.016 A 
ATOM      7  C6  BZF d   1       2.779  -5.974   4.707  0.00  0.00     0.022 A 
ATOM      8  C7  BZF d   1       1.435  -5.964   4.880  0.00  0.00     0.029 A 
ATOM      9  C7A BZF d   1       0.659  -5.997   3.747  0.00  0.00     0.058 A 
ENDROOT
TORSDOF 0
ENDMDL
