MODEL 1
REMARK minimizedAffinity 4.52757931
REMARK minimizedRMSD -1
REMARK  0 active torsions:
REMARK  status: ('A' for Active; 'I' for Inactive)
ROOT
ATOM      1  O1  BZF d   1       0.587  -5.959   0.632  0.00  0.00    -0.204 OA
ATOM      2  C2  BZF d   1       1.924  -5.956   0.978  0.00  0.00     0.174 A 
ATOM      3  C3  BZF d   1       2.072  -5.915   2.317  0.00  0.00    -0.012 A 
ATOM      4  C3A BZF d   1       0.743  -5.984   2.845  0.00  0.00    -0.107 A 
ATOM      5  C4  BZF d   1       0.236  -6.000   4.112  0.00  0.00     0.055 A 
ATOM      6  C5  BZF d   1      -1.112  -5.998   4.284  0.00  0.00    -0.016 A 
ATOM      7  C6  BZF d   1      -1.981  -5.976   3.213  0.00  0.00     0.022 A 
ATOM      8  C7  BZF d   1      -1.525  -5.965   1.937  0.00  0.00     0.029 A 
ATOM      9  C7A BZF d   1      -0.163  -6.000   1.759  0.00  0.00     0.058 A 
ENDROOT
TORSDOF 0
ENDMDL
