MODEL 1
REMARK minimizedAffinity 8.95853901
REMARK minimizedRMSD -1
REMARK  0 active torsions:
REMARK  status: ('A' for Active; 'I' for Inactive)
ROOT
ATOM      1  O1  BZF d   1      -2.270  -0.187  -2.991  0.00  0.00    -0.204 OA
ATOM      2  C2  BZF d   1      -3.458  -0.527  -2.374  0.00  0.00     0.174 A 
ATOM      3  C3  BZF d   1      -3.804  -1.797  -2.669  0.00  0.00    -0.012 A 
ATOM      4  C3A BZF d   1      -2.720  -2.310  -3.448  0.00  0.00    -0.107 A 
ATOM      5  C4  BZF d   1      -2.470  -3.523  -4.025  0.00  0.00     0.055 A 
ATOM      6  C5  BZF d   1      -1.352  -3.677  -4.782  0.00  0.00    -0.016 A 
ATOM      7  C6  BZF d   1      -0.466  -2.639  -4.987  0.00  0.00     0.022 A 
ATOM      8  C7  BZF d   1      -0.668  -1.420  -4.432  0.00  0.00     0.029 A 
ATOM      9  C7A BZF d   1      -1.780  -1.271  -3.639  0.00  0.00     0.058 A 
ENDROOT
TORSDOF 0
ENDMDL
