MODEL 1
REMARK minimizedAffinity 11.0733109
REMARK minimizedRMSD -1
REMARK  0 active torsions:
REMARK  status: ('A' for Active; 'I' for Inactive)
ROOT
ATOM      1  O1  BZF d   1       1.838  -5.912   3.929  0.00  0.00    -0.204 OA
ATOM      2  C2  BZF d   1       1.382  -5.884   5.233  0.00  0.00     0.174 A 
ATOM      3  C3  BZF d   1       0.035  -5.828   5.268  0.00  0.00    -0.012 A 
ATOM      4  C3A BZF d   1      -0.381  -5.912   3.902  0.00  0.00    -0.107 A 
ATOM      5  C4  BZF d   1      -1.602  -5.924   3.291  0.00  0.00     0.055 A 
ATOM      6  C5  BZF d   1      -1.662  -5.942   1.934  0.00  0.00    -0.016 A 
ATOM      7  C6  BZF d   1      -0.522  -5.944   1.157  0.00  0.00     0.022 A 
ATOM      8  C7  BZF d   1       0.712  -5.938   1.717  0.00  0.00     0.029 A 
ATOM      9  C7A BZF d   1       0.776  -5.953   3.089  0.00  0.00     0.058 A 
ENDROOT
TORSDOF 0
ENDMDL
