MODEL 1
REMARK minimizedAffinity 2.93595815
REMARK minimizedRMSD -1
REMARK  0 active torsions:
REMARK  status: ('A' for Active; 'I' for Inactive)
ROOT
ATOM      1  O1  BZF d   1       0.563  -2.915  -4.253  0.00  0.00    -0.204 OA
ATOM      2  C2  BZF d   1       1.363  -1.790  -4.198  0.00  0.00     0.174 A 
ATOM      3  C3  BZF d   1       0.626  -0.692  -3.933  0.00  0.00    -0.012 A 
ATOM      4  C3A BZF d   1      -0.705  -1.173  -3.725  0.00  0.00    -0.107 A 
ATOM      5  C4  BZF d   1      -1.886  -0.562  -3.413  0.00  0.00     0.055 A 
ATOM      6  C5  BZF d   1      -3.020  -1.309  -3.354  0.00  0.00    -0.016 A 
ATOM      7  C6  BZF d   1      -3.011  -2.665  -3.607  0.00  0.00     0.022 A 
ATOM      8  C7  BZF d   1      -1.863  -3.316  -3.916  0.00  0.00     0.029 A 
ATOM      9  C7A BZF d   1      -0.710  -2.570  -3.944  0.00  0.00     0.058 A 
ENDROOT
TORSDOF 0
ENDMDL
