MODEL 1
REMARK minimizedAffinity 4.56478548
REMARK minimizedRMSD -1
REMARK  0 active torsions:
REMARK  status: ('A' for Active; 'I' for Inactive)
ROOT
ATOM      1  O1  BZF d   1      -2.300  -5.968   2.168  0.00  0.00    -0.204 OA
ATOM      2  C2  BZF d   1      -2.094  -5.982   0.802  0.00  0.00     0.174 A 
ATOM      3  C3  BZF d   1      -0.777  -5.941   0.516  0.00  0.00    -0.012 A 
ATOM      4  C3A BZF d   1      -0.115  -5.992   1.784  0.00  0.00    -0.107 A 
ATOM      5  C4  BZF d   1       1.198  -5.998   2.158  0.00  0.00     0.055 A 
ATOM      6  C5  BZF d   1       1.508  -5.979   3.481  0.00  0.00    -0.016 A 
ATOM      7  C6  BZF d   1       0.532  -5.947   4.455  0.00  0.00     0.022 A 
ATOM      8  C7  BZF d   1      -0.784  -5.945   4.133  0.00  0.00     0.029 A 
ATOM      9  C7A BZF d   1      -1.101  -5.997   2.797  0.00  0.00     0.058 A 
ENDROOT
TORSDOF 0
ENDMDL
