MODEL 1
REMARK minimizedAffinity 3.35616112
REMARK minimizedRMSD -1
REMARK  0 active torsions:
REMARK  status: ('A' for Active; 'I' for Inactive)
ROOT
ATOM      1  O1  BZF d   1       1.985  -5.957   4.060  0.00  0.00    -0.204 OA
ATOM      2  C2  BZF d   1       1.671  -5.954   5.405  0.00  0.00     0.174 A 
ATOM      3  C3  BZF d   1       0.335  -5.912   5.584  0.00  0.00    -0.012 A 
ATOM      4  C3A BZF d   1      -0.224  -5.980   4.269  0.00  0.00    -0.107 A 
ATOM      5  C4  BZF d   1      -1.503  -5.995   3.792  0.00  0.00     0.055 A 
ATOM      6  C5  BZF d   1      -1.707  -5.993   2.448  0.00  0.00    -0.016 A 
ATOM      7  C6  BZF d   1      -0.656  -5.972   1.554  0.00  0.00     0.022 A 
ATOM      8  C7  BZF d   1       0.630  -5.962   1.980  0.00  0.00     0.029 A 
ATOM      9  C7A BZF d   1       0.840  -5.997   3.337  0.00  0.00     0.058 A 
ENDROOT
TORSDOF 0
ENDMDL
