MODEL 1
REMARK minimizedAffinity 12.4068365
REMARK minimizedRMSD -1
REMARK  0 active torsions:
REMARK  status: ('A' for Active; 'I' for Inactive)
ROOT
ATOM      1  O1  BZF d   1       0.609   1.667   0.427  0.00  0.00    -0.204 OA
ATOM      2  C2  BZF d   1       1.085   0.911  -0.626  0.00  0.00     0.174 A 
ATOM      3  C3  BZF d   1       0.782  -0.392  -0.455  0.00  0.00    -0.012 A 
ATOM      4  C3A BZF d   1      -0.007  -0.442   0.738  0.00  0.00    -0.107 A 
ATOM      5  C4  BZF d   1      -0.619  -1.456   1.417  0.00  0.00     0.055 A 
ATOM      6  C5  BZF d   1      -1.251  -1.179   2.588  0.00  0.00    -0.016 A 
ATOM      7  C6  BZF d   1      -1.286   0.097   3.110  0.00  0.00     0.022 A 
ATOM      8  C7  BZF d   1      -0.699   1.137   2.469  0.00  0.00     0.029 A 
ATOM      9  C7A BZF d   1      -0.087   0.866   1.269  0.00  0.00     0.058 A 
ENDROOT
TORSDOF 0
ENDMDL
