MODEL 1
REMARK minimizedAffinity 5.70792961
REMARK minimizedRMSD -1
REMARK  0 active torsions:
REMARK  status: ('A' for Active; 'I' for Inactive)
ROOT
ATOM      1  O1  BZF d   1       1.308  -5.961   3.224  0.00  0.00    -0.204 OA
ATOM      2  C2  BZF d   1       0.955  -5.960   4.559  0.00  0.00     0.174 A 
ATOM      3  C3  BZF d   1      -0.385  -5.917   4.700  0.00  0.00    -0.012 A 
ATOM      4  C3A BZF d   1      -0.906  -5.982   3.368  0.00  0.00    -0.107 A 
ATOM      5  C4  BZF d   1      -2.171  -5.995   2.854  0.00  0.00     0.055 A 
ATOM      6  C5  BZF d   1      -2.336  -5.991   1.505  0.00  0.00    -0.016 A 
ATOM      7  C6  BZF d   1      -1.259  -5.969   0.643  0.00  0.00     0.022 A 
ATOM      8  C7  BZF d   1       0.014  -5.962   1.105  0.00  0.00     0.029 A 
ATOM      9  C7A BZF d   1       0.184  -5.999   2.468  0.00  0.00     0.058 A 
ENDROOT
TORSDOF 0
ENDMDL
