MODEL 1
REMARK minimizedAffinity 30.1568642
REMARK minimizedRMSD -1
REMARK  0 active torsions:
REMARK  status: ('A' for Active; 'I' for Inactive)
ROOT
ATOM      1  C   UNL d   1       2.480   1.712  -1.609  0.00  0.00     0.124 A 
ATOM      2  C1  UNL d   1       1.949   2.957  -1.304  0.00  0.00     0.062 A 
ATOM      3  C2  UNL d   1       2.782   4.067  -1.202  0.00  0.00     0.162 A 
ATOM      4  C3  UNL d   1       4.155   3.938  -1.406  0.00  0.00    -0.034 A 
ATOM      5  C4  UNL d   1       4.682   2.682  -1.712  0.00  0.00     0.162 A 
ATOM      6  C5  UNL d   1       3.846   1.575  -1.813  0.00  0.00     0.062 A 
ATOM      7  F   UNL d   1       4.360   0.373  -2.108  0.00  0.00    -0.097 F 
ATOM      8  F1  UNL d   1       5.998   2.521  -1.915  0.00  0.00    -0.096 F 
ATOM      9  I   UNL d   1       5.405   5.595  -1.255  0.00  0.00    -0.060 I 
ATOM     10  F2  UNL d   1       2.241   5.259  -0.905  0.00  0.00    -0.096 F 
ATOM     11  F3  UNL d   1       0.629   3.091  -1.105  0.00  0.00    -0.097 F 
ATOM     12  F4  UNL d   1       1.676   0.645  -1.705  0.00  0.00    -0.092 F 
ENDROOT
TORSDOF 0
ENDMDL
