MODEL 1
REMARK minimizedAffinity 21.9281673
REMARK minimizedRMSD -1
REMARK  0 active torsions:
REMARK  status: ('A' for Active; 'I' for Inactive)
ROOT
ATOM      1  C   UNL d   1       1.365   1.742  -0.819  0.00  0.00     0.124 A 
ATOM      2  C1  UNL d   1       1.048   0.534  -0.213  0.00  0.00     0.062 A 
ATOM      3  C2  UNL d   1      -0.072   0.436   0.608  0.00  0.00     0.162 A 
ATOM      4  C3  UNL d   1      -0.883   1.549   0.827  0.00  0.00    -0.034 A 
ATOM      5  C4  UNL d   1      -0.557   2.761   0.216  0.00  0.00     0.162 A 
ATOM      6  C5  UNL d   1       0.563   2.854  -0.604  0.00  0.00     0.062 A 
ATOM      7  F   UNL d   1       0.869   4.021  -1.188  0.00  0.00    -0.097 F 
ATOM      8  F1  UNL d   1      -1.315   3.851   0.405  0.00  0.00    -0.096 F 
ATOM      9  I   UNL d   1      -2.558   1.406   2.055  0.00  0.00    -0.060 I 
ATOM     10  F2  UNL d   1      -0.355  -0.744   1.180  0.00  0.00    -0.096 F 
ATOM     11  F3  UNL d   1       1.822  -0.541  -0.419  0.00  0.00    -0.097 F 
ATOM     12  F4  UNL d   1       2.444   1.834  -1.608  0.00  0.00    -0.092 F 
ENDROOT
TORSDOF 0
ENDMDL
