MODEL 1
REMARK minimizedAffinity 17.4920216
REMARK minimizedRMSD -1
REMARK  0 active torsions:
REMARK  status: ('A' for Active; 'I' for Inactive)
ROOT
ATOM      1  C   UNL d   1       0.246   2.595   0.236  0.00  0.00     0.124 A 
ATOM      2  C1  UNL d   1       1.071   2.583  -0.881  0.00  0.00     0.062 A 
ATOM      3  C2  UNL d   1       1.502   1.374  -1.420  0.00  0.00     0.162 A 
ATOM      4  C3  UNL d   1       1.108   0.166  -0.843  0.00  0.00    -0.034 A 
ATOM      5  C4  UNL d   1       0.280   0.187   0.280  0.00  0.00     0.162 A 
ATOM      6  C5  UNL d   1      -0.148   1.398   0.815  0.00  0.00     0.062 A 
ATOM      7  F   UNL d   1      -0.945   1.407   1.894  0.00  0.00    -0.097 F 
ATOM      8  F1  UNL d   1      -0.118  -0.956   0.860  0.00  0.00    -0.096 F 
ATOM      9  I   UNL d   1       1.751  -1.643  -1.645  0.00  0.00    -0.060 I 
ATOM     10  F2  UNL d   1       2.298   1.392  -2.499  0.00  0.00    -0.096 F 
ATOM     11  F3  UNL d   1       1.455   3.739  -1.442  0.00  0.00    -0.097 F 
ATOM     12  F4  UNL d   1      -0.166   3.760   0.752  0.00  0.00    -0.092 F 
ENDROOT
TORSDOF 0
ENDMDL
