MODEL 1
REMARK minimizedAffinity 13.6340065
REMARK minimizedRMSD -1
REMARK  0 active torsions:
REMARK  status: ('A' for Active; 'I' for Inactive)
ROOT
ATOM      1  C   UNL d   1       2.103   0.554  -1.107  0.00  0.00     0.124 A 
ATOM      2  C1  UNL d   1       1.220   1.593  -0.847  0.00  0.00     0.062 A 
ATOM      3  C2  UNL d   1       0.827   2.450  -1.871  0.00  0.00     0.162 A 
ATOM      4  C3  UNL d   1       1.316   2.272  -3.165  0.00  0.00    -0.034 A 
ATOM      5  C4  UNL d   1       2.205   1.225  -3.418  0.00  0.00     0.162 A 
ATOM      6  C5  UNL d   1       2.594   0.371  -2.391  0.00  0.00     0.062 A 
ATOM      7  F   UNL d   1       3.448  -0.632  -2.644  0.00  0.00    -0.097 F 
ATOM      8  F1  UNL d   1       2.694   1.025  -4.651  0.00  0.00    -0.096 F 
ATOM      9  I   UNL d   1       0.731   3.551  -4.698  0.00  0.00    -0.060 I 
ATOM     10  F2  UNL d   1      -0.027   3.446  -1.591  0.00  0.00    -0.096 F 
ATOM     11  F3  UNL d   1       0.745   1.773   0.394  0.00  0.00    -0.097 F 
ATOM     12  F4  UNL d   1       2.480  -0.269  -0.119  0.00  0.00    -0.092 F 
ENDROOT
TORSDOF 0
ENDMDL
