MODEL 1
REMARK minimizedAffinity 21.4076347
REMARK minimizedRMSD -1
REMARK  0 active torsions:
REMARK  status: ('A' for Active; 'I' for Inactive)
ROOT
ATOM      1  C   UNL d   1       0.056   3.631  -5.866  0.00  0.00     0.124 A 
ATOM      2  C1  UNL d   1       0.748   2.429  -5.815  0.00  0.00     0.062 A 
ATOM      3  C2  UNL d   1       2.140   2.421  -5.827  0.00  0.00     0.162 A 
ATOM      4  C3  UNL d   1       2.850   3.620  -5.888  0.00  0.00    -0.034 A 
ATOM      5  C4  UNL d   1       2.147   4.825  -5.940  0.00  0.00     0.162 A 
ATOM      6  C5  UNL d   1       0.756   4.828  -5.928  0.00  0.00     0.062 A 
ATOM      7  F   UNL d   1       0.090   5.991  -5.977  0.00  0.00    -0.097 F 
ATOM      8  F1  UNL d   1       2.799   5.996  -5.999  0.00  0.00    -0.096 F 
ATOM      9  I   UNL d   1       4.931   3.612  -5.906  0.00  0.00    -0.060 I 
ATOM     10  F2  UNL d   1       2.782   1.244  -5.778  0.00  0.00    -0.096 F 
ATOM     11  F3  UNL d   1       0.074   1.272  -5.756  0.00  0.00    -0.097 F 
ATOM     12  F4  UNL d   1      -1.283   3.636  -5.855  0.00  0.00    -0.092 F 
ENDROOT
TORSDOF 0
ENDMDL
