MODEL 1
REMARK minimizedAffinity 24.6376457
REMARK minimizedRMSD -1
REMARK  0 active torsions:
REMARK  status: ('A' for Active; 'I' for Inactive)
ROOT
ATOM      1  C   UNL d   1       5.022   5.092   1.618  0.00  0.00     0.124 A 
ATOM      2  C1  UNL d   1       4.382   4.448   2.668  0.00  0.00     0.062 A 
ATOM      3  C2  UNL d   1       3.366   3.531   2.411  0.00  0.00     0.162 A 
ATOM      4  C3  UNL d   1       2.985   3.253   1.098  0.00  0.00    -0.034 A 
ATOM      5  C4  UNL d   1       3.633   3.905   0.048  0.00  0.00     0.162 A 
ATOM      6  C5  UNL d   1       4.648   4.820   0.310  0.00  0.00     0.062 A 
ATOM      7  F   UNL d   1       5.266   5.442  -0.705  0.00  0.00    -0.097 F 
ATOM      8  F1  UNL d   1       3.292   3.661  -1.226  0.00  0.00    -0.096 F 
ATOM      9  I   UNL d   1       1.467   1.883   0.710  0.00  0.00    -0.060 I 
ATOM     10  F2  UNL d   1       2.764   2.924   3.444  0.00  0.00    -0.096 F 
ATOM     11  F3  UNL d   1       4.741   4.709   3.933  0.00  0.00    -0.097 F 
ATOM     12  F4  UNL d   1       5.999   5.974   1.868  0.00  0.00    -0.092 F 
ENDROOT
TORSDOF 0
ENDMDL
