MODEL 1
REMARK minimizedAffinity 5.42532349
REMARK minimizedRMSD -1
REMARK  0 active torsions:
REMARK  status: ('A' for Active; 'I' for Inactive)
ROOT
ATOM      1  C   UNL d   1      -2.082   3.504  -5.690  0.00  0.00     0.124 A 
ATOM      2  C1  UNL d   1      -1.446   4.732  -5.803  0.00  0.00     0.062 A 
ATOM      3  C2  UNL d   1      -0.059   4.797  -5.891  0.00  0.00     0.162 A 
ATOM      4  C3  UNL d   1       0.703   3.628  -5.868  0.00  0.00    -0.034 A 
ATOM      5  C4  UNL d   1       0.056   2.396  -5.753  0.00  0.00     0.162 A 
ATOM      6  C5  UNL d   1      -1.331   2.337  -5.665  0.00  0.00     0.062 A 
ATOM      7  F   UNL d   1      -1.943   1.149  -5.556  0.00  0.00    -0.097 F 
ATOM      8  F1  UNL d   1       0.758   1.254  -5.727  0.00  0.00    -0.096 F 
ATOM      9  I   UNL d   1       2.778   3.721  -6.000  0.00  0.00    -0.060 I 
ATOM     10  F2  UNL d   1       0.529   5.997  -6.000  0.00  0.00    -0.096 F 
ATOM     11  F3  UNL d   1      -2.170   5.860  -5.826  0.00  0.00    -0.097 F 
ATOM     12  F4  UNL d   1      -3.418   3.444  -5.604  0.00  0.00    -0.092 F 
ENDROOT
TORSDOF 0
ENDMDL
