MODEL 1
REMARK minimizedAffinity 15.4259567
REMARK minimizedRMSD -1
REMARK  0 active torsions:
REMARK  status: ('A' for Active; 'I' for Inactive)
ROOT
ATOM      1  C   UNL d   1       1.930   1.016  -4.151  0.00  0.00     0.124 A 
ATOM      2  C1  UNL d   1       0.553   0.914  -4.005  0.00  0.00     0.062 A 
ATOM      3  C2  UNL d   1      -0.282   1.895  -4.531  0.00  0.00     0.162 A 
ATOM      4  C3  UNL d   1       0.258   2.987  -5.211  0.00  0.00    -0.034 A 
ATOM      5  C4  UNL d   1       1.643   3.084  -5.353  0.00  0.00     0.162 A 
ATOM      6  C5  UNL d   1       2.473   2.100  -4.824  0.00  0.00     0.062 A 
ATOM      7  F   UNL d   1       3.803   2.201  -4.966  0.00  0.00    -0.097 F 
ATOM      8  F1  UNL d   1       2.195   4.121  -6.000  0.00  0.00    -0.096 F 
ATOM      9  I   UNL d   1      -0.987   4.457  -6.000  0.00  0.00    -0.060 I 
ATOM     10  F2  UNL d   1      -1.608   1.770  -4.375  0.00  0.00    -0.096 F 
ATOM     11  F3  UNL d   1       0.025  -0.133  -3.353  0.00  0.00    -0.097 F 
ATOM     12  F4  UNL d   1       2.731   0.071  -3.642  0.00  0.00    -0.092 F 
ENDROOT
TORSDOF 0
ENDMDL
