MODEL 1
REMARK minimizedAffinity 12.9160414
REMARK minimizedRMSD -1
REMARK  0 active torsions:
REMARK  status: ('A' for Active; 'I' for Inactive)
ROOT
ATOM      1  C   UNL d   1      -3.549  -2.186   3.961  0.00  0.00     0.124 A 
ATOM      2  C1  UNL d   1      -2.743  -1.841   2.885  0.00  0.00     0.062 A 
ATOM      3  C2  UNL d   1      -1.600  -2.582   2.600  0.00  0.00     0.162 A 
ATOM      4  C3  UNL d   1      -1.256  -3.678   3.392  0.00  0.00    -0.034 A 
ATOM      5  C4  UNL d   1      -2.072  -4.018   4.473  0.00  0.00     0.162 A 
ATOM      6  C5  UNL d   1      -3.213  -3.274   4.754  0.00  0.00     0.062 A 
ATOM      7  F   UNL d   1      -3.990  -3.609   5.794  0.00  0.00    -0.097 F 
ATOM      8  F1  UNL d   1      -1.771  -5.065   5.255  0.00  0.00    -0.096 F 
ATOM      9  I   UNL d   1       0.452  -4.789   2.970  0.00  0.00    -0.060 I 
ATOM     10  F2  UNL d   1      -0.840  -2.226   1.554  0.00  0.00    -0.096 F 
ATOM     11  F3  UNL d   1      -3.065  -0.789   2.118  0.00  0.00    -0.097 F 
ATOM     12  F4  UNL d   1      -4.648  -1.470   4.233  0.00  0.00    -0.092 F 
ENDROOT
TORSDOF 0
ENDMDL
