MODEL 1
REMARK minimizedAffinity 25.2959461
REMARK minimizedRMSD -1
REMARK  0 active torsions:
REMARK  status: ('A' for Active; 'I' for Inactive)
ROOT
ATOM      1  C   UNL d   1      -0.336   2.356  -4.422  0.00  0.00     0.124 A 
ATOM      2  C1  UNL d   1       0.116   3.668  -4.396  0.00  0.00     0.062 A 
ATOM      3  C2  UNL d   1      -0.705   4.700  -4.842  0.00  0.00     0.162 A 
ATOM      4  C3  UNL d   1      -1.987   4.424  -5.317  0.00  0.00    -0.034 A 
ATOM      5  C4  UNL d   1      -2.434   3.102  -5.341  0.00  0.00     0.162 A 
ATOM      6  C5  UNL d   1      -1.610   2.074  -4.894  0.00  0.00     0.062 A 
ATOM      7  F   UNL d   1      -2.049   0.807  -4.919  0.00  0.00    -0.097 F 
ATOM      8  F1  UNL d   1      -3.662   2.801  -5.791  0.00  0.00    -0.096 F 
ATOM      9  I   UNL d   1      -3.217   5.964  -5.985  0.00  0.00    -0.060 I 
ATOM     10  F2  UNL d   1      -0.242   5.958  -4.807  0.00  0.00    -0.096 F 
ATOM     11  F3  UNL d   1       1.347   3.943  -3.942  0.00  0.00    -0.097 F 
ATOM     12  F4  UNL d   1       0.456   1.365  -3.993  0.00  0.00    -0.092 F 
ENDROOT
TORSDOF 0
ENDMDL
