MODEL 1
REMARK minimizedAffinity 31.9199371
REMARK minimizedRMSD -1
REMARK  0 active torsions:
REMARK  status: ('A' for Active; 'I' for Inactive)
ROOT
ATOM      1  C   UNL d   1      -2.366  -3.241  -0.913  0.00  0.00     0.124 A 
ATOM      2  C1  UNL d   1      -2.830  -3.026   0.377  0.00  0.00     0.062 A 
ATOM      3  C2  UNL d   1      -3.858  -3.811   0.892  0.00  0.00     0.162 A 
ATOM      4  C3  UNL d   1      -4.428  -4.820   0.116  0.00  0.00    -0.034 A 
ATOM      5  C4  UNL d   1      -3.957  -5.030  -1.181  0.00  0.00     0.162 A 
ATOM      6  C5  UNL d   1      -2.929  -4.243  -1.691  0.00  0.00     0.062 A 
ATOM      7  F   UNL d   1      -2.482  -4.453  -2.937  0.00  0.00    -0.097 F 
ATOM      8  F1  UNL d   1      -4.483  -5.992  -1.954  0.00  0.00    -0.096 F 
ATOM      9  I   UNL d   1      -5.965  -5.996   0.881  0.00  0.00    -0.060 I 
ATOM     10  F2  UNL d   1      -4.286  -3.580   2.142  0.00  0.00    -0.096 F 
ATOM     11  F3  UNL d   1      -2.288  -2.058   1.131  0.00  0.00    -0.097 F 
ATOM     12  F4  UNL d   1      -1.377  -2.484  -1.406  0.00  0.00    -0.092 F 
ENDROOT
TORSDOF 0
ENDMDL
