MODEL 1
REMARK minimizedAffinity 17.1459618
REMARK minimizedRMSD -1
REMARK  0 active torsions:
REMARK  status: ('A' for Active; 'I' for Inactive)
ROOT
ATOM      1  C   UNL d   1      -1.524   3.785  -5.303  0.00  0.00     0.124 A 
ATOM      2  C1  UNL d   1      -0.627   4.786  -5.649  0.00  0.00     0.062 A 
ATOM      3  C2  UNL d   1       0.742   4.534  -5.638  0.00  0.00     0.162 A 
ATOM      4  C3  UNL d   1       1.223   3.275  -5.280  0.00  0.00    -0.034 A 
ATOM      5  C4  UNL d   1       0.316   2.273  -4.932  0.00  0.00     0.162 A 
ATOM      6  C5  UNL d   1      -1.052   2.530  -4.944  0.00  0.00     0.062 A 
ATOM      7  F   UNL d   1      -1.916   1.561  -4.609  0.00  0.00    -0.097 F 
ATOM      8  F1  UNL d   1       0.744   1.051  -4.583  0.00  0.00    -0.096 F 
ATOM      9  I   UNL d   1       3.269   2.895  -5.263  0.00  0.00    -0.060 I 
ATOM     10  F2  UNL d   1       1.585   5.521  -5.978  0.00  0.00    -0.096 F 
ATOM     11  F3  UNL d   1      -1.081   6.000  -5.995  0.00  0.00    -0.097 F 
ATOM     12  F4  UNL d   1      -2.840   4.030  -5.313  0.00  0.00    -0.092 F 
ENDROOT
TORSDOF 0
ENDMDL
