MODEL 1
REMARK minimizedAffinity 25.9057865
REMARK minimizedRMSD -1
REMARK  0 active torsions:
REMARK  status: ('A' for Active; 'I' for Inactive)
ROOT
ATOM      1  C   UNL d   1       3.536   3.761   0.294  0.00  0.00     0.124 A 
ATOM      2  C1  UNL d   1       2.868   3.341   1.436  0.00  0.00     0.062 A 
ATOM      3  C2  UNL d   1       3.252   3.815   2.687  0.00  0.00     0.162 A 
ATOM      4  C3  UNL d   1       4.310   4.717   2.803  0.00  0.00    -0.034 A 
ATOM      5  C4  UNL d   1       4.978   5.134   1.651  0.00  0.00     0.162 A 
ATOM      6  C5  UNL d   1       4.590   4.657   0.403  0.00  0.00     0.062 A 
ATOM      7  F   UNL d   1       5.238   5.064  -0.699  0.00  0.00    -0.097 F 
ATOM      8  F1  UNL d   1       6.000   6.000   1.726  0.00  0.00    -0.096 F 
ATOM      9  I   UNL d   1       4.887   5.428   4.672  0.00  0.00    -0.060 I 
ATOM     10  F2  UNL d   1       2.587   3.392   3.772  0.00  0.00    -0.096 F 
ATOM     11  F3  UNL d   1       1.849   2.475   1.334  0.00  0.00    -0.097 F 
ATOM     12  F4  UNL d   1       3.165   3.302  -0.908  0.00  0.00    -0.092 F 
ENDROOT
TORSDOF 0
ENDMDL
