MODEL 1
REMARK minimizedAffinity 12.8132811
REMARK minimizedRMSD -1
REMARK  0 active torsions:
REMARK  status: ('A' for Active; 'I' for Inactive)
ROOT
ATOM      1  C   UNL d   1      -2.283  -1.892   3.211  0.00  0.00     0.124 A 
ATOM      2  C1  UNL d   1      -3.164  -2.236   4.228  0.00  0.00     0.062 A 
ATOM      3  C2  UNL d   1      -2.913  -3.349   5.025  0.00  0.00     0.162 A 
ATOM      4  C3  UNL d   1      -1.775  -4.126   4.810  0.00  0.00    -0.034 A 
ATOM      5  C4  UNL d   1      -0.894  -3.775   3.785  0.00  0.00     0.162 A 
ATOM      6  C5  UNL d   1      -1.150  -2.661   2.991  0.00  0.00     0.062 A 
ATOM      7  F   UNL d   1      -0.298  -2.331   2.009  0.00  0.00    -0.097 F 
ATOM      8  F1  UNL d   1       0.209  -4.500   3.551  0.00  0.00    -0.096 F 
ATOM      9  I   UNL d   1      -1.395  -5.791   6.000  0.00  0.00    -0.060 I 
ATOM     10  F2  UNL d   1      -3.781  -3.657   6.000  0.00  0.00    -0.096 F 
ATOM     11  F3  UNL d   1      -4.260  -1.494   4.442  0.00  0.00    -0.097 F 
ATOM     12  F4  UNL d   1      -2.528  -0.821   2.445  0.00  0.00    -0.092 F 
ENDROOT
TORSDOF 0
ENDMDL
