MODEL 1
REMARK minimizedAffinity 18.8680267
REMARK minimizedRMSD -1
REMARK  0 active torsions:
REMARK  status: ('A' for Active; 'I' for Inactive)
ROOT
ATOM      1  C   UNL d   1      -1.345   4.556  -5.520  0.00  0.00     0.124 A 
ATOM      2  C1  UNL d   1      -1.805   3.344  -5.022  0.00  0.00     0.062 A 
ATOM      3  C2  UNL d   1      -0.906   2.406  -4.523  0.00  0.00     0.162 A 
ATOM      4  C3  UNL d   1       0.462   2.676  -4.519  0.00  0.00    -0.034 A 
ATOM      5  C4  UNL d   1       0.917   3.896  -5.022  0.00  0.00     0.162 A 
ATOM      6  C5  UNL d   1       0.015   4.830  -5.519  0.00  0.00     0.062 A 
ATOM      7  F   UNL d   1       0.461   6.000  -6.000  0.00  0.00    -0.097 F 
ATOM      8  F1  UNL d   1       2.226   4.187  -5.033  0.00  0.00    -0.096 F 
ATOM      9  I   UNL d   1       1.809   1.275  -3.774  0.00  0.00    -0.060 I 
ATOM     10  F2  UNL d   1      -1.379   1.244  -4.048  0.00  0.00    -0.096 F 
ATOM     11  F3  UNL d   1      -3.119   3.077  -5.022  0.00  0.00    -0.097 F 
ATOM     12  F4  UNL d   1      -2.212   5.456  -6.000  0.00  0.00    -0.092 F 
ENDROOT
TORSDOF 0
ENDMDL
