MODEL 1
REMARK minimizedAffinity 19.6260338
REMARK minimizedRMSD -1
REMARK  0 active torsions:
REMARK  status: ('A' for Active; 'I' for Inactive)
ROOT
ATOM      1  C   UNL d   1      -1.535   4.381  -5.613  0.00  0.00     0.124 A 
ATOM      2  C1  UNL d   1      -1.888   3.100  -5.213  0.00  0.00     0.062 A 
ATOM      3  C2  UNL d   1      -0.907   2.197  -4.812  0.00  0.00     0.162 A 
ATOM      4  C3  UNL d   1       0.436   2.572  -4.808  0.00  0.00    -0.034 A 
ATOM      5  C4  UNL d   1       0.784   3.862  -5.213  0.00  0.00     0.162 A 
ATOM      6  C5  UNL d   1      -0.200   4.761  -5.613  0.00  0.00     0.062 A 
ATOM      7  F   UNL d   1       0.143   5.998  -6.000  0.00  0.00    -0.097 F 
ATOM      8  F1  UNL d   1       2.066   4.255  -5.221  0.00  0.00    -0.096 F 
ATOM      9  I   UNL d   1       1.905   1.224  -4.209  0.00  0.00    -0.060 I 
ATOM     10  F2  UNL d   1      -1.278   0.965  -4.430  0.00  0.00    -0.096 F 
ATOM     11  F3  UNL d   1      -3.177   2.730  -5.213  0.00  0.00    -0.097 F 
ATOM     12  F4  UNL d   1      -2.480   5.247  -6.000  0.00  0.00    -0.092 F 
ENDROOT
TORSDOF 0
ENDMDL
