MODEL 1
REMARK minimizedAffinity 13.2387133
REMARK minimizedRMSD -1
REMARK  0 active torsions:
REMARK  status: ('A' for Active; 'I' for Inactive)
ROOT
ATOM      1  C   UNL d   1      -0.554   3.617  -5.299  0.00  0.00     0.124 A 
ATOM      2  C1  UNL d   1      -1.205   4.803  -5.609  0.00  0.00     0.062 A 
ATOM      3  C2  UNL d   1      -2.593   4.836  -5.699  0.00  0.00     0.162 A 
ATOM      4  C3  UNL d   1      -3.341   3.680  -5.478  0.00  0.00    -0.034 A 
ATOM      5  C4  UNL d   1      -2.679   2.490  -5.167  0.00  0.00     0.162 A 
ATOM      6  C5  UNL d   1      -1.291   2.462  -5.079  0.00  0.00     0.062 A 
ATOM      7  F   UNL d   1      -0.664   1.315  -4.779  0.00  0.00    -0.097 F 
ATOM      8  F1  UNL d   1      -3.367   1.360  -4.949  0.00  0.00    -0.096 F 
ATOM      9  I   UNL d   1      -5.418   3.726  -5.611  0.00  0.00    -0.060 I 
ATOM     10  F2  UNL d   1      -3.196   5.996  -6.000  0.00  0.00    -0.096 F 
ATOM     11  F3  UNL d   1      -0.495   5.920  -5.823  0.00  0.00    -0.097 F 
ATOM     12  F4  UNL d   1       0.782   3.587  -5.214  0.00  0.00    -0.092 F 
ENDROOT
TORSDOF 0
ENDMDL
