MODEL 1
REMARK minimizedAffinity -4.80888939
REMARK minimizedRMSD -1
REMARK  1 active torsions:
REMARK  status: ('A' for Active; 'I' for Inactive)
REMARK    1  A    between atoms: C1_2  and  C2_3 
ROOT
ATOM      1  C2  UNL d   1       1.757  -1.444   1.452  0.00  0.00    -0.081 A 
ATOM      2  C3  UNL d   1       2.817  -0.561   1.214  0.00  0.00     0.006 A 
ATOM      3  C4  UNL d   1       2.621   0.594   0.453  0.00  0.00     0.002 A 
ATOM      4  C5  UNL d   1       1.360   0.889  -0.076  0.00  0.00    -0.080 A 
ATOM      5  C6  UNL d   1       1.128   2.140  -0.870  0.00  0.00     0.076 C 
ATOM      6  C7  UNL d   1       0.304  -0.002   0.147  0.00  0.00     0.002 A 
ATOM      7  C8  UNL d   1       0.500  -1.157   0.907  0.00  0.00     0.006 A 
ENDROOT
BRANCH   1   8
ATOM      8  C1  UNL d   1       1.950  -2.656   2.327  0.00  0.00     0.054 C 
ATOM      9  C   UNL d   1       0.634  -3.384   2.562  0.00  0.00     0.018 C 
ENDBRANCH   1   8
TORSDOF 1
ENDMDL
