MODEL 1
REMARK minimizedAffinity -2.55423713
REMARK minimizedRMSD -1
REMARK  1 active torsions:
REMARK  status: ('A' for Active; 'I' for Inactive)
REMARK    1  A    between atoms: C1_2  and  C2_3 
ROOT
ATOM      1  C2  UNL d   1      -1.177   0.235  -0.693  0.00  0.00    -0.081 A 
ATOM      2  C3  UNL d   1      -0.481   1.439  -0.526  0.00  0.00     0.006 A 
ATOM      3  C4  UNL d   1       0.794   1.447   0.044  0.00  0.00     0.002 A 
ATOM      4  C5  UNL d   1       1.398   0.252   0.450  0.00  0.00    -0.080 A 
ATOM      5  C6  UNL d   1       2.778   0.243   1.035  0.00  0.00     0.076 C 
ATOM      6  C7  UNL d   1       0.696  -0.949   0.299  0.00  0.00     0.002 A 
ATOM      7  C8  UNL d   1      -0.579  -0.958  -0.270  0.00  0.00     0.006 A 
ENDROOT
BRANCH   1   8
ATOM      8  C1  UNL d   1      -2.525   0.216  -1.367  0.00  0.00     0.054 C 
ATOM      9  C   UNL d   1      -2.567  -0.808  -2.492  0.00  0.00     0.018 C 
ENDBRANCH   1   8
TORSDOF 1
ENDMDL
