MODEL 1
REMARK minimizedAffinity -4.08240271
REMARK minimizedRMSD -1
REMARK  1 active torsions:
REMARK  status: ('A' for Active; 'I' for Inactive)
REMARK    1  A    between atoms: C1_2  and  C2_3 
ROOT
ATOM      1  C2  UNL d   1      -0.733  -0.180   0.274  0.00  0.00    -0.081 A 
ATOM      2  C3  UNL d   1       0.375   0.641   0.033  0.00  0.00     0.006 A 
ATOM      3  C4  UNL d   1       1.631   0.304   0.544  0.00  0.00     0.002 A 
ATOM      4  C5  UNL d   1       1.800  -0.863   1.297  0.00  0.00    -0.080 A 
ATOM      5  C6  UNL d   1       3.149  -1.253   1.826  0.00  0.00     0.076 C 
ATOM      6  C7  UNL d   1       0.689  -1.674   1.552  0.00  0.00     0.002 A 
ATOM      7  C8  UNL d   1      -0.566  -1.337   1.042  0.00  0.00     0.006 A 
ENDROOT
BRANCH   1   8
ATOM      8  C1  UNL d   1      -2.075   0.148  -0.330  0.00  0.00     0.054 C 
ATOM      9  C   UNL d   1      -2.115  -0.199  -1.811  0.00  0.00     0.018 C 
ENDBRANCH   1   8
TORSDOF 1
ENDMDL
