MODEL 1
REMARK minimizedAffinity -4.86526537
REMARK minimizedRMSD -1
REMARK  1 active torsions:
REMARK  status: ('A' for Active; 'I' for Inactive)
REMARK    1  A    between atoms: C1_2  and  C2_3 
ROOT
ATOM      1  C2  UNL d   1       1.748  -1.098   1.586  0.00  0.00    -0.081 A 
ATOM      2  C3  UNL d   1       2.915  -0.534   1.058  0.00  0.00     0.006 A 
ATOM      3  C4  UNL d   1       2.845   0.565   0.198  0.00  0.00     0.002 A 
ATOM      4  C5  UNL d   1       1.607   1.122  -0.141  0.00  0.00    -0.080 A 
ATOM      5  C6  UNL d   1       1.519   2.321  -1.038  0.00  0.00     0.076 C 
ATOM      6  C7  UNL d   1       0.440   0.548   0.373  0.00  0.00     0.002 A 
ATOM      7  C8  UNL d   1       0.509  -0.551   1.232  0.00  0.00     0.006 A 
ENDROOT
BRANCH   1   8
ATOM      8  C1  UNL d   1       1.824  -2.242   2.565  0.00  0.00     0.054 C 
ATOM      9  C   UNL d   1       0.462  -2.893   2.763  0.00  0.00     0.018 C 
ENDBRANCH   1   8
TORSDOF 1
ENDMDL
