MODEL 1
REMARK minimizedAffinity -3.30899382
REMARK minimizedRMSD -1
REMARK  1 active torsions:
REMARK  status: ('A' for Active; 'I' for Inactive)
REMARK    1  A    between atoms: C1_2  and  C2_3 
ROOT
ATOM      1  C2  UNL d   1      -0.562  -0.194  -0.450  0.00  0.00    -0.081 A 
ATOM      2  C3  UNL d   1       0.192   0.825   0.144  0.00  0.00     0.006 A 
ATOM      3  C4  UNL d   1       1.528   0.609   0.490  0.00  0.00     0.002 A 
ATOM      4  C5  UNL d   1       2.134  -0.627   0.241  0.00  0.00    -0.080 A 
ATOM      5  C6  UNL d   1       3.576  -0.863   0.580  0.00  0.00     0.076 C 
ATOM      6  C7  UNL d   1       1.377  -1.651  -0.337  0.00  0.00     0.002 A 
ATOM      7  C8  UNL d   1       0.041  -1.436  -0.683  0.00  0.00     0.006 A 
ENDROOT
BRANCH   1   8
ATOM      8  C1  UNL d   1      -1.983   0.057  -0.884  0.00  0.00     0.054 C 
ATOM      9  C   UNL d   1      -2.200  -0.353  -2.334  0.00  0.00     0.018 C 
ENDBRANCH   1   8
TORSDOF 1
ENDMDL
