MODEL 1
REMARK minimizedAffinity -2.86264777
REMARK minimizedRMSD -1
REMARK  1 active torsions:
REMARK  status: ('A' for Active; 'I' for Inactive)
REMARK    1  A    between atoms: C1_2  and  C2_3 
ROOT
ATOM      1  C2  UNL d   1      -0.535  -0.283  -0.670  0.00  0.00    -0.081 A 
ATOM      2  C3  UNL d   1      -0.562   0.881   0.107  0.00  0.00     0.006 A 
ATOM      3  C4  UNL d   1       0.553   1.255   0.861  0.00  0.00     0.002 A 
ATOM      4  C5  UNL d   1       1.715   0.476   0.844  0.00  0.00    -0.080 A 
ATOM      5  C6  UNL d   1       2.930   0.882   1.624  0.00  0.00     0.076 C 
ATOM      6  C7  UNL d   1       1.736  -0.696   0.081  0.00  0.00     0.002 A 
ATOM      7  C8  UNL d   1       0.621  -1.071  -0.673  0.00  0.00     0.006 A 
ENDROOT
BRANCH   1   8
ATOM      8  C1  UNL d   1      -1.713  -0.654  -1.535  0.00  0.00     0.054 C 
ATOM      9  C   UNL d   1      -2.157   0.518  -2.398  0.00  0.00     0.018 C 
ENDBRANCH   1   8
TORSDOF 1
ENDMDL
