MODEL 1
REMARK minimizedAffinity 0.825585842
REMARK minimizedRMSD -1
REMARK  0 active torsions:
REMARK  status: ('A' for Active; 'I' for Inactive)
ROOT
ATOM      1  C   UNL d   1       3.932   1.482   0.153  0.00  0.00     0.172 C 
ATOM      2  N   UNL d   1       3.696   0.534   1.217  0.00  0.00    -0.070 N 
ATOM      3  C1  UNL d   1       2.469   0.108   1.649  0.00  0.00    -0.004 A 
ATOM      4  C2  UNL d   1       2.671  -0.791   2.674  0.00  0.00    -0.047 A 
ATOM      5  C3  UNL d   1       4.068  -0.908   2.865  0.00  0.00    -0.047 A 
ATOM      6  C4  UNL d   1       4.679  -0.076   1.950  0.00  0.00    -0.004 A 
ENDROOT
TORSDOF 0
ENDMDL
