MODEL 1
REMARK minimizedAffinity 3.43750048
REMARK minimizedRMSD -1
REMARK  0 active torsions:
REMARK  status: ('A' for Active; 'I' for Inactive)
ROOT
ATOM      1  C   UNL d   1      -5.745   3.082   3.112  0.00  0.00     0.172 C 
ATOM      2  N   UNL d   1      -5.290   3.790   4.285  0.00  0.00    -0.070 N 
ATOM      3  C1  UNL d   1      -4.094   3.594   4.922  0.00  0.00    -0.004 A 
ATOM      4  C2  UNL d   1      -4.038   4.460   5.993  0.00  0.00    -0.047 A 
ATOM      5  C3  UNL d   1      -5.243   5.202   6.000  0.00  0.00    -0.047 A 
ATOM      6  C4  UNL d   1      -6.000   4.767   4.932  0.00  0.00    -0.004 A 
ENDROOT
TORSDOF 0
ENDMDL
