MODEL 1
REMARK minimizedAffinity 3.66514611
REMARK minimizedRMSD -1
REMARK  0 active torsions:
REMARK  status: ('A' for Active; 'I' for Inactive)
ROOT
ATOM      1  C   UNL d   1       5.418  -0.290   2.655  0.00  0.00     0.172 C 
ATOM      2  N   UNL d   1       4.080  -0.092   2.150  0.00  0.00    -0.070 N 
ATOM      3  C1  UNL d   1       3.746   0.631   1.035  0.00  0.00    -0.004 A 
ATOM      4  C2  UNL d   1       2.376   0.578   0.893  0.00  0.00    -0.047 A 
ATOM      5  C3  UNL d   1       1.869  -0.202   1.959  0.00  0.00    -0.047 A 
ATOM      6  C4  UNL d   1       2.945  -0.604   2.722  0.00  0.00    -0.004 A 
ENDROOT
TORSDOF 0
ENDMDL
