MODEL 1
REMARK minimizedAffinity 7.28198338
REMARK minimizedRMSD -1
REMARK  0 active torsions:
REMARK  status: ('A' for Active; 'I' for Inactive)
ROOT
ATOM      1  C   UNL d   1      -5.340  -0.553   2.246  0.00  0.00     0.172 C 
ATOM      2  N   UNL d   1      -5.532   0.867   2.426  0.00  0.00    -0.070 N 
ATOM      3  C1  UNL d   1      -5.359   1.554   3.598  0.00  0.00    -0.004 A 
ATOM      4  C2  UNL d   1      -5.639   2.881   3.355  0.00  0.00    -0.047 A 
ATOM      5  C3  UNL d   1      -5.992   2.996   1.990  0.00  0.00    -0.047 A 
ATOM      6  C4  UNL d   1      -5.918   1.735   1.439  0.00  0.00    -0.004 A 
ENDROOT
TORSDOF 0
ENDMDL
