MODEL 1
REMARK minimizedAffinity 0.68720156
REMARK minimizedRMSD -1
REMARK  0 active torsions:
REMARK  status: ('A' for Active; 'I' for Inactive)
ROOT
ATOM      1  C   UNL d   1       5.999   0.056  -1.519  0.00  0.00     0.172 C 
ATOM      2  N   UNL d   1       4.797  -0.405  -2.174  0.00  0.00    -0.070 N 
ATOM      3  C1  UNL d   1       3.981  -1.410  -1.729  0.00  0.00    -0.004 A 
ATOM      4  C2  UNL d   1       2.947  -1.544  -2.629  0.00  0.00    -0.047 A 
ATOM      5  C3  UNL d   1       3.149  -0.587  -3.652  0.00  0.00    -0.047 A 
ATOM      6  C4  UNL d   1       4.302   0.104  -3.345  0.00  0.00    -0.004 A 
ENDROOT
TORSDOF 0
ENDMDL
