MODEL 1
REMARK minimizedAffinity 2.35486722
REMARK minimizedRMSD -1
REMARK  0 active torsions:
REMARK  status: ('A' for Active; 'I' for Inactive)
ROOT
ATOM      1  C   UNL d   1       4.469  -0.270   2.951  0.00  0.00     0.172 C 
ATOM      2  N   UNL d   1       3.402   0.039   2.028  0.00  0.00    -0.070 N 
ATOM      3  C1  UNL d   1       3.480   0.922   0.984  0.00  0.00    -0.004 A 
ATOM      4  C2  UNL d   1       2.258   0.932   0.348  0.00  0.00    -0.047 A 
ATOM      5  C3  UNL d   1       1.416   0.024   1.032  0.00  0.00    -0.047 A 
ATOM      6  C4  UNL d   1       2.150  -0.515   2.068  0.00  0.00    -0.004 A 
ENDROOT
TORSDOF 0
ENDMDL
