MODEL 1
REMARK minimizedAffinity -0.105514295
REMARK minimizedRMSD -1
REMARK  0 active torsions:
REMARK  status: ('A' for Active; 'I' for Inactive)
ROOT
ATOM      1  C   UNL d   1      -5.999   5.536   5.841  0.00  0.00     0.172 C 
ATOM      2  N   UNL d   1      -5.872   4.213   5.277  0.00  0.00    -0.070 N 
ATOM      3  C1  UNL d   1      -5.686   3.924   3.951  0.00  0.00    -0.004 A 
ATOM      4  C2  UNL d   1      -5.615   2.554   3.823  0.00  0.00    -0.047 A 
ATOM      5  C3  UNL d   1      -5.765   2.000   5.117  0.00  0.00    -0.047 A 
ATOM      6  C4  UNL d   1      -5.923   3.049   5.997  0.00  0.00    -0.004 A 
ENDROOT
TORSDOF 0
ENDMDL
