MODEL 1
REMARK minimizedAffinity 2.13944674
REMARK minimizedRMSD -1
REMARK  0 active torsions:
REMARK  status: ('A' for Active; 'I' for Inactive)
ROOT
ATOM      1  C   UNL d   1       1.954  -1.091   2.862  0.00  0.00     0.172 C 
ATOM      2  N   UNL d   1       3.060  -0.369   2.279  0.00  0.00    -0.070 N 
ATOM      3  C1  UNL d   1       4.385  -0.580   2.554  0.00  0.00    -0.004 A 
ATOM      4  C2  UNL d   1       5.120   0.307   1.797  0.00  0.00    -0.047 A 
ATOM      5  C3  UNL d   1       4.204   1.078   1.041  0.00  0.00    -0.047 A 
ATOM      6  C4  UNL d   1       2.937   0.639   1.359  0.00  0.00    -0.004 A 
ENDROOT
TORSDOF 0
ENDMDL
