MODEL 1
REMARK minimizedAffinity 1.31571066
REMARK minimizedRMSD -1
REMARK  0 active torsions:
REMARK  status: ('A' for Active; 'I' for Inactive)
ROOT
ATOM      1  C   UNL d   1       4.626  -0.251   2.879  0.00  0.00     0.172 C 
ATOM      2  N   UNL d   1       3.527   0.127   2.022  0.00  0.00    -0.070 N 
ATOM      3  C1  UNL d   1       2.222  -0.258   2.180  0.00  0.00    -0.004 A 
ATOM      4  C2  UNL d   1       1.488   0.312   1.162  0.00  0.00    -0.047 A 
ATOM      5  C3  UNL d   1       2.382   1.064   0.364  0.00  0.00    -0.047 A 
ATOM      6  C4  UNL d   1       3.638   0.932   0.919  0.00  0.00    -0.004 A 
ENDROOT
TORSDOF 0
ENDMDL
