MODEL 1
REMARK minimizedAffinity 1.53813469
REMARK minimizedRMSD -1
REMARK  0 active torsions:
REMARK  status: ('A' for Active; 'I' for Inactive)
ROOT
ATOM      1  C   UNL d   1       4.221  -0.389   2.971  0.00  0.00     0.172 C 
ATOM      2  N   UNL d   1       3.083  -0.168   2.110  0.00  0.00    -0.070 N 
ATOM      3  C1  UNL d   1       3.019   0.743   1.090  0.00  0.00    -0.004 A 
ATOM      4  C2  UNL d   1       1.771   0.644   0.513  0.00  0.00    -0.047 A 
ATOM      5  C3  UNL d   1       1.061  -0.362   1.211  0.00  0.00    -0.047 A 
ATOM      6  C4  UNL d   1       1.897  -0.848   2.194  0.00  0.00    -0.004 A 
ENDROOT
TORSDOF 0
ENDMDL
