MODEL 1
REMARK minimizedAffinity 2.1689229
REMARK minimizedRMSD -1
REMARK  0 active torsions:
REMARK  status: ('A' for Active; 'I' for Inactive)
ROOT
ATOM      1  C   UNL d   1      -2.270   4.575   5.991  0.00  0.00     0.172 C 
ATOM      2  N   UNL d   1      -3.706   4.425   5.995  0.00  0.00    -0.070 N 
ATOM      3  C1  UNL d   1      -4.615   5.449   5.998  0.00  0.00    -0.004 A 
ATOM      4  C2  UNL d   1      -5.876   4.894   6.000  0.00  0.00    -0.047 A 
ATOM      5  C3  UNL d   1      -5.720   3.487   5.998  0.00  0.00    -0.047 A 
ATOM      6  C4  UNL d   1      -4.366   3.225   5.995  0.00  0.00    -0.004 A 
ENDROOT
TORSDOF 0
ENDMDL
