MODEL 1
REMARK minimizedAffinity 0.534474909
REMARK minimizedRMSD -1
REMARK  0 active torsions:
REMARK  status: ('A' for Active; 'I' for Inactive)
ROOT
ATOM      1  C   UNL d   1      -4.876  -4.760   3.753  0.00  0.00     0.172 C 
ATOM      2  N   UNL d   1      -4.383  -3.579   4.422  0.00  0.00    -0.070 N 
ATOM      3  C1  UNL d   1      -4.116  -3.471   5.760  0.00  0.00    -0.004 A 
ATOM      4  C2  UNL d   1      -3.666  -2.191   6.000  0.00  0.00    -0.047 A 
ATOM      5  C3  UNL d   1      -3.665  -1.504   4.762  0.00  0.00    -0.047 A 
ATOM      6  C4  UNL d   1      -4.113  -2.387   3.803  0.00  0.00    -0.004 A 
ENDROOT
TORSDOF 0
ENDMDL
