MODEL 1
REMARK minimizedAffinity 5.00289726
REMARK minimizedRMSD -1
REMARK  0 active torsions:
REMARK  status: ('A' for Active; 'I' for Inactive)
ROOT
ATOM      1  C   UNL d   1      -3.124  -1.130   6.000  0.00  0.00     0.172 C 
ATOM      2  N   UNL d   1      -3.555  -2.255   5.203  0.00  0.00    -0.070 N 
ATOM      3  C1  UNL d   1      -3.800  -3.518   5.671  0.00  0.00    -0.004 A 
ATOM      4  C2  UNL d   1      -4.189  -4.296   4.603  0.00  0.00    -0.047 A 
ATOM      5  C3  UNL d   1      -4.176  -3.473   3.452  0.00  0.00    -0.047 A 
ATOM      6  C4  UNL d   1      -3.780  -2.214   3.852  0.00  0.00    -0.004 A 
ENDROOT
TORSDOF 0
ENDMDL
