MODEL 1
REMARK minimizedAffinity 3.1212523
REMARK minimizedRMSD -1
REMARK  0 active torsions:
REMARK  status: ('A' for Active; 'I' for Inactive)
ROOT
ATOM      1  C   UNL d   1      -4.189   1.151   5.997  0.00  0.00     0.172 C 
ATOM      2  N   UNL d   1      -3.882  -0.260   5.991  0.00  0.00    -0.070 N 
ATOM      3  C1  UNL d   1      -4.800  -1.276   5.978  0.00  0.00    -0.004 A 
ATOM      4  C2  UNL d   1      -4.109  -2.469   5.976  0.00  0.00    -0.047 A 
ATOM      5  C3  UNL d   1      -2.728  -2.158   5.989  0.00  0.00    -0.047 A 
ATOM      6  C4  UNL d   1      -2.617  -0.784   5.998  0.00  0.00    -0.004 A 
ENDROOT
TORSDOF 0
ENDMDL
