MODEL 1
REMARK minimizedAffinity -0.892439246
REMARK minimizedRMSD -1
REMARK  0 active torsions:
REMARK  status: ('A' for Active; 'I' for Inactive)
ROOT
ATOM      1  C   UNL d   1       5.877  -0.073   2.782  0.00  0.00     0.172 C 
ATOM      2  N   UNL d   1       4.571  -0.146   2.172  0.00  0.00    -0.070 N 
ATOM      3  C1  UNL d   1       3.563  -0.997   2.540  0.00  0.00    -0.004 A 
ATOM      4  C2  UNL d   1       2.484  -0.755   1.718  0.00  0.00    -0.047 A 
ATOM      5  C3  UNL d   1       2.856   0.277   0.824  0.00  0.00    -0.047 A 
ATOM      6  C4  UNL d   1       4.153   0.635   1.127  0.00  0.00    -0.004 A 
ENDROOT
TORSDOF 0
ENDMDL
