MODEL 1
REMARK minimizedAffinity -2.11807299
REMARK minimizedRMSD -1
REMARK  0 active torsions:
REMARK  status: ('A' for Active; 'I' for Inactive)
ROOT
ATOM      1  C   UNL d   1       2.221  -2.186   2.712  0.00  0.00     0.172 C 
ATOM      2  N   UNL d   1       2.562  -1.013   1.942  0.00  0.00    -0.070 N 
ATOM      3  C1  UNL d   1       3.712  -0.281   2.069  0.00  0.00    -0.004 A 
ATOM      4  C2  UNL d   1       3.657   0.753   1.159  0.00  0.00    -0.047 A 
ATOM      5  C3  UNL d   1       2.431   0.638   0.462  0.00  0.00    -0.047 A 
ATOM      6  C4  UNL d   1       1.772  -0.463   0.967  0.00  0.00    -0.004 A 
ENDROOT
TORSDOF 0
ENDMDL
