MODEL 1
REMARK minimizedAffinity 0.625596404
REMARK minimizedRMSD -1
REMARK  0 active torsions:
REMARK  status: ('A' for Active; 'I' for Inactive)
ROOT
ATOM      1  C   UNL d   1      -4.518   2.986   6.000  0.00  0.00     0.172 C 
ATOM      2  N   UNL d   1      -5.077   2.472   4.772  0.00  0.00    -0.070 N 
ATOM      3  C1  UNL d   1      -5.245   1.148   4.464  0.00  0.00    -0.004 A 
ATOM      4  C2  UNL d   1      -5.806   1.075   3.208  0.00  0.00    -0.047 A 
ATOM      5  C3  UNL d   1      -5.981   2.400   2.744  0.00  0.00    -0.047 A 
ATOM      6  C4  UNL d   1      -5.521   3.245   3.732  0.00  0.00    -0.004 A 
ENDROOT
TORSDOF 0
ENDMDL
