MODEL 1
REMARK minimizedAffinity -0.910345972
REMARK minimizedRMSD -1
REMARK  0 active torsions:
REMARK  status: ('A' for Active; 'I' for Inactive)
ROOT
ATOM      1  C   UNL d   1      -4.174   0.552   5.996  0.00  0.00     0.172 C 
ATOM      2  N   UNL d   1      -3.878  -0.703   5.348  0.00  0.00    -0.070 N 
ATOM      3  C1  UNL d   1      -3.941  -0.941   4.001  0.00  0.00    -0.004 A 
ATOM      4  C2  UNL d   1      -3.585  -2.255   3.786  0.00  0.00    -0.047 A 
ATOM      5  C3  UNL d   1      -3.300  -2.827   5.049  0.00  0.00    -0.047 A 
ATOM      6  C4  UNL d   1      -3.489  -1.845   5.998  0.00  0.00    -0.004 A 
ENDROOT
TORSDOF 0
ENDMDL
