MODEL 1
REMARK minimizedAffinity 16.4293003
REMARK minimizedRMSD -1
REMARK  0 active torsions:
REMARK  status: ('A' for Active; 'I' for Inactive)
ROOT
ATOM      1  C   UNL d   1      -4.798   5.621  -1.260  0.00  0.00     0.023 A 
ATOM      2  C1  UNL d   1      -5.957   5.887  -0.530  0.00  0.00     0.003 A 
ATOM      3  C2  UNL d   1      -5.898   5.996   0.861  0.00  0.00     0.048 A 
ATOM      4  C3  UNL d   1      -4.677   5.838   1.516  0.00  0.00     0.023 A 
ATOM      5  C4  UNL d   1      -3.515   5.573   0.789  0.00  0.00     0.048 A 
ATOM      6  C5  UNL d   1      -3.579   5.464  -0.601  0.00  0.00     0.003 A 
ATOM      7  I   UNL d   1      -4.586   6.000   3.586  0.00  0.00    -0.146 I 
ENDROOT
TORSDOF 0
ENDMDL
