MODEL 1
REMARK minimizedAffinity 12.3688602
REMARK minimizedRMSD -1
REMARK  0 active torsions:
REMARK  status: ('A' for Active; 'I' for Inactive)
ROOT
ATOM      1  C   UNL d   1      -5.996  -3.739   5.098  0.00  0.00     0.023 A 
ATOM      2  C1  UNL d   1      -5.252  -2.978   5.999  0.00  0.00     0.003 A 
ATOM      3  C2  UNL d   1      -3.870  -2.858   5.839  0.00  0.00     0.048 A 
ATOM      4  C3  UNL d   1      -3.239  -3.500   4.774  0.00  0.00     0.023 A 
ATOM      5  C4  UNL d   1      -3.980  -4.262   3.869  0.00  0.00     0.048 A 
ATOM      6  C5  UNL d   1      -5.361  -4.380   4.034  0.00  0.00     0.003 A 
ATOM      7  I   UNL d   1      -1.182  -3.322   4.534  0.00  0.00    -0.146 I 
ENDROOT
TORSDOF 0
ENDMDL
