MODEL 1
REMARK minimizedAffinity 7.4405508
REMARK minimizedRMSD -1
REMARK  0 active torsions:
REMARK  status: ('A' for Active; 'I' for Inactive)
ROOT
ATOM      1  C   UNL d   1      -1.400   0.928   2.021  0.00  0.00     0.023 A 
ATOM      2  C1  UNL d   1      -2.685   0.768   2.540  0.00  0.00     0.003 A 
ATOM      3  C2  UNL d   1      -2.976  -0.319   3.366  0.00  0.00     0.048 A 
ATOM      4  C3  UNL d   1      -1.977  -1.243   3.670  0.00  0.00     0.023 A 
ATOM      5  C4  UNL d   1      -0.689  -1.087   3.154  0.00  0.00     0.048 A 
ATOM      6  C5  UNL d   1      -0.404   0.002   2.328  0.00  0.00     0.003 A 
ATOM      7  I   UNL d   1      -2.407  -2.863   4.900  0.00  0.00    -0.146 I 
ENDROOT
TORSDOF 0
ENDMDL
