MODEL 1
REMARK minimizedAffinity 18.0828915
REMARK minimizedRMSD -1
REMARK  0 active torsions:
REMARK  status: ('A' for Active; 'I' for Inactive)
ROOT
ATOM      1  C   UNL d   1       2.878  -1.093  -5.997  0.00  0.00     0.023 A 
ATOM      2  C1  UNL d   1       3.628  -2.270  -5.996  0.00  0.00     0.003 A 
ATOM      3  C2  UNL d   1       2.984  -3.509  -5.997  0.00  0.00     0.048 A 
ATOM      4  C3  UNL d   1       1.591  -3.564  -5.999  0.00  0.00     0.023 A 
ATOM      5  C4  UNL d   1       0.837  -2.389  -6.000  0.00  0.00     0.048 A 
ATOM      6  C5  UNL d   1       1.485  -1.153  -5.999  0.00  0.00     0.003 A 
ATOM      7  I   UNL d   1       0.630  -5.407  -5.999  0.00  0.00    -0.146 I 
ENDROOT
TORSDOF 0
ENDMDL
