MODEL 1
REMARK minimizedAffinity 15.1028624
REMARK minimizedRMSD -1
REMARK  0 active torsions:
REMARK  status: ('A' for Active; 'I' for Inactive)
ROOT
ATOM      1  C   UNL d   1       0.683  -1.466  -5.953  0.00  0.00     0.023 A 
ATOM      2  C1  UNL d   1       0.878  -2.846  -5.919  0.00  0.00     0.003 A 
ATOM      3  C2  UNL d   1       2.172  -3.370  -5.909  0.00  0.00     0.048 A 
ATOM      4  C3  UNL d   1       3.268  -2.508  -5.932  0.00  0.00     0.023 A 
ATOM      5  C4  UNL d   1       3.078  -1.125  -5.966  0.00  0.00     0.048 A 
ATOM      6  C5  UNL d   1       1.782  -0.606  -5.976  0.00  0.00     0.003 A 
ATOM      7  I   UNL d   1       5.195  -3.285  -5.917  0.00  0.00    -0.146 I 
ENDROOT
TORSDOF 0
ENDMDL
