MODEL 1
REMARK minimizedAffinity 15.9859982
REMARK minimizedRMSD -1
REMARK  0 active torsions:
REMARK  status: ('A' for Active; 'I' for Inactive)
ROOT
ATOM      1  C   UNL d   1       5.990  -4.322   1.747  0.00  0.00     0.023 A 
ATOM      2  C1  UNL d   1       6.000  -2.939   1.568  0.00  0.00     0.003 A 
ATOM      3  C2  UNL d   1       4.796  -2.238   1.467  0.00  0.00     0.048 A 
ATOM      4  C3  UNL d   1       3.586  -2.927   1.547  0.00  0.00     0.023 A 
ATOM      5  C4  UNL d   1       3.572  -4.311   1.726  0.00  0.00     0.048 A 
ATOM      6  C5  UNL d   1       4.778  -5.007   1.826  0.00  0.00     0.003 A 
ATOM      7  I   UNL d   1       1.794  -1.886   1.397  0.00  0.00    -0.146 I 
ENDROOT
TORSDOF 0
ENDMDL
