MODEL 1
REMARK minimizedAffinity 12.1454449
REMARK minimizedRMSD -1
REMARK  0 active torsions:
REMARK  status: ('A' for Active; 'I' for Inactive)
ROOT
ATOM      1  C   UNL d   1       2.033  -5.552  -2.108  0.00  0.00     0.023 A 
ATOM      2  C1  UNL d   1       2.568  -4.267  -2.012  0.00  0.00     0.003 A 
ATOM      3  C2  UNL d   1       2.575  -3.428  -3.127  0.00  0.00     0.048 A 
ATOM      4  C3  UNL d   1       2.046  -3.879  -4.336  0.00  0.00     0.023 A 
ATOM      5  C4  UNL d   1       1.509  -5.164  -4.436  0.00  0.00     0.048 A 
ATOM      6  C5  UNL d   1       1.504  -6.000  -3.318  0.00  0.00     0.003 A 
ATOM      7  I   UNL d   1       2.056  -2.631  -5.998  0.00  0.00    -0.146 I 
ENDROOT
TORSDOF 0
ENDMDL
