MODEL 1
REMARK minimizedAffinity 17.0427341
REMARK minimizedRMSD -1
REMARK  0 active torsions:
REMARK  status: ('A' for Active; 'I' for Inactive)
ROOT
ATOM      1  C   UNL d   1      -4.671   5.985   2.813  0.00  0.00     0.023 A 
ATOM      2  C1  UNL d   1      -3.507   5.814   2.063  0.00  0.00     0.003 A 
ATOM      3  C2  UNL d   1      -3.586   5.637   0.680  0.00  0.00     0.048 A 
ATOM      4  C3  UNL d   1      -4.832   5.633   0.054  0.00  0.00     0.023 A 
ATOM      5  C4  UNL d   1      -5.999   5.805   0.800  0.00  0.00     0.048 A 
ATOM      6  C5  UNL d   1      -5.915   5.981   2.182  0.00  0.00     0.003 A 
ATOM      7  I   UNL d   1      -4.952   5.371  -2.005  0.00  0.00    -0.146 I 
ENDROOT
TORSDOF 0
ENDMDL
