MODEL 1
REMARK minimizedAffinity -2.39867473
REMARK minimizedRMSD -1
REMARK  0 active torsions:
REMARK  status: ('A' for Active; 'I' for Inactive)
ROOT
ATOM      1  C   UNL d   1      -2.309   0.494   3.493  0.00  0.00     0.023 A 
ATOM      2  C1  UNL d   1      -3.127   1.197   2.608  0.00  0.00     0.003 A 
ATOM      3  C2  UNL d   1      -2.560   1.953   1.581  0.00  0.00     0.048 A 
ATOM      4  C3  UNL d   1      -1.173   2.002   1.443  0.00  0.00     0.023 A 
ATOM      5  C4  UNL d   1      -0.350   1.300   2.325  0.00  0.00     0.048 A 
ATOM      6  C5  UNL d   1      -0.922   0.546   3.352  0.00  0.00     0.003 A 
ATOM      7  I   UNL d   1      -0.326   3.127  -0.086  0.00  0.00    -0.146 I 
ENDROOT
TORSDOF 0
ENDMDL
