MODEL 1
REMARK minimizedAffinity 3.81301045
REMARK minimizedRMSD -1
REMARK  0 active torsions:
REMARK  status: ('A' for Active; 'I' for Inactive)
ROOT
ATOM      1  C   UNL d   1      -0.030   4.333  -1.414  0.00  0.00     0.023 A 
ATOM      2  C1  UNL d   1      -0.230   2.963  -1.587  0.00  0.00     0.003 A 
ATOM      3  C2  UNL d   1      -0.505   2.151  -0.485  0.00  0.00     0.048 A 
ATOM      4  C3  UNL d   1      -0.581   2.717   0.788  0.00  0.00     0.023 A 
ATOM      5  C4  UNL d   1      -0.383   4.087   0.966  0.00  0.00     0.048 A 
ATOM      6  C5  UNL d   1      -0.107   4.894  -0.140  0.00  0.00     0.003 A 
ATOM      7  I   UNL d   1      -0.991   1.511   2.431  0.00  0.00    -0.146 I 
ENDROOT
TORSDOF 0
ENDMDL
