MODEL 1
REMARK minimizedAffinity 8.10685635
REMARK minimizedRMSD -1
REMARK  0 active torsions:
REMARK  status: ('A' for Active; 'I' for Inactive)
ROOT
ATOM      1  C   UNL d   1      -4.976  -4.762   3.437  0.00  0.00     0.023 A 
ATOM      2  C1  UNL d   1      -5.997  -4.761   2.486  0.00  0.00     0.003 A 
ATOM      3  C2  UNL d   1      -6.000  -3.811   1.464  0.00  0.00     0.048 A 
ATOM      4  C3  UNL d   1      -4.979  -2.864   1.397  0.00  0.00     0.023 A 
ATOM      5  C4  UNL d   1      -3.955  -2.861   2.346  0.00  0.00     0.048 A 
ATOM      6  C5  UNL d   1      -3.957  -3.812   3.367  0.00  0.00     0.003 A 
ATOM      7  I   UNL d   1      -4.981  -1.448  -0.124  0.00  0.00    -0.146 I 
ENDROOT
TORSDOF 0
ENDMDL
