MODEL 1
REMARK minimizedAffinity 6.79239464
REMARK minimizedRMSD -1
REMARK  0 active torsions:
REMARK  status: ('A' for Active; 'I' for Inactive)
ROOT
ATOM      1  C   UNL d   1       0.098   5.708  -1.096  0.00  0.00     0.023 A 
ATOM      2  C1  UNL d   1       0.442   4.467  -1.630  0.00  0.00     0.003 A 
ATOM      3  C2  UNL d   1       0.115   3.295  -0.944  0.00  0.00     0.048 A 
ATOM      4  C3  UNL d   1      -0.557   3.372   0.275  0.00  0.00     0.023 A 
ATOM      5  C4  UNL d   1      -0.904   4.613   0.813  0.00  0.00     0.048 A 
ATOM      6  C5  UNL d   1      -0.574   5.781   0.124  0.00  0.00     0.003 A 
ATOM      7  I   UNL d   1      -1.045   1.630   1.298  0.00  0.00    -0.146 I 
ENDROOT
TORSDOF 0
ENDMDL
