MODEL 1
REMARK minimizedAffinity 5.00921392
REMARK minimizedRMSD -1
REMARK  0 active torsions:
REMARK  status: ('A' for Active; 'I' for Inactive)
ROOT
ATOM      1  C   UNL d   1      -0.041   5.309  -1.935  0.00  0.00     0.023 A 
ATOM      2  C1  UNL d   1       0.532   5.346  -0.663  0.00  0.00     0.003 A 
ATOM      3  C2  UNL d   1       0.484   4.217   0.158  0.00  0.00     0.048 A 
ATOM      4  C3  UNL d   1      -0.137   3.055  -0.299  0.00  0.00     0.023 A 
ATOM      5  C4  UNL d   1      -0.710   3.014  -1.571  0.00  0.00     0.048 A 
ATOM      6  C5  UNL d   1      -0.661   4.145  -2.388  0.00  0.00     0.003 A 
ATOM      7  I   UNL d   1      -0.209   1.374   0.922  0.00  0.00    -0.146 I 
ENDROOT
TORSDOF 0
ENDMDL
