MODEL 1
REMARK minimizedAffinity 9.45903587
REMARK minimizedRMSD -1
REMARK  0 active torsions:
REMARK  status: ('A' for Active; 'I' for Inactive)
ROOT
ATOM      1  C   UNL d   1       0.395   4.271  -1.109  0.00  0.00     0.023 A 
ATOM      2  C1  UNL d   1      -0.512   4.173  -2.164  0.00  0.00     0.003 A 
ATOM      3  C2  UNL d   1      -1.458   3.146  -2.180  0.00  0.00     0.048 A 
ATOM      4  C3  UNL d   1      -1.493   2.222  -1.137  0.00  0.00     0.023 A 
ATOM      5  C4  UNL d   1      -0.589   2.317  -0.078  0.00  0.00     0.048 A 
ATOM      6  C5  UNL d   1       0.356   3.345  -0.067  0.00  0.00     0.003 A 
ATOM      7  I   UNL d   1      -2.901   0.693  -1.158  0.00  0.00    -0.146 I 
ENDROOT
TORSDOF 0
ENDMDL
