MODEL 1
REMARK minimizedAffinity 3.39214802
REMARK minimizedRMSD -1
REMARK  0 active torsions:
REMARK  status: ('A' for Active; 'I' for Inactive)
ROOT
ATOM      1  C   UNL d   1       0.308   5.214  -1.715  0.00  0.00     0.023 A 
ATOM      2  C1  UNL d   1      -0.398   4.118  -2.211  0.00  0.00     0.003 A 
ATOM      3  C2  UNL d   1      -0.808   3.101  -1.346  0.00  0.00     0.048 A 
ATOM      4  C3  UNL d   1      -0.509   3.186   0.013  0.00  0.00     0.023 A 
ATOM      5  C4  UNL d   1       0.197   4.281   0.514  0.00  0.00     0.048 A 
ATOM      6  C5  UNL d   1       0.606   5.296  -0.354  0.00  0.00     0.003 A 
ATOM      7  I   UNL d   1      -1.118   1.673   1.301  0.00  0.00    -0.146 I 
ENDROOT
TORSDOF 0
ENDMDL
