MODEL 1
REMARK minimizedAffinity 10.2974081
REMARK minimizedRMSD -1
REMARK  0 active torsions:
REMARK  status: ('A' for Active; 'I' for Inactive)
ROOT
ATOM      1  C   UNL d   1      -5.999  -5.402   5.515  0.00  0.00     0.023 A 
ATOM      2  C1  UNL d   1      -4.970  -5.868   4.697  0.00  0.00     0.003 A 
ATOM      3  C2  UNL d   1      -3.909  -5.025   4.360  0.00  0.00     0.048 A 
ATOM      4  C3  UNL d   1      -3.882  -3.718   4.845  0.00  0.00     0.023 A 
ATOM      5  C4  UNL d   1      -4.909  -3.248   5.665  0.00  0.00     0.048 A 
ATOM      6  C5  UNL d   1      -5.969  -4.093   5.998  0.00  0.00     0.003 A 
ATOM      7  I   UNL d   1      -2.303  -2.463   4.345  0.00  0.00    -0.146 I 
ENDROOT
TORSDOF 0
ENDMDL
