MODEL 1
REMARK minimizedAffinity 5.8760004
REMARK minimizedRMSD -1
REMARK  0 active torsions:
REMARK  status: ('A' for Active; 'I' for Inactive)
ROOT
ATOM      1  C   UNL d   1       0.286   4.233  -1.481  0.00  0.00     0.023 A 
ATOM      2  C1  UNL d   1      -0.144   2.907  -1.517  0.00  0.00     0.003 A 
ATOM      3  C2  UNL d   1      -0.468   2.244  -0.332  0.00  0.00     0.048 A 
ATOM      4  C3  UNL d   1      -0.361   2.913   0.886  0.00  0.00     0.023 A 
ATOM      5  C4  UNL d   1       0.068   4.241   0.928  0.00  0.00     0.048 A 
ATOM      6  C5  UNL d   1       0.392   4.900  -0.260  0.00  0.00     0.003 A 
ATOM      7  I   UNL d   1      -0.842   1.928   2.652  0.00  0.00    -0.146 I 
ENDROOT
TORSDOF 0
ENDMDL
