MODEL 1
REMARK minimizedAffinity 1.53140926
REMARK minimizedRMSD -1
REMARK  0 active torsions:
REMARK  status: ('A' for Active; 'I' for Inactive)
ROOT
ATOM      1  C   UNL d   1       2.512  -1.198   0.936  0.00  0.00     0.020 A 
ATOM      2  C1  UNL d   1       2.517  -1.953  -0.236  0.00  0.00     0.020 A 
ATOM      3  C2  UNL d   1       2.415  -1.318  -1.476  0.00  0.00     0.034 A 
ATOM      4  C3  UNL d   1       2.306   0.076  -1.546  0.00  0.00     0.017 A 
ATOM      5  C4  UNL d   1       2.301   0.833  -0.369  0.00  0.00     0.017 A 
ATOM      6  C5  UNL d   1       2.404   0.192   0.870  0.00  0.00     0.034 A 
ATOM      7 Cl   UNL d   1       2.171   2.556  -0.375  0.00  0.00    -0.070 Cl
ATOM      8 Cl1  UNL d   1       2.183   0.794  -3.113  0.00  0.00    -0.070 Cl
ENDROOT
TORSDOF 0
ENDMDL
