MODEL 1
REMARK minimizedAffinity 5.57613182
REMARK minimizedRMSD -1
REMARK  0 active torsions:
REMARK  status: ('A' for Active; 'I' for Inactive)
ROOT
ATOM      1  C   UNL d   1       1.515  -0.125   3.249  0.00  0.00     0.020 A 
ATOM      2  C1  UNL d   1       1.681  -1.190   2.365  0.00  0.00     0.020 A 
ATOM      3  C2  UNL d   1       0.579  -1.710   1.683  0.00  0.00     0.034 A 
ATOM      4  C3  UNL d   1      -0.695  -1.165   1.884  0.00  0.00     0.017 A 
ATOM      5  C4  UNL d   1      -0.861  -0.096   2.772  0.00  0.00     0.017 A 
ATOM      6  C5  UNL d   1       0.247   0.421   3.452  0.00  0.00     0.034 A 
ATOM      7 Cl   UNL d   1      -2.400   0.629   3.071  0.00  0.00    -0.070 Cl
ATOM      8 Cl1  UNL d   1      -2.012  -1.858   1.007  0.00  0.00    -0.070 Cl
ENDROOT
TORSDOF 0
ENDMDL
