MODEL 1
REMARK minimizedAffinity 3.77929544
REMARK minimizedRMSD -1
REMARK  0 active torsions:
REMARK  status: ('A' for Active; 'I' for Inactive)
ROOT
ATOM      1  C   UNL d   1       0.709  -1.189  -0.280  0.00  0.00     0.020 A 
ATOM      2  C1  UNL d   1       2.092  -1.216  -0.109  0.00  0.00     0.020 A 
ATOM      3  C2  UNL d   1       2.638  -1.157   1.176  0.00  0.00     0.034 A 
ATOM      4  C3  UNL d   1       1.800  -1.071   2.293  0.00  0.00     0.017 A 
ATOM      5  C4  UNL d   1       0.411  -1.044   2.120  0.00  0.00     0.017 A 
ATOM      6  C5  UNL d   1      -0.130  -1.103   0.832  0.00  0.00     0.034 A 
ATOM      7 Cl   UNL d   1      -0.687  -0.939   3.450  0.00  0.00    -0.070 Cl
ATOM      8 Cl1  UNL d   1       2.543  -1.003   3.852  0.00  0.00    -0.070 Cl
ENDROOT
TORSDOF 0
ENDMDL
