MODEL 1
REMARK minimizedAffinity 7.33772516
REMARK minimizedRMSD -1
REMARK  0 active torsions:
REMARK  status: ('A' for Active; 'I' for Inactive)
ROOT
ATOM      1  C   UNL d   1      -4.831   1.985  -4.854  0.00  0.00     0.020 A 
ATOM      2  C1  UNL d   1      -3.720   2.249  -5.655  0.00  0.00     0.020 A 
ATOM      3  C2  UNL d   1      -2.844   1.216  -5.996  0.00  0.00     0.034 A 
ATOM      4  C3  UNL d   1      -3.077  -0.085  -5.537  0.00  0.00     0.017 A 
ATOM      5  C4  UNL d   1      -4.193  -0.349  -4.734  0.00  0.00     0.017 A 
ATOM      6  C5  UNL d   1      -5.067   0.688  -4.395  0.00  0.00     0.034 A 
ATOM      7 Cl   UNL d   1      -4.546  -1.929  -4.129  0.00  0.00    -0.070 Cl
ATOM      8 Cl1  UNL d   1      -1.953  -1.313  -5.998  0.00  0.00    -0.070 Cl
ENDROOT
TORSDOF 0
ENDMDL
