MODEL 1
REMARK minimizedAffinity 8.80308342
REMARK minimizedRMSD -1
REMARK  0 active torsions:
REMARK  status: ('A' for Active; 'I' for Inactive)
ROOT
ATOM      1  C   UNL d   1       1.461  -0.781   3.630  0.00  0.00     0.020 A 
ATOM      2  C1  UNL d   1       0.165  -0.304   3.443  0.00  0.00     0.020 A 
ATOM      3  C2  UNL d   1      -0.412  -0.331   2.171  0.00  0.00     0.034 A 
ATOM      4  C3  UNL d   1       0.308  -0.836   1.083  0.00  0.00     0.017 A 
ATOM      5  C4  UNL d   1       1.609  -1.316   1.272  0.00  0.00     0.017 A 
ATOM      6  C5  UNL d   1       2.182  -1.286   2.547  0.00  0.00     0.034 A 
ATOM      7 Cl   UNL d   1       2.559  -1.955  -0.023  0.00  0.00    -0.070 Cl
ATOM      8 Cl1  UNL d   1      -0.468  -0.840  -0.461  0.00  0.00    -0.070 Cl
ENDROOT
TORSDOF 0
ENDMDL
