MODEL 1
REMARK minimizedAffinity 11.5531874
REMARK minimizedRMSD -1
REMARK  0 active torsions:
REMARK  status: ('A' for Active; 'I' for Inactive)
ROOT
ATOM      1  C   UNL d   1      -1.361   0.488   3.610  0.00  0.00     0.020 A 
ATOM      2  C1  UNL d   1      -2.668   0.444   4.092  0.00  0.00     0.020 A 
ATOM      3  C2  UNL d   1      -3.298   1.618   4.512  0.00  0.00     0.034 A 
ATOM      4  C3  UNL d   1      -2.620   2.841   4.450  0.00  0.00     0.017 A 
ATOM      5  C4  UNL d   1      -1.307   2.884   3.966  0.00  0.00     0.017 A 
ATOM      6  C5  UNL d   1      -0.682   1.706   3.546  0.00  0.00     0.034 A 
ATOM      7 Cl   UNL d   1      -0.407   4.355   3.859  0.00  0.00    -0.070 Cl
ATOM      8 Cl1  UNL d   1      -3.459   4.253   4.986  0.00  0.00    -0.070 Cl
ENDROOT
TORSDOF 0
ENDMDL
