MODEL 1
REMARK minimizedAffinity 6.3095808
REMARK minimizedRMSD -1
REMARK  0 active torsions:
REMARK  status: ('A' for Active; 'I' for Inactive)
ROOT
ATOM      1  C   UNL d   1       2.631  -1.987   2.004  0.00  0.00     0.020 A 
ATOM      2  C1  UNL d   1       1.932  -1.747   3.187  0.00  0.00     0.020 A 
ATOM      3  C2  UNL d   1       0.658  -1.178   3.141  0.00  0.00     0.034 A 
ATOM      4  C3  UNL d   1       0.079  -0.846   1.911  0.00  0.00     0.017 A 
ATOM      5  C4  UNL d   1       0.781  -1.086   0.725  0.00  0.00     0.017 A 
ATOM      6  C5  UNL d   1       2.057  -1.657   0.776  0.00  0.00     0.034 A 
ATOM      7 Cl   UNL d   1       0.132  -0.704  -0.831  0.00  0.00    -0.070 Cl
ATOM      8 Cl1  UNL d   1      -1.501  -0.145   1.930  0.00  0.00    -0.070 Cl
ENDROOT
TORSDOF 0
ENDMDL
