MODEL 1
REMARK minimizedAffinity 9.1206646
REMARK minimizedRMSD -1
REMARK  0 active torsions:
REMARK  status: ('A' for Active; 'I' for Inactive)
ROOT
ATOM      1  C   UNL d   1      -1.165   0.065   2.204  0.00  0.00     0.020 A 
ATOM      2  C1  UNL d   1      -0.849  -0.569   3.405  0.00  0.00     0.020 A 
ATOM      3  C2  UNL d   1       0.256  -1.420   3.475  0.00  0.00     0.034 A 
ATOM      4  C3  UNL d   1       1.049  -1.640   2.343  0.00  0.00     0.017 A 
ATOM      5  C4  UNL d   1       0.731  -1.003   1.138  0.00  0.00     0.017 A 
ATOM      6  C5  UNL d   1      -0.377  -0.152   1.073  0.00  0.00     0.034 A 
ATOM      7 Cl   UNL d   1       1.662  -1.224  -0.301  0.00  0.00    -0.070 Cl
ATOM      8 Cl1  UNL d   1       2.400  -2.704   2.503  0.00  0.00    -0.070 Cl
ENDROOT
TORSDOF 0
ENDMDL
