MODEL 1
REMARK minimizedAffinity 1.25050461
REMARK minimizedRMSD -1
REMARK  0 active torsions:
REMARK  status: ('A' for Active; 'I' for Inactive)
ROOT
ATOM      1  C   UNL d   1       0.383  -0.703   3.320  0.00  0.00     0.020 A 
ATOM      2  C1  UNL d   1      -0.643  -0.168   2.542  0.00  0.00     0.020 A 
ATOM      3  C2  UNL d   1      -0.592  -0.276   1.150  0.00  0.00     0.034 A 
ATOM      4  C3  UNL d   1       0.487  -0.920   0.533  0.00  0.00     0.017 A 
ATOM      5  C4  UNL d   1       1.516  -1.457   1.316  0.00  0.00     0.017 A 
ATOM      6  C5  UNL d   1       1.460  -1.346   2.709  0.00  0.00     0.034 A 
ATOM      7 Cl   UNL d   1       2.879  -2.266   0.627  0.00  0.00    -0.070 Cl
ATOM      8 Cl1  UNL d   1       0.485  -1.017  -1.192  0.00  0.00    -0.070 Cl
ENDROOT
TORSDOF 0
ENDMDL
