MODEL 1
REMARK minimizedAffinity -1.68847585
REMARK minimizedRMSD -1
REMARK  0 active torsions:
REMARK  status: ('A' for Active; 'I' for Inactive)
ROOT
ATOM      1  C1  DEN d   1       1.541  -0.117  -1.627  0.00  0.00     0.130 A 
ATOM      2  C2  DEN d   1       0.734   0.168  -2.809  0.00  0.00    -0.031 A 
ATOM      3  C3  DEN d   1      -0.669   0.330  -2.376  0.00  0.00     0.027 A 
ATOM      4  C4  DEN d   1      -1.662   0.173  -0.001  0.00  0.00     0.027 A 
ATOM      5  C5  DEN d   1      -1.370  -0.061   1.325  0.00  0.00    -0.003 A 
ATOM      6  C6  DEN d   1      -0.103  -0.362   1.751  0.00  0.00     0.001 A 
ATOM      7  C7  DEN d   1       0.928  -0.392   0.849  0.00  0.00     0.017 A 
ATOM      8  C8  DEN d   1       0.640  -0.163  -0.490  0.00  0.00    -0.094 A 
ATOM      9  C9  DEN d   1      -0.645   0.151  -0.899  0.00  0.00    -0.072 A 
ENDROOT
TORSDOF 0
ENDMDL
