MODEL 1
REMARK minimizedAffinity -3.18894792
REMARK minimizedRMSD -1
REMARK  0 active torsions:
REMARK  status: ('A' for Active; 'I' for Inactive)
ROOT
ATOM      1  C1  DEN d   1      -1.382  -0.894   1.771  0.00  0.00     0.130 A 
ATOM      2  C2  DEN d   1      -0.845  -0.523   3.077  0.00  0.00    -0.031 A 
ATOM      3  C3  DEN d   1       0.382   0.269   2.859  0.00  0.00     0.027 A 
ATOM      4  C4  DEN d   1       1.494   0.958   0.637  0.00  0.00     0.027 A 
ATOM      5  C5  DEN d   1       1.412   0.868  -0.735  0.00  0.00    -0.003 A 
ATOM      6  C6  DEN d   1       0.420   0.161  -1.362  0.00  0.00     0.001 A 
ATOM      7  C7  DEN d   1      -0.556  -0.446  -0.617  0.00  0.00     0.017 A 
ATOM      8  C8  DEN d   1      -0.476  -0.365   0.767  0.00  0.00    -0.094 A 
ATOM      9  C9  DEN d   1       0.528   0.364   1.382  0.00  0.00    -0.072 A 
ENDROOT
TORSDOF 0
ENDMDL
