MODEL 1
REMARK minimizedAffinity -4.60681105
REMARK minimizedRMSD -1
REMARK  0 active torsions:
REMARK  status: ('A' for Active; 'I' for Inactive)
ROOT
ATOM      1  C1  DEN d   1      -0.994   0.681  -1.493  0.00  0.00     0.130 A 
ATOM      2  C2  DEN d   1       0.465   0.659  -1.445  0.00  0.00    -0.031 A 
ATOM      3  C3  DEN d   1       0.872   0.370  -0.055  0.00  0.00     0.027 A 
ATOM      4  C4  DEN d   1      -0.608  -0.047   2.016  0.00  0.00     0.027 A 
ATOM      5  C5  DEN d   1      -1.905  -0.118   2.472  0.00  0.00    -0.003 A 
ATOM      6  C6  DEN d   1      -2.981   0.104   1.653  0.00  0.00     0.001 A 
ATOM      7  C7  DEN d   1      -2.779   0.363   0.323  0.00  0.00     0.017 A 
ATOM      8  C8  DEN d   1      -1.473   0.444  -0.143  0.00  0.00    -0.094 A 
ATOM      9  C9  DEN d   1      -0.400   0.205   0.698  0.00  0.00    -0.072 A 
ENDROOT
TORSDOF 0
ENDMDL
