MODEL 1
REMARK minimizedAffinity -3.66464376
REMARK minimizedRMSD -1
REMARK  0 active torsions:
REMARK  status: ('A' for Active; 'I' for Inactive)
ROOT
ATOM      1  C1  DEN d   1       0.370   0.393  -0.674  0.00  0.00     0.130 A 
ATOM      2  C2  DEN d   1       1.805   0.527  -0.441  0.00  0.00    -0.031 A 
ATOM      3  C3  DEN d   1       2.023   0.634   1.016  0.00  0.00     0.027 A 
ATOM      4  C4  DEN d   1       0.286   0.602   2.923  0.00  0.00     0.027 A 
ATOM      5  C5  DEN d   1      -1.057   0.519   3.217  0.00  0.00    -0.003 A 
ATOM      6  C6  DEN d   1      -2.013   0.424   2.241  0.00  0.00     0.001 A 
ATOM      7  C7  DEN d   1      -1.637   0.363   0.925  0.00  0.00     0.017 A 
ATOM      8  C8  DEN d   1      -0.285   0.453   0.620  0.00  0.00    -0.094 A 
ATOM      9  C9  DEN d   1       0.668   0.537   1.622  0.00  0.00    -0.072 A 
ENDROOT
TORSDOF 0
ENDMDL
