MODEL 1
REMARK minimizedAffinity -2.04688549
REMARK minimizedRMSD -1
REMARK  0 active torsions:
REMARK  status: ('A' for Active; 'I' for Inactive)
ROOT
ATOM      1  C1  DEN d   1       0.045   0.344  -0.363  0.00  0.00     0.130 A 
ATOM      2  C2  DEN d   1       1.427   0.150   0.066  0.00  0.00    -0.031 A 
ATOM      3  C3  DEN d   1       1.421  -0.121   1.518  0.00  0.00     0.027 A 
ATOM      4  C4  DEN d   1      -0.585  -0.263   3.133  0.00  0.00     0.027 A 
ATOM      5  C5  DEN d   1      -1.955  -0.158   3.233  0.00  0.00    -0.003 A 
ATOM      6  C6  DEN d   1      -2.744   0.152   2.158  0.00  0.00     0.001 A 
ATOM      7  C7  DEN d   1      -2.174   0.325   0.925  0.00  0.00     0.017 A 
ATOM      8  C8  DEN d   1      -0.793   0.228   0.817  0.00  0.00    -0.094 A 
ATOM      9  C9  DEN d   1      -0.013  -0.099   1.913  0.00  0.00    -0.072 A 
ENDROOT
TORSDOF 0
ENDMDL
