MODEL 1
REMARK minimizedAffinity 3.58516192
REMARK minimizedRMSD -1
REMARK  0 active torsions:
REMARK  status: ('A' for Active; 'I' for Inactive)
ROOT
ATOM      1  C1  DEN d   1      -1.181   0.678  -0.421  0.00  0.00     0.130 A 
ATOM      2  C2  DEN d   1      -2.603   0.569  -0.733  0.00  0.00    -0.031 A 
ATOM      3  C3  DEN d   1      -3.302   0.097   0.479  0.00  0.00     0.027 A 
ATOM      4  C4  DEN d   1      -2.325  -0.468   2.799  0.00  0.00     0.027 A 
ATOM      5  C5  DEN d   1      -1.168  -0.541   3.542  0.00  0.00    -0.003 A 
ATOM      6  C6  DEN d   1       0.060  -0.248   3.011  0.00  0.00     0.001 A 
ATOM      7  C7  DEN d   1       0.155   0.176   1.712  0.00  0.00     0.017 A 
ATOM      8  C8  DEN d   1      -1.007   0.245   0.954  0.00  0.00    -0.094 A 
ATOM      9  C9  DEN d   1      -2.241  -0.044   1.512  0.00  0.00    -0.072 A 
ENDROOT
TORSDOF 0
ENDMDL
