MODEL 1
REMARK minimizedAffinity -2.96479034
REMARK minimizedRMSD -1
REMARK  0 active torsions:
REMARK  status: ('A' for Active; 'I' for Inactive)
ROOT
ATOM      1  C1  DEN d   1      -1.192  -1.552   1.890  0.00  0.00     0.130 A 
ATOM      2  C2  DEN d   1      -0.589  -0.999   3.099  0.00  0.00    -0.031 A 
ATOM      3  C3  DEN d   1       0.235   0.163   2.709  0.00  0.00     0.027 A 
ATOM      4  C4  DEN d   1       0.628   1.158   0.362  0.00  0.00     0.027 A 
ATOM      5  C5  DEN d   1       0.337   1.023  -0.977  0.00  0.00    -0.003 A 
ATOM      6  C6  DEN d   1      -0.451   0.010  -1.455  0.00  0.00     0.001 A 
ATOM      7  C7  DEN d   1      -1.011  -0.884  -0.581  0.00  0.00     0.017 A 
ATOM      8  C8  DEN d   1      -0.716  -0.760   0.770  0.00  0.00    -0.094 A 
ATOM      9  C9  DEN d   1       0.072   0.279   1.235  0.00  0.00    -0.072 A 
ENDROOT
TORSDOF 0
ENDMDL
