MODEL 1
REMARK minimizedAffinity -4.26151896
REMARK minimizedRMSD -1
REMARK  0 active torsions:
REMARK  status: ('A' for Active; 'I' for Inactive)
ROOT
ATOM      1  C1  DEN d   1       1.081  -0.294   1.873  0.00  0.00     0.130 A 
ATOM      2  C2  DEN d   1       0.383  -0.242   3.154  0.00  0.00    -0.031 A 
ATOM      3  C3  DEN d   1      -1.048   0.005   2.885  0.00  0.00     0.027 A 
ATOM      4  C4  DEN d   1      -2.245   0.306   0.621  0.00  0.00     0.027 A 
ATOM      5  C5  DEN d   1      -2.069   0.354  -0.744  0.00  0.00    -0.003 A 
ATOM      6  C6  DEN d   1      -0.836   0.225  -1.326  0.00  0.00     0.001 A 
ATOM      7  C7  DEN d   1       0.264  -0.004  -0.543  0.00  0.00     0.017 A 
ATOM      8  C8  DEN d   1       0.095  -0.047   0.835  0.00  0.00    -0.094 A 
ATOM      9  C9  DEN d   1      -1.161   0.074   1.404  0.00  0.00    -0.072 A 
ENDROOT
TORSDOF 0
ENDMDL
