MODEL 1
REMARK minimizedAffinity -3.64257741
REMARK minimizedRMSD -1
REMARK  0 active torsions:
REMARK  status: ('A' for Active; 'I' for Inactive)
ROOT
ATOM      1  C1  DEN d   1       1.050   0.653  -1.080  0.00  0.00     0.130 A 
ATOM      2  C2  DEN d   1      -0.166   0.499  -1.875  0.00  0.00    -0.031 A 
ATOM      3  C3  DEN d   1      -1.229  -0.016  -0.988  0.00  0.00     0.027 A 
ATOM      4  C4  DEN d   1      -1.111  -0.582   1.526  0.00  0.00     0.027 A 
ATOM      5  C5  DEN d   1      -0.288  -0.625   2.629  0.00  0.00    -0.003 A 
ATOM      6  C6  DEN d   1       1.036  -0.281   2.567  0.00  0.00     0.001 A 
ATOM      7  C7  DEN d   1       1.566   0.166   1.385  0.00  0.00     0.017 A 
ATOM      8  C8  DEN d   1       0.744   0.205   0.266  0.00  0.00    -0.094 A 
ATOM      9  C9  DEN d   1      -0.595  -0.135   0.353  0.00  0.00    -0.072 A 
ENDROOT
TORSDOF 0
ENDMDL
