MODEL 1
REMARK minimizedAffinity -5.79121637
REMARK minimizedRMSD -1
REMARK  0 active torsions:
REMARK  status: ('A' for Active; 'I' for Inactive)
ROOT
ATOM      1  C1  DEN d   1      -0.330   0.640  -0.465  0.00  0.00     0.130 A 
ATOM      2  C2  DEN d   1       1.126   0.625  -0.363  0.00  0.00    -0.031 A 
ATOM      3  C3  DEN d   1       1.483   0.310   1.035  0.00  0.00     0.027 A 
ATOM      4  C4  DEN d   1      -0.071  -0.159   3.039  0.00  0.00     0.027 A 
ATOM      5  C5  DEN d   1      -1.384  -0.248   3.445  0.00  0.00    -0.003 A 
ATOM      6  C6  DEN d   1      -2.430  -0.015   2.591  0.00  0.00     0.001 A 
ATOM      7  C7  DEN d   1      -2.180   0.273   1.275  0.00  0.00     0.017 A 
ATOM      8  C8  DEN d   1      -0.858   0.372   0.861  0.00  0.00    -0.094 A 
ATOM      9  C9  DEN d   1       0.184   0.121   1.736  0.00  0.00    -0.072 A 
ENDROOT
TORSDOF 0
ENDMDL
