MODEL 1
REMARK minimizedAffinity -3.2511847
REMARK minimizedRMSD -1
REMARK  0 active torsions:
REMARK  status: ('A' for Active; 'I' for Inactive)
ROOT
ATOM      1  C1  DEN d   1      -0.910   0.397  -1.326  0.00  0.00     0.130 A 
ATOM      2  C2  DEN d   1       0.522   0.181  -1.134  0.00  0.00    -0.031 A 
ATOM      3  C3  DEN d   1       0.759  -0.055   0.304  0.00  0.00     0.027 A 
ATOM      4  C4  DEN d   1      -0.943  -0.110   2.241  0.00  0.00     0.027 A 
ATOM      5  C5  DEN d   1      -2.273   0.030   2.572  0.00  0.00    -0.003 A 
ATOM      6  C6  DEN d   1      -3.229   0.333   1.639  0.00  0.00     0.001 A 
ATOM      7  C7  DEN d   1      -2.875   0.461   0.322  0.00  0.00     0.017 A 
ATOM      8  C8  DEN d   1      -1.535   0.329  -0.018  0.00  0.00    -0.094 A 
ATOM      9  C9  DEN d   1      -0.585   0.011   0.938  0.00  0.00    -0.072 A 
ENDROOT
TORSDOF 0
ENDMDL
