MODEL 1
REMARK minimizedAffinity 3.48437071
REMARK minimizedRMSD -1
REMARK  0 active torsions:
REMARK  status: ('A' for Active; 'I' for Inactive)
ROOT
ATOM      1  C1  DEN d   1      -0.924  -0.834  -1.388  0.00  0.00     0.130 A 
ATOM      2  C2  DEN d   1      -0.347   0.429  -0.935  0.00  0.00    -0.031 A 
ATOM      3  C3  DEN d   1      -0.629   0.568   0.508  0.00  0.00     0.027 A 
ATOM      4  C4  DEN d   1      -1.890  -1.043   2.078  0.00  0.00     0.027 A 
ATOM      5  C5  DEN d   1      -2.572  -2.238   2.148  0.00  0.00    -0.003 A 
ATOM      6  C6  DEN d   1      -2.779  -3.026   1.047  0.00  0.00     0.001 A 
ATOM      7  C7  DEN d   1      -2.261  -2.650  -0.164  0.00  0.00     0.017 A 
ATOM      8  C8  DEN d   1      -1.579  -1.443  -0.244  0.00  0.00    -0.094 A 
ATOM      9  C9  DEN d   1      -1.369  -0.666   0.883  0.00  0.00    -0.072 A 
ENDROOT
TORSDOF 0
ENDMDL
