MODEL 1
REMARK minimizedAffinity -2.72455668
REMARK minimizedRMSD -1
REMARK  0 active torsions:
REMARK  status: ('A' for Active; 'I' for Inactive)
ROOT
ATOM      1  C1  DEN d   1      -0.060  -0.715  -0.072  0.00  0.00     0.130 A 
ATOM      2  C2  DEN d   1       0.825   0.309  -0.620  0.00  0.00    -0.031 A 
ATOM      3  C3  DEN d   1       1.155   1.255   0.465  0.00  0.00     0.027 A 
ATOM      4  C4  DEN d   1       0.391   1.230   2.928  0.00  0.00     0.027 A 
ATOM      5  C5  DEN d   1      -0.375   0.563   3.859  0.00  0.00    -0.003 A 
ATOM      6  C6  DEN d   1      -1.110  -0.548   3.539  0.00  0.00     0.001 A 
ATOM      7  C7  DEN d   1      -1.060  -1.052   2.267  0.00  0.00     0.017 A 
ATOM      8  C8  DEN d   1      -0.296  -0.381   1.321  0.00  0.00    -0.094 A 
ATOM      9  C9  DEN d   1       0.450   0.733   1.666  0.00  0.00    -0.072 A 
ENDROOT
TORSDOF 0
ENDMDL
