MODEL 1
REMARK minimizedAffinity -5.90248394
REMARK minimizedRMSD -1
REMARK  0 active torsions:
REMARK  status: ('A' for Active; 'I' for Inactive)
ROOT
ATOM      1  C1  DEN d   1       1.027   0.230   0.668  0.00  0.00     0.130 A 
ATOM      2  C2  DEN d   1       0.633   0.464  -0.718  0.00  0.00    -0.031 A 
ATOM      3  C3  DEN d   1      -0.839   0.368  -0.798  0.00  0.00     0.027 A 
ATOM      4  C4  DEN d   1      -2.537  -0.112   1.083  0.00  0.00     0.027 A 
ATOM      5  C5  DEN d   1      -2.677  -0.389   2.425  0.00  0.00    -0.003 A 
ATOM      6  C6  DEN d   1      -1.600  -0.512   3.262  0.00  0.00     0.001 A 
ATOM      7  C7  DEN d   1      -0.335  -0.312   2.774  0.00  0.00     0.017 A 
ATOM      8  C8  DEN d   1      -0.185  -0.040   1.421  0.00  0.00    -0.094 A 
ATOM      9  C9  DEN d   1      -1.288   0.092   0.594  0.00  0.00    -0.072 A 
ENDROOT
TORSDOF 0
ENDMDL
