MODEL 1
REMARK minimizedAffinity -1.37328172
REMARK minimizedRMSD -1
REMARK  0 active torsions:
REMARK  status: ('A' for Active; 'I' for Inactive)
ROOT
ATOM      1  C   UNL d   1       2.625   0.021   1.987  0.00  0.00     0.172 C 
ATOM      2  N   UNL d   1       2.105  -1.258   2.411  0.00  0.00    -0.070 N 
ATOM      3  C1  UNL d   1       1.389  -2.126   1.632  0.00  0.00    -0.004 A 
ATOM      4  C2  UNL d   1       1.080  -3.227   2.402  0.00  0.00    -0.047 A 
ATOM      5  C3  UNL d   1       1.629  -3.012   3.688  0.00  0.00    -0.047 A 
ATOM      6  C4  UNL d   1       2.258  -1.785   3.666  0.00  0.00    -0.004 A 
ENDROOT
TORSDOF 0
ENDMDL
