MODEL 1
REMARK minimizedAffinity 6.2448926
REMARK minimizedRMSD -1
REMARK  0 active torsions:
REMARK  status: ('A' for Active; 'I' for Inactive)
ROOT
ATOM      1  C   UNL d   1       3.054  -1.423   4.445  0.00  0.00     0.172 C 
ATOM      2  N   UNL d   1       4.077  -2.257   5.030  0.00  0.00    -0.070 N 
ATOM      3  C1  UNL d   1       5.271  -1.819   5.536  0.00  0.00    -0.004 A 
ATOM      4  C2  UNL d   1       5.962  -2.918   5.999  0.00  0.00    -0.047 A 
ATOM      5  C3  UNL d   1       5.156  -4.056   5.762  0.00  0.00    -0.047 A 
ATOM      6  C4  UNL d   1       3.994  -3.618   5.161  0.00  0.00    -0.004 A 
ENDROOT
TORSDOF 0
ENDMDL
