MODEL 1
REMARK minimizedAffinity 9.91013622
REMARK minimizedRMSD -1
REMARK  0 active torsions:
REMARK  status: ('A' for Active; 'I' for Inactive)
ROOT
ATOM      1  C   UNL d   1       1.219  -2.392  -0.288  0.00  0.00     0.172 C 
ATOM      2  N   UNL d   1       1.499  -2.072   1.092  0.00  0.00    -0.070 N 
ATOM      3  C1  UNL d   1       2.097  -2.906   1.999  0.00  0.00    -0.004 A 
ATOM      4  C2  UNL d   1       2.184  -2.232   3.198  0.00  0.00    -0.047 A 
ATOM      5  C3  UNL d   1       1.617  -0.949   3.005  0.00  0.00    -0.047 A 
ATOM      6  C4  UNL d   1       1.201  -0.878   1.693  0.00  0.00    -0.004 A 
ENDROOT
TORSDOF 0
ENDMDL
