MODEL 1
REMARK minimizedAffinity -1.15957415
REMARK minimizedRMSD -1
REMARK  0 active torsions:
REMARK  status: ('A' for Active; 'I' for Inactive)
ROOT
ATOM      1  C   UNL d   1       5.633  -2.409   3.855  0.00  0.00     0.172 C 
ATOM      2  N   UNL d   1       4.208  -2.185   3.792  0.00  0.00    -0.070 N 
ATOM      3  C1  UNL d   1       3.572  -1.326   2.937  0.00  0.00    -0.004 A 
ATOM      4  C2  UNL d   1       2.220  -1.401   3.191  0.00  0.00    -0.047 A 
ATOM      5  C3  UNL d   1       2.037  -2.339   4.236  0.00  0.00    -0.047 A 
ATOM      6  C4  UNL d   1       3.284  -2.808   4.589  0.00  0.00    -0.004 A 
ENDROOT
TORSDOF 0
ENDMDL
