MODEL 1
REMARK minimizedAffinity 2.31933141
REMARK minimizedRMSD -1
REMARK  0 active torsions:
REMARK  status: ('A' for Active; 'I' for Inactive)
ROOT
ATOM      1  C   UNL d   1       5.332  -1.990   4.606  0.00  0.00     0.172 C 
ATOM      2  N   UNL d   1       3.956  -1.919   4.174  0.00  0.00    -0.070 N 
ATOM      3  C1  UNL d   1       2.978  -2.830   4.470  0.00  0.00    -0.004 A 
ATOM      4  C2  UNL d   1       1.810  -2.404   3.874  0.00  0.00    -0.047 A 
ATOM      5  C3  UNL d   1       2.097  -1.195   3.196  0.00  0.00    -0.047 A 
ATOM      6  C4  UNL d   1       3.433  -0.918   3.398  0.00  0.00    -0.004 A 
ENDROOT
TORSDOF 0
ENDMDL
