MODEL 1
REMARK minimizedAffinity -0.853502035
REMARK minimizedRMSD -1
REMARK  0 active torsions:
REMARK  status: ('A' for Active; 'I' for Inactive)
ROOT
ATOM      1  C   UNL d   1       2.616  -1.722   3.748  0.00  0.00     0.172 C 
ATOM      2  N   UNL d   1       3.857  -2.078   4.395  0.00  0.00    -0.070 N 
ATOM      3  C1  UNL d   1       4.024  -2.298   5.736  0.00  0.00    -0.004 A 
ATOM      4  C2  UNL d   1       5.348  -2.614   5.951  0.00  0.00    -0.047 A 
ATOM      5  C3  UNL d   1       6.000  -2.583   4.696  0.00  0.00    -0.047 A 
ATOM      6  C4  UNL d   1       5.054  -2.248   3.750  0.00  0.00    -0.004 A 
ENDROOT
TORSDOF 0
ENDMDL
