MODEL 1
REMARK minimizedAffinity 9.39805412
REMARK minimizedRMSD -1
REMARK  0 active torsions:
REMARK  status: ('A' for Active; 'I' for Inactive)
ROOT
ATOM      1  C   UNL d   1       2.405  -1.140   2.362  0.00  0.00     0.172 C 
ATOM      2  N   UNL d   1       3.833  -1.330   2.448  0.00  0.00    -0.070 N 
ATOM      3  C1  UNL d   1       4.489  -2.022   3.432  0.00  0.00    -0.004 A 
ATOM      4  C2  UNL d   1       5.838  -1.973   3.155  0.00  0.00    -0.047 A 
ATOM      5  C3  UNL d   1       5.999  -1.224   1.965  0.00  0.00    -0.047 A 
ATOM      6  C4  UNL d   1       4.742  -0.838   1.549  0.00  0.00    -0.004 A 
ENDROOT
TORSDOF 0
ENDMDL
