MODEL 1
REMARK minimizedAffinity -1.07729542
REMARK minimizedRMSD -1
REMARK  0 active torsions:
REMARK  status: ('A' for Active; 'I' for Inactive)
ROOT
ATOM      1  C   UNL d   1      -5.257  -6.000  -2.811  0.00  0.00    -0.002 A 
ATOM      2  C1  UNL d   1      -4.398  -5.996  -1.721  0.00  0.00     0.010 A 
ATOM      3  C2  UNL d   1      -3.014  -5.992  -1.907  0.00  0.00     0.041 A 
ATOM      4  C3  UNL d   1      -2.503  -5.990  -3.219  0.00  0.00    -0.075 A 
ATOM      5  S   UNL d   1      -0.844  -5.983  -3.689  0.00  0.00     0.015 SA
ATOM      6  C4  UNL d   1      -1.236  -5.985  -5.347  0.00  0.00     0.022 A 
ATOM      7  C5  UNL d   1      -2.594  -5.990  -5.556  0.00  0.00     0.026 A 
ATOM      8  C6  UNL d   1      -3.347  -5.992  -4.333  0.00  0.00    -0.082 A 
ATOM      9  C7  UNL d   1      -4.745  -5.998  -4.112  0.00  0.00     0.045 A 
ENDROOT
TORSDOF 0
ENDMDL
