MODEL 1
REMARK minimizedAffinity 4.56583643
REMARK minimizedRMSD -1
REMARK  0 active torsions:
REMARK  status: ('A' for Active; 'I' for Inactive)
ROOT
ATOM      1  C   UNL d   1      -3.734  -5.962  -2.374  0.00  0.00    -0.002 A 
ATOM      2  C1  UNL d   1      -2.594  -5.989  -1.583  0.00  0.00     0.010 A 
ATOM      3  C2  UNL d   1      -1.325  -6.000  -2.165  0.00  0.00     0.041 A 
ATOM      4  C3  UNL d   1      -1.220  -5.982  -3.570  0.00  0.00    -0.075 A 
ATOM      5  S   UNL d   1       0.229  -5.991  -4.504  0.00  0.00     0.015 SA
ATOM      6  C4  UNL d   1      -0.631  -5.958  -5.975  0.00  0.00     0.022 A 
ATOM      7  C5  UNL d   1      -1.991  -5.941  -5.778  0.00  0.00     0.026 A 
ATOM      8  C6  UNL d   1      -2.353  -5.954  -4.388  0.00  0.00    -0.082 A 
ATOM      9  C7  UNL d   1      -3.626  -5.944  -3.767  0.00  0.00     0.045 A 
ENDROOT
TORSDOF 0
ENDMDL
