MODEL 1
REMARK minimizedAffinity 18.4239502
REMARK minimizedRMSD -1
REMARK  0 active torsions:
REMARK  status: ('A' for Active; 'I' for Inactive)
ROOT
ATOM      1  C   UNL d   1       0.460   3.459  -3.720  0.00  0.00    -0.002 A 
ATOM      2  C1  UNL d   1      -0.356   4.477  -4.194  0.00  0.00     0.010 A 
ATOM      3  C2  UNL d   1      -1.741   4.311  -4.247  0.00  0.00     0.041 A 
ATOM      4  C3  UNL d   1      -2.298   3.093  -3.811  0.00  0.00    -0.075 A 
ATOM      5  S   UNL d   1      -3.968   2.664  -3.784  0.00  0.00     0.015 SA
ATOM      6  C4  UNL d   1      -3.638   1.120  -3.143  0.00  0.00     0.022 A 
ATOM      7  C5  UNL d   1      -2.292   0.919  -2.948  0.00  0.00     0.026 A 
ATOM      8  C6  UNL d   1      -1.498   2.053  -3.329  0.00  0.00    -0.082 A 
ATOM      9  C7  UNL d   1      -0.097   2.252  -3.288  0.00  0.00     0.045 A 
ENDROOT
TORSDOF 0
ENDMDL
