MODEL 1
REMARK minimizedAffinity 5.23255491
REMARK minimizedRMSD -1
REMARK  0 active torsions:
REMARK  status: ('A' for Active; 'I' for Inactive)
ROOT
ATOM      1  C   UNL d   1       0.564   3.773  -3.648  0.00  0.00    -0.002 A 
ATOM      2  C1  UNL d   1      -0.200   4.477  -4.569  0.00  0.00     0.010 A 
ATOM      3  C2  UNL d   1      -1.538   4.142  -4.785  0.00  0.00     0.041 A 
ATOM      4  C3  UNL d   1      -2.102   3.080  -4.051  0.00  0.00    -0.075 A 
ATOM      5  S   UNL d   1      -3.720   2.494  -4.148  0.00  0.00     0.015 SA
ATOM      6  C4  UNL d   1      -3.437   1.296  -2.970  0.00  0.00     0.022 A 
ATOM      7  C5  UNL d   1      -2.144   1.328  -2.503  0.00  0.00     0.026 A 
ATOM      8  C6  UNL d   1      -1.353   2.357  -3.118  0.00  0.00    -0.082 A 
ATOM      9  C7  UNL d   1       0.001   2.720  -2.923  0.00  0.00     0.045 A 
ENDROOT
TORSDOF 0
ENDMDL
