MODEL 1
REMARK minimizedAffinity 8.14666748
REMARK minimizedRMSD -1
REMARK  0 active torsions:
REMARK  status: ('A' for Active; 'I' for Inactive)
ROOT
ATOM      1  C   UNL d   1      -3.113  -5.990  -2.102  0.00  0.00    -0.002 A 
ATOM      2  C1  UNL d   1      -1.914  -5.989  -1.404  0.00  0.00     0.010 A 
ATOM      3  C2  UNL d   1      -0.696  -5.991  -2.086  0.00  0.00     0.041 A 
ATOM      4  C3  UNL d   1      -0.703  -5.994  -3.495  0.00  0.00    -0.075 A 
ATOM      5  S   UNL d   1       0.667  -5.996  -4.542  0.00  0.00     0.015 SA
ATOM      6  C4  UNL d   1      -0.308  -5.998  -5.940  0.00  0.00     0.022 A 
ATOM      7  C5  UNL d   1      -1.648  -5.998  -5.634  0.00  0.00     0.026 A 
ATOM      8  C6  UNL d   1      -1.898  -5.994  -4.220  0.00  0.00    -0.082 A 
ATOM      9  C7  UNL d   1      -3.117  -5.993  -3.500  0.00  0.00     0.045 A 
ENDROOT
TORSDOF 0
ENDMDL
