MODEL 1
REMARK minimizedAffinity -2.33356524
REMARK minimizedRMSD -1
REMARK  0 active torsions:
REMARK  status: ('A' for Active; 'I' for Inactive)
ROOT
ATOM      1  C   UNL d   1      -3.318  -5.999  -3.666  0.00  0.00    -0.002 A 
ATOM      2  C1  UNL d   1      -2.625  -6.000  -2.464  0.00  0.00     0.010 A 
ATOM      3  C2  UNL d   1      -1.229  -5.997  -2.449  0.00  0.00     0.041 A 
ATOM      4  C3  UNL d   1      -0.534  -5.992  -3.674  0.00  0.00    -0.075 A 
ATOM      5  S   UNL d   1       1.175  -5.987  -3.900  0.00  0.00     0.015 SA
ATOM      6  C4  UNL d   1       1.025  -5.983  -5.598  0.00  0.00     0.022 A 
ATOM      7  C5  UNL d   1      -0.289  -5.986  -6.000  0.00  0.00     0.026 A 
ATOM      8  C6  UNL d   1      -1.210  -5.990  -4.898  0.00  0.00    -0.082 A 
ATOM      9  C7  UNL d   1      -2.626  -5.994  -4.880  0.00  0.00     0.045 A 
ENDROOT
TORSDOF 0
ENDMDL
