MODEL 1
REMARK minimizedAffinity 2.18826938
REMARK minimizedRMSD -1
REMARK  0 active torsions:
REMARK  status: ('A' for Active; 'I' for Inactive)
ROOT
ATOM      1  C   UNL d   1      -2.457  -5.941  -2.332  0.00  0.00    -0.002 A 
ATOM      2  C1  UNL d   1      -1.302  -5.952  -1.563  0.00  0.00     0.010 A 
ATOM      3  C2  UNL d   1      -0.045  -5.971  -2.171  0.00  0.00     0.041 A 
ATOM      4  C3  UNL d   1       0.032  -5.976  -3.578  0.00  0.00    -0.075 A 
ATOM      5  S   UNL d   1       1.462  -5.997  -4.541  0.00  0.00     0.015 SA
ATOM      6  C4  UNL d   1       0.573  -5.991  -5.995  0.00  0.00     0.022 A 
ATOM      7  C5  UNL d   1      -0.783  -5.973  -5.770  0.00  0.00     0.026 A 
ATOM      8  C6  UNL d   1      -1.118  -5.964  -4.373  0.00  0.00    -0.082 A 
ATOM      9  C7  UNL d   1      -2.377  -5.946  -3.727  0.00  0.00     0.045 A 
ENDROOT
TORSDOF 0
ENDMDL
