MODEL 1
REMARK minimizedAffinity 6.21454191
REMARK minimizedRMSD -1
REMARK  0 active torsions:
REMARK  status: ('A' for Active; 'I' for Inactive)
ROOT
ATOM      1  C   UNL d   1       0.706  -5.634  -4.041  0.00  0.00    -0.002 A 
ATOM      2  C1  UNL d   1       0.119  -4.849  -5.023  0.00  0.00     0.010 A 
ATOM      3  C2  UNL d   1      -1.201  -4.414  -4.889  0.00  0.00     0.041 A 
ATOM      4  C3  UNL d   1      -1.927  -4.783  -3.741  0.00  0.00    -0.075 A 
ATOM      5  S   UNL d   1      -3.557  -4.366  -3.363  0.00  0.00     0.015 SA
ATOM      6  C4  UNL d   1      -3.512  -5.220  -1.888  0.00  0.00     0.022 A 
ATOM      7  C5  UNL d   1      -2.292  -5.815  -1.674  0.00  0.00     0.026 A 
ATOM      8  C6  UNL d   1      -1.358  -5.573  -2.738  0.00  0.00    -0.082 A 
ATOM      9  C7  UNL d   1      -0.018  -5.999  -2.902  0.00  0.00     0.045 A 
ENDROOT
TORSDOF 0
ENDMDL
