MODEL 1
REMARK minimizedAffinity 0.889725685
REMARK minimizedRMSD -1
REMARK  0 active torsions:
REMARK  status: ('A' for Active; 'I' for Inactive)
ROOT
ATOM      1  C   UNL d   1       0.748  -5.986  -4.860  0.00  0.00    -0.002 A 
ATOM      2  C1  UNL d   1      -0.210  -5.981  -5.863  0.00  0.00     0.010 A 
ATOM      3  C2  UNL d   1      -1.570  -5.982  -5.547  0.00  0.00     0.041 A 
ATOM      4  C3  UNL d   1      -1.955  -5.988  -4.192  0.00  0.00    -0.075 A 
ATOM      5  S   UNL d   1      -3.561  -5.990  -3.567  0.00  0.00     0.015 SA
ATOM      6  C4  UNL d   1      -3.014  -5.997  -1.953  0.00  0.00     0.022 A 
ATOM      7  C5  UNL d   1      -1.641  -5.999  -1.874  0.00  0.00     0.026 A 
ATOM      8  C6  UNL d   1      -1.008  -5.993  -3.163  0.00  0.00    -0.082 A 
ATOM      9  C7  UNL d   1       0.363  -5.992  -3.516  0.00  0.00     0.045 A 
ENDROOT
TORSDOF 0
ENDMDL
