MODEL 1
REMARK minimizedAffinity 7.44333458
REMARK minimizedRMSD -1
REMARK  0 active torsions:
REMARK  status: ('A' for Active; 'I' for Inactive)
ROOT
ATOM      1  C   UNL d   1      -0.254  -3.511   2.562  0.00  0.00    -0.002 A 
ATOM      2  C1  UNL d   1      -1.082  -3.406   1.454  0.00  0.00     0.010 A 
ATOM      3  C2  UNL d   1      -0.955  -2.332   0.571  0.00  0.00     0.041 A 
ATOM      4  C3  UNL d   1       0.029  -1.356   0.822  0.00  0.00    -0.075 A 
ATOM      5  S   UNL d   1       0.368   0.046  -0.122  0.00  0.00     0.015 SA
ATOM      6  C4  UNL d   1       1.621   0.539   0.923  0.00  0.00     0.022 A 
ATOM      7  C5  UNL d   1       1.790  -0.333   1.972  0.00  0.00     0.026 A 
ATOM      8  C6  UNL d   1       0.876  -1.440   1.931  0.00  0.00    -0.082 A 
ATOM      9  C7  UNL d   1       0.721  -2.541   2.808  0.00  0.00     0.045 A 
ENDROOT
TORSDOF 0
ENDMDL
