MODEL 1
REMARK minimizedAffinity 10.8621616
REMARK minimizedRMSD -1
REMARK  0 active torsions:
REMARK  status: ('A' for Active; 'I' for Inactive)
ROOT
ATOM      1  C   UNL d   1      -1.185  -5.740  -1.331  0.00  0.00    -0.002 A 
ATOM      2  C1  UNL d   1      -2.561  -5.878  -1.212  0.00  0.00     0.010 A 
ATOM      3  C2  UNL d   1      -3.367  -5.964  -2.348  0.00  0.00     0.041 A 
ATOM      4  C3  UNL d   1      -2.761  -5.911  -3.619  0.00  0.00    -0.075 A 
ATOM      5  S   UNL d   1      -3.548  -5.999  -5.151  0.00  0.00     0.015 SA
ATOM      6  C4  UNL d   1      -2.077  -5.857  -5.999  0.00  0.00     0.022 A 
ATOM      7  C5  UNL d   1      -1.001  -5.744  -5.150  0.00  0.00     0.026 A 
ATOM      8  C6  UNL d   1      -1.378  -5.774  -3.765  0.00  0.00    -0.082 A 
ATOM      9  C7  UNL d   1      -0.588  -5.688  -2.593  0.00  0.00     0.045 A 
ENDROOT
TORSDOF 0
ENDMDL
