MODEL 1
REMARK minimizedAffinity 2.56040359
REMARK minimizedRMSD -1
REMARK  0 active torsions:
REMARK  status: ('A' for Active; 'I' for Inactive)
ROOT
ATOM      1  C   UNL d   1      -1.514  -5.997  -1.521  0.00  0.00    -0.002 A 
ATOM      2  C1  UNL d   1      -2.630  -5.995  -2.345  0.00  0.00     0.010 A 
ATOM      3  C2  UNL d   1      -2.488  -5.992  -3.734  0.00  0.00     0.041 A 
ATOM      4  C3  UNL d   1      -1.192  -5.994  -4.286  0.00  0.00    -0.075 A 
ATOM      5  S   UNL d   1      -0.774  -5.991  -5.959  0.00  0.00     0.015 SA
ATOM      6  C4  UNL d   1       0.896  -5.994  -5.619  0.00  0.00     0.022 A 
ATOM      7  C5  UNL d   1       1.147  -5.996  -4.268  0.00  0.00     0.026 A 
ATOM      8  C6  UNL d   1      -0.052  -5.997  -3.477  0.00  0.00    -0.082 A 
ATOM      9  C7  UNL d   1      -0.230  -5.999  -2.073  0.00  0.00     0.045 A 
ENDROOT
TORSDOF 0
ENDMDL
