MODEL 1
REMARK minimizedAffinity -3.02583766
REMARK minimizedRMSD -1
REMARK  0 active torsions:
REMARK  status: ('A' for Active; 'I' for Inactive)
ROOT
ATOM      1  C   UNL d   1      -1.465  -5.998  -1.477  0.00  0.00    -0.002 A 
ATOM      2  C1  UNL d   1      -0.199  -5.997  -2.044  0.00  0.00     0.010 A 
ATOM      3  C2  UNL d   1      -0.041  -5.998  -3.431  0.00  0.00     0.041 A 
ATOM      4  C3  UNL d   1      -1.190  -5.998  -4.247  0.00  0.00    -0.075 A 
ATOM      5  S   UNL d   1      -1.241  -5.998  -5.970  0.00  0.00     0.015 SA
ATOM      6  C4  UNL d   1      -2.945  -5.999  -5.995  0.00  0.00     0.022 A 
ATOM      7  C5  UNL d   1      -3.478  -5.999  -4.728  0.00  0.00     0.026 A 
ATOM      8  C6  UNL d   1      -2.476  -5.998  -3.700  0.00  0.00    -0.082 A 
ATOM      9  C7  UNL d   1      -2.602  -5.998  -2.289  0.00  0.00     0.045 A 
ENDROOT
TORSDOF 0
ENDMDL
