MODEL 1
REMARK minimizedAffinity 5.73232889
REMARK minimizedRMSD -1
REMARK  0 active torsions:
REMARK  status: ('A' for Active; 'I' for Inactive)
ROOT
ATOM      1  C4' PXY d   1       1.599   0.449   2.048  0.00  0.00     0.077 C 
ATOM      2  C1' PXY d   1      -3.420  -0.879   4.590  0.00  0.00     0.077 C 
ATOM      3  C1  PXY d   1      -2.110  -0.521   3.917  0.00  0.00    -0.082 A 
ATOM      4  C2  PXY d   1      -1.195  -1.457   3.727  0.00  0.00     0.003 A 
ATOM      5  C3  PXY d   1       0.009  -1.144   3.149  0.00  0.00     0.003 A 
ATOM      6  C4  PXY d   1       0.257   0.130   2.714  0.00  0.00    -0.082 A 
ATOM      7  C5  PXY d   1      -0.675   1.089   2.895  0.00  0.00     0.003 A 
ATOM      8  C6  PXY d   1      -1.874   0.759   3.521  0.00  0.00     0.003 A 
ENDROOT
TORSDOF 0
ENDMDL
