MODEL 1
REMARK minimizedAffinity 4.69666624
REMARK minimizedRMSD -1
REMARK  0 active torsions:
REMARK  status: ('A' for Active; 'I' for Inactive)
ROOT
ATOM      1  C4' PXY d   1      -2.248   0.752   2.072  0.00  0.00     0.077 C 
ATOM      2  C1' PXY d   1       3.414   0.175   3.084  0.00  0.00     0.077 C 
ATOM      3  C1  PXY d   1       1.928   0.333   2.830  0.00  0.00    -0.082 A 
ATOM      4  C2  PXY d   1       1.314  -0.497   2.002  0.00  0.00     0.003 A 
ATOM      5  C3  PXY d   1      -0.023  -0.349   1.737  0.00  0.00     0.003 A 
ATOM      6  C4  PXY d   1      -0.751   0.625   2.366  0.00  0.00    -0.082 A 
ATOM      7  C5  PXY d   1      -0.134   1.469   3.220  0.00  0.00     0.003 A 
ATOM      8  C6  PXY d   1       1.232   1.328   3.445  0.00  0.00     0.003 A 
ENDROOT
TORSDOF 0
ENDMDL
