MODEL 1
REMARK minimizedAffinity 2.13672709
REMARK minimizedRMSD -1
REMARK  0 active torsions:
REMARK  status: ('A' for Active; 'I' for Inactive)
ROOT
ATOM      1  C4' PXY d   1      -0.704  -1.950  -0.726  0.00  0.00     0.077 C 
ATOM      2  C1' PXY d   1       2.244   3.022  -0.729  0.00  0.00     0.077 C 
ATOM      3  C1  PXY d   1       1.476   1.715  -0.716  0.00  0.00    -0.082 A 
ATOM      4  C2  PXY d   1       1.072   1.183  -1.858  0.00  0.00     0.003 A 
ATOM      5  C3  PXY d   1       0.349   0.018  -1.863  0.00  0.00     0.003 A 
ATOM      6  C4  PXY d   1       0.082  -0.636  -0.691  0.00  0.00    -0.082 A 
ATOM      7  C5  PXY d   1       0.500  -0.105   0.478  0.00  0.00     0.003 A 
ATOM      8  C6  PXY d   1       1.197   1.099   0.464  0.00  0.00     0.003 A 
ENDROOT
TORSDOF 0
ENDMDL
