MODEL 1
REMARK minimizedAffinity 8.50387955
REMARK minimizedRMSD -1
REMARK  0 active torsions:
REMARK  status: ('A' for Active; 'I' for Inactive)
ROOT
ATOM      1  C4' PXY d   1       3.123  -2.257   5.999  0.00  0.00     0.077 C 
ATOM      2  C1' PXY d   1      -0.100   1.039   2.511  0.00  0.00     0.077 C 
ATOM      3  C1  PXY d   1       0.737   0.165   3.424  0.00  0.00    -0.082 A 
ATOM      4  C2  PXY d   1       1.555   0.727   4.299  0.00  0.00     0.003 A 
ATOM      5  C3  PXY d   1       2.342  -0.048   5.110  0.00  0.00     0.003 A 
ATOM      6  C4  PXY d   1       2.252  -1.414   5.063  0.00  0.00    -0.082 A 
ATOM      7  C5  PXY d   1       1.412  -1.995   4.181  0.00  0.00     0.003 A 
ATOM      8  C6  PXY d   1       0.652  -1.190   3.337  0.00  0.00     0.003 A 
ENDROOT
TORSDOF 0
ENDMDL
