MODEL 1
REMARK minimizedAffinity 8.50746918
REMARK minimizedRMSD -1
REMARK  0 active torsions:
REMARK  status: ('A' for Active; 'I' for Inactive)
ROOT
ATOM      1  C4' PXY d   1      -0.340   2.389   4.363  0.00  0.00     0.077 C 
ATOM      2  C1' PXY d   1       2.266  -0.982   0.456  0.00  0.00     0.077 C 
ATOM      3  C1  PXY d   1       1.571  -0.101   1.476  0.00  0.00    -0.082 A 
ATOM      4  C2  PXY d   1       2.214   0.933   1.993  0.00  0.00     0.003 A 
ATOM      5  C3  PXY d   1       1.611   1.721   2.940  0.00  0.00     0.003 A 
ATOM      6  C4  PXY d   1       0.319   1.479   3.323  0.00  0.00    -0.082 A 
ATOM      7  C5  PXY d   1      -0.347   0.431   2.792  0.00  0.00     0.003 A 
ATOM      8  C6  PXY d   1       0.297  -0.381   1.863  0.00  0.00     0.003 A 
ENDROOT
TORSDOF 0
ENDMDL
