MODEL 1
REMARK minimizedAffinity 6.09339857
REMARK minimizedRMSD -1
REMARK  0 active torsions:
REMARK  status: ('A' for Active; 'I' for Inactive)
ROOT
ATOM      1  C4' PXY d   1      -2.585   0.326   2.851  0.00  0.00     0.077 C 
ATOM      2  C1' PXY d   1       3.089   1.325   2.378  0.00  0.00     0.077 C 
ATOM      3  C1  PXY d   1       1.600   1.071   2.513  0.00  0.00    -0.082 A 
ATOM      4  C2  PXY d   1       1.068  -0.007   1.960  0.00  0.00     0.003 A 
ATOM      5  C3  PXY d   1      -0.281  -0.237   2.045  0.00  0.00     0.003 A 
ATOM      6  C4  PXY d   1      -1.086   0.619   2.748  0.00  0.00    -0.082 A 
ATOM      7  C5  PXY d   1      -0.549   1.715   3.324  0.00  0.00     0.003 A 
ATOM      8  C6  PXY d   1       0.816   1.952   3.191  0.00  0.00     0.003 A 
ENDROOT
TORSDOF 0
ENDMDL
