MODEL 1
REMARK minimizedAffinity 3.74955773
REMARK minimizedRMSD -1
REMARK  0 active torsions:
REMARK  status: ('A' for Active; 'I' for Inactive)
ROOT
ATOM      1  C4' PXY d   1       0.043  -0.011  -4.524  0.00  0.00     0.077 C 
ATOM      2  C1' PXY d   1      -0.587  -5.673  -3.550  0.00  0.00     0.077 C 
ATOM      3  C1  PXY d   1      -0.410  -4.191  -3.810  0.00  0.00    -0.082 A 
ATOM      4  C2  PXY d   1      -1.119  -3.315  -3.116  0.00  0.00     0.003 A 
ATOM      5  C3  PXY d   1      -0.995  -1.972  -3.360  0.00  0.00     0.003 A 
ATOM      6  C4  PXY d   1      -0.097  -1.517  -4.289  0.00  0.00    -0.082 A 
ATOM      7  C5  PXY d   1       0.638  -2.403  -4.994  0.00  0.00     0.003 A 
ATOM      8  C6  PXY d   1       0.467  -3.764  -4.759  0.00  0.00     0.003 A 
ENDROOT
TORSDOF 0
ENDMDL
