MODEL 1
REMARK minimizedAffinity -3.28418112
REMARK minimizedRMSD -1
REMARK  0 active torsions:
REMARK  status: ('A' for Active; 'I' for Inactive)
ROOT
ATOM      1  O1  BZF d   1       1.345   0.551  -0.264  0.00  0.00    -0.204 OA
ATOM      2  C2  BZF d   1       1.044  -0.113  -1.438  0.00  0.00     0.174 A 
ATOM      3  C3  BZF d   1      -0.247  -0.504  -1.449  0.00  0.00    -0.012 A 
ATOM      4  C3A BZF d   1      -0.810   0.023  -0.244  0.00  0.00    -0.107 A 
ATOM      5  C4  BZF d   1      -2.061  -0.016   0.303  0.00  0.00     0.055 A 
ATOM      6  C5  BZF d   1      -2.263   0.537   1.528  0.00  0.00    -0.016 A 
ATOM      7  C6  BZF d   1      -1.238   1.131   2.235  0.00  0.00     0.022 A 
ATOM      8  C7  BZF d   1       0.018   1.199   1.731  0.00  0.00     0.029 A 
ATOM      9  C7A BZF d   1       0.218   0.670   0.479  0.00  0.00     0.058 A 
ENDROOT
TORSDOF 0
ENDMDL
