MODEL 1
REMARK minimizedAffinity -4.58963633
REMARK minimizedRMSD -1
REMARK  0 active torsions:
REMARK  status: ('A' for Active; 'I' for Inactive)
ROOT
ATOM      1  O1  BZF d   1       0.829  -0.160  -0.334  0.00  0.00    -0.204 OA
ATOM      2  C2  BZF d   1      -0.277  -0.496  -1.090  0.00  0.00     0.174 A 
ATOM      3  C3  BZF d   1      -1.413  -0.298  -0.390  0.00  0.00    -0.012 A 
ATOM      4  C3A BZF d   1      -0.994   0.281   0.850  0.00  0.00    -0.107 A 
ATOM      5  C4  BZF d   1      -1.666   0.716   1.957  0.00  0.00     0.055 A 
ATOM      6  C5  BZF d   1      -0.956   1.160   3.027  0.00  0.00    -0.016 A 
ATOM      7  C6  BZF d   1       0.423   1.178   3.027  0.00  0.00     0.022 A 
ATOM      8  C7  BZF d   1       1.133   0.762   1.950  0.00  0.00     0.029 A 
ATOM      9  C7A BZF d   1       0.418   0.343   0.854  0.00  0.00     0.058 A 
ENDROOT
TORSDOF 0
ENDMDL
