MODEL 1
REMARK minimizedAffinity -3.72981358
REMARK minimizedRMSD -1
REMARK  0 active torsions:
REMARK  status: ('A' for Active; 'I' for Inactive)
ROOT
ATOM      1  O1  BZF d   1       0.081  -1.166  -0.555  0.00  0.00    -0.204 OA
ATOM      2  C2  BZF d   1       1.422  -1.204  -0.227  0.00  0.00     0.174 A 
ATOM      3  C3  BZF d   1       1.694  -0.346   0.778  0.00  0.00    -0.012 A 
ATOM      4  C3A BZF d   1       0.427   0.198   1.160  0.00  0.00    -0.107 A 
ATOM      5  C4  BZF d   1       0.040   1.095   2.115  0.00  0.00     0.055 A 
ATOM      6  C5  BZF d   1      -1.265   1.469   2.180  0.00  0.00    -0.016 A 
ATOM      7  C6  BZF d   1      -2.207   0.970   1.305  0.00  0.00     0.022 A 
ATOM      8  C7  BZF d   1      -1.872   0.074   0.344  0.00  0.00     0.029 A 
ATOM      9  C7A BZF d   1      -0.560  -0.330   0.297  0.00  0.00     0.058 A 
ENDROOT
TORSDOF 0
ENDMDL
