MODEL 1
REMARK minimizedAffinity -5.39433336
REMARK minimizedRMSD -1
REMARK  0 active torsions:
REMARK  status: ('A' for Active; 'I' for Inactive)
ROOT
ATOM      1  O1  BZF d   1      -1.943   0.704   1.657  0.00  0.00    -0.204 OA
ATOM      2  C2  BZF d   1      -1.677   0.935   2.993  0.00  0.00     0.174 A 
ATOM      3  C3  BZF d   1      -0.409   0.592   3.294  0.00  0.00    -0.012 A 
ATOM      4  C3A BZF d   1       0.182   0.203   2.051  0.00  0.00    -0.107 A 
ATOM      5  C4  BZF d   1       1.429  -0.226   1.697  0.00  0.00     0.055 A 
ATOM      6  C5  BZF d   1       1.661  -0.595   0.410  0.00  0.00    -0.016 A 
ATOM      7  C6  BZF d   1       0.668  -0.552  -0.547  0.00  0.00     0.022 A 
ATOM      8  C7  BZF d   1      -0.583  -0.128  -0.246  0.00  0.00     0.029 A 
ATOM      9  C7A BZF d   1      -0.811   0.276   1.047  0.00  0.00     0.058 A 
ENDROOT
TORSDOF 0
ENDMDL
