MODEL 1
REMARK minimizedAffinity -5.16352606
REMARK minimizedRMSD -1
REMARK  0 active torsions:
REMARK  status: ('A' for Active; 'I' for Inactive)
ROOT
ATOM      1  O1  BZF d   1      -2.079   1.097   2.153  0.00  0.00    -0.204 OA
ATOM      2  C2  BZF d   1      -1.144   1.772   2.914  0.00  0.00     0.174 A 
ATOM      3  C3  BZF d   1       0.086   1.658   2.372  0.00  0.00    -0.012 A 
ATOM      4  C3A BZF d   1      -0.107   0.941   1.149  0.00  0.00    -0.107 A 
ATOM      5  C4  BZF d   1       0.738   0.532   0.157  0.00  0.00     0.055 A 
ATOM      6  C5  BZF d   1       0.243  -0.213  -0.866  0.00  0.00    -0.016 A 
ATOM      7  C6  BZF d   1      -1.087  -0.571  -0.927  0.00  0.00     0.022 A 
ATOM      8  C7  BZF d   1      -1.965  -0.184   0.031  0.00  0.00     0.029 A 
ATOM      9  C7A BZF d   1      -1.475   0.596   1.049  0.00  0.00     0.058 A 
ENDROOT
TORSDOF 0
ENDMDL
