MODEL 1
REMARK minimizedAffinity -4.3701129
REMARK minimizedRMSD -1
REMARK  0 active torsions:
REMARK  status: ('A' for Active; 'I' for Inactive)
ROOT
ATOM      1  O1  BZF d   1      -0.399   0.417  -1.837  0.00  0.00    -0.204 OA
ATOM      2  C2  BZF d   1       0.743  -0.342  -2.012  0.00  0.00     0.174 A 
ATOM      3  C3  BZF d   1       1.405  -0.484  -0.846  0.00  0.00    -0.012 A 
ATOM      4  C3A BZF d   1       0.581   0.152   0.136  0.00  0.00    -0.107 A 
ATOM      5  C4  BZF d   1       0.694   0.328   1.485  0.00  0.00     0.055 A 
ATOM      6  C5  BZF d   1      -0.249   1.059   2.137  0.00  0.00    -0.016 A 
ATOM      7  C6  BZF d   1      -1.313   1.631   1.471  0.00  0.00     0.022 A 
ATOM      8  C7  BZF d   1      -1.470   1.480   0.134  0.00  0.00     0.029 A 
ATOM      9  C7A BZF d   1      -0.537   0.715  -0.523  0.00  0.00     0.058 A 
ENDROOT
TORSDOF 0
ENDMDL
