MODEL 1
REMARK minimizedAffinity -2.12669873
REMARK minimizedRMSD -1
REMARK  0 active torsions:
REMARK  status: ('A' for Active; 'I' for Inactive)
ROOT
ATOM      1  O1  BZF d   1       1.244   0.583  -0.257  0.00  0.00    -0.204 OA
ATOM      2  C2  BZF d   1       0.154  -0.077   0.276  0.00  0.00     0.174 A 
ATOM      3  C3  BZF d   1      -0.621  -0.588  -0.703  0.00  0.00    -0.012 A 
ATOM      4  C3A BZF d   1       0.073  -0.303  -1.921  0.00  0.00    -0.107 A 
ATOM      5  C4  BZF d   1      -0.186  -0.572  -3.234  0.00  0.00     0.055 A 
ATOM      6  C5  BZF d   1       0.658  -0.091  -4.185  0.00  0.00    -0.016 A 
ATOM      7  C6  BZF d   1       1.765   0.664  -3.859  0.00  0.00     0.022 A 
ATOM      8  C7  BZF d   1       2.066   0.953  -2.570  0.00  0.00     0.029 A 
ATOM      9  C7A BZF d   1       1.234   0.441  -1.604  0.00  0.00     0.058 A 
ENDROOT
TORSDOF 0
ENDMDL
