MODEL 1
REMARK minimizedAffinity -3.77876806
REMARK minimizedRMSD -1
REMARK  0 active torsions:
REMARK  status: ('A' for Active; 'I' for Inactive)
ROOT
ATOM      1  O1  BZF d   1      -1.079  -0.704  -0.280  0.00  0.00    -0.204 OA
ATOM      2  C2  BZF d   1       0.172  -0.840  -0.849  0.00  0.00     0.174 A 
ATOM      3  C3  BZF d   1       1.105  -0.207  -0.110  0.00  0.00    -0.012 A 
ATOM      4  C3A BZF d   1       0.407   0.282   1.039  0.00  0.00    -0.107 A 
ATOM      5  C4  BZF d   1       0.794   0.981   2.147  0.00  0.00     0.055 A 
ATOM      6  C5  BZF d   1      -0.148   1.367   3.047  0.00  0.00    -0.016 A 
ATOM      7  C6  BZF d   1      -1.484   1.076   2.870  0.00  0.00     0.022 A 
ATOM      8  C7  BZF d   1      -1.916   0.381   1.790  0.00  0.00     0.029 A 
ATOM      9  C7A BZF d   1      -0.963  -0.039   0.894  0.00  0.00     0.058 A 
ENDROOT
TORSDOF 0
ENDMDL
