MODEL 1
REMARK minimizedAffinity -3.8309269
REMARK minimizedRMSD -1
REMARK  0 active torsions:
REMARK  status: ('A' for Active; 'I' for Inactive)
ROOT
ATOM      1  O1  BZF d   1      -1.943   0.946   1.824  0.00  0.00    -0.204 OA
ATOM      2  C2  BZF d   1      -1.145   1.461   2.827  0.00  0.00     0.174 A 
ATOM      3  C3  BZF d   1       0.158   1.230   2.568  0.00  0.00    -0.012 A 
ATOM      4  C3A BZF d   1       0.182   0.609   1.280  0.00  0.00    -0.107 A 
ATOM      5  C4  BZF d   1       1.187   0.156   0.474  0.00  0.00     0.055 A 
ATOM      6  C5  BZF d   1       0.869  -0.467  -0.691  0.00  0.00    -0.016 A 
ATOM      7  C6  BZF d   1      -0.441  -0.659  -1.079  0.00  0.00     0.022 A 
ATOM      8  C7  BZF d   1      -1.472  -0.222  -0.315  0.00  0.00     0.029 A 
ATOM      9  C7A BZF d   1      -1.154   0.437   0.847  0.00  0.00     0.058 A 
ENDROOT
TORSDOF 0
ENDMDL
