MODEL 1
REMARK minimizedAffinity -3.3361783
REMARK minimizedRMSD -1
REMARK  0 active torsions:
REMARK  status: ('A' for Active; 'I' for Inactive)
ROOT
ATOM      1  O1  BZF d   1       1.990  -0.711   1.165  0.00  0.00    -0.204 OA
ATOM      2  C2  BZF d   1       2.226  -1.406  -0.005  0.00  0.00     0.174 A 
ATOM      3  C3  BZF d   1       1.117  -1.440  -0.773  0.00  0.00    -0.012 A 
ATOM      4  C3A BZF d   1       0.154  -0.643  -0.078  0.00  0.00    -0.107 A 
ATOM      5  C4  BZF d   1      -1.136  -0.284  -0.345  0.00  0.00     0.055 A 
ATOM      6  C5  BZF d   1      -1.824   0.444   0.574  0.00  0.00    -0.016 A 
ATOM      7  C6  BZF d   1      -1.254   0.826   1.771  0.00  0.00     0.022 A 
ATOM      8  C7  BZF d   1       0.024   0.498   2.079  0.00  0.00     0.029 A 
ATOM      9  C7A BZF d   1       0.732  -0.210   1.138  0.00  0.00     0.058 A 
ENDROOT
TORSDOF 0
ENDMDL
