MODEL 1
REMARK minimizedAffinity 4.9741745
REMARK minimizedRMSD -1
REMARK  0 active torsions:
REMARK  status: ('A' for Active; 'I' for Inactive)
ROOT
ATOM      1  O1  BZF d   1       5.172   2.367  -3.301  0.00  0.00    -0.204 OA
ATOM      2  C2  BZF d   1       5.857   3.444  -2.773  0.00  0.00     0.174 A 
ATOM      3  C3  BZF d   1       5.913   3.362  -1.428  0.00  0.00    -0.012 A 
ATOM      4  C3A BZF d   1       5.301   2.111  -1.101  0.00  0.00    -0.107 A 
ATOM      5  C4  BZF d   1       5.071   1.457   0.075  0.00  0.00     0.055 A 
ATOM      6  C5  BZF d   1       4.384   0.285   0.056  0.00  0.00    -0.016 A 
ATOM      7  C6  BZF d   1       3.908  -0.259  -1.119  0.00  0.00     0.022 A 
ATOM      8  C7  BZF d   1       4.116   0.351  -2.311  0.00  0.00     0.029 A 
ATOM      9  C7A BZF d   1       4.839   1.519  -2.299  0.00  0.00     0.058 A 
ENDROOT
TORSDOF 0
ENDMDL
