MODEL 1
REMARK minimizedAffinity 5.10219669
REMARK minimizedRMSD -1
REMARK  0 active torsions:
REMARK  status: ('A' for Active; 'I' for Inactive)
ROOT
ATOM      1  O1  BZF d   1      -5.519   1.861  -4.581  0.00  0.00    -0.204 OA
ATOM      2  C2  BZF d   1      -5.998   2.377  -3.392  0.00  0.00     0.174 A 
ATOM      3  C3  BZF d   1      -5.163   2.087  -2.374  0.00  0.00    -0.012 A 
ATOM      4  C3A BZF d   1      -4.049   1.422  -2.978  0.00  0.00    -0.107 A 
ATOM      5  C4  BZF d   1      -2.886   0.903  -2.487  0.00  0.00     0.055 A 
ATOM      6  C5  BZF d   1      -2.043   0.254  -3.332  0.00  0.00    -0.016 A 
ATOM      7  C6  BZF d   1      -2.334   0.101  -4.672  0.00  0.00     0.022 A 
ATOM      8  C7  BZF d   1      -3.473   0.603  -5.207  0.00  0.00     0.029 A 
ATOM      9  C7A BZF d   1      -4.311   1.288  -4.362  0.00  0.00     0.058 A 
ENDROOT
TORSDOF 0
ENDMDL
