MODEL 1
REMARK minimizedAffinity 4.92517853
REMARK minimizedRMSD -1
REMARK  0 active torsions:
REMARK  status: ('A' for Active; 'I' for Inactive)
ROOT
ATOM      1  O1  BZF d   1       3.751   0.373  -3.000  0.00  0.00    -0.204 OA
ATOM      2  C2  BZF d   1       2.725  -0.379  -2.458  0.00  0.00     0.174 A 
ATOM      3  C3  BZF d   1       2.753  -0.325  -1.111  0.00  0.00    -0.012 A 
ATOM      4  C3A BZF d   1       3.809   0.587  -0.792  0.00  0.00    -0.107 A 
ATOM      5  C4  BZF d   1       4.313   1.065   0.383  0.00  0.00     0.055 A 
ATOM      6  C5  BZF d   1       5.395   1.886   0.352  0.00  0.00    -0.016 A 
ATOM      7  C6  BZF d   1       6.000   2.246  -0.835  0.00  0.00     0.022 A 
ATOM      8  C7  BZF d   1       5.532   1.800  -2.026  0.00  0.00     0.029 A 
ATOM      9  C7A BZF d   1       4.419   0.997  -2.000  0.00  0.00     0.058 A 
ENDROOT
TORSDOF 0
ENDMDL
