MODEL 1
REMARK minimizedAffinity 10.6990528
REMARK minimizedRMSD -1
REMARK  0 active torsions:
REMARK  status: ('A' for Active; 'I' for Inactive)
ROOT
ATOM      1  O1  BZF d   1       4.262   0.884  -3.104  0.00  0.00    -0.204 OA
ATOM      2  C2  BZF d   1       5.173   1.837  -2.692  0.00  0.00     0.174 A 
ATOM      3  C3  BZF d   1       5.101   2.022  -1.358  0.00  0.00    -0.012 A 
ATOM      4  C3A BZF d   1       4.144   1.063  -0.896  0.00  0.00    -0.107 A 
ATOM      5  C4  BZF d   1       3.653   0.747   0.338  0.00  0.00     0.055 A 
ATOM      6  C5  BZF d   1       2.673  -0.190   0.439  0.00  0.00    -0.016 A 
ATOM      7  C6  BZF d   1       2.159  -0.825  -0.673  0.00  0.00     0.022 A 
ATOM      8  C7  BZF d   1       2.619  -0.548  -1.917  0.00  0.00     0.029 A 
ATOM      9  C7A BZF d   1       3.631   0.374  -2.019  0.00  0.00     0.058 A 
ENDROOT
TORSDOF 0
ENDMDL
