MODEL 1
REMARK minimizedAffinity 0.72923404
REMARK minimizedRMSD -1
REMARK  0 active torsions:
REMARK  status: ('A' for Active; 'I' for Inactive)
ROOT
ATOM      1  O1  BZF d   1      -1.857   1.666  -0.865  0.00  0.00    -0.204 OA
ATOM      2  C2  BZF d   1      -0.812   2.542  -0.642  0.00  0.00     0.174 A 
ATOM      3  C3  BZF d   1      -1.078   3.346   0.408  0.00  0.00    -0.012 A 
ATOM      4  C3A BZF d   1      -2.329   2.886   0.927  0.00  0.00    -0.107 A 
ATOM      5  C4  BZF d   1      -3.110   3.274   1.978  0.00  0.00     0.055 A 
ATOM      6  C5  BZF d   1      -4.310   2.666   2.170  0.00  0.00    -0.016 A 
ATOM      7  C6  BZF d   1      -4.762   1.671   1.329  0.00  0.00     0.022 A 
ATOM      8  C7  BZF d   1      -4.021   1.249   0.275  0.00  0.00     0.029 A 
ATOM      9  C7A BZF d   1      -2.794   1.838   0.098  0.00  0.00     0.058 A 
ENDROOT
TORSDOF 0
ENDMDL
