MODEL 1
REMARK minimizedAffinity 9.35805702
REMARK minimizedRMSD -1
REMARK  0 active torsions:
REMARK  status: ('A' for Active; 'I' for Inactive)
ROOT
ATOM      1  O1  BZF d   1       5.012   1.124  -3.460  0.00  0.00    -0.204 OA
ATOM      2  C2  BZF d   1       5.999   1.898  -2.881  0.00  0.00     0.174 A 
ATOM      3  C3  BZF d   1       5.849   1.943  -1.542  0.00  0.00    -0.012 A 
ATOM      4  C3A BZF d   1       4.750   1.072  -1.257  0.00  0.00    -0.107 A 
ATOM      5  C4  BZF d   1       4.130   0.688  -0.102  0.00  0.00     0.055 A 
ATOM      6  C5  BZF d   1       3.039  -0.118  -0.174  0.00  0.00    -0.016 A 
ATOM      7  C6  BZF d   1       2.537  -0.555  -1.383  0.00  0.00     0.022 A 
ATOM      8  C7  BZF d   1       3.120  -0.204  -2.555  0.00  0.00     0.029 A 
ATOM      9  C7A BZF d   1       4.243   0.584  -2.484  0.00  0.00     0.058 A 
ENDROOT
TORSDOF 0
ENDMDL
