MODEL 1
REMARK minimizedAffinity 3.25231266
REMARK minimizedRMSD -1
REMARK  0 active torsions:
REMARK  status: ('A' for Active; 'I' for Inactive)
ROOT
ATOM      1  O1  BZF d   1       1.874   2.754   5.999  0.00  0.00    -0.204 OA
ATOM      2  C2  BZF d   1       1.147   2.121   5.009  0.00  0.00     0.174 A 
ATOM      3  C3  BZF d   1       1.685   2.359   3.796  0.00  0.00    -0.012 A 
ATOM      4  C3A BZF d   1       2.871   3.116   4.051  0.00  0.00    -0.107 A 
ATOM      5  C4  BZF d   1       3.843   3.639   3.246  0.00  0.00     0.055 A 
ATOM      6  C5  BZF d   1       4.829   4.390   3.804  0.00  0.00    -0.016 A 
ATOM      7  C6  BZF d   1       4.871   4.642   5.159  0.00  0.00     0.022 A 
ATOM      8  C7  BZF d   1       3.933   4.140   5.998  0.00  0.00     0.029 A 
ATOM      9  C7A BZF d   1       2.953   3.354   5.443  0.00  0.00     0.058 A 
ENDROOT
TORSDOF 0
ENDMDL
