MODEL 1
REMARK minimizedAffinity 4.36299133
REMARK minimizedRMSD -1
REMARK  0 active torsions:
REMARK  status: ('A' for Active; 'I' for Inactive)
ROOT
ATOM      1  C4' PXY d   1      -3.203  -1.995  -3.172  0.00  0.00     0.077 C 
ATOM      2  C1' PXY d   1      -2.066  -5.865   0.969  0.00  0.00     0.077 C 
ATOM      3  C1  PXY d   1      -2.353  -4.853  -0.123  0.00  0.00    -0.082 A 
ATOM      4  C2  PXY d   1      -3.201  -3.864   0.108  0.00  0.00     0.003 A 
ATOM      5  C3  PXY d   1      -3.496  -2.958  -0.878  0.00  0.00     0.003 A 
ATOM      6  C4  PXY d   1      -2.876  -3.035  -2.097  0.00  0.00    -0.082 A 
ATOM      7  C5  PXY d   1      -2.002  -4.035  -2.337  0.00  0.00     0.003 A 
ATOM      8  C6  PXY d   1      -1.747  -4.968  -1.336  0.00  0.00     0.003 A 
ENDROOT
TORSDOF 0
ENDMDL
