MODEL 1
REMARK minimizedAffinity 9.99631119
REMARK minimizedRMSD -1
REMARK  0 active torsions:
REMARK  status: ('A' for Active; 'I' for Inactive)
ROOT
ATOM      1  C4' PXY d   1      -2.642  -1.810   0.998  0.00  0.00     0.077 C 
ATOM      2  C1' PXY d   1      -1.190   2.775   4.205  0.00  0.00     0.077 C 
ATOM      3  C1  PXY d   1      -1.566   1.564   3.373  0.00  0.00    -0.082 A 
ATOM      4  C2  PXY d   1      -1.626   1.669   2.055  0.00  0.00     0.003 A 
ATOM      5  C3  PXY d   1      -1.996   0.593   1.290  0.00  0.00     0.003 A 
ATOM      6  C4  PXY d   1      -2.256  -0.617   1.876  0.00  0.00    -0.082 A 
ATOM      7  C5  PXY d   1      -2.188  -0.734   3.219  0.00  0.00     0.003 A 
ATOM      8  C6  PXY d   1      -1.850   0.381   3.981  0.00  0.00     0.003 A 
ENDROOT
TORSDOF 0
ENDMDL
