MODEL 1
REMARK minimizedAffinity -0.447227389
REMARK minimizedRMSD -1
REMARK  0 active torsions:
REMARK  status: ('A' for Active; 'I' for Inactive)
ROOT
ATOM      1  C4' PXY d   1       3.864   5.989   5.973  0.00  0.00     0.077 C 
ATOM      2  C1' PXY d   1       5.999   3.098   1.446  0.00  0.00     0.077 C 
ATOM      3  C1  PXY d   1       5.445   3.867   2.629  0.00  0.00    -0.082 A 
ATOM      4  C2  PXY d   1       5.040   3.210   3.704  0.00  0.00     0.003 A 
ATOM      5  C3  PXY d   1       4.508   3.887   4.771  0.00  0.00     0.003 A 
ATOM      6  C4  PXY d   1       4.438   5.255   4.759  0.00  0.00    -0.082 A 
ATOM      7  C5  PXY d   1       4.859   5.932   3.670  0.00  0.00     0.003 A 
ATOM      8  C6  PXY d   1       5.358   5.224   2.581  0.00  0.00     0.003 A 
ENDROOT
TORSDOF 0
ENDMDL
