MODEL 1
REMARK minimizedAffinity 0.900711596
REMARK minimizedRMSD -1
REMARK  0 active torsions:
REMARK  status: ('A' for Active; 'I' for Inactive)
ROOT
ATOM      1  C4' PXY d   1      -1.889  -1.145   1.213  0.00  0.00     0.077 C 
ATOM      2  C1' PXY d   1      -5.998   2.913   1.454  0.00  0.00     0.077 C 
ATOM      3  C1  PXY d   1      -4.913   1.857   1.384  0.00  0.00    -0.082 A 
ATOM      4  C2  PXY d   1      -5.226   0.584   1.569  0.00  0.00     0.003 A 
ATOM      5  C3  PXY d   1      -4.252  -0.380   1.540  0.00  0.00     0.003 A 
ATOM      6  C4  PXY d   1      -2.953  -0.046   1.266  0.00  0.00    -0.082 A 
ATOM      7  C5  PXY d   1      -2.628   1.249   1.065  0.00  0.00     0.003 A 
ATOM      8  C6  PXY d   1      -3.624   2.218   1.140  0.00  0.00     0.003 A 
ENDROOT
TORSDOF 0
ENDMDL
