MODEL 1
REMARK minimizedAffinity 6.15910339
REMARK minimizedRMSD -1
REMARK  0 active torsions:
REMARK  status: ('A' for Active; 'I' for Inactive)
ROOT
ATOM      1  C4' PXY d   1      -0.900   1.891  -1.609  0.00  0.00     0.077 C 
ATOM      2  C1' PXY d   1      -6.000   1.624   1.099  0.00  0.00     0.077 C 
ATOM      3  C1  PXY d   1      -4.669   1.693   0.378  0.00  0.00    -0.082 A 
ATOM      4  C2  PXY d   1      -3.563   1.333   1.009  0.00  0.00     0.003 A 
ATOM      5  C3  PXY d   1      -2.347   1.420   0.381  0.00  0.00     0.003 A 
ATOM      6  C4  PXY d   1      -2.268   1.829  -0.923  0.00  0.00    -0.082 A 
ATOM      7  C5  PXY d   1      -3.392   2.188  -1.577  0.00  0.00     0.003 A 
ATOM      8  C6  PXY d   1      -4.612   2.132  -0.909  0.00  0.00     0.003 A 
ENDROOT
TORSDOF 0
ENDMDL
