MODEL 1
REMARK minimizedAffinity -0.344715565
REMARK minimizedRMSD -1
REMARK  0 active torsions:
REMARK  status: ('A' for Active; 'I' for Inactive)
ROOT
ATOM      1  C4' PXY d   1      -1.492  -0.845   1.140  0.00  0.00     0.077 C 
ATOM      2  C1' PXY d   1      -6.000   2.773   1.153  0.00  0.00     0.077 C 
ATOM      3  C1  PXY d   1      -4.824   1.817   1.158  0.00  0.00    -0.082 A 
ATOM      4  C2  PXY d   1      -3.629   2.247   0.788  0.00  0.00     0.003 A 
ATOM      5  C3  PXY d   1      -2.561   1.388   0.757  0.00  0.00     0.003 A 
ATOM      6  C4  PXY d   1      -2.706   0.087   1.159  0.00  0.00    -0.082 A 
ATOM      7  C5  PXY d   1      -3.920  -0.357   1.548  0.00  0.00     0.003 A 
ATOM      8  C6  PXY d   1      -5.000   0.521   1.534  0.00  0.00     0.003 A 
ENDROOT
TORSDOF 0
ENDMDL
