MODEL 1
REMARK minimizedAffinity 4.30264139
REMARK minimizedRMSD -1
REMARK  0 active torsions:
REMARK  status: ('A' for Active; 'I' for Inactive)
ROOT
ATOM      1  C4' PXY d   1      -6.000   2.247   0.257  0.00  0.00     0.077 C 
ATOM      2  C1' PXY d   1      -0.992  -0.339   1.542  0.00  0.00     0.077 C 
ATOM      3  C1  PXY d   1      -2.311   0.328   1.204  0.00  0.00    -0.082 A 
ATOM      4  C2  PXY d   1      -2.315   1.538   0.670  0.00  0.00     0.003 A 
ATOM      5  C3  PXY d   1      -3.499   2.169   0.388  0.00  0.00     0.003 A 
ATOM      6  C4  PXY d   1      -4.692   1.532   0.605  0.00  0.00    -0.082 A 
ATOM      7  C5  PXY d   1      -4.696   0.293   1.140  0.00  0.00     0.003 A 
ATOM      8  C6  PXY d   1      -3.484  -0.313   1.458  0.00  0.00     0.003 A 
ENDROOT
TORSDOF 0
ENDMDL
