MODEL 1
REMARK minimizedAffinity 1.43508494
REMARK minimizedRMSD -1
REMARK  0 active torsions:
REMARK  status: ('A' for Active; 'I' for Inactive)
ROOT
ATOM      1  C4' PXY d   1      -2.519   3.116  -1.891  0.00  0.00     0.077 C 
ATOM      2  C1' PXY d   1      -1.940  -1.181   1.932  0.00  0.00     0.077 C 
ATOM      3  C1  PXY d   1      -2.104  -0.055   0.931  0.00  0.00    -0.082 A 
ATOM      4  C2  PXY d   1      -1.163   0.160   0.026  0.00  0.00     0.003 A 
ATOM      5  C3  PXY d   1      -1.281   1.194  -0.866  0.00  0.00     0.003 A 
ATOM      6  C4  PXY d   1      -2.399   1.985  -0.867  0.00  0.00    -0.082 A 
ATOM      7  C5  PXY d   1      -3.369   1.765   0.046  0.00  0.00     0.003 A 
ATOM      8  C6  PXY d   1      -3.211   0.736   0.970  0.00  0.00     0.003 A 
ENDROOT
TORSDOF 0
ENDMDL
