MODEL 1
REMARK minimizedAffinity 7.60719395
REMARK minimizedRMSD -1
REMARK  0 active torsions:
REMARK  status: ('A' for Active; 'I' for Inactive)
ROOT
ATOM      1  C4' PXY d   1      -2.388   2.999  -1.499  0.00  0.00     0.077 C 
ATOM      2  C1' PXY d   1      -4.519  -0.941   2.155  0.00  0.00     0.077 C 
ATOM      3  C1  PXY d   1      -3.972   0.095   1.192  0.00  0.00    -0.082 A 
ATOM      4  C2  PXY d   1      -2.707   0.030   0.812  0.00  0.00     0.003 A 
ATOM      5  C3  PXY d   1      -2.187   0.977  -0.033  0.00  0.00     0.003 A 
ATOM      6  C4  PXY d   1      -2.986   1.969  -0.536  0.00  0.00    -0.082 A 
ATOM      7  C5  PXY d   1      -4.281   2.036  -0.161  0.00  0.00     0.003 A 
ATOM      8  C6  PXY d   1      -4.778   1.089   0.730  0.00  0.00     0.003 A 
ENDROOT
TORSDOF 0
ENDMDL
