MODEL 1
REMARK minimizedAffinity 17.3894367
REMARK minimizedRMSD -1
REMARK  0 active torsions:
REMARK  status: ('A' for Active; 'I' for Inactive)
ROOT
ATOM      1  C4' PXY d   1      -2.786   3.601  -2.739  0.00  0.00     0.077 C 
ATOM      2  C1' PXY d   1      -2.375   0.172   1.896  0.00  0.00     0.077 C 
ATOM      3  C1  PXY d   1      -2.470   1.070   0.678  0.00  0.00    -0.082 A 
ATOM      4  C2  PXY d   1      -3.467   1.934   0.579  0.00  0.00     0.003 A 
ATOM      5  C3  PXY d   1      -3.586   2.731  -0.530  0.00  0.00     0.003 A 
ATOM      6  C4  PXY d   1      -2.645   2.682  -1.524  0.00  0.00    -0.082 A 
ATOM      7  C5  PXY d   1      -1.619   1.810  -1.424  0.00  0.00     0.003 A 
ATOM      8  C6  PXY d   1      -1.539   0.981  -0.309  0.00  0.00     0.003 A 
ENDROOT
TORSDOF 0
ENDMDL
