MODEL 1
REMARK minimizedAffinity 9.70617008
REMARK minimizedRMSD -1
REMARK  0 active torsions:
REMARK  status: ('A' for Active; 'I' for Inactive)
ROOT
ATOM      1  C4' PXY d   1       3.794   6.000   5.997  0.00  0.00     0.077 C 
ATOM      2  C1' PXY d   1       5.240   3.306   1.091  0.00  0.00     0.077 C 
ATOM      3  C1  PXY d   1       4.864   4.024   2.372  0.00  0.00    -0.082 A 
ATOM      4  C2  PXY d   1       4.880   3.366   3.520  0.00  0.00     0.003 A 
ATOM      5  C3  PXY d   1       4.512   3.991   4.683  0.00  0.00     0.003 A 
ATOM      6  C4  PXY d   1       4.176   5.318   4.680  0.00  0.00    -0.082 A 
ATOM      7  C5  PXY d   1       4.168   6.000   3.515  0.00  0.00     0.003 A 
ATOM      8  C6  PXY d   1       4.505   5.336   2.339  0.00  0.00     0.003 A 
ENDROOT
TORSDOF 0
ENDMDL
