MODEL 1
REMARK minimizedAffinity -1.9363054
REMARK minimizedRMSD -1
REMARK  0 active torsions:
REMARK  status: ('A' for Active; 'I' for Inactive)
ROOT
ATOM      1  C4' PXY d   1       3.038  -5.999  -4.634  0.00  0.00     0.077 C 
ATOM      2  C1' PXY d   1      -1.876  -4.875  -1.805  0.00  0.00     0.077 C 
ATOM      3  C1  PXY d   1      -0.581  -5.160  -2.540  0.00  0.00    -0.082 A 
ATOM      4  C2  PXY d   1      -0.620  -5.694  -3.750  0.00  0.00     0.003 A 
ATOM      5  C3  PXY d   1       0.542  -5.989  -4.416  0.00  0.00     0.003 A 
ATOM      6  C4  PXY d   1       1.755  -5.685  -3.859  0.00  0.00    -0.082 A 
ATOM      7  C5  PXY d   1       1.803  -5.131  -2.629  0.00  0.00     0.003 A 
ATOM      8  C6  PXY d   1       0.613  -4.877  -1.953  0.00  0.00     0.003 A 
ENDROOT
TORSDOF 0
ENDMDL
