MODEL 1
REMARK minimizedAffinity 10.5649633
REMARK minimizedRMSD -1
REMARK  0 active torsions:
REMARK  status: ('A' for Active; 'I' for Inactive)
ROOT
ATOM      1  C4' PXY d   1       3.085   0.692  -1.128  0.00  0.00     0.077 C 
ATOM      2  C1' PXY d   1      -0.904   2.346   2.715  0.00  0.00     0.077 C 
ATOM      3  C1  PXY d   1       0.151   1.921   1.712  0.00  0.00    -0.082 A 
ATOM      4  C2  PXY d   1      -0.219   1.358   0.573  0.00  0.00     0.003 A 
ATOM      5  C3  PXY d   1       0.723   0.939  -0.331  0.00  0.00     0.003 A 
ATOM      6  C4  PXY d   1       2.054   1.146  -0.090  0.00  0.00    -0.082 A 
ATOM      7  C5  PXY d   1       2.439   1.729   1.065  0.00  0.00     0.003 A 
ATOM      8  C6  PXY d   1       1.470   2.110   1.988  0.00  0.00     0.003 A 
ENDROOT
TORSDOF 0
ENDMDL
