MODEL 1
REMARK minimizedAffinity 9.73363686
REMARK minimizedRMSD -1
REMARK  0 active torsions:
REMARK  status: ('A' for Active; 'I' for Inactive)
ROOT
ATOM      1  C4' PXY d   1       3.779   0.299  -1.434  0.00  0.00     0.077 C 
ATOM      2  C1' PXY d   1      -1.283   1.969   0.804  0.00  0.00     0.077 C 
ATOM      3  C1  PXY d   1       0.050   1.534   0.228  0.00  0.00    -0.082 A 
ATOM      4  C2  PXY d   1       0.239   1.563  -1.081  0.00  0.00     0.003 A 
ATOM      5  C3  PXY d   1       1.427   1.143  -1.621  0.00  0.00     0.003 A 
ATOM      6  C4  PXY d   1       2.452   0.738  -0.808  0.00  0.00    -0.082 A 
ATOM      7  C5  PXY d   1       2.272   0.715   0.529  0.00  0.00     0.003 A 
ATOM      8  C6  PXY d   1       1.044   1.107   1.055  0.00  0.00     0.003 A 
ENDROOT
TORSDOF 0
ENDMDL
