MODEL 1
REMARK minimizedAffinity 2.32840276
REMARK minimizedRMSD -1
REMARK  0 active torsions:
REMARK  status: ('A' for Active; 'I' for Inactive)
ROOT
ATOM      1  C4' PXY d   1       2.236   0.208  -1.375  0.00  0.00     0.077 C 
ATOM      2  C1' PXY d   1       0.791   3.242   3.328  0.00  0.00     0.077 C 
ATOM      3  C1  PXY d   1       1.182   2.452   2.095  0.00  0.00    -0.082 A 
ATOM      4  C2  PXY d   1       0.244   2.039   1.257  0.00  0.00     0.003 A 
ATOM      5  C3  PXY d   1       0.577   1.296   0.155  0.00  0.00     0.003 A 
ATOM      6  C4  PXY d   1       1.888   1.017  -0.123  0.00  0.00    -0.082 A 
ATOM      7  C5  PXY d   1       2.852   1.444   0.721  0.00  0.00     0.003 A 
ATOM      8  C6  PXY d   1       2.490   2.162   1.857  0.00  0.00     0.003 A 
ENDROOT
TORSDOF 0
ENDMDL
