MODEL 1
REMARK minimizedAffinity 4.09936094
REMARK minimizedRMSD -1
REMARK  0 active torsions:
REMARK  status: ('A' for Active; 'I' for Inactive)
ROOT
ATOM      1  C4' PXY d   1      -0.952   3.458   2.999  0.00  0.00     0.077 C 
ATOM      2  C1' PXY d   1       2.814   0.285  -0.029  0.00  0.00     0.077 C 
ATOM      3  C1  PXY d   1       1.835   1.117   0.775  0.00  0.00    -0.082 A 
ATOM      4  C2  PXY d   1       0.541   1.044   0.509  0.00  0.00     0.003 A 
ATOM      5  C3  PXY d   1      -0.355   1.815   1.204  0.00  0.00     0.003 A 
ATOM      6  C4  PXY d   1       0.072   2.628   2.219  0.00  0.00    -0.082 A 
ATOM      7  C5  PXY d   1       1.389   2.700   2.505  0.00  0.00     0.003 A 
ATOM      8  C6  PXY d   1       2.287   1.941   1.759  0.00  0.00     0.003 A 
ENDROOT
TORSDOF 0
ENDMDL
