MODEL 1
REMARK minimizedAffinity 2.48389769
REMARK minimizedRMSD -1
REMARK  0 active torsions:
REMARK  status: ('A' for Active; 'I' for Inactive)
ROOT
ATOM      1  C4' PXY d   1       2.912   0.408  -0.195  0.00  0.00     0.077 C 
ATOM      2  C1' PXY d   1      -0.960   3.008   3.220  0.00  0.00     0.077 C 
ATOM      3  C1  PXY d   1       0.065   2.334   2.329  0.00  0.00    -0.082 A 
ATOM      4  C2  PXY d   1      -0.335   1.687   1.247  0.00  0.00     0.003 A 
ATOM      5  C3  PXY d   1       0.576   1.044   0.447  0.00  0.00     0.003 A 
ATOM      6  C4  PXY d   1       1.914   1.111   0.729  0.00  0.00    -0.082 A 
ATOM      7  C5  PXY d   1       2.330   1.779   1.826  0.00  0.00     0.003 A 
ATOM      8  C6  PXY d   1       1.387   2.389   2.647  0.00  0.00     0.003 A 
ENDROOT
TORSDOF 0
ENDMDL
