MODEL 1
REMARK minimizedAffinity 8.98398209
REMARK minimizedRMSD -1
REMARK  0 active torsions:
REMARK  status: ('A' for Active; 'I' for Inactive)
ROOT
ATOM      1  C4' PXY d   1      -0.158   2.805   2.735  0.00  0.00     0.077 C 
ATOM      2  C1' PXY d   1       2.788  -0.267  -1.176  0.00  0.00     0.077 C 
ATOM      3  C1  PXY d   1       2.026   0.539  -0.143  0.00  0.00    -0.082 A 
ATOM      4  C2  PXY d   1       0.710   0.431  -0.069  0.00  0.00     0.003 A 
ATOM      5  C3  PXY d   1       0.002   1.177   0.837  0.00  0.00     0.003 A 
ATOM      6  C4  PXY d   1       0.653   2.003   1.714  0.00  0.00    -0.082 A 
ATOM      7  C5  PXY d   1       1.998   2.111   1.653  0.00  0.00     0.003 A 
ATOM      8  C6  PXY d   1       2.694   1.376   0.697  0.00  0.00     0.003 A 
ENDROOT
TORSDOF 0
ENDMDL
