MODEL 1
REMARK minimizedAffinity 0.124040678
REMARK minimizedRMSD -1
REMARK  0 active torsions:
REMARK  status: ('A' for Active; 'I' for Inactive)
ROOT
ATOM      1  C4' PXY d   1       2.597   0.624  -0.009  0.00  0.00     0.077 C 
ATOM      2  C1' PXY d   1      -1.494   3.329   3.051  0.00  0.00     0.077 C 
ATOM      3  C1  PXY d   1      -0.430   2.611   2.245  0.00  0.00    -0.082 A 
ATOM      4  C2  PXY d   1       0.838   2.695   2.613  0.00  0.00     0.003 A 
ATOM      5  C3  PXY d   1       1.817   2.079   1.876  0.00  0.00     0.003 A 
ATOM      6  C4  PXY d   1       1.488   1.325   0.782  0.00  0.00    -0.082 A 
ATOM      7  C5  PXY d   1       0.196   1.225   0.406  0.00  0.00     0.003 A 
ATOM      8  C6  PXY d   1      -0.778   1.893   1.143  0.00  0.00     0.003 A 
ENDROOT
TORSDOF 0
ENDMDL
