MODEL 1
REMARK minimizedAffinity 3.83018351
REMARK minimizedRMSD -1
REMARK  0 active torsions:
REMARK  status: ('A' for Active; 'I' for Inactive)
ROOT
ATOM      1  C4' PXY d   1       0.423   1.496  -4.505  0.00  0.00     0.077 C 
ATOM      2  C1' PXY d   1      -3.988   4.922  -5.998  0.00  0.00     0.077 C 
ATOM      3  C1  PXY d   1      -2.839   4.013  -5.608  0.00  0.00    -0.082 A 
ATOM      4  C2  PXY d   1      -1.833   4.498  -4.898  0.00  0.00     0.003 A 
ATOM      5  C3  PXY d   1      -0.770   3.699  -4.564  0.00  0.00     0.003 A 
ATOM      6  C4  PXY d   1      -0.763   2.375  -4.914  0.00  0.00    -0.082 A 
ATOM      7  C5  PXY d   1      -1.790   1.869  -5.628  0.00  0.00     0.003 A 
ATOM      8  C6  PXY d   1      -2.840   2.708  -5.993  0.00  0.00     0.003 A 
ENDROOT
TORSDOF 0
ENDMDL
