MODEL 1
REMARK minimizedAffinity 5.00398159
REMARK minimizedRMSD -1
REMARK  3 active torsions:
REMARK  status: ('A' for Active; 'I' for Inactive)
REMARK    1  A    between atoms: C3'_2  and  C2'_3 
REMARK    2  A    between atoms: C2'_3  and  C1'_4 
REMARK    3  A    between atoms: C1'_4  and  C1_5 
ROOT
ATOM      1  C1  N4B d   1      -1.125  -1.216   2.881  0.00  0.00    -0.075 A 
ATOM      2  C2  N4B d   1      -2.193  -0.816   2.047  0.00  0.00     0.002 A 
ATOM      3  C3  N4B d   1      -2.887   0.336   2.325  0.00  0.00     0.002 A 
ATOM      4  C4  N4B d   1      -2.545   1.091   3.436  0.00  0.00    -0.004 A 
ATOM      5  C5  N4B d   1      -1.496   0.712   4.222  0.00  0.00     0.002 A 
ATOM      6  C6  N4B d   1      -0.787  -0.441   3.952  0.00  0.00     0.002 A 
ENDROOT
BRANCH   1   7
ATOM      7  C1' N4B d   1      -0.393  -2.512   2.667  0.00  0.00     0.057 C 
BRANCH   7   8
ATOM      8  C2' N4B d   1       1.109  -2.243   2.660  0.00  0.00     0.009 C 
BRANCH   8   9
ATOM      9  C3' N4B d   1       1.798  -2.900   1.476  0.00  0.00     0.004 C 
ATOM     10  C4' N4B d   1       2.234  -1.912   0.436  0.00  0.00     0.003 C 
ENDBRANCH   8   9
ENDBRANCH   7   8
ENDBRANCH   1   7
TORSDOF 3
ENDMDL
