MODEL 1
REMARK minimizedAffinity 2.68675971
REMARK minimizedRMSD -1
REMARK  3 active torsions:
REMARK  status: ('A' for Active; 'I' for Inactive)
REMARK    1  A    between atoms: C3'_2  and  C2'_3 
REMARK    2  A    between atoms: C2'_3  and  C1'_4 
REMARK    3  A    between atoms: C1'_4  and  C1_5 
ROOT
ATOM      1  C1  N4B d   1      -1.901  -0.370   3.233  0.00  0.00    -0.075 A 
ATOM      2  C2  N4B d   1      -2.068  -1.160   2.075  0.00  0.00     0.002 A 
ATOM      3  C3  N4B d   1      -1.016  -1.896   1.587  0.00  0.00     0.002 A 
ATOM      4  C4  N4B d   1       0.213  -1.842   2.227  0.00  0.00    -0.004 A 
ATOM      5  C5  N4B d   1       0.360  -1.096   3.360  0.00  0.00     0.002 A 
ATOM      6  C6  N4B d   1      -0.690  -0.355   3.863  0.00  0.00     0.002 A 
ENDROOT
BRANCH   1   7
ATOM      7  C1' N4B d   1      -2.998   0.518   3.754  0.00  0.00     0.057 C 
BRANCH   7   8
ATOM      8  C2' N4B d   1      -3.786   1.083   2.577  0.00  0.00     0.009 C 
BRANCH   8   9
ATOM      9  C3' N4B d   1      -4.976   1.910   3.034  0.00  0.00     0.004 C 
ATOM     10  C4' N4B d   1      -5.994   1.101   3.779  0.00  0.00     0.003 C 
ENDBRANCH   8   9
ENDBRANCH   7   8
ENDBRANCH   1   7
TORSDOF 3
ENDMDL
