MODEL 1
REMARK minimizedAffinity 4.79882526
REMARK minimizedRMSD -1
REMARK  3 active torsions:
REMARK  status: ('A' for Active; 'I' for Inactive)
REMARK    1  A    between atoms: C3'_2  and  C2'_3 
REMARK    2  A    between atoms: C2'_3  and  C1'_4 
REMARK    3  A    between atoms: C1'_4  and  C1_5 
ROOT
ATOM      1  C1  N4B d   1       0.160  -1.259   2.604  0.00  0.00    -0.075 A 
ATOM      2  C2  N4B d   1      -0.061   0.026   3.145  0.00  0.00     0.002 A 
ATOM      3  C3  N4B d   1      -1.344   0.482   3.331  0.00  0.00     0.002 A 
ATOM      4  C4  N4B d   1      -2.415  -0.320   2.968  0.00  0.00    -0.004 A 
ATOM      5  C5  N4B d   1      -2.194  -1.570   2.469  0.00  0.00     0.002 A 
ATOM      6  C6  N4B d   1      -0.910  -2.042   2.281  0.00  0.00     0.002 A 
ENDROOT
BRANCH   1   7
ATOM      7  C1' N4B d   1       1.543  -1.767   2.303  0.00  0.00     0.057 C 
BRANCH   7   8
ATOM      8  C2' N4B d   1       1.757  -1.772   0.792  0.00  0.00     0.009 C 
BRANCH   8   9
ATOM      9  C3' N4B d   1       2.679  -2.896   0.352  0.00  0.00     0.004 C 
ATOM     10  C4' N4B d   1       2.496  -4.146   1.160  0.00  0.00     0.003 C 
ENDBRANCH   8   9
ENDBRANCH   7   8
ENDBRANCH   1   7
TORSDOF 3
ENDMDL
