MODEL 1
REMARK minimizedAffinity 5.93716574
REMARK minimizedRMSD -1
REMARK  3 active torsions:
REMARK  status: ('A' for Active; 'I' for Inactive)
REMARK    1  A    between atoms: C3'_2  and  C2'_3 
REMARK    2  A    between atoms: C2'_3  and  C1'_4 
REMARK    3  A    between atoms: C1'_4  and  C1_5 
ROOT
ATOM      1  C1  N4B d   1       3.679  -0.243   0.400  0.00  0.00    -0.075 A 
ATOM      2  C2  N4B d   1       4.850  -0.839  -0.118  0.00  0.00     0.002 A 
ATOM      3  C3  N4B d   1       5.996  -0.094  -0.257  0.00  0.00     0.002 A 
ATOM      4  C4  N4B d   1       5.988   1.247   0.096  0.00  0.00    -0.004 A 
ATOM      5  C5  N4B d   1       4.860   1.808   0.618  0.00  0.00     0.002 A 
ATOM      6  C6  N4B d   1       3.703   1.071   0.767  0.00  0.00     0.002 A 
ENDROOT
BRANCH   1   7
ATOM      7  C1' N4B d   1       2.379  -0.995   0.490  0.00  0.00     0.057 C 
BRANCH   7   8
ATOM      8  C2' N4B d   1       2.533  -2.145   1.481  0.00  0.00     0.009 C 
BRANCH   8   9
ATOM      9  C3' N4B d   1       1.494  -3.230   1.257  0.00  0.00     0.004 C 
ATOM     10  C4' N4B d   1       2.091  -4.511   0.754  0.00  0.00     0.003 C 
ENDBRANCH   8   9
ENDBRANCH   7   8
ENDBRANCH   1   7
TORSDOF 3
ENDMDL
