MODEL 1
REMARK minimizedAffinity 2.39438844
REMARK minimizedRMSD -1
REMARK  3 active torsions:
REMARK  status: ('A' for Active; 'I' for Inactive)
REMARK    1  A    between atoms: C3'_2  and  C2'_3 
REMARK    2  A    between atoms: C2'_3  and  C1'_4 
REMARK    3  A    between atoms: C1'_4  and  C1_5 
ROOT
ATOM      1  C1  N4B d   1      -0.323  -1.215   3.173  0.00  0.00    -0.075 A 
ATOM      2  C2  N4B d   1       0.449  -0.076   3.490  0.00  0.00     0.002 A 
ATOM      3  C3  N4B d   1      -0.147   1.158   3.565  0.00  0.00     0.002 A 
ATOM      4  C4  N4B d   1      -1.505   1.281   3.309  0.00  0.00    -0.004 A 
ATOM      5  C5  N4B d   1      -2.248   0.172   3.028  0.00  0.00     0.002 A 
ATOM      6  C6  N4B d   1      -1.662  -1.076   2.953  0.00  0.00     0.002 A 
ENDROOT
BRANCH   1   7
ATOM      7  C1' N4B d   1       0.301  -2.573   2.995  0.00  0.00     0.057 C 
BRANCH   7   8
ATOM      8  C2' N4B d   1       0.197  -2.983   1.529  0.00  0.00     0.009 C 
BRANCH   8   9
ATOM      9  C3' N4B d   1       1.366  -3.853   1.098  0.00  0.00     0.004 C 
ATOM     10  C4' N4B d   1       1.070  -5.319   1.210  0.00  0.00     0.003 C 
ENDBRANCH   8   9
ENDBRANCH   7   8
ENDBRANCH   1   7
TORSDOF 3
ENDMDL
