MODEL 1
REMARK minimizedAffinity -5.32893181
REMARK minimizedRMSD -1
REMARK  1 active torsions:
REMARK  status: ('A' for Active; 'I' for Inactive)
REMARK    1  A    between atoms: C1_2  and  C2_3 
ROOT
ATOM      1  C2  UNL d   1      -0.926   0.274  -0.228  0.00  0.00    -0.073 A 
ATOM      2  C3  UNL d   1      -1.596   1.321   0.414  0.00  0.00    -0.002 A 
ATOM      3  C4  UNL d   1      -2.533   2.089  -0.279  0.00  0.00     0.004 A 
ATOM      4  C5  UNL d   1      -2.815   1.813  -1.617  0.00  0.00    -0.004 A 
ATOM      5  C6  UNL d   1      -2.164   0.763  -2.273  0.00  0.00    -0.075 A 
ATOM      6  C7  UNL d   1      -2.454   0.455  -3.713  0.00  0.00     0.076 C 
ATOM      7  C8  UNL d   1      -1.223  -0.001  -1.571  0.00  0.00     0.001 A 
ENDROOT
BRANCH   1   8
ATOM      8  C1  UNL d   1       0.081  -0.562   0.518  0.00  0.00     0.053 C 
ATOM      9  C   UNL d   1       1.504  -0.285   0.058  0.00  0.00     0.018 C 
ENDBRANCH   1   8
TORSDOF 1
ENDMDL
