MODEL 1
REMARK minimizedAffinity 2.27033043
REMARK minimizedRMSD -1
REMARK  1 active torsions:
REMARK  status: ('A' for Active; 'I' for Inactive)
REMARK    1  A    between atoms: C1_2  and  C2_3 
ROOT
ATOM      1  C2  UNL d   1      -0.662   2.351   0.772  0.00  0.00    -0.073 A 
ATOM      2  C3  UNL d   1      -1.897   1.818   1.159  0.00  0.00    -0.002 A 
ATOM      3  C4  UNL d   1      -2.862   2.634   1.750  0.00  0.00     0.004 A 
ATOM      4  C5  UNL d   1      -2.606   3.990   1.955  0.00  0.00    -0.004 A 
ATOM      5  C6  UNL d   1      -1.383   4.543   1.564  0.00  0.00    -0.075 A 
ATOM      6  C7  UNL d   1      -1.091   6.000   1.779  0.00  0.00     0.076 C 
ATOM      7  C8  UNL d   1      -0.417   3.717   0.973  0.00  0.00     0.001 A 
ENDROOT
BRANCH   1   8
ATOM      8  C1  UNL d   1       0.381   1.476   0.127  0.00  0.00     0.053 C 
ATOM      9  C   UNL d   1      -0.036   0.014   0.105  0.00  0.00     0.018 C 
ENDBRANCH   1   8
TORSDOF 1
ENDMDL
