MODEL 1
REMARK minimizedAffinity -1.3828181
REMARK minimizedRMSD -1
REMARK  1 active torsions:
REMARK  status: ('A' for Active; 'I' for Inactive)
REMARK    1  A    between atoms: C1_2  and  C2_3 
ROOT
ATOM      1  C2  UNL d   1       0.208   1.474   0.433  0.00  0.00    -0.073 A 
ATOM      2  C3  UNL d   1      -0.781   0.517   0.174  0.00  0.00    -0.002 A 
ATOM      3  C4  UNL d   1      -0.435  -0.821  -0.015  0.00  0.00     0.004 A 
ATOM      4  C5  UNL d   1       0.900  -1.218   0.058  0.00  0.00    -0.004 A 
ATOM      5  C6  UNL d   1       1.902  -0.279   0.327  0.00  0.00    -0.075 A 
ATOM      6  C7  UNL d   1       3.343  -0.690   0.408  0.00  0.00     0.076 C 
ATOM      7  C8  UNL d   1       1.546   1.063   0.514  0.00  0.00     0.001 A 
ENDROOT
BRANCH   1   8
ATOM      8  C1  UNL d   1      -0.162   2.919   0.645  0.00  0.00     0.053 C 
ATOM      9  C   UNL d   1      -1.421   3.068   1.483  0.00  0.00     0.018 C 
ENDBRANCH   1   8
TORSDOF 1
ENDMDL
