MODEL 1
REMARK minimizedAffinity -4.96374846
REMARK minimizedRMSD -1
REMARK  1 active torsions:
REMARK  status: ('A' for Active; 'I' for Inactive)
REMARK    1  A    between atoms: C1_2  and  C2_3 
ROOT
ATOM      1  C2  UNL d   1      -0.664  -0.389  -0.353  0.00  0.00    -0.073 A 
ATOM      2  C3  UNL d   1      -0.945  -1.192   0.758  0.00  0.00    -0.002 A 
ATOM      3  C4  UNL d   1       0.085  -1.627   1.592  0.00  0.00     0.004 A 
ATOM      4  C5  UNL d   1       1.404  -1.259   1.329  0.00  0.00    -0.004 A 
ATOM      5  C6  UNL d   1       1.704  -0.447   0.230  0.00  0.00    -0.075 A 
ATOM      6  C7  UNL d   1       3.119  -0.044  -0.068  0.00  0.00     0.076 C 
ATOM      7  C8  UNL d   1       0.664  -0.016  -0.605  0.00  0.00     0.001 A 
ENDROOT
BRANCH   1   8
ATOM      8  C1  UNL d   1      -1.774   0.089  -1.253  0.00  0.00     0.053 C 
ATOM      9  C   UNL d   1      -1.982  -0.835  -2.442  0.00  0.00     0.018 C 
ENDBRANCH   1   8
TORSDOF 1
ENDMDL
