MODEL 1
REMARK minimizedAffinity -5.89371729
REMARK minimizedRMSD -1
REMARK  1 active torsions:
REMARK  status: ('A' for Active; 'I' for Inactive)
REMARK    1  A    between atoms: C1_2  and  C2_3 
ROOT
ATOM      1  C2  UNL d   1       0.486   2.006   0.673  0.00  0.00    -0.073 A 
ATOM      2  C3  UNL d   1      -0.616   1.146   0.633  0.00  0.00    -0.002 A 
ATOM      3  C4  UNL d   1      -0.430  -0.236   0.586  0.00  0.00     0.004 A 
ATOM      4  C5  UNL d   1       0.858  -0.772   0.586  0.00  0.00    -0.004 A 
ATOM      5  C6  UNL d   1       1.972   0.072   0.638  0.00  0.00    -0.075 A 
ATOM      6  C7  UNL d   1       3.364  -0.488   0.637  0.00  0.00     0.076 C 
ATOM      7  C8  UNL d   1       1.777   1.459   0.683  0.00  0.00     0.001 A 
ENDROOT
BRANCH   1   8
ATOM      8  C1  UNL d   1       0.290   3.499   0.731  0.00  0.00     0.053 C 
ATOM      9  C   UNL d   1      -1.010   3.877   1.421  0.00  0.00     0.018 C 
ENDBRANCH   1   8
TORSDOF 1
ENDMDL
