MODEL 1
REMARK minimizedAffinity -4.74659061
REMARK minimizedRMSD -1
REMARK  1 active torsions:
REMARK  status: ('A' for Active; 'I' for Inactive)
REMARK    1  A    between atoms: C1_2  and  C2_3 
ROOT
ATOM      1  C2  UNL d   1       0.155  -0.996   0.287  0.00  0.00    -0.076 A 
ATOM      2  C3  UNL d   1      -0.559  -1.601   1.336  0.00  0.00     0.004 A 
ATOM      3  C4  UNL d   1       0.098  -2.345   2.315  0.00  0.00    -0.003 A 
ATOM      4  C5  UNL d   1       1.480  -2.495   2.261  0.00  0.00     0.000 A 
ATOM      5  C6  UNL d   1       2.205  -1.887   1.237  0.00  0.00     0.000 A 
ATOM      6  C7  UNL d   1       1.560  -1.121   0.251  0.00  0.00    -0.073 A 
ATOM      7  C8  UNL d   1       2.391  -0.493  -0.834  0.00  0.00     0.078 C 
ENDROOT
BRANCH   1   8
ATOM      8  C1  UNL d   1      -0.615  -0.225  -0.761  0.00  0.00     0.053 C 
ATOM      9  C   UNL d   1      -0.834   1.229  -0.371  0.00  0.00     0.018 C 
ENDBRANCH   1   8
TORSDOF 1
ENDMDL
