MODEL 1
REMARK minimizedAffinity -4.63692284
REMARK minimizedRMSD -1
REMARK  1 active torsions:
REMARK  status: ('A' for Active; 'I' for Inactive)
REMARK    1  A    between atoms: C1_2  and  C2_3 
ROOT
ATOM      1  C2  UNL d   1      -0.577   0.739  -0.879  0.00  0.00    -0.076 A 
ATOM      2  C3  UNL d   1      -0.642   0.676  -2.282  0.00  0.00     0.004 A 
ATOM      3  C4  UNL d   1      -1.835   0.932  -2.957  0.00  0.00    -0.003 A 
ATOM      4  C5  UNL d   1      -2.981   1.256  -2.240  0.00  0.00     0.000 A 
ATOM      5  C6  UNL d   1      -2.930   1.340  -0.849  0.00  0.00     0.000 A 
ATOM      6  C7  UNL d   1      -1.732   1.101  -0.154  0.00  0.00    -0.073 A 
ATOM      7  C8  UNL d   1      -1.736   1.200   1.347  0.00  0.00     0.078 C 
ENDROOT
BRANCH   1   8
ATOM      8  C1  UNL d   1       0.737   0.425  -0.201  0.00  0.00     0.053 C 
ATOM      9  C   UNL d   1       0.896  -1.056   0.105  0.00  0.00     0.018 C 
ENDBRANCH   1   8
TORSDOF 1
ENDMDL
