MODEL 1
REMARK minimizedAffinity -2.33714342
REMARK minimizedRMSD -1
REMARK  1 active torsions:
REMARK  status: ('A' for Active; 'I' for Inactive)
REMARK    1  A    between atoms: C1_2  and  C2_3 
ROOT
ATOM      1  C2  UNL d   1       1.418  -1.595   0.875  0.00  0.00    -0.076 A 
ATOM      2  C3  UNL d   1       0.257  -2.220   1.361  0.00  0.00     0.004 A 
ATOM      3  C4  UNL d   1      -1.009  -1.734   1.037  0.00  0.00    -0.003 A 
ATOM      4  C5  UNL d   1      -1.133  -0.615   0.221  0.00  0.00     0.000 A 
ATOM      5  C6  UNL d   1       0.008   0.007  -0.285  0.00  0.00     0.000 A 
ATOM      6  C7  UNL d   1       1.291  -0.480   0.019  0.00  0.00    -0.073 A 
ATOM      7  C8  UNL d   1       2.487   0.234  -0.549  0.00  0.00     0.078 C 
ENDROOT
BRANCH   1   8
ATOM      8  C1  UNL d   1       2.764  -2.150   1.283  0.00  0.00     0.053 C 
ATOM      9  C   UNL d   1       3.233  -1.614   2.626  0.00  0.00     0.018 C 
ENDBRANCH   1   8
TORSDOF 1
ENDMDL
