MODEL 1
REMARK minimizedAffinity -4.4213376
REMARK minimizedRMSD -1
REMARK  1 active torsions:
REMARK  status: ('A' for Active; 'I' for Inactive)
REMARK    1  A    between atoms: C1_2  and  C2_3 
ROOT
ATOM      1  C2  UNL d   1      -0.017  -0.334   0.016  0.00  0.00    -0.076 A 
ATOM      2  C3  UNL d   1      -0.954  -1.208   0.594  0.00  0.00     0.004 A 
ATOM      3  C4  UNL d   1      -0.570  -2.462   1.067  0.00  0.00    -0.003 A 
ATOM      4  C5  UNL d   1       0.758  -2.861   0.969  0.00  0.00     0.000 A 
ATOM      5  C6  UNL d   1       1.705  -2.000   0.415  0.00  0.00     0.000 A 
ATOM      6  C7  UNL d   1       1.337  -0.726  -0.051  0.00  0.00    -0.073 A 
ATOM      7  C8  UNL d   1       2.397   0.159  -0.645  0.00  0.00     0.078 C 
ENDROOT
BRANCH   1   8
ATOM      8  C1  UNL d   1      -0.498   1.002  -0.503  0.00  0.00     0.053 C 
ATOM      9  C   UNL d   1      -1.423   0.863  -1.702  0.00  0.00     0.018 C 
ENDBRANCH   1   8
TORSDOF 1
ENDMDL
