MODEL 1
REMARK minimizedAffinity -3.1094346
REMARK minimizedRMSD -1
REMARK  1 active torsions:
REMARK  status: ('A' for Active; 'I' for Inactive)
REMARK    1  A    between atoms: C1_2  and  C2_3 
ROOT
ATOM      1  C2  UNL d   1       0.377  -0.087   0.010  0.00  0.00    -0.076 A 
ATOM      2  C3  UNL d   1      -0.398  -1.129   0.547  0.00  0.00     0.004 A 
ATOM      3  C4  UNL d   1       0.192  -2.322   0.960  0.00  0.00    -0.003 A 
ATOM      4  C5  UNL d   1       1.567  -2.493   0.842  0.00  0.00     0.000 A 
ATOM      5  C6  UNL d   1       2.353  -1.462   0.327  0.00  0.00     0.000 A 
ATOM      6  C7  UNL d   1       1.776  -0.247  -0.078  0.00  0.00    -0.073 A 
ATOM      7  C8  UNL d   1       2.671   0.828  -0.632  0.00  0.00     0.078 C 
ENDROOT
BRANCH   1   8
ATOM      8  C1  UNL d   1      -0.322   1.175  -0.446  0.00  0.00     0.053 C 
ATOM      9  C   UNL d   1      -1.457   0.893  -1.419  0.00  0.00     0.018 C 
ENDBRANCH   1   8
TORSDOF 1
ENDMDL
