MODEL 1
REMARK minimizedAffinity -3.12645674
REMARK minimizedRMSD -1
REMARK  1 active torsions:
REMARK  status: ('A' for Active; 'I' for Inactive)
REMARK    1  A    between atoms: C1_2  and  C2_3 
ROOT
ATOM      1  C2  UNL d   1       0.462  -0.125  -0.150  0.00  0.00    -0.076 A 
ATOM      2  C3  UNL d   1      -0.258  -1.328  -0.042  0.00  0.00     0.004 A 
ATOM      3  C4  UNL d   1       0.326  -2.466   0.513  0.00  0.00    -0.003 A 
ATOM      4  C5  UNL d   1       1.638  -2.419   0.969  0.00  0.00     0.000 A 
ATOM      5  C6  UNL d   1       2.361  -1.229   0.887  0.00  0.00     0.000 A 
ATOM      6  C7  UNL d   1       1.782  -0.069   0.345  0.00  0.00    -0.073 A 
ATOM      7  C8  UNL d   1       2.610   1.185   0.275  0.00  0.00     0.078 C 
ENDROOT
BRANCH   1   8
ATOM      8  C1  UNL d   1      -0.214   1.069  -0.785  0.00  0.00     0.053 C 
ATOM      9  C   UNL d   1      -1.662   1.221  -0.346  0.00  0.00     0.018 C 
ENDBRANCH   1   8
TORSDOF 1
ENDMDL
