MODEL 1
REMARK minimizedAffinity -3.40481257
REMARK minimizedRMSD -1
REMARK  1 active torsions:
REMARK  status: ('A' for Active; 'I' for Inactive)
REMARK    1  A    between atoms: C1_2  and  C2_3 
ROOT
ATOM      1  C2  UNL d   1      -0.391  -0.535   0.242  0.00  0.00    -0.076 A 
ATOM      2  C3  UNL d   1       0.816  -0.336  -0.451  0.00  0.00     0.004 A 
ATOM      3  C4  UNL d   1       1.942  -1.106  -0.166  0.00  0.00    -0.003 A 
ATOM      4  C5  UNL d   1       1.880  -2.088   0.816  0.00  0.00     0.000 A 
ATOM      5  C6  UNL d   1       0.686  -2.312   1.501  0.00  0.00     0.000 A 
ATOM      6  C7  UNL d   1      -0.463  -1.556   1.215  0.00  0.00    -0.073 A 
ATOM      7  C8  UNL d   1      -1.722  -1.835   1.989  0.00  0.00     0.078 C 
ENDROOT
BRANCH   1   8
ATOM      8  C1  UNL d   1      -1.572   0.348  -0.091  0.00  0.00     0.053 C 
ATOM      9  C   UNL d   1      -1.211   1.461  -1.062  0.00  0.00     0.018 C 
ENDBRANCH   1   8
TORSDOF 1
ENDMDL
