MODEL 1
REMARK minimizedAffinity -4.86294413
REMARK minimizedRMSD -1
REMARK  1 active torsions:
REMARK  status: ('A' for Active; 'I' for Inactive)
REMARK    1  A    between atoms: C1_2  and  C2_3 
ROOT
ATOM      1  C2  UNL d   1      -0.153  -0.092   0.395  0.00  0.00    -0.076 A 
ATOM      2  C3  UNL d   1       1.061   0.037  -0.301  0.00  0.00     0.004 A 
ATOM      3  C4  UNL d   1       2.058  -0.931  -0.190  0.00  0.00    -0.003 A 
ATOM      4  C5  UNL d   1       1.856  -2.044   0.619  0.00  0.00     0.000 A 
ATOM      5  C6  UNL d   1       0.650  -2.197   1.302  0.00  0.00     0.000 A 
ATOM      6  C7  UNL d   1      -0.372  -1.238   1.188  0.00  0.00    -0.073 A 
ATOM      7  C8  UNL d   1      -1.650  -1.451   1.952  0.00  0.00     0.078 C 
ENDROOT
BRANCH   1   8
ATOM      8  C1  UNL d   1      -1.187   1.004   0.257  0.00  0.00     0.053 C 
ATOM      9  C   UNL d   1      -1.363   1.461  -1.183  0.00  0.00     0.018 C 
ENDBRANCH   1   8
TORSDOF 1
ENDMDL
