MODEL 1
REMARK minimizedAffinity -4.10196877
REMARK minimizedRMSD -1
REMARK  1 active torsions:
REMARK  status: ('A' for Active; 'I' for Inactive)
REMARK    1  A    between atoms: C1_2  and  C2_3 
ROOT
ATOM      1  C2  UNL d   1       0.094  -0.203   0.205  0.00  0.00    -0.076 A 
ATOM      2  C3  UNL d   1      -0.689  -1.275   0.667  0.00  0.00     0.004 A 
ATOM      3  C4  UNL d   1      -0.115  -2.514   0.948  0.00  0.00    -0.003 A 
ATOM      4  C5  UNL d   1       1.252  -2.700   0.774  0.00  0.00     0.000 A 
ATOM      5  C6  UNL d   1       2.047  -1.642   0.333  0.00  0.00     0.000 A 
ATOM      6  C7  UNL d   1       1.487  -0.382   0.060  0.00  0.00    -0.073 A 
ATOM      7  C8  UNL d   1       2.390   0.721  -0.418  0.00  0.00     0.078 C 
ENDROOT
BRANCH   1   8
ATOM      8  C1  UNL d   1      -0.588   1.109  -0.110  0.00  0.00     0.053 C 
ATOM      9  C   UNL d   1      -1.361   1.065  -1.419  0.00  0.00     0.018 C 
ENDBRANCH   1   8
TORSDOF 1
ENDMDL
