MODEL 1
REMARK minimizedAffinity -3.2902174
REMARK minimizedRMSD -1
REMARK  1 active torsions:
REMARK  status: ('A' for Active; 'I' for Inactive)
REMARK    1  A    between atoms: C1_2  and  C2_3 
ROOT
ATOM      1  C2  UNL d   1      -1.352   1.805  -1.637  0.00  0.00    -0.076 A 
ATOM      2  C3  UNL d   1      -0.378   2.717  -2.079  0.00  0.00     0.004 A 
ATOM      3  C4  UNL d   1      -0.368   3.173  -3.396  0.00  0.00    -0.003 A 
ATOM      4  C5  UNL d   1      -1.333   2.726  -4.292  0.00  0.00     0.000 A 
ATOM      5  C6  UNL d   1      -2.317   1.835  -3.866  0.00  0.00     0.000 A 
ATOM      6  C7  UNL d   1      -2.351   1.377  -2.537  0.00  0.00    -0.073 A 
ATOM      7  C8  UNL d   1      -3.432   0.412  -2.134  0.00  0.00     0.078 C 
ENDROOT
BRANCH   1   8
ATOM      8  C1  UNL d   1      -1.297   1.323  -0.204  0.00  0.00     0.053 C 
ATOM      9  C   UNL d   1      -0.517   0.026  -0.055  0.00  0.00     0.018 C 
ENDBRANCH   1   8
TORSDOF 1
ENDMDL
