MODEL 1
REMARK minimizedAffinity -0.525626898
REMARK minimizedRMSD -1
REMARK  1 active torsions:
REMARK  status: ('A' for Active; 'I' for Inactive)
REMARK    1  A    between atoms: C1_2  and  C2_3 
ROOT
ATOM      1  C2  UNL d   1       0.192  -1.619   1.187  0.00  0.00    -0.076 A 
ATOM      2  C3  UNL d   1       0.631  -0.934   0.040  0.00  0.00     0.004 A 
ATOM      3  C4  UNL d   1      -0.108   0.122  -0.492  0.00  0.00    -0.003 A 
ATOM      4  C5  UNL d   1      -1.298   0.510   0.114  0.00  0.00     0.000 A 
ATOM      5  C6  UNL d   1      -1.739  -0.147   1.262  0.00  0.00     0.000 A 
ATOM      6  C7  UNL d   1      -0.998  -1.203   1.821  0.00  0.00    -0.073 A 
ATOM      7  C8  UNL d   1      -1.525  -1.880   3.057  0.00  0.00     0.078 C 
ENDROOT
BRANCH   1   8
ATOM      8  C1  UNL d   1       1.021  -2.773   1.702  0.00  0.00     0.053 C 
ATOM      9  C   UNL d   1       1.947  -2.364   2.837  0.00  0.00     0.018 C 
ENDBRANCH   1   8
TORSDOF 1
ENDMDL
