MODEL 1
REMARK minimizedAffinity 20.8265038
REMARK minimizedRMSD -1
REMARK  0 active torsions:
REMARK  status: ('A' for Active; 'I' for Inactive)
ROOT
ATOM      1  C4' PXY d   1       3.575   2.687   1.010  0.00  0.00     0.077 C 
ATOM      2  C1' PXY d   1       1.640  -0.867  -3.118  0.00  0.00     0.077 C 
ATOM      3  C1  PXY d   1       2.152   0.073  -2.044  0.00  0.00    -0.082 A 
ATOM      4  C2  PXY d   1       2.383  -0.389  -0.826  0.00  0.00     0.003 A 
ATOM      5  C3  PXY d   1       2.816   0.454   0.165  0.00  0.00     0.003 A 
ATOM      6  C4  PXY d   1       3.066   1.772  -0.107  0.00  0.00    -0.082 A 
ATOM      7  C5  PXY d   1       2.844   2.249  -1.350  0.00  0.00     0.003 A 
ATOM      8  C6  PXY d   1       2.365   1.386  -2.332  0.00  0.00     0.003 A 
ENDROOT
TORSDOF 0
ENDMDL
