MODEL 1
REMARK minimizedAffinity 1.54288578
REMARK minimizedRMSD -1
REMARK  0 active torsions:
REMARK  status: ('A' for Active; 'I' for Inactive)
ROOT
ATOM      1  C4' PXY d   1      -1.852  -2.808   3.833  0.00  0.00     0.077 C 
ATOM      2  C1' PXY d   1      -0.432  -4.127  -1.613  0.00  0.00     0.077 C 
ATOM      3  C1  PXY d   1      -0.804  -3.769  -0.188  0.00  0.00    -0.082 A 
ATOM      4  C2  PXY d   1      -0.536  -4.617   0.791  0.00  0.00     0.003 A 
ATOM      5  C3  PXY d   1      -0.894  -4.322   2.082  0.00  0.00     0.003 A 
ATOM      6  C4  PXY d   1      -1.486  -3.124   2.380  0.00  0.00    -0.082 A 
ATOM      7  C5  PXY d   1      -1.754  -2.249   1.388  0.00  0.00     0.003 A 
ATOM      8  C6  PXY d   1      -1.419  -2.584   0.079  0.00  0.00     0.003 A 
ENDROOT
TORSDOF 0
ENDMDL
