MODEL 1
REMARK minimizedAffinity 8.42015648
REMARK minimizedRMSD -1
REMARK  0 active torsions:
REMARK  status: ('A' for Active; 'I' for Inactive)
ROOT
ATOM      1  C4' PXY d   1       4.029   2.038   2.884  0.00  0.00     0.077 C 
ATOM      2  C1' PXY d   1       2.178   1.634  -2.577  0.00  0.00     0.077 C 
ATOM      3  C1  PXY d   1       2.674   1.747  -1.149  0.00  0.00    -0.082 A 
ATOM      4  C2  PXY d   1       2.269   0.870  -0.245  0.00  0.00     0.003 A 
ATOM      5  C3  PXY d   1       2.682   0.975   1.058  0.00  0.00     0.003 A 
ATOM      6  C4  PXY d   1       3.562   1.958   1.428  0.00  0.00    -0.082 A 
ATOM      7  C5  PXY d   1       3.988   2.850   0.510  0.00  0.00     0.003 A 
ATOM      8  C6  PXY d   1       3.524   2.750  -0.799  0.00  0.00     0.003 A 
ENDROOT
TORSDOF 0
ENDMDL
