MODEL 1
REMARK minimizedAffinity 11.8452559
REMARK minimizedRMSD -1
REMARK  0 active torsions:
REMARK  status: ('A' for Active; 'I' for Inactive)
ROOT
ATOM      1  C4' PXY d   1      -0.060  -5.686   1.933  0.00  0.00     0.077 C 
ATOM      2  C1' PXY d   1      -2.863  -0.998   0.041  0.00  0.00     0.077 C 
ATOM      3  C1  PXY d   1      -2.127  -2.232   0.525  0.00  0.00    -0.082 A 
ATOM      4  C2  PXY d   1      -2.319  -2.666   1.760  0.00  0.00     0.003 A 
ATOM      5  C3  PXY d   1      -1.637  -3.761   2.224  0.00  0.00     0.003 A 
ATOM      6  C4  PXY d   1      -0.789  -4.451   1.399  0.00  0.00    -0.082 A 
ATOM      7  C5  PXY d   1      -0.596  -4.020   0.134  0.00  0.00     0.003 A 
ATOM      8  C6  PXY d   1      -1.267  -2.882  -0.305  0.00  0.00     0.003 A 
ENDROOT
TORSDOF 0
ENDMDL
