MODEL 1
REMARK minimizedAffinity 8.03123283
REMARK minimizedRMSD -1
REMARK  0 active torsions:
REMARK  status: ('A' for Active; 'I' for Inactive)
ROOT
ATOM      1  C4' PXY d   1      -0.291  -6.000   2.624  0.00  0.00     0.077 C 
ATOM      2  C1' PXY d   1      -1.945  -1.131  -0.016  0.00  0.00     0.077 C 
ATOM      3  C1  PXY d   1      -1.510  -2.401   0.688  0.00  0.00    -0.082 A 
ATOM      4  C2  PXY d   1      -0.975  -3.387  -0.014  0.00  0.00     0.003 A 
ATOM      5  C3  PXY d   1      -0.605  -4.555   0.602  0.00  0.00     0.003 A 
ATOM      6  C4  PXY d   1      -0.736  -4.695   1.957  0.00  0.00    -0.082 A 
ATOM      7  C5  PXY d   1      -1.272  -3.690   2.682  0.00  0.00     0.003 A 
ATOM      8  C6  PXY d   1      -1.679  -2.528   2.032  0.00  0.00     0.003 A 
ENDROOT
TORSDOF 0
ENDMDL
