MODEL 1
REMARK minimizedAffinity 5.54412889
REMARK minimizedRMSD -1
REMARK  0 active torsions:
REMARK  status: ('A' for Active; 'I' for Inactive)
ROOT
ATOM      1  C4' PXY d   1      -5.986   6.000  -5.954  0.00  0.00     0.077 C 
ATOM      2  C1' PXY d   1      -2.476   1.786  -4.125  0.00  0.00     0.077 C 
ATOM      3  C1  PXY d   1      -3.399   2.885  -4.616  0.00  0.00    -0.082 A 
ATOM      4  C2  PXY d   1      -3.272   4.110  -4.133  0.00  0.00     0.003 A 
ATOM      5  C3  PXY d   1      -4.118   5.108  -4.542  0.00  0.00     0.003 A 
ATOM      6  C4  PXY d   1      -5.070   4.862  -5.494  0.00  0.00    -0.082 A 
ATOM      7  C5  PXY d   1      -5.199   3.617  -6.000  0.00  0.00     0.003 A 
ATOM      8  C6  PXY d   1      -4.357   2.608  -5.541  0.00  0.00     0.003 A 
ENDROOT
TORSDOF 0
ENDMDL
