MODEL 1
REMARK minimizedAffinity 7.76198387
REMARK minimizedRMSD -1
REMARK  0 active torsions:
REMARK  status: ('A' for Active; 'I' for Inactive)
ROOT
ATOM      1  C4' PXY d   1      -4.876   5.978  -5.999  0.00  0.00     0.077 C 
ATOM      2  C1' PXY d   1      -4.800   5.867  -0.220  0.00  0.00     0.077 C 
ATOM      3  C1  PXY d   1      -4.808   5.900  -1.735  0.00  0.00    -0.082 A 
ATOM      4  C2  PXY d   1      -5.958   5.997  -2.382  0.00  0.00     0.003 A 
ATOM      5  C3  PXY d   1      -5.985   5.997  -3.753  0.00  0.00     0.003 A 
ATOM      6  C4  PXY d   1      -4.820   5.950  -4.469  0.00  0.00    -0.082 A 
ATOM      7  C5  PXY d   1      -3.641   5.862  -3.817  0.00  0.00     0.003 A 
ATOM      8  C6  PXY d   1      -3.637   5.822  -2.425  0.00  0.00     0.003 A 
ENDROOT
TORSDOF 0
ENDMDL
