MODEL 1
REMARK minimizedAffinity 10.3411961
REMARK minimizedRMSD -1
REMARK  0 active torsions:
REMARK  status: ('A' for Active; 'I' for Inactive)
ROOT
ATOM      1  C4' PXY d   1      -2.101   2.249  -3.931  0.00  0.00     0.077 C 
ATOM      2  C1' PXY d   1      -5.998   5.997  -5.976  0.00  0.00     0.077 C 
ATOM      3  C1  PXY d   1      -4.983   5.004  -5.443  0.00  0.00    -0.082 A 
ATOM      4  C2  PXY d   1      -4.144   5.375  -4.490  0.00  0.00     0.003 A 
ATOM      5  C3  PXY d   1      -3.199   4.499  -4.020  0.00  0.00     0.003 A 
ATOM      6  C4  PXY d   1      -3.148   3.215  -4.492  0.00  0.00    -0.082 A 
ATOM      7  C5  PXY d   1      -4.008   2.827  -5.457  0.00  0.00     0.003 A 
ATOM      8  C6  PXY d   1      -4.932   3.743  -5.951  0.00  0.00     0.003 A 
ENDROOT
TORSDOF 0
ENDMDL
