MODEL 1
REMARK minimizedAffinity 5.21651554
REMARK minimizedRMSD -1
REMARK  0 active torsions:
REMARK  status: ('A' for Active; 'I' for Inactive)
ROOT
ATOM      1  C4' PXY d   1      -5.994   3.947   5.991  0.00  0.00     0.077 C 
ATOM      2  C1' PXY d   1      -3.137  -1.078   5.987  0.00  0.00     0.077 C 
ATOM      3  C1  PXY d   1      -3.896   0.234   5.983  0.00  0.00    -0.082 A 
ATOM      4  C2  PXY d   1      -3.229   1.377   5.971  0.00  0.00     0.003 A 
ATOM      5  C3  PXY d   1      -3.900   2.572   6.000  0.00  0.00     0.003 A 
ATOM      6  C4  PXY d   1      -5.269   2.599   5.986  0.00  0.00    -0.082 A 
ATOM      7  C5  PXY d   1      -5.957   1.438   5.987  0.00  0.00     0.003 A 
ATOM      8  C6  PXY d   1      -5.257   0.235   5.999  0.00  0.00     0.003 A 
ENDROOT
TORSDOF 0
ENDMDL
