MODEL 1
REMARK minimizedAffinity -3.16665149
REMARK minimizedRMSD -1
REMARK  0 active torsions:
REMARK  status: ('A' for Active; 'I' for Inactive)
ROOT
ATOM      1  C4' PXY d   1      -5.987   2.253   5.999  0.00  0.00     0.077 C 
ATOM      2  C1' PXY d   1      -1.725  -1.626   5.547  0.00  0.00     0.077 C 
ATOM      3  C1  PXY d   1      -2.851  -0.618   5.662  0.00  0.00    -0.082 A 
ATOM      4  C2  PXY d   1      -2.588   0.674   5.542  0.00  0.00     0.003 A 
ATOM      5  C3  PXY d   1      -3.590   1.601   5.675  0.00  0.00     0.003 A 
ATOM      6  C4  PXY d   1      -4.883   1.199   5.881  0.00  0.00    -0.082 A 
ATOM      7  C5  PXY d   1      -5.161  -0.117   5.994  0.00  0.00     0.003 A 
ATOM      8  C6  PXY d   1      -4.123  -1.040   5.897  0.00  0.00     0.003 A 
ENDROOT
TORSDOF 0
ENDMDL
