MODEL 1
REMARK minimizedAffinity 12.0364742
REMARK minimizedRMSD -1
REMARK  0 active torsions:
REMARK  status: ('A' for Active; 'I' for Inactive)
ROOT
ATOM      1  C4' PXY d   1       5.217   4.848  -0.105  0.00  0.00     0.077 C 
ATOM      2  C1' PXY d   1       1.943   0.257  -1.377  0.00  0.00     0.077 C 
ATOM      3  C1  PXY d   1       2.795   1.462  -1.032  0.00  0.00    -0.082 A 
ATOM      4  C2  PXY d   1       3.382   2.147  -2.000  0.00  0.00     0.003 A 
ATOM      5  C3  PXY d   1       4.182   3.220  -1.704  0.00  0.00     0.003 A 
ATOM      6  C4  PXY d   1       4.340   3.630  -0.407  0.00  0.00    -0.082 A 
ATOM      7  C5  PXY d   1       3.736   2.943   0.586  0.00  0.00     0.003 A 
ATOM      8  C6  PXY d   1       2.961   1.831   0.267  0.00  0.00     0.003 A 
ENDROOT
TORSDOF 0
ENDMDL
