MODEL 1
REMARK minimizedAffinity 11.620738
REMARK minimizedRMSD -1
REMARK  0 active torsions:
REMARK  status: ('A' for Active; 'I' for Inactive)
ROOT
ATOM      1  C4' PXY d   1      -1.802  -0.327   0.033  0.00  0.00     0.077 C 
ATOM      2  C1' PXY d   1      -0.099  -5.657  -1.421  0.00  0.00     0.077 C 
ATOM      3  C1  PXY d   1      -0.539  -4.254  -1.050  0.00  0.00    -0.082 A 
ATOM      4  C2  PXY d   1      -0.864  -3.981   0.203  0.00  0.00     0.003 A 
ATOM      5  C3  PXY d   1      -1.295  -2.726   0.550  0.00  0.00     0.003 A 
ATOM      6  C4  PXY d   1      -1.343  -1.727  -0.385  0.00  0.00    -0.082 A 
ATOM      7  C5  PXY d   1      -1.003  -1.995  -1.664  0.00  0.00     0.003 A 
ATOM      8  C6  PXY d   1      -0.608  -3.286  -2.003  0.00  0.00     0.003 A 
ENDROOT
TORSDOF 0
ENDMDL
