MODEL 1
REMARK minimizedAffinity 12.3980837
REMARK minimizedRMSD -1
REMARK  0 active torsions:
REMARK  status: ('A' for Active; 'I' for Inactive)
ROOT
ATOM      1  C4' PXY d   1       1.124   2.493  -3.599  0.00  0.00     0.077 C 
ATOM      2  C1' PXY d   1      -4.132   2.910  -5.970  0.00  0.00     0.077 C 
ATOM      3  C1  PXY d   1      -2.748   2.802  -5.360  0.00  0.00    -0.082 A 
ATOM      4  C2  PXY d   1      -2.591   2.186  -4.200  0.00  0.00     0.003 A 
ATOM      5  C3  PXY d   1      -1.351   2.107  -3.618  0.00  0.00     0.003 A 
ATOM      6  C4  PXY d   1      -0.253   2.618  -4.257  0.00  0.00    -0.082 A 
ATOM      7  C5  PXY d   1      -0.403   3.238  -5.446  0.00  0.00     0.003 A 
ATOM      8  C6  PXY d   1      -1.676   3.344  -6.000  0.00  0.00     0.003 A 
ENDROOT
TORSDOF 0
ENDMDL
