MODEL 1
REMARK minimizedAffinity 14.0185223
REMARK minimizedRMSD -1
REMARK  0 active torsions:
REMARK  status: ('A' for Active; 'I' for Inactive)
ROOT
ATOM      1  C4' PXY d   1       3.744   2.002   3.652  0.00  0.00     0.077 C 
ATOM      2  C1' PXY d   1       2.525   2.087  -1.998  0.00  0.00     0.077 C 
ATOM      3  C1  PXY d   1       2.857   2.067  -0.519  0.00  0.00    -0.082 A 
ATOM      4  C2  PXY d   1       2.068   1.415   0.320  0.00  0.00     0.003 A 
ATOM      5  C3  PXY d   1       2.336   1.414   1.665  0.00  0.00     0.003 A 
ATOM      6  C4  PXY d   1       3.453   2.041   2.149  0.00  0.00    -0.082 A 
ATOM      7  C5  PXY d   1       4.268   2.699   1.299  0.00  0.00     0.003 A 
ATOM      8  C6  PXY d   1       3.956   2.724  -0.058  0.00  0.00     0.003 A 
ENDROOT
TORSDOF 0
ENDMDL
