MODEL 1
REMARK minimizedAffinity 10.5672674
REMARK minimizedRMSD -1
REMARK  0 active torsions:
REMARK  status: ('A' for Active; 'I' for Inactive)
ROOT
ATOM      1  C4' PXY d   1      -5.986   5.133   3.955  0.00  0.00     0.077 C 
ATOM      2  C1' PXY d   1      -3.733   5.314  -1.365  0.00  0.00     0.077 C 
ATOM      3  C1  PXY d   1      -4.330   5.278   0.028  0.00  0.00    -0.082 A 
ATOM      4  C2  PXY d   1      -3.761   4.535   0.964  0.00  0.00     0.003 A 
ATOM      5  C3  PXY d   1      -4.306   4.466   2.221  0.00  0.00     0.003 A 
ATOM      6  C4  PXY d   1      -5.413   5.207   2.537  0.00  0.00    -0.082 A 
ATOM      7  C5  PXY d   1      -5.993   5.975   1.591  0.00  0.00     0.003 A 
ATOM      8  C6  PXY d   1      -5.448   6.000   0.310  0.00  0.00     0.003 A 
ENDROOT
TORSDOF 0
ENDMDL
