MODEL 1
REMARK minimizedAffinity 20.6851196
REMARK minimizedRMSD -1
REMARK  0 active torsions:
REMARK  status: ('A' for Active; 'I' for Inactive)
ROOT
ATOM      1  C4' PXY d   1       3.290   5.494   5.976  0.00  0.00     0.077 C 
ATOM      2  C1' PXY d   1       5.997   2.137   2.126  0.00  0.00     0.077 C 
ATOM      3  C1  PXY d   1       5.295   3.014   3.145  0.00  0.00    -0.082 A 
ATOM      4  C2  PXY d   1       4.022   3.328   2.971  0.00  0.00     0.003 A 
ATOM      5  C3  PXY d   1       3.381   4.146   3.866  0.00  0.00     0.003 A 
ATOM      6  C4  PXY d   1       4.036   4.604   4.978  0.00  0.00    -0.082 A 
ATOM      7  C5  PXY d   1       5.332   4.279   5.168  0.00  0.00     0.003 A 
ATOM      8  C6  PXY d   1       5.976   3.481   4.226  0.00  0.00     0.003 A 
ENDROOT
TORSDOF 0
ENDMDL
