MODEL 1
REMARK minimizedAffinity 5.69375753
REMARK minimizedRMSD -1
REMARK  0 active torsions:
REMARK  status: ('A' for Active; 'I' for Inactive)
ROOT
ATOM      1  C4' PXY d   1      -2.422  -1.809  -0.408  0.00  0.00     0.077 C 
ATOM      2  C1' PXY d   1      -2.053   2.329  -4.428  0.00  0.00     0.077 C 
ATOM      3  C1  PXY d   1      -2.143   1.235  -3.381  0.00  0.00    -0.082 A 
ATOM      4  C2  PXY d   1      -3.099   1.282  -2.467  0.00  0.00     0.003 A 
ATOM      5  C3  PXY d   1      -3.176   0.319  -1.494  0.00  0.00     0.003 A 
ATOM      6  C4  PXY d   1      -2.298  -0.732  -1.489  0.00  0.00    -0.082 A 
ATOM      7  C5  PXY d   1      -1.327  -0.792  -2.425  0.00  0.00     0.003 A 
ATOM      8  C6  PXY d   1      -1.240   0.217  -3.379  0.00  0.00     0.003 A 
ENDROOT
TORSDOF 0
ENDMDL
