MODEL 1
REMARK minimizedAffinity 5.48353052
REMARK minimizedRMSD -1
REMARK  0 active torsions:
REMARK  status: ('A' for Active; 'I' for Inactive)
ROOT
ATOM      1  C4' PXY d   1      -4.212   0.068   0.088  0.00  0.00     0.077 C 
ATOM      2  C1' PXY d   1      -0.375  -4.003   1.545  0.00  0.00     0.077 C 
ATOM      3  C1  PXY d   1      -1.389  -2.939   1.173  0.00  0.00    -0.082 A 
ATOM      4  C2  PXY d   1      -1.423  -2.473  -0.065  0.00  0.00     0.003 A 
ATOM      5  C3  PXY d   1      -2.312  -1.488  -0.411  0.00  0.00     0.003 A 
ATOM      6  C4  PXY d   1      -3.211  -1.013   0.506  0.00  0.00    -0.082 A 
ATOM      7  C5  PXY d   1      -3.190  -1.492   1.768  0.00  0.00     0.003 A 
ATOM      8  C6  PXY d   1      -2.252  -2.462   2.110  0.00  0.00     0.003 A 
ENDROOT
TORSDOF 0
ENDMDL
