MODEL 1
REMARK minimizedAffinity 4.12163448
REMARK minimizedRMSD -1
REMARK  0 active torsions:
REMARK  status: ('A' for Active; 'I' for Inactive)
ROOT
ATOM      1  C   UNL d   1      -5.020  -5.220  -6.000  0.00  0.00     0.023 A 
ATOM      2  C1  UNL d   1      -4.589  -3.942  -5.644  0.00  0.00     0.003 A 
ATOM      3  C2  UNL d   1      -4.863  -3.440  -4.370  0.00  0.00     0.048 A 
ATOM      4  C3  UNL d   1      -5.568  -4.223  -3.456  0.00  0.00     0.023 A 
ATOM      5  C4  UNL d   1      -6.000  -5.503  -3.807  0.00  0.00     0.048 A 
ATOM      6  C5  UNL d   1      -5.724  -6.000  -5.082  0.00  0.00     0.003 A 
ATOM      7  I   UNL d   1      -5.977  -3.479  -1.559  0.00  0.00    -0.146 I 
ENDROOT
TORSDOF 0
ENDMDL
