MODEL 1
REMARK minimizedAffinity 1.17228687
REMARK minimizedRMSD -1
REMARK  0 active torsions:
REMARK  status: ('A' for Active; 'I' for Inactive)
ROOT
ATOM      1  C   UNL d   1      -4.507  -4.383  -1.491  0.00  0.00     0.023 A 
ATOM      2  C1  UNL d   1      -5.312  -3.557  -2.276  0.00  0.00     0.003 A 
ATOM      3  C2  UNL d   1      -5.665  -3.950  -3.569  0.00  0.00     0.048 A 
ATOM      4  C3  UNL d   1      -5.211  -5.169  -4.070  0.00  0.00     0.023 A 
ATOM      5  C4  UNL d   1      -4.406  -5.998  -3.288  0.00  0.00     0.048 A 
ATOM      6  C5  UNL d   1      -4.054  -5.602  -1.996  0.00  0.00     0.003 A 
ATOM      7  I   UNL d   1      -5.735  -5.755  -5.994  0.00  0.00    -0.146 I 
ENDROOT
TORSDOF 0
ENDMDL
