MODEL 1
REMARK minimizedAffinity 6.09037542
REMARK minimizedRMSD -1
REMARK  0 active torsions:
REMARK  status: ('A' for Active; 'I' for Inactive)
ROOT
ATOM      1  C   UNL d   1       0.893  -2.288   1.198  0.00  0.00     0.023 A 
ATOM      2  C1  UNL d   1       1.759  -1.307   1.682  0.00  0.00     0.003 A 
ATOM      3  C2  UNL d   1       1.913  -1.127   3.058  0.00  0.00     0.048 A 
ATOM      4  C3  UNL d   1       1.199  -1.932   3.945  0.00  0.00     0.023 A 
ATOM      5  C4  UNL d   1       0.333  -2.915   3.465  0.00  0.00     0.048 A 
ATOM      6  C5  UNL d   1       0.181  -3.091   2.089  0.00  0.00     0.003 A 
ATOM      7  I   UNL d   1       1.428  -1.666   5.993  0.00  0.00    -0.146 I 
ENDROOT
TORSDOF 0
ENDMDL
