MODEL 1
REMARK minimizedAffinity 2.04274607
REMARK minimizedRMSD -1
REMARK  0 active torsions:
REMARK  status: ('A' for Active; 'I' for Inactive)
ROOT
ATOM      1  C   UNL d   1       4.008   5.757  -1.148  0.00  0.00     0.023 A 
ATOM      2  C1  UNL d   1       5.375   5.926  -1.367  0.00  0.00     0.003 A 
ATOM      3  C2  UNL d   1       5.871   5.996  -2.671  0.00  0.00     0.048 A 
ATOM      4  C3  UNL d   1       4.994   5.896  -3.751  0.00  0.00     0.023 A 
ATOM      5  C4  UNL d   1       3.625   5.728  -3.536  0.00  0.00     0.048 A 
ATOM      6  C5  UNL d   1       3.134   5.658  -2.231  0.00  0.00     0.003 A 
ATOM      7  I   UNL d   1       5.730   6.000  -5.692  0.00  0.00    -0.146 I 
ENDROOT
TORSDOF 0
ENDMDL
