MODEL 1
REMARK minimizedAffinity 0.737032771
REMARK minimizedRMSD -1
REMARK  0 active torsions:
REMARK  status: ('A' for Active; 'I' for Inactive)
ROOT
ATOM      1  C   UNL d   1      -4.755  -5.390  -5.997  0.00  0.00     0.023 A 
ATOM      2  C1  UNL d   1      -5.635  -5.999  -5.102  0.00  0.00     0.003 A 
ATOM      3  C2  UNL d   1      -5.993  -5.347  -3.920  0.00  0.00     0.048 A 
ATOM      4  C3  UNL d   1      -5.468  -4.086  -3.640  0.00  0.00     0.023 A 
ATOM      5  C4  UNL d   1      -4.588  -3.472  -4.533  0.00  0.00     0.048 A 
ATOM      6  C5  UNL d   1      -4.232  -4.128  -5.713  0.00  0.00     0.003 A 
ATOM      7  I   UNL d   1      -6.000  -3.114  -1.881  0.00  0.00    -0.146 I 
ENDROOT
TORSDOF 0
ENDMDL
