MODEL 1
REMARK minimizedAffinity -1.01321828
REMARK minimizedRMSD -1
REMARK  0 active torsions:
REMARK  status: ('A' for Active; 'I' for Inactive)
ROOT
ATOM      1  C   UNL d   1      -4.590  -5.291  -1.413  0.00  0.00     0.023 A 
ATOM      2  C1  UNL d   1      -5.586  -4.351  -1.681  0.00  0.00     0.003 A 
ATOM      3  C2  UNL d   1      -5.991  -4.118  -2.997  0.00  0.00     0.048 A 
ATOM      4  C3  UNL d   1      -5.397  -4.828  -4.040  0.00  0.00     0.023 A 
ATOM      5  C4  UNL d   1      -4.402  -5.770  -3.776  0.00  0.00     0.048 A 
ATOM      6  C5  UNL d   1      -3.999  -6.000  -2.459  0.00  0.00     0.003 A 
ATOM      7  I   UNL d   1      -5.999  -4.482  -5.999  0.00  0.00    -0.146 I 
ENDROOT
TORSDOF 0
ENDMDL
