MODEL 1
REMARK minimizedAffinity -0.35268873
REMARK minimizedRMSD -1
REMARK  0 active torsions:
REMARK  status: ('A' for Active; 'I' for Inactive)
ROOT
ATOM      1  C   UNL d   1      -4.685  -5.064  -5.963  0.00  0.00     0.023 A 
ATOM      2  C1  UNL d   1      -5.607  -4.119  -5.514  0.00  0.00     0.003 A 
ATOM      3  C2  UNL d   1      -5.985  -4.093  -4.170  0.00  0.00     0.048 A 
ATOM      4  C3  UNL d   1      -5.435  -5.015  -3.280  0.00  0.00     0.023 A 
ATOM      5  C4  UNL d   1      -4.510  -5.962  -3.724  0.00  0.00     0.048 A 
ATOM      6  C5  UNL d   1      -4.137  -5.984  -5.069  0.00  0.00     0.003 A 
ATOM      7  I   UNL d   1      -5.995  -4.978  -1.279  0.00  0.00    -0.146 I 
ENDROOT
TORSDOF 0
ENDMDL
