MODEL 1
REMARK minimizedAffinity -2.25923085
REMARK minimizedRMSD -1
REMARK  0 active torsions:
REMARK  status: ('A' for Active; 'I' for Inactive)
ROOT
ATOM      1  C   UNL d   1      -4.879  -4.178  -5.993  0.00  0.00     0.023 A 
ATOM      2  C1  UNL d   1      -5.570  -3.391  -5.071  0.00  0.00     0.003 A 
ATOM      3  C2  UNL d   1      -5.891  -3.907  -3.813  0.00  0.00     0.048 A 
ATOM      4  C3  UNL d   1      -5.518  -5.209  -3.484  0.00  0.00     0.023 A 
ATOM      5  C4  UNL d   1      -4.826  -6.000  -4.404  0.00  0.00     0.048 A 
ATOM      6  C5  UNL d   1      -4.508  -5.480  -5.660  0.00  0.00     0.003 A 
ATOM      7  I   UNL d   1      -5.994  -5.979  -1.613  0.00  0.00    -0.146 I 
ENDROOT
TORSDOF 0
ENDMDL
