MODEL 1
REMARK minimizedAffinity -0.531113267
REMARK minimizedRMSD -1
REMARK  1 active torsions:
REMARK  status: ('A' for Active; 'I' for Inactive)
REMARK    1  A    between atoms: C3_4  and  O_7 
ROOT
ATOM      1  C   UNL d   1       4.116   3.276  -5.951  0.00  0.00    -0.033 A 
ATOM      2  C1  UNL d   1       2.805   2.797  -5.950  0.00  0.00     0.039 A 
ATOM      3  C2  UNL d   1       1.733   3.691  -5.963  0.00  0.00    -0.080 A 
ATOM      4  C3  UNL d   1       1.985   5.060  -5.979  0.00  0.00     0.150 A 
ATOM      5  C4  UNL d   1       3.289   5.545  -5.984  0.00  0.00    -0.007 A 
ATOM      6  C5  UNL d   1       4.358   4.650  -5.969  0.00  0.00     0.039 A 
ENDROOT
BRANCH   4   7
ATOM      7  O   UNL d   1       0.972   5.972  -5.987  0.00  0.00    -0.526 OA
ATOM      8  H5  UNL d   1       0.127   5.493  -5.953  0.00  0.00     0.418 HD
ENDBRANCH   4   7
TORSDOF 1
ENDMDL
