MODEL 1
REMARK minimizedAffinity 11.1129904
REMARK minimizedRMSD -1
REMARK  1 active torsions:
REMARK  status: ('A' for Active; 'I' for Inactive)
REMARK    1  A    between atoms: C3_4  and  O_7 
ROOT
ATOM      1  C   UNL d   1       1.778   3.834  -5.986  0.00  0.00    -0.033 A 
ATOM      2  C1  UNL d   1       2.342   5.111  -5.998  0.00  0.00     0.039 A 
ATOM      3  C2  UNL d   1       3.730   5.263  -5.992  0.00  0.00    -0.080 A 
ATOM      4  C3  UNL d   1       4.542   4.132  -5.975  0.00  0.00     0.150 A 
ATOM      5  C4  UNL d   1       3.987   2.857  -5.967  0.00  0.00    -0.007 A 
ATOM      6  C5  UNL d   1       2.601   2.707  -5.972  0.00  0.00     0.039 A 
ENDROOT
BRANCH   4   7
ATOM      7  O   UNL d   1       5.901   4.231  -5.964  0.00  0.00    -0.526 OA
ATOM      8  H5  UNL d   1       6.141   5.173  -5.942  0.00  0.00     0.418 HD
ENDBRANCH   4   7
TORSDOF 1
ENDMDL
