MODEL 1
REMARK minimizedAffinity -1.59394383
REMARK minimizedRMSD -1
REMARK  1 active torsions:
REMARK  status: ('A' for Active; 'I' for Inactive)
REMARK    1  A    between atoms: C3_4  and  O_7 
ROOT
ATOM      1  C   UNL d   1       4.634   5.991  -5.958  0.00  0.00    -0.033 A 
ATOM      2  C1  UNL d   1       3.297   5.590  -5.991  0.00  0.00     0.039 A 
ATOM      3  C2  UNL d   1       2.974   4.232  -6.000  0.00  0.00    -0.080 A 
ATOM      4  C3  UNL d   1       3.995   3.286  -5.975  0.00  0.00     0.150 A 
ATOM      5  C4  UNL d   1       5.329   3.678  -5.939  0.00  0.00    -0.007 A 
ATOM      6  C5  UNL d   1       5.650   5.035  -5.930  0.00  0.00     0.039 A 
ENDROOT
BRANCH   4   7
ATOM      7  O   UNL d   1       3.729   1.949  -5.988  0.00  0.00    -0.526 OA
ATOM      8  H5  UNL d   1       2.766   1.828  -6.043  0.00  0.00     0.418 HD
ENDBRANCH   4   7
TORSDOF 1
ENDMDL
