MODEL 1
REMARK minimizedAffinity 1.48443818
REMARK minimizedRMSD -1
REMARK  1 active torsions:
REMARK  status: ('A' for Active; 'I' for Inactive)
REMARK    1  A    between atoms: C3_4  and  O_7 
ROOT
ATOM      1  C   UNL d   1       3.775   1.910  -5.991  0.00  0.00    -0.033 A 
ATOM      2  C1  UNL d   1       4.447   3.134  -5.998  0.00  0.00     0.039 A 
ATOM      3  C2  UNL d   1       3.725   4.329  -6.000  0.00  0.00    -0.080 A 
ATOM      4  C3  UNL d   1       2.334   4.287  -5.994  0.00  0.00     0.150 A 
ATOM      5  C4  UNL d   1       1.658   3.071  -5.983  0.00  0.00    -0.007 A 
ATOM      6  C5  UNL d   1       2.381   1.879  -5.982  0.00  0.00     0.039 A 
ENDROOT
BRANCH   4   7
ATOM      7  O   UNL d   1       1.586   5.426  -6.000  0.00  0.00    -0.526 OA
ATOM      8  H5  UNL d   1       2.187   6.189  -6.036  0.00  0.00     0.418 HD
ENDBRANCH   4   7
TORSDOF 1
ENDMDL
