MODEL 1
REMARK minimizedAffinity -2.16731381
REMARK minimizedRMSD -1
REMARK  1 active torsions:
REMARK  status: ('A' for Active; 'I' for Inactive)
REMARK    1  A    between atoms: C3_4  and  O_7 
ROOT
ATOM      1  C   UNL d   1       1.914   4.024  -5.974  0.00  0.00    -0.033 A 
ATOM      2  C1  UNL d   1       2.046   5.414  -5.973  0.00  0.00     0.039 A 
ATOM      3  C2  UNL d   1       3.315   5.997  -5.983  0.00  0.00    -0.080 A 
ATOM      4  C3  UNL d   1       4.442   5.180  -5.995  0.00  0.00     0.150 A 
ATOM      5  C4  UNL d   1       4.318   3.794  -5.999  0.00  0.00    -0.007 A 
ATOM      6  C5  UNL d   1       3.050   3.214  -5.988  0.00  0.00     0.039 A 
ENDROOT
BRANCH   4   7
ATOM      7  O   UNL d   1       5.701   5.702  -6.000  0.00  0.00    -0.526 OA
ATOM      8  H5  UNL d   1       5.632   6.671  -5.967  0.00  0.00     0.418 HD
ENDBRANCH   4   7
TORSDOF 1
ENDMDL
