MODEL 1
REMARK minimizedAffinity -1.6538161
REMARK minimizedRMSD -1
REMARK  1 active torsions:
REMARK  status: ('A' for Active; 'I' for Inactive)
REMARK    1  A    between atoms: C3_4  and  O_7 
ROOT
ATOM      1  C   UNL d   1       0.930   2.687  -5.991  0.00  0.00    -0.033 A 
ATOM      2  C1  UNL d   1       1.853   1.641  -5.981  0.00  0.00     0.039 A 
ATOM      3  C2  UNL d   1       3.222   1.915  -5.982  0.00  0.00    -0.080 A 
ATOM      4  C3  UNL d   1       3.654   3.239  -5.993  0.00  0.00     0.150 A 
ATOM      5  C4  UNL d   1       2.739   4.286  -5.999  0.00  0.00    -0.007 A 
ATOM      6  C5  UNL d   1       1.373   4.010  -5.998  0.00  0.00     0.039 A 
ENDROOT
BRANCH   4   7
ATOM      7  O   UNL d   1       4.980   3.556  -5.999  0.00  0.00    -0.526 OA
ATOM      8  H5  UNL d   1       5.493   2.731  -6.023  0.00  0.00     0.418 HD
ENDBRANCH   4   7
TORSDOF 1
ENDMDL
