MODEL 1
REMARK minimizedAffinity 7.07465315
REMARK minimizedRMSD -1
REMARK  1 active torsions:
REMARK  status: ('A' for Active; 'I' for Inactive)
REMARK    1  A    between atoms: C3_4  and  O_7 
ROOT
ATOM      1  C   UNL d   1      -4.979   1.469   2.103  0.00  0.00    -0.033 A 
ATOM      2  C1  UNL d   1      -3.648   1.460   2.523  0.00  0.00     0.039 A 
ATOM      3  C2  UNL d   1      -3.325   1.820   3.833  0.00  0.00    -0.080 A 
ATOM      4  C3  UNL d   1      -4.342   2.183   4.712  0.00  0.00     0.150 A 
ATOM      5  C4  UNL d   1      -5.671   2.190   4.301  0.00  0.00    -0.007 A 
ATOM      6  C5  UNL d   1      -5.991   1.832   2.992  0.00  0.00     0.039 A 
ENDROOT
BRANCH   4   7
ATOM      7  O   UNL d   1      -4.075   2.546   5.999  0.00  0.00    -0.526 OA
ATOM      8  H5  UNL d   1      -3.113   2.522   6.132  0.00  0.00     0.418 HD
ENDBRANCH   4   7
TORSDOF 1
ENDMDL
