MODEL 1
REMARK minimizedAffinity 5.20114088
REMARK minimizedRMSD -1
REMARK  0 active torsions:
REMARK  status: ('A' for Active; 'I' for Inactive)
ROOT
ATOM      1  N1  IND d   1       1.975  -3.985   0.411  0.00  0.00    -0.196 N 
ATOM      2  C2  IND d   1       1.562  -2.782   0.914  0.00  0.00     0.054 A 
ATOM      3  C3  IND d   1       2.621  -1.963   1.103  0.00  0.00    -0.031 A 
ATOM      4  C4  IND d   1       5.108  -2.353   0.562  0.00  0.00     0.051 A 
ATOM      5  C5  IND d   1       5.977  -3.312   0.123  0.00  0.00    -0.031 A 
ATOM      6  C6  IND d   1       5.548  -4.568  -0.253  0.00  0.00     0.015 A 
ATOM      7  C7  IND d   1       4.226  -4.911  -0.214  0.00  0.00    -0.016 A 
ATOM      8  C8  IND d   1       3.341  -3.942   0.238  0.00  0.00    -0.047 A 
ATOM      9  C9  IND d   1       3.776  -2.679   0.661  0.00  0.00    -0.096 A 
ATOM     10  HN1 IND d   1       1.467  -4.655   0.233  0.00  0.00     0.298 HD
ENDROOT
TORSDOF 0
ENDMDL
