MODEL 1
REMARK minimizedAffinity -0.260466695
REMARK minimizedRMSD -1
REMARK  0 active torsions:
REMARK  status: ('A' for Active; 'I' for Inactive)
ROOT
ATOM      1  N1  IND d   1      -4.603  -1.631  -3.772  0.00  0.00    -0.196 N 
ATOM      2  C2  IND d   1      -5.834  -1.110  -4.061  0.00  0.00     0.054 A 
ATOM      3  C3  IND d   1      -5.712  -0.048  -4.889  0.00  0.00    -0.031 A 
ATOM      4  C4  IND d   1      -3.600   0.944  -5.977  0.00  0.00     0.051 A 
ATOM      5  C5  IND d   1      -2.238   0.830  -5.985  0.00  0.00    -0.031 A 
ATOM      6  C6  IND d   1      -1.582  -0.131  -5.244  0.00  0.00     0.015 A 
ATOM      7  C7  IND d   1      -2.267  -1.026  -4.471  0.00  0.00    -0.016 A 
ATOM      8  C8  IND d   1      -3.650  -0.908  -4.454  0.00  0.00    -0.047 A 
ATOM      9  C9  IND d   1      -4.318   0.092  -5.172  0.00  0.00    -0.096 A 
ATOM     10  HN1 IND d   1      -4.451  -2.298  -3.251  0.00  0.00     0.298 HD
ENDROOT
TORSDOF 0
ENDMDL
