MODEL 1
REMARK minimizedAffinity 15.7582655
REMARK minimizedRMSD -1
REMARK  0 active torsions:
REMARK  status: ('A' for Active; 'I' for Inactive)
ROOT
ATOM      1  N1  IND d   1       1.804   3.762  -5.847  0.00  0.00    -0.196 N 
ATOM      2  C2  IND d   1       1.124   4.946  -5.916  0.00  0.00     0.054 A 
ATOM      3  C3  IND d   1       1.989   5.985  -5.940  0.00  0.00    -0.031 A 
ATOM      4  C4  IND d   1       4.563   5.970  -5.975  0.00  0.00     0.051 A 
ATOM      5  C5  IND d   1       5.636   5.128  -5.889  0.00  0.00    -0.031 A 
ATOM      6  C6  IND d   1       5.484   3.761  -5.784  0.00  0.00     0.015 A 
ATOM      7  C7  IND d   1       4.248   3.180  -5.774  0.00  0.00    -0.016 A 
ATOM      8  C8  IND d   1       3.155   4.032  -5.855  0.00  0.00    -0.047 A 
ATOM      9  C9  IND d   1       3.302   5.424  -5.918  0.00  0.00    -0.096 A 
ATOM     10  HN1 IND d   1       1.448   2.981  -5.805  0.00  0.00     0.298 HD
ENDROOT
TORSDOF 0
ENDMDL
