MODEL 1
REMARK minimizedAffinity 11.7672644
REMARK minimizedRMSD -1
REMARK  0 active torsions:
REMARK  status: ('A' for Active; 'I' for Inactive)
ROOT
ATOM      1  N1  IND d   1       5.276   3.011  -5.389  0.00  0.00    -0.196 N 
ATOM      2  C2  IND d   1       4.704   1.882  -4.872  0.00  0.00     0.054 A 
ATOM      3  C3  IND d   1       3.386   2.083  -4.649  0.00  0.00    -0.031 A 
ATOM      4  C4  IND d   1       1.938   4.152  -5.154  0.00  0.00     0.051 A 
ATOM      5  C5  IND d   1       2.021   5.443  -5.594  0.00  0.00    -0.031 A 
ATOM      6  C6  IND d   1       3.217   6.000  -6.000  0.00  0.00     0.015 A 
ATOM      7  C7  IND d   1       4.378   5.279  -5.990  0.00  0.00    -0.016 A 
ATOM      8  C8  IND d   1       4.299   3.970  -5.537  0.00  0.00    -0.047 A 
ATOM      9  C9  IND d   1       3.096   3.413  -5.084  0.00  0.00    -0.096 A 
ATOM     10  HN1 IND d   1       6.107   3.106  -5.588  0.00  0.00     0.298 HD
ENDROOT
TORSDOF 0
ENDMDL
