MODEL 1
REMARK minimizedAffinity 7.39680529
REMARK minimizedRMSD -1
REMARK  0 active torsions:
REMARK  status: ('A' for Active; 'I' for Inactive)
ROOT
ATOM      1  N1  IND d   1       5.635   2.657  -5.781  0.00  0.00    -0.196 N 
ATOM      2  C2  IND d   1       4.933   1.580  -5.316  0.00  0.00     0.054 A 
ATOM      3  C3  IND d   1       3.708   1.965  -4.891  0.00  0.00    -0.031 A 
ATOM      4  C4  IND d   1       2.610   4.293  -4.959  0.00  0.00     0.051 A 
ATOM      5  C5  IND d   1       2.873   5.599  -5.262  0.00  0.00    -0.031 A 
ATOM      6  C6  IND d   1       4.093   5.999  -5.767  0.00  0.00     0.015 A 
ATOM      7  C7  IND d   1       5.097   5.102  -5.998  0.00  0.00    -0.016 A 
ATOM      8  C8  IND d   1       4.837   3.776  -5.685  0.00  0.00    -0.047 A 
ATOM      9  C9  IND d   1       3.615   3.370  -5.133  0.00  0.00    -0.096 A 
ATOM     10  HN1 IND d   1       6.440   2.639  -6.082  0.00  0.00     0.298 HD
ENDROOT
TORSDOF 0
ENDMDL
