MODEL 1
REMARK minimizedAffinity 6.57175159
REMARK minimizedRMSD -1
REMARK  0 active torsions:
REMARK  status: ('A' for Active; 'I' for Inactive)
ROOT
ATOM      1  N1  IND d   1       2.249   1.768   3.250  0.00  0.00    -0.196 N 
ATOM      2  C2  IND d   1       1.623   2.919   3.642  0.00  0.00     0.054 A 
ATOM      3  C3  IND d   1       0.296   2.707   3.787  0.00  0.00    -0.031 A 
ATOM      4  C4  IND d   1      -1.049   0.527   3.533  0.00  0.00     0.051 A 
ATOM      5  C5  IND d   1      -0.922  -0.780   3.154  0.00  0.00    -0.031 A 
ATOM      6  C6  IND d   1       0.294  -1.316   2.781  0.00  0.00     0.015 A 
ATOM      7  C7  IND d   1       1.435  -0.564   2.786  0.00  0.00    -0.016 A 
ATOM      8  C8  IND d   1       1.308   0.765   3.165  0.00  0.00    -0.047 A 
ATOM      9  C9  IND d   1       0.069   1.325   3.503  0.00  0.00    -0.096 A 
ATOM     10  HN1 IND d   1       3.088   1.685   3.085  0.00  0.00     0.298 HD
ENDROOT
TORSDOF 0
ENDMDL
