MODEL 1
REMARK minimizedAffinity 9.2669096
REMARK minimizedRMSD -1
REMARK  0 active torsions:
REMARK  status: ('A' for Active; 'I' for Inactive)
ROOT
ATOM      1  N1  IND d   1       4.284   5.998  -5.926  0.00  0.00    -0.196 N 
ATOM      2  C2  IND d   1       5.217   5.015  -5.747  0.00  0.00     0.054 A 
ATOM      3  C3  IND d   1       4.612   3.819  -5.570  0.00  0.00    -0.031 A 
ATOM      4  C4  IND d   1       2.107   3.227  -5.637  0.00  0.00     0.051 A 
ATOM      5  C5  IND d   1       0.868   3.796  -5.734  0.00  0.00    -0.031 A 
ATOM      6  C6  IND d   1       0.701   5.155  -5.906  0.00  0.00     0.015 A 
ATOM      7  C7  IND d   1       1.772   5.998  -6.000  0.00  0.00    -0.016 A 
ATOM      8  C8  IND d   1       3.032   5.425  -5.894  0.00  0.00    -0.047 A 
ATOM      9  C9  IND d   1       3.206   4.052  -5.677  0.00  0.00    -0.096 A 
ATOM     10  HN1 IND d   1       4.451   6.834  -6.039  0.00  0.00     0.298 HD
ENDROOT
TORSDOF 0
ENDMDL
