MODEL 1
REMARK minimizedAffinity 10.2837563
REMARK minimizedRMSD -1
REMARK  0 active torsions:
REMARK  status: ('A' for Active; 'I' for Inactive)
ROOT
ATOM      1  N1  IND d   1       4.099   3.843  -4.858  0.00  0.00    -0.196 N 
ATOM      2  C2  IND d   1       4.878   4.805  -5.437  0.00  0.00     0.054 A 
ATOM      3  C3  IND d   1       4.104   5.761  -5.999  0.00  0.00    -0.031 A 
ATOM      4  C4  IND d   1       1.541   6.000  -6.000  0.00  0.00     0.051 A 
ATOM      5  C5  IND d   1       0.399   5.349  -5.628  0.00  0.00    -0.031 A 
ATOM      6  C6  IND d   1       0.432   4.139  -4.965  0.00  0.00     0.015 A 
ATOM      7  C7  IND d   1       1.614   3.538  -4.637  0.00  0.00    -0.016 A 
ATOM      8  C8  IND d   1       2.776   4.194  -5.019  0.00  0.00    -0.047 A 
ATOM      9  C9  IND d   1       2.749   5.400  -5.730  0.00  0.00    -0.096 A 
ATOM     10  HN1 IND d   1       4.387   3.137  -4.460  0.00  0.00     0.298 HD
ENDROOT
TORSDOF 0
ENDMDL
