MODEL 1
REMARK minimizedAffinity 13.8195801
REMARK minimizedRMSD -1
REMARK  0 active torsions:
REMARK  status: ('A' for Active; 'I' for Inactive)
ROOT
ATOM      1  N1  IND d   1       5.954  -3.888   2.077  0.00  0.00    -0.196 N 
ATOM      2  C2  IND d   1       5.605  -5.015   1.387  0.00  0.00     0.054 A 
ATOM      3  C3  IND d   1       5.218  -5.989   2.242  0.00  0.00    -0.031 A 
ATOM      4  C4  IND d   1       4.984  -5.917   4.805  0.00  0.00     0.051 A 
ATOM      5  C5  IND d   1       5.221  -5.115   5.886  0.00  0.00    -0.031 A 
ATOM      6  C6  IND d   1       5.723  -3.837   5.750  0.00  0.00     0.015 A 
ATOM      7  C7  IND d   1       5.996  -3.306   4.521  0.00  0.00    -0.016 A 
ATOM      8  C8  IND d   1       5.763  -4.120   3.421  0.00  0.00    -0.047 A 
ATOM      9  C9  IND d   1       5.294  -5.433   3.556  0.00  0.00    -0.096 A 
ATOM     10  HN1 IND d   1       6.245  -3.157   1.729  0.00  0.00     0.298 HD
ENDROOT
TORSDOF 0
ENDMDL
