MODEL 1
REMARK minimizedAffinity 12.1210308
REMARK minimizedRMSD -1
REMARK  0 active torsions:
REMARK  status: ('A' for Active; 'I' for Inactive)
ROOT
ATOM      1  N1  IND d   1      -1.445   2.560  -2.016  0.00  0.00    -0.196 N 
ATOM      2  C2  IND d   1      -1.327   3.557  -2.944  0.00  0.00     0.054 A 
ATOM      3  C3  IND d   1      -2.227   3.382  -3.938  0.00  0.00    -0.031 A 
ATOM      4  C4  IND d   1      -4.057   1.589  -4.191  0.00  0.00     0.051 A 
ATOM      5  C5  IND d   1      -4.532   0.445  -3.613  0.00  0.00    -0.031 A 
ATOM      6  C6  IND d   1      -3.992  -0.061  -2.449  0.00  0.00     0.015 A 
ATOM      7  C7  IND d   1      -2.961   0.567  -1.809  0.00  0.00    -0.016 A 
ATOM      8  C8  IND d   1      -2.472   1.725  -2.397  0.00  0.00    -0.047 A 
ATOM      9  C9  IND d   1      -2.988   2.221  -3.601  0.00  0.00    -0.096 A 
ATOM     10  HN1 IND d   1      -0.959   2.471  -1.312  0.00  0.00     0.298 HD
ENDROOT
TORSDOF 0
ENDMDL
