MODEL 1
REMARK minimizedAffinity 8.01842117
REMARK minimizedRMSD -1
REMARK  0 active torsions:
REMARK  status: ('A' for Active; 'I' for Inactive)
ROOT
ATOM      1  N1  IND d   1      -2.761   2.990  -2.923  0.00  0.00    -0.196 N 
ATOM      2  C2  IND d   1      -2.451   1.783  -2.360  0.00  0.00     0.054 A 
ATOM      3  C3  IND d   1      -3.331   0.838  -2.759  0.00  0.00    -0.031 A 
ATOM      4  C4  IND d   1      -5.296   1.027  -4.412  0.00  0.00     0.051 A 
ATOM      5  C5  IND d   1      -5.995   1.937  -5.155  0.00  0.00    -0.031 A 
ATOM      6  C6  IND d   1      -5.642   3.270  -5.196  0.00  0.00     0.015 A 
ATOM      7  C7  IND d   1      -4.566   3.744  -4.499  0.00  0.00    -0.016 A 
ATOM      8  C8  IND d   1      -3.859   2.825  -3.738  0.00  0.00    -0.047 A 
ATOM      9  C9  IND d   1      -4.237   1.478  -3.660  0.00  0.00    -0.096 A 
ATOM     10  HN1 IND d   1      -2.341   3.729  -2.790  0.00  0.00     0.298 HD
ENDROOT
TORSDOF 0
ENDMDL
