MODEL 1
REMARK minimizedAffinity -3.66435742
REMARK minimizedRMSD -1
REMARK  0 active torsions:
REMARK  status: ('A' for Active; 'I' for Inactive)
ROOT
ATOM      1  C1  BNZ d   1       0.837  -1.382  -0.893  0.00  0.00     0.000 A 
ATOM      2  C2  BNZ d   1       0.645  -0.642  -2.029  0.00  0.00     0.000 A 
ATOM      3  C3  BNZ d   1       1.166   0.617  -2.140  0.00  0.00     0.000 A 
ATOM      4  C4  BNZ d   1       1.841   1.149  -1.102  0.00  0.00     0.000 A 
ATOM      5  C5  BNZ d   1       2.035   0.419   0.054  0.00  0.00     0.000 A 
ATOM      6  C6  BNZ d   1       1.544  -0.863   0.147  0.00  0.00     0.000 A 
ENDROOT
TORSDOF 0
ENDMDL
