MODEL 1
REMARK minimizedAffinity -4.91378593
REMARK minimizedRMSD -1
REMARK  0 active torsions:
REMARK  status: ('A' for Active; 'I' for Inactive)
ROOT
ATOM      1  C1  BNZ d   1       0.752   0.451  -2.002  0.00  0.00     0.000 A 
ATOM      2  C2  BNZ d   1       1.034   0.296  -0.671  0.00  0.00     0.000 A 
ATOM      3  C3  BNZ d   1       1.440   1.358   0.087  0.00  0.00     0.000 A 
ATOM      4  C4  BNZ d   1       1.602   2.564  -0.494  0.00  0.00     0.000 A 
ATOM      5  C5  BNZ d   1       1.331   2.735  -1.837  0.00  0.00     0.000 A 
ATOM      6  C6  BNZ d   1       0.885   1.672  -2.589  0.00  0.00     0.000 A 
ENDROOT
TORSDOF 0
ENDMDL
