MODEL 1
REMARK minimizedAffinity -2.43057942
REMARK minimizedRMSD -1
REMARK  0 active torsions:
REMARK  status: ('A' for Active; 'I' for Inactive)
ROOT
ATOM      1  C1  BNZ d   1       0.473  -1.576  -1.736  0.00  0.00     0.000 A 
ATOM      2  C2  BNZ d   1       1.445  -1.298  -0.812  0.00  0.00     0.000 A 
ATOM      3  C3  BNZ d   1       1.872  -2.257   0.064  0.00  0.00     0.000 A 
ATOM      4  C4  BNZ d   1       1.300  -3.478   0.041  0.00  0.00     0.000 A 
ATOM      5  C5  BNZ d   1       0.312  -3.770  -0.878  0.00  0.00     0.000 A 
ATOM      6  C6  BNZ d   1      -0.088  -2.815  -1.783  0.00  0.00     0.000 A 
ENDROOT
TORSDOF 0
ENDMDL
