MODEL 1
REMARK minimizedAffinity -2.39613628
REMARK minimizedRMSD -1
REMARK  0 active torsions:
REMARK  status: ('A' for Active; 'I' for Inactive)
ROOT
ATOM      1  C1  BNZ d   1       1.155   0.120  -1.724  0.00  0.00     0.000 A 
ATOM      2  C2  BNZ d   1       1.132  -0.113  -0.375  0.00  0.00     0.000 A 
ATOM      3  C3  BNZ d   1       1.361   0.900   0.514  0.00  0.00     0.000 A 
ATOM      4  C4  BNZ d   1       1.651   2.134   0.053  0.00  0.00     0.000 A 
ATOM      5  C5  BNZ d   1       1.686   2.383  -1.305  0.00  0.00     0.000 A 
ATOM      6  C6  BNZ d   1       1.417   1.369  -2.196  0.00  0.00     0.000 A 
ENDROOT
TORSDOF 0
ENDMDL
