MODEL 1
REMARK minimizedAffinity 0.18631041
REMARK minimizedRMSD -1
REMARK  0 active torsions:
REMARK  status: ('A' for Active; 'I' for Inactive)
ROOT
ATOM      1  C1  BNZ d   1       1.601   1.898  -1.371  0.00  0.00     0.000 A 
ATOM      2  C2  BNZ d   1       1.162   1.026  -2.332  0.00  0.00     0.000 A 
ATOM      3  C3  BNZ d   1       0.814  -0.255  -2.008  0.00  0.00     0.000 A 
ATOM      4  C4  BNZ d   1       0.944  -0.675  -0.733  0.00  0.00     0.000 A 
ATOM      5  C5  BNZ d   1       1.394   0.188   0.246  0.00  0.00     0.000 A 
ATOM      6  C6  BNZ d   1       1.706   1.489  -0.077  0.00  0.00     0.000 A 
ENDROOT
TORSDOF 0
ENDMDL
