MODEL 1
REMARK minimizedAffinity 2.63920331
REMARK minimizedRMSD -1
REMARK  0 active torsions:
REMARK  status: ('A' for Active; 'I' for Inactive)
ROOT
ATOM      1  C1  BNZ d   1       1.766   0.244  -0.079  0.00  0.00     0.000 A 
ATOM      2  C2  BNZ d   1       0.506  -0.082  -0.504  0.00  0.00     0.000 A 
ATOM      3  C3  BNZ d   1      -0.047   0.533  -1.592  0.00  0.00     0.000 A 
ATOM      4  C4  BNZ d   1       0.644   1.501  -2.228  0.00  0.00     0.000 A 
ATOM      5  C5  BNZ d   1       1.912   1.847  -1.806  0.00  0.00     0.000 A 
ATOM      6  C6  BNZ d   1       2.481   1.198  -0.734  0.00  0.00     0.000 A 
ENDROOT
TORSDOF 0
ENDMDL
