MODEL 1
REMARK minimizedAffinity -3.55629253
REMARK minimizedRMSD -1
REMARK  0 active torsions:
REMARK  status: ('A' for Active; 'I' for Inactive)
ROOT
ATOM      1  C1  BNZ d   1       0.890   1.091   0.858  0.00  0.00     0.000 A 
ATOM      2  C2  BNZ d   1       1.250   2.318   0.367  0.00  0.00     0.000 A 
ATOM      3  C3  BNZ d   1       1.558   2.479  -0.955  0.00  0.00     0.000 A 
ATOM      4  C4  BNZ d   1       1.544   1.408  -1.775  0.00  0.00     0.000 A 
ATOM      5  C5  BNZ d   1       1.192   0.163  -1.292  0.00  0.00     0.000 A 
ATOM      6  C6  BNZ d   1       0.845   0.012   0.031  0.00  0.00     0.000 A 
ENDROOT
TORSDOF 0
ENDMDL
