MODEL 1
REMARK minimizedAffinity 3.05745244
REMARK minimizedRMSD -1
REMARK  0 active torsions:
REMARK  status: ('A' for Active; 'I' for Inactive)
ROOT
ATOM      1  C1  BNZ d   1      -3.825   2.294   1.772  0.00  0.00     0.000 A 
ATOM      2  C2  BNZ d   1      -3.704   1.566   2.926  0.00  0.00     0.000 A 
ATOM      3  C3  BNZ d   1      -2.737   1.866   3.844  0.00  0.00     0.000 A 
ATOM      4  C4  BNZ d   1      -1.868   2.866   3.590  0.00  0.00     0.000 A 
ATOM      5  C5  BNZ d   1      -1.972   3.603   2.428  0.00  0.00     0.000 A 
ATOM      6  C6  BNZ d   1      -2.971   3.323   1.523  0.00  0.00     0.000 A 
ENDROOT
TORSDOF 0
ENDMDL
