MODEL 1
REMARK minimizedAffinity 5.53750563
REMARK minimizedRMSD -1
REMARK  0 active torsions:
REMARK  status: ('A' for Active; 'I' for Inactive)
ROOT
ATOM      1  C1  BNZ d   1       0.201   2.436  -2.758  0.00  0.00     0.000 A 
ATOM      2  C2  BNZ d   1      -0.013   1.474  -1.807  0.00  0.00     0.000 A 
ATOM      3  C3  BNZ d   1       0.763   1.417  -0.683  0.00  0.00     0.000 A 
ATOM      4  C4  BNZ d   1       1.775   2.295  -0.530  0.00  0.00     0.000 A 
ATOM      5  C5  BNZ d   1       2.009   3.265  -1.484  0.00  0.00     0.000 A 
ATOM      6  C6  BNZ d   1       1.202   3.344  -2.596  0.00  0.00     0.000 A 
ENDROOT
TORSDOF 0
ENDMDL
