MODEL 1
REMARK minimizedAffinity -2.2230463
REMARK minimizedRMSD -1
REMARK  0 active torsions:
REMARK  status: ('A' for Active; 'I' for Inactive)
ROOT
ATOM      1  C1  BNZ d   1       1.928   1.960  -2.334  0.00  0.00     0.000 A 
ATOM      2  C2  BNZ d   1       1.780   0.664  -1.920  0.00  0.00     0.000 A 
ATOM      3  C3  BNZ d   1       1.527   0.372  -0.609  0.00  0.00     0.000 A 
ATOM      4  C4  BNZ d   1       1.463   1.374   0.292  0.00  0.00     0.000 A 
ATOM      5  C5  BNZ d   1       1.620   2.686  -0.108  0.00  0.00     0.000 A 
ATOM      6  C6  BNZ d   1       1.835   2.978  -1.435  0.00  0.00     0.000 A 
ENDROOT
TORSDOF 0
ENDMDL
