MODEL 1
REMARK minimizedAffinity 1.68300903
REMARK minimizedRMSD -1
REMARK  0 active torsions:
REMARK  status: ('A' for Active; 'I' for Inactive)
ROOT
ATOM      1  C1  BNZ d   1       1.282  -0.551  -0.163  0.00  0.00     0.000 A 
ATOM      2  C2  BNZ d   1       0.659   0.018  -1.241  0.00  0.00     0.000 A 
ATOM      3  C3  BNZ d   1       0.380   1.356  -1.263  0.00  0.00     0.000 A 
ATOM      4  C4  BNZ d   1       0.688   2.115  -0.191  0.00  0.00     0.000 A 
ATOM      5  C5  BNZ d   1       1.308   1.554   0.907  0.00  0.00     0.000 A 
ATOM      6  C6  BNZ d   1       1.622   0.214   0.910  0.00  0.00     0.000 A 
ENDROOT
TORSDOF 0
ENDMDL
