MODEL 1
REMARK minimizedAffinity -0.873566628
REMARK minimizedRMSD -1
REMARK  0 active torsions:
REMARK  status: ('A' for Active; 'I' for Inactive)
ROOT
ATOM      1  C1  BNZ d   1       0.562   1.121  -0.830  0.00  0.00     0.000 A 
ATOM      2  C2  BNZ d   1       0.233   0.140  -1.726  0.00  0.00     0.000 A 
ATOM      3  C3  BNZ d   1       0.434  -1.178  -1.426  0.00  0.00     0.000 A 
ATOM      4  C4  BNZ d   1       1.000  -1.511  -0.249  0.00  0.00     0.000 A 
ATOM      5  C5  BNZ d   1       1.347  -0.533   0.662  0.00  0.00     0.000 A 
ATOM      6  C6  BNZ d   1       1.107   0.791   0.372  0.00  0.00     0.000 A 
ENDROOT
TORSDOF 0
ENDMDL
