MODEL 1
REMARK minimizedAffinity 0.501308978
REMARK minimizedRMSD -1
REMARK  0 active torsions:
REMARK  status: ('A' for Active; 'I' for Inactive)
ROOT
ATOM      1  C1  BNZ d   1       0.893   1.810  -0.838  0.00  0.00     0.000 A 
ATOM      2  C2  BNZ d   1       0.489   1.039  -1.895  0.00  0.00     0.000 A 
ATOM      3  C3  BNZ d   1       0.602  -0.323  -1.852  0.00  0.00     0.000 A 
ATOM      4  C4  BNZ d   1       1.154  -0.908  -0.771  0.00  0.00     0.000 A 
ATOM      5  C5  BNZ d   1       1.575  -0.144   0.300  0.00  0.00     0.000 A 
ATOM      6  C6  BNZ d   1       1.424   1.223   0.269  0.00  0.00     0.000 A 
ENDROOT
TORSDOF 0
ENDMDL
