MODEL 1
REMARK minimizedAffinity 0.633170724
REMARK minimizedRMSD -1
REMARK  0 active torsions:
REMARK  status: ('A' for Active; 'I' for Inactive)
ROOT
ATOM      1  C1  BNZ d   1       1.012  -0.515  -0.536  0.00  0.00     0.000 A 
ATOM      2  C2  BNZ d   1       1.385  -0.104   0.716  0.00  0.00     0.000 A 
ATOM      3  C3  BNZ d   1       1.701   1.203   0.959  0.00  0.00     0.000 A 
ATOM      4  C4  BNZ d   1       1.681   2.090  -0.058  0.00  0.00     0.000 A 
ATOM      5  C5  BNZ d   1       1.316   1.689  -1.327  0.00  0.00     0.000 A 
ATOM      6  C6  BNZ d   1       0.961   0.380  -1.560  0.00  0.00     0.000 A 
ENDROOT
TORSDOF 0
ENDMDL
