MODEL 1
REMARK minimizedAffinity -5.40835094
REMARK minimizedRMSD -1
REMARK  0 active torsions:
REMARK  status: ('A' for Active; 'I' for Inactive)
ROOT
ATOM      1  C   UNL d   1      -0.199  -3.044   0.762  0.00  0.00     0.020 A 
ATOM      2  C1  UNL d   1      -0.292  -1.815   1.414  0.00  0.00     0.020 A 
ATOM      3  C2  UNL d   1      -0.192  -0.628   0.685  0.00  0.00     0.034 A 
ATOM      4  C3  UNL d   1       0.001  -0.668  -0.701  0.00  0.00     0.017 A 
ATOM      5  C4  UNL d   1       0.094  -1.902  -1.355  0.00  0.00     0.017 A 
ATOM      6  C5  UNL d   1      -0.007  -3.087  -0.620  0.00  0.00     0.034 A 
ATOM      7 Cl   UNL d   1       0.332  -2.030  -3.062  0.00  0.00    -0.070 Cl
ATOM      8 Cl1  UNL d   1       0.115   0.839  -1.539  0.00  0.00    -0.070 Cl
ENDROOT
TORSDOF 0
ENDMDL
