MODEL 1
REMARK minimizedAffinity -4.40952778
REMARK minimizedRMSD -1
REMARK  0 active torsions:
REMARK  status: ('A' for Active; 'I' for Inactive)
ROOT
ATOM      1  C   UNL d   1       0.079  -3.588   0.272  0.00  0.00     0.020 A 
ATOM      2  C1  UNL d   1      -0.022  -3.817  -1.099  0.00  0.00     0.020 A 
ATOM      3  C2  UNL d   1       0.004  -2.742  -1.990  0.00  0.00     0.034 A 
ATOM      4  C3  UNL d   1       0.131  -1.433  -1.510  0.00  0.00     0.017 A 
ATOM      5  C4  UNL d   1       0.232  -1.205  -0.133  0.00  0.00     0.017 A 
ATOM      6  C5  UNL d   1       0.205  -2.285   0.755  0.00  0.00     0.034 A 
ATOM      7 Cl   UNL d   1       0.390   0.382   0.535  0.00  0.00    -0.070 Cl
ATOM      8 Cl1  UNL d   1       0.156  -0.151  -2.668  0.00  0.00    -0.070 Cl
ENDROOT
TORSDOF 0
ENDMDL
