MODEL 1
REMARK minimizedAffinity -4.93401337
REMARK minimizedRMSD -1
REMARK  0 active torsions:
REMARK  status: ('A' for Active; 'I' for Inactive)
ROOT
ATOM      1  C   UNL d   1      -0.469  -3.262  -0.778  0.00  0.00     0.020 A 
ATOM      2  C1  UNL d   1       0.116  -2.589  -1.850  0.00  0.00     0.020 A 
ATOM      3  C2  UNL d   1       0.399  -1.226  -1.748  0.00  0.00     0.034 A 
ATOM      4  C3  UNL d   1       0.097  -0.530  -0.572  0.00  0.00     0.017 A 
ATOM      5  C4  UNL d   1      -0.491  -1.206   0.504  0.00  0.00     0.017 A 
ATOM      6  C5  UNL d   1      -0.772  -2.572   0.397  0.00  0.00     0.034 A 
ATOM      7 Cl   UNL d   1      -0.893  -0.415   1.987  0.00  0.00    -0.070 Cl
ATOM      8 Cl1  UNL d   1       0.474   1.155  -0.515  0.00  0.00    -0.070 Cl
ENDROOT
TORSDOF 0
ENDMDL
