MODEL 1
REMARK minimizedAffinity -3.42962337
REMARK minimizedRMSD -1
REMARK  0 active torsions:
REMARK  status: ('A' for Active; 'I' for Inactive)
ROOT
ATOM      1  C   UNL d   1       0.280   1.250   0.504  0.00  0.00     0.020 A 
ATOM      2  C1  UNL d   1      -0.157   0.561   1.635  0.00  0.00     0.020 A 
ATOM      3  C2  UNL d   1      -0.274  -0.830   1.604  0.00  0.00     0.034 A 
ATOM      4  C3  UNL d   1       0.047  -1.537   0.440  0.00  0.00     0.017 A 
ATOM      5  C4  UNL d   1       0.486  -0.845  -0.695  0.00  0.00     0.017 A 
ATOM      6  C5  UNL d   1       0.601   0.548  -0.658  0.00  0.00     0.034 A 
ATOM      7 Cl   UNL d   1       0.900  -1.649  -2.168  0.00  0.00    -0.070 Cl
ATOM      8 Cl1  UNL d   1      -0.120  -3.257   0.473  0.00  0.00    -0.070 Cl
ENDROOT
TORSDOF 0
ENDMDL
