MODEL 1
REMARK minimizedAffinity -4.15940905
REMARK minimizedRMSD -1
REMARK  0 active torsions:
REMARK  status: ('A' for Active; 'I' for Inactive)
ROOT
ATOM      1  C   UNL d   1      -0.992  -1.381   1.737  0.00  0.00     0.020 A 
ATOM      2  C1  UNL d   1      -0.923  -2.396   0.785  0.00  0.00     0.020 A 
ATOM      3  C2  UNL d   1      -0.472  -2.113  -0.506  0.00  0.00     0.034 A 
ATOM      4  C3  UNL d   1      -0.089  -0.811  -0.848  0.00  0.00     0.017 A 
ATOM      5  C4  UNL d   1      -0.158   0.208   0.109  0.00  0.00     0.017 A 
ATOM      6  C5  UNL d   1      -0.610  -0.082   1.400  0.00  0.00     0.034 A 
ATOM      7 Cl   UNL d   1       0.298   1.838  -0.238  0.00  0.00    -0.070 Cl
ATOM      8 Cl1  UNL d   1       0.459  -0.533  -2.463  0.00  0.00    -0.070 Cl
ENDROOT
TORSDOF 0
ENDMDL
