MODEL 1
REMARK minimizedAffinity -4.58210611
REMARK minimizedRMSD -1
REMARK  0 active torsions:
REMARK  status: ('A' for Active; 'I' for Inactive)
ROOT
ATOM      1  C   UNL d   1      -0.405  -2.452   1.025  0.00  0.00     0.020 A 
ATOM      2  C1  UNL d   1      -0.738  -1.310   1.754  0.00  0.00     0.020 A 
ATOM      3  C2  UNL d   1      -0.445  -0.045   1.241  0.00  0.00     0.034 A 
ATOM      4  C3  UNL d   1       0.182   0.082  -0.004  0.00  0.00     0.017 A 
ATOM      5  C4  UNL d   1       0.515  -1.064  -0.735  0.00  0.00     0.017 A 
ATOM      6  C5  UNL d   1       0.219  -2.329  -0.216  0.00  0.00     0.034 A 
ATOM      7 Cl   UNL d   1       1.289  -0.987  -2.278  0.00  0.00    -0.070 Cl
ATOM      8 Cl1  UNL d   1       0.513   1.678  -0.577  0.00  0.00    -0.070 Cl
ENDROOT
TORSDOF 0
ENDMDL
