MODEL 1
REMARK minimizedAffinity -4.98058176
REMARK minimizedRMSD -1
REMARK  0 active torsions:
REMARK  status: ('A' for Active; 'I' for Inactive)
ROOT
ATOM      1  C   UNL d   1      -0.314  -0.233   1.982  0.00  0.00     0.020 A 
ATOM      2  C1  UNL d   1       0.035   0.720   1.026  0.00  0.00     0.020 A 
ATOM      3  C2  UNL d   1       0.344   0.321  -0.277  0.00  0.00     0.034 A 
ATOM      4  C3  UNL d   1       0.304  -1.034  -0.626  0.00  0.00     0.017 A 
ATOM      5  C4  UNL d   1      -0.046  -1.989   0.335  0.00  0.00     0.017 A 
ATOM      6  C5  UNL d   1      -0.354  -1.584   1.638  0.00  0.00     0.034 A 
ATOM      7 Cl   UNL d   1      -0.117  -3.679  -0.020  0.00  0.00    -0.070 Cl
ATOM      8 Cl1  UNL d   1       0.697  -1.456  -2.255  0.00  0.00    -0.070 Cl
ENDROOT
TORSDOF 0
ENDMDL
