MODEL 1
REMARK minimizedAffinity 2.49527216
REMARK minimizedRMSD -1
REMARK  0 active torsions:
REMARK  status: ('A' for Active; 'I' for Inactive)
ROOT
ATOM      1  C   UNL d   1      -0.603  -0.831   2.024  0.00  0.00     0.020 A 
ATOM      2  C1  UNL d   1      -1.117  -1.622   0.998  0.00  0.00     0.020 A 
ATOM      3  C2  UNL d   1      -1.004  -1.204  -0.330  0.00  0.00     0.034 A 
ATOM      4  C3  UNL d   1      -0.377   0.010  -0.635  0.00  0.00     0.017 A 
ATOM      5  C4  UNL d   1       0.139   0.804   0.396  0.00  0.00     0.017 A 
ATOM      6  C5  UNL d   1       0.023   0.380   1.724  0.00  0.00     0.034 A 
ATOM      7 Cl   UNL d   1       0.926   2.313   0.099  0.00  0.00    -0.070 Cl
ATOM      8 Cl1  UNL d   1      -0.272   0.465  -2.298  0.00  0.00    -0.070 Cl
ENDROOT
TORSDOF 0
ENDMDL
