MODEL 1
REMARK minimizedAffinity -5.85369921
REMARK minimizedRMSD -1
REMARK  0 active torsions:
REMARK  status: ('A' for Active; 'I' for Inactive)
ROOT
ATOM      1  C   UNL d   1       0.024  -2.786  -1.943  0.00  0.00     0.020 A 
ATOM      2  C1  UNL d   1      -0.361  -3.420  -0.762  0.00  0.00     0.020 A 
ATOM      3  C2  UNL d   1      -0.554  -2.671   0.400  0.00  0.00     0.034 A 
ATOM      4  C3  UNL d   1      -0.362  -1.284   0.385  0.00  0.00     0.017 A 
ATOM      5  C4  UNL d   1       0.024  -0.650  -0.801  0.00  0.00     0.017 A 
ATOM      6  C5  UNL d   1       0.216  -1.404  -1.963  0.00  0.00     0.034 A 
ATOM      7 Cl   UNL d   1       0.280   1.057  -0.898  0.00  0.00    -0.070 Cl
ATOM      8 Cl1  UNL d   1      -0.619  -0.421   1.859  0.00  0.00    -0.070 Cl
ENDROOT
TORSDOF 0
ENDMDL
