MODEL 1
REMARK minimizedAffinity -4.58989
REMARK minimizedRMSD -1
REMARK  0 active torsions:
REMARK  status: ('A' for Active; 'I' for Inactive)
ROOT
ATOM      1  C   UNL d   1      -0.283  -1.581   2.220  0.00  0.00     0.020 A 
ATOM      2  C1  UNL d   1      -1.351  -1.615   1.324  0.00  0.00     0.020 A 
ATOM      3  C2  UNL d   1      -1.426  -0.678   0.292  0.00  0.00     0.034 A 
ATOM      4  C3  UNL d   1      -0.432   0.297   0.152  0.00  0.00     0.017 A 
ATOM      5  C4  UNL d   1       0.639   0.331   1.052  0.00  0.00     0.017 A 
ATOM      6  C5  UNL d   1       0.710  -0.610   2.084  0.00  0.00     0.034 A 
ATOM      7 Cl   UNL d   1       1.904   1.504   0.944  0.00  0.00    -0.070 Cl
ATOM      8 Cl1  UNL d   1      -0.589   1.424  -1.148  0.00  0.00    -0.070 Cl
ENDROOT
TORSDOF 0
ENDMDL
