MODEL 1
REMARK minimizedAffinity -4.25049353
REMARK minimizedRMSD -1
REMARK  0 active torsions:
REMARK  status: ('A' for Active; 'I' for Inactive)
ROOT
ATOM      1  C   UNL d   1      -0.482  -1.955   1.673  0.00  0.00     0.020 A 
ATOM      2  C1  UNL d   1      -0.459  -2.934   0.681  0.00  0.00     0.020 A 
ATOM      3  C2  UNL d   1      -0.052  -2.606  -0.614  0.00  0.00     0.034 A 
ATOM      4  C3  UNL d   1       0.334  -1.296  -0.920  0.00  0.00     0.017 A 
ATOM      5  C4  UNL d   1       0.311  -0.314   0.077  0.00  0.00     0.017 A 
ATOM      6  C5  UNL d   1      -0.097  -0.648   1.372  0.00  0.00     0.034 A 
ATOM      7 Cl   UNL d   1       0.774   1.324  -0.224  0.00  0.00    -0.070 Cl
ATOM      8 Cl1  UNL d   1       0.827  -0.961  -2.542  0.00  0.00    -0.070 Cl
ENDROOT
TORSDOF 0
ENDMDL
