MODEL 1
REMARK minimizedAffinity -3.65623236
REMARK minimizedRMSD -1
REMARK  0 active torsions:
REMARK  status: ('A' for Active; 'I' for Inactive)
ROOT
ATOM      1  C   UNL d   1      -0.835  -2.293   1.150  0.00  0.00     0.020 A 
ATOM      2  C1  UNL d   1      -0.836  -1.193   2.007  0.00  0.00     0.020 A 
ATOM      3  C2  UNL d   1      -0.428   0.058   1.538  0.00  0.00     0.034 A 
ATOM      4  C3  UNL d   1      -0.018   0.212   0.209  0.00  0.00     0.017 A 
ATOM      5  C4  UNL d   1      -0.017  -0.892  -0.650  0.00  0.00     0.017 A 
ATOM      6  C5  UNL d   1      -0.426  -2.142  -0.176  0.00  0.00     0.034 A 
ATOM      7 Cl   UNL d   1       0.476  -0.780  -2.303  0.00  0.00    -0.070 Cl
ATOM      8 Cl1  UNL d   1       0.473   1.788  -0.302  0.00  0.00    -0.070 Cl
ENDROOT
TORSDOF 0
ENDMDL
