MODEL 1
REMARK minimizedAffinity -3.9034915
REMARK minimizedRMSD -1
REMARK  0 active torsions:
REMARK  status: ('A' for Active; 'I' for Inactive)
ROOT
ATOM      1  C   UNL d   1       0.514  -0.232  -1.750  0.00  0.00     0.020 A 
ATOM      2  C1  UNL d   1       0.277   0.970  -1.084  0.00  0.00     0.020 A 
ATOM      3  C2  UNL d   1      -0.145   0.958   0.247  0.00  0.00     0.034 A 
ATOM      4  C3  UNL d   1      -0.332  -0.257   0.916  0.00  0.00     0.017 A 
ATOM      5  C4  UNL d   1      -0.094  -1.462   0.247  0.00  0.00     0.017 A 
ATOM      6  C5  UNL d   1       0.329  -1.445  -1.086  0.00  0.00     0.034 A 
ATOM      7 Cl   UNL d   1      -0.302  -3.001   1.005  0.00  0.00    -0.070 Cl
ATOM      8 Cl1  UNL d   1      -0.855  -0.196   2.562  0.00  0.00    -0.070 Cl
ENDROOT
TORSDOF 0
ENDMDL
