MODEL 1
REMARK minimizedAffinity 1.15755188
REMARK minimizedRMSD -1
REMARK  2 active torsions:
REMARK  status: ('A' for Active; 'I' for Inactive)
REMARK    1  A    between atoms: C1_2  and  C2_3 
REMARK    2  A    between atoms: C2_3  and  C3_4 
ROOT
ATOM      1  C3  UNL d   1       1.443  -1.133   0.944  0.00  0.00    -0.075 A 
ATOM      2  C4  UNL d   1       2.069  -0.783   2.149  0.00  0.00     0.002 A 
ATOM      3  C5  UNL d   1       1.368  -0.839   3.354  0.00  0.00     0.002 A 
ATOM      4  C6  UNL d   1       0.033  -1.236   3.368  0.00  0.00    -0.004 A 
ATOM      5  C7  UNL d   1      -0.604  -1.570   2.175  0.00  0.00     0.002 A 
ATOM      6  C8  UNL d   1       0.096  -1.519   0.968  0.00  0.00     0.002 A 
ENDROOT
BRANCH   1   7
ATOM      7  C2  UNL d   1       2.205  -1.103  -0.360  0.00  0.00     0.056 C 
BRANCH   7   8
ATOM      8  C1  UNL d   1       1.313  -1.000  -1.601  0.00  0.00     0.007 C 
ATOM      9  C   UNL d   1       1.127   0.429  -2.091  0.00  0.00     0.009 C 
ENDBRANCH   7   8
ENDBRANCH   1   7
TORSDOF 2
ENDMDL
