MODEL 1
REMARK minimizedAffinity 7.04506159
REMARK minimizedRMSD -1
REMARK  2 active torsions:
REMARK  status: ('A' for Active; 'I' for Inactive)
REMARK    1  A    between atoms: C1_2  and  C2_3 
REMARK    2  A    between atoms: C2_3  and  C3_4 
ROOT
ATOM      1  C3  UNL d   1       3.780  -1.069  -0.012  0.00  0.00    -0.075 A 
ATOM      2  C4  UNL d   1       4.912  -1.760   0.441  0.00  0.00     0.002 A 
ATOM      3  C5  UNL d   1       5.997  -1.067   0.979  0.00  0.00     0.002 A 
ATOM      4  C6  UNL d   1       5.968   0.323   1.060  0.00  0.00    -0.004 A 
ATOM      5  C7  UNL d   1       4.855   1.021   0.598  0.00  0.00     0.002 A 
ATOM      6  C8  UNL d   1       3.766   0.330   0.064  0.00  0.00     0.002 A 
ENDROOT
BRANCH   1   7
ATOM      7  C2  UNL d   1       2.590  -1.815  -0.567  0.00  0.00     0.056 C 
BRANCH   7   8
ATOM      8  C1  UNL d   1       1.764  -1.010  -1.576  0.00  0.00     0.007 C 
ATOM      9  C   UNL d   1       2.493  -0.765  -2.890  0.00  0.00     0.009 C 
ENDBRANCH   7   8
ENDBRANCH   1   7
TORSDOF 2
ENDMDL
