MODEL 1
REMARK minimizedAffinity 5.3330574
REMARK minimizedRMSD -1
REMARK  2 active torsions:
REMARK  status: ('A' for Active; 'I' for Inactive)
REMARK    1  A    between atoms: C1_2  and  C2_3 
REMARK    2  A    between atoms: C2_3  and  C3_4 
ROOT
ATOM      1  C3  UNL d   1      -5.002   0.642  -4.887  0.00  0.00    -0.075 A 
ATOM      2  C4  UNL d   1      -3.900   1.087  -5.632  0.00  0.00     0.002 A 
ATOM      3  C5  UNL d   1      -3.789   2.429  -6.000  0.00  0.00     0.002 A 
ATOM      4  C6  UNL d   1      -4.781   3.337  -5.638  0.00  0.00    -0.004 A 
ATOM      5  C7  UNL d   1      -5.888   2.903  -4.913  0.00  0.00     0.002 A 
ATOM      6  C8  UNL d   1      -5.999   1.562  -4.539  0.00  0.00     0.002 A 
ENDROOT
BRANCH   1   7
ATOM      7  C2  UNL d   1      -5.113  -0.802  -4.460  0.00  0.00     0.056 C 
BRANCH   7   8
ATOM      8  C1  UNL d   1      -3.840  -1.622  -4.697  0.00  0.00     0.007 C 
ATOM      9  C   UNL d   1      -2.999  -1.802  -3.439  0.00  0.00     0.009 C 
ENDBRANCH   7   8
ENDBRANCH   1   7
TORSDOF 2
ENDMDL
