MODEL 1
REMARK minimizedAffinity 6.09413385
REMARK minimizedRMSD -1
REMARK  0 active torsions:
REMARK  status: ('A' for Active; 'I' for Inactive)
ROOT
ATOM      1  C4' PXY d   1       1.302   0.090   3.671  0.00  0.00     0.077 C 
ATOM      2  C1' PXY d   1      -0.240   4.181  -0.110  0.00  0.00     0.077 C 
ATOM      3  C1  PXY d   1       0.177   3.109   0.878  0.00  0.00    -0.082 A 
ATOM      4  C2  PXY d   1      -0.709   2.215   1.285  0.00  0.00     0.003 A 
ATOM      5  C3  PXY d   1      -0.357   1.258   2.202  0.00  0.00     0.003 A 
ATOM      6  C4  PXY d   1       0.928   1.184   2.667  0.00  0.00    -0.082 A 
ATOM      7  C5  PXY d   1       1.841   2.086   2.249  0.00  0.00     0.003 A 
ATOM      8  C6  PXY d   1       1.453   3.075   1.348  0.00  0.00     0.003 A 
ENDROOT
TORSDOF 0
ENDMDL
