MODEL 1
REMARK minimizedAffinity 6.12789869
REMARK minimizedRMSD -1
REMARK  0 active torsions:
REMARK  status: ('A' for Active; 'I' for Inactive)
ROOT
ATOM      1  C4' PXY d   1       5.882  -0.850   5.974  0.00  0.00     0.077 C 
ATOM      2  C1' PXY d   1       2.499  -5.536   5.934  0.00  0.00     0.077 C 
ATOM      3  C1  PXY d   1       3.396  -4.314   5.949  0.00  0.00    -0.082 A 
ATOM      4  C2  PXY d   1       2.856  -3.107   5.995  0.00  0.00     0.003 A 
ATOM      5  C3  PXY d   1       3.652  -1.991   5.977  0.00  0.00     0.003 A 
ATOM      6  C4  PXY d   1       5.016  -2.112   5.967  0.00  0.00    -0.082 A 
ATOM      7  C5  PXY d   1       5.574  -3.340   5.931  0.00  0.00     0.003 A 
ATOM      8  C6  PXY d   1       4.748  -4.460   5.908  0.00  0.00     0.003 A 
ENDROOT
TORSDOF 0
ENDMDL
