MODEL 1
REMARK minimizedAffinity 4.35706377
REMARK minimizedRMSD -1
REMARK  0 active torsions:
REMARK  status: ('A' for Active; 'I' for Inactive)
ROOT
ATOM      1  C4' PXY d   1       1.423  -0.496   1.153  0.00  0.00     0.077 C 
ATOM      2  C1' PXY d   1      -0.030   4.878  -0.404  0.00  0.00     0.077 C 
ATOM      3  C1  PXY d   1       0.338   3.465   0.002  0.00  0.00    -0.082 A 
ATOM      4  C2  PXY d   1       1.391   3.261   0.778  0.00  0.00     0.003 A 
ATOM      5  C3  PXY d   1       1.757   1.987   1.129  0.00  0.00     0.003 A 
ATOM      6  C4  PXY d   1       1.008   0.914   0.725  0.00  0.00    -0.082 A 
ATOM      7  C5  PXY d   1      -0.074   1.115  -0.058  0.00  0.00     0.003 A 
ATOM      8  C6  PXY d   1      -0.405   2.413  -0.437  0.00  0.00     0.003 A 
ENDROOT
TORSDOF 0
ENDMDL
