MODEL 1
REMARK minimizedAffinity 0.737106383
REMARK minimizedRMSD -1
REMARK  0 active torsions:
REMARK  status: ('A' for Active; 'I' for Inactive)
ROOT
ATOM      1  C4' PXY d   1      -3.566   4.668   1.683  0.00  0.00     0.077 C 
ATOM      2  C1' PXY d   1       0.693   1.635  -0.783  0.00  0.00     0.077 C 
ATOM      3  C1  PXY d   1      -0.432   2.427  -0.146  0.00  0.00    -0.082 A 
ATOM      4  C2  PXY d   1      -0.147   3.442   0.653  0.00  0.00     0.003 A 
ATOM      5  C3  PXY d   1      -1.151   4.149   1.263  0.00  0.00     0.003 A 
ATOM      6  C4  PXY d   1      -2.462   3.847   1.011  0.00  0.00    -0.082 A 
ATOM      7  C5  PXY d   1      -2.762   2.819   0.189  0.00  0.00     0.003 A 
ATOM      8  C6  PXY d   1      -1.728   2.088  -0.388  0.00  0.00     0.003 A 
ENDROOT
TORSDOF 0
ENDMDL
