MODEL 1
REMARK minimizedAffinity 13.3858709
REMARK minimizedRMSD -1
REMARK  0 active torsions:
REMARK  status: ('A' for Active; 'I' for Inactive)
ROOT
ATOM      1  C4' PXY d   1      -2.851   2.460  -2.283  0.00  0.00     0.077 C 
ATOM      2  C1' PXY d   1      -6.000   6.000  -5.596  0.00  0.00     0.077 C 
ATOM      3  C1  PXY d   1      -5.185   5.068  -4.721  0.00  0.00    -0.082 A 
ATOM      4  C2  PXY d   1      -3.910   5.337  -4.487  0.00  0.00     0.003 A 
ATOM      5  C3  PXY d   1      -3.151   4.487  -3.725  0.00  0.00     0.003 A 
ATOM      6  C4  PXY d   1      -3.714   3.379  -3.152  0.00  0.00    -0.082 A 
ATOM      7  C5  PXY d   1      -5.017   3.103  -3.377  0.00  0.00     0.003 A 
ATOM      8  C6  PXY d   1      -5.760   3.956  -4.187  0.00  0.00     0.003 A 
ENDROOT
TORSDOF 0
ENDMDL
