MODEL 1
REMARK minimizedAffinity -5.15858507
REMARK minimizedRMSD -1
REMARK  0 active torsions:
REMARK  status: ('A' for Active; 'I' for Inactive)
ROOT
ATOM      1  C4' PXY d   1      -5.164   5.251  -5.674  0.00  0.00     0.077 C 
ATOM      2  C1' PXY d   1      -4.501   0.421  -2.567  0.00  0.00     0.077 C 
ATOM      3  C1  PXY d   1      -4.665   1.693  -3.375  0.00  0.00    -0.082 A 
ATOM      4  C2  PXY d   1      -5.842   1.985  -3.904  0.00  0.00     0.003 A 
ATOM      5  C3  PXY d   1      -6.000   3.115  -4.665  0.00  0.00     0.003 A 
ATOM      6  C4  PXY d   1      -4.955   3.982  -4.842  0.00  0.00    -0.082 A 
ATOM      7  C5  PXY d   1      -3.753   3.696  -4.297  0.00  0.00     0.003 A 
ATOM      8  C6  PXY d   1      -3.604   2.524  -3.563  0.00  0.00     0.003 A 
ENDROOT
TORSDOF 0
ENDMDL
