MODEL 1
REMARK minimizedAffinity 9.11750221
REMARK minimizedRMSD -1
REMARK  0 active torsions:
REMARK  status: ('A' for Active; 'I' for Inactive)
ROOT
ATOM      1  C4' PXY d   1      -0.519  -0.568  -4.103  0.00  0.00     0.077 C 
ATOM      2  C1' PXY d   1      -5.704   0.675  -1.870  0.00  0.00     0.077 C 
ATOM      3  C1  PXY d   1      -4.343   0.362  -2.459  0.00  0.00    -0.082 A 
ATOM      4  C2  PXY d   1      -4.060  -0.877  -2.830  0.00  0.00     0.003 A 
ATOM      5  C3  PXY d   1      -2.823  -1.184  -3.335  0.00  0.00     0.003 A 
ATOM      6  C4  PXY d   1      -1.884  -0.203  -3.512  0.00  0.00    -0.082 A 
ATOM      7  C5  PXY d   1      -2.169   1.064  -3.147  0.00  0.00     0.003 A 
ATOM      8  C6  PXY d   1      -3.416   1.348  -2.598  0.00  0.00     0.003 A 
ENDROOT
TORSDOF 0
ENDMDL
