MODEL 1
REMARK minimizedAffinity 10.3510675
REMARK minimizedRMSD -1
REMARK  0 active torsions:
REMARK  status: ('A' for Active; 'I' for Inactive)
ROOT
ATOM      1  C4' PXY d   1      -1.995   3.412   1.446  0.00  0.00     0.077 C 
ATOM      2  C1' PXY d   1       1.224   5.809  -2.714  0.00  0.00     0.077 C 
ATOM      3  C1  PXY d   1       0.386   5.169  -1.625  0.00  0.00    -0.082 A 
ATOM      4  C2  PXY d   1      -0.824   5.638  -1.370  0.00  0.00     0.003 A 
ATOM      5  C3  PXY d   1      -1.583   5.092  -0.366  0.00  0.00     0.003 A 
ATOM      6  C4  PXY d   1      -1.118   4.021   0.348  0.00  0.00    -0.082 A 
ATOM      7  C5  PXY d   1       0.112   3.530   0.087  0.00  0.00     0.003 A 
ATOM      8  C6  PXY d   1       0.882   4.125  -0.908  0.00  0.00     0.003 A 
ENDROOT
TORSDOF 0
ENDMDL
