MODEL 1
REMARK minimizedAffinity 2.41608858
REMARK minimizedRMSD -1
REMARK  0 active torsions:
REMARK  status: ('A' for Active; 'I' for Inactive)
ROOT
ATOM      1  C4' PXY d   1      -4.499   0.377  -2.719  0.00  0.00     0.077 C 
ATOM      2  C1' PXY d   1      -5.149   5.671  -4.946  0.00  0.00     0.077 C 
ATOM      3  C1  PXY d   1      -4.966   4.283  -4.365  0.00  0.00    -0.082 A 
ATOM      4  C2  PXY d   1      -5.999   3.458  -4.304  0.00  0.00     0.003 A 
ATOM      5  C3  PXY d   1      -5.858   2.211  -3.752  0.00  0.00     0.003 A 
ATOM      6  C4  PXY d   1      -4.636   1.784  -3.306  0.00  0.00    -0.082 A 
ATOM      7  C5  PXY d   1      -3.575   2.616  -3.375  0.00  0.00     0.003 A 
ATOM      8  C6  PXY d   1      -3.748   3.893  -3.901  0.00  0.00     0.003 A 
ENDROOT
TORSDOF 0
ENDMDL
