MODEL 1
REMARK minimizedAffinity -4.57391262
REMARK minimizedRMSD -1
REMARK  2 active torsions:
REMARK  status: ('A' for Active; 'I' for Inactive)
REMARK    1  A    between atoms: C2'_3  and  C1'_4 
REMARK    2  A    between atoms: C1'_4  and  C1_5 
ROOT
ATOM      1  C1  I4B d   1      -0.440  -0.068   1.303  0.00  0.00    -0.075 A 
ATOM      2  C2  I4B d   1      -1.465   0.684   1.822  0.00  0.00     0.003 A 
ATOM      3  C3  I4B d   1      -1.429   1.099   3.175  0.00  0.00     0.002 A 
ATOM      4  C4  I4B d   1      -0.382   0.701   3.981  0.00  0.00    -0.004 A 
ATOM      5  C5  I4B d   1       0.667  -0.041   3.447  0.00  0.00     0.002 A 
ATOM      6  C6  I4B d   1       0.645  -0.418   2.096  0.00  0.00     0.003 A 
ENDROOT
BRANCH   1   7
ATOM      7  C1' I4B d   1      -0.526  -0.517  -0.122  0.00  0.00     0.060 C 
BRANCH   7   8
ATOM      8  C2' I4B d   1       0.079   0.567  -0.991  0.00  0.00    -0.013 C 
ATOM      9  C4' I4B d   1       0.575   0.005  -2.297  0.00  0.00     0.013 C 
ATOM     10  C3' I4B d   1      -0.967   1.617  -1.215  0.00  0.00     0.013 C 
ENDBRANCH   7   8
ENDBRANCH   1   7
TORSDOF 2
ENDMDL
