MODEL 1
REMARK minimizedAffinity -4.48272371
REMARK minimizedRMSD -1
REMARK  2 active torsions:
REMARK  status: ('A' for Active; 'I' for Inactive)
REMARK    1  A    between atoms: C2'_3  and  C1'_4 
REMARK    2  A    between atoms: C1'_4  and  C1_5 
ROOT
ATOM      1  C1  I4B d   1       0.654   0.812   0.834  0.00  0.00    -0.075 A 
ATOM      2  C2  I4B d   1      -0.356   1.672   1.186  0.00  0.00     0.003 A 
ATOM      3  C3  I4B d   1      -0.777   1.763   2.535  0.00  0.00     0.002 A 
ATOM      4  C4  I4B d   1      -0.200   0.943   3.483  0.00  0.00    -0.004 A 
ATOM      5  C5  I4B d   1       0.839   0.088   3.128  0.00  0.00     0.002 A 
ATOM      6  C6  I4B d   1       1.277   0.030   1.797  0.00  0.00     0.003 A 
ENDROOT
BRANCH   1   7
ATOM      7  C1' I4B d   1       1.052   0.718  -0.605  0.00  0.00     0.060 C 
BRANCH   7   8
ATOM      8  C2' I4B d   1       0.191  -0.344  -1.259  0.00  0.00    -0.013 C 
ATOM      9  C4' I4B d   1      -1.234  -0.264  -0.776  0.00  0.00     0.013 C 
ATOM     10  C3' I4B d   1       0.270  -0.154  -2.745  0.00  0.00     0.013 C 
ENDBRANCH   7   8
ENDBRANCH   1   7
TORSDOF 2
ENDMDL
