MODEL 1
REMARK minimizedAffinity -6.06474304
REMARK minimizedRMSD -1
REMARK  2 active torsions:
REMARK  status: ('A' for Active; 'I' for Inactive)
REMARK    1  A    between atoms: C2'_3  and  C1'_4 
REMARK    2  A    between atoms: C1'_4  and  C1_5 
ROOT
ATOM      1  C1  I4B d   1       0.009   0.142  -0.383  0.00  0.00    -0.075 A 
ATOM      2  C2  I4B d   1      -1.311   0.287  -0.033  0.00  0.00     0.003 A 
ATOM      3  C3  I4B d   1      -1.658   0.735   1.265  0.00  0.00     0.002 A 
ATOM      4  C4  I4B d   1      -0.664   0.978   2.190  0.00  0.00    -0.004 A 
ATOM      5  C5  I4B d   1       0.674   0.852   1.826  0.00  0.00     0.002 A 
ATOM      6  C6  I4B d   1       1.013   0.444   0.528  0.00  0.00     0.003 A 
ENDROOT
BRANCH   1   7
ATOM      7  C1' I4B d   1       0.340  -0.366  -1.750  0.00  0.00     0.060 C 
BRANCH   7   8
ATOM      8  C2' I4B d   1       1.242   0.651  -2.420  0.00  0.00    -0.013 C 
ATOM      9  C4' I4B d   1       2.600   0.069  -2.708  0.00  0.00     0.013 C 
ATOM     10  C3' I4B d   1       0.570   1.107  -3.681  0.00  0.00     0.013 C 
ENDBRANCH   7   8
ENDBRANCH   1   7
TORSDOF 2
ENDMDL
