MODEL 1
REMARK minimizedAffinity -6.59544659
REMARK minimizedRMSD -1
REMARK  2 active torsions:
REMARK  status: ('A' for Active; 'I' for Inactive)
REMARK    1  A    between atoms: C2'_3  and  C1'_4 
REMARK    2  A    between atoms: C1'_4  and  C1_5 
ROOT
ATOM      1  C1  I4B d   1      -0.834   0.731   0.150  0.00  0.00    -0.075 A 
ATOM      2  C2  I4B d   1      -1.843   1.426   0.769  0.00  0.00     0.003 A 
ATOM      3  C3  I4B d   1      -1.726   1.790   2.132  0.00  0.00     0.002 A 
ATOM      4  C4  I4B d   1      -0.613   1.396   2.847  0.00  0.00    -0.004 A 
ATOM      5  C5  I4B d   1       0.419   0.712   2.212  0.00  0.00     0.002 A 
ATOM      6  C6  I4B d   1       0.314   0.387   0.852  0.00  0.00     0.003 A 
ENDROOT
BRANCH   1   7
ATOM      7  C1' I4B d   1      -1.005   0.335  -1.283  0.00  0.00     0.060 C 
BRANCH   7   8
ATOM      8  C2' I4B d   1       0.350   0.417  -1.955  0.00  0.00    -0.013 C 
ATOM      9  C4' I4B d   1       0.453  -0.560  -3.096  0.00  0.00     0.013 C 
ATOM     10  C3' I4B d   1       0.546   1.826  -2.430  0.00  0.00     0.013 C 
ENDBRANCH   7   8
ENDBRANCH   1   7
TORSDOF 2
ENDMDL
