MODEL 1
REMARK minimizedAffinity -6.10014296
REMARK minimizedRMSD -1
REMARK  2 active torsions:
REMARK  status: ('A' for Active; 'I' for Inactive)
REMARK    1  A    between atoms: C2'_3  and  C1'_4 
REMARK    2  A    between atoms: C1'_4  and  C1_5 
ROOT
ATOM      1  C1  I4B d   1       0.181   0.706   0.752  0.00  0.00    -0.075 A 
ATOM      2  C2  I4B d   1       1.045   0.595   1.813  0.00  0.00     0.003 A 
ATOM      3  C3  I4B d   1       0.554   0.637   3.140  0.00  0.00     0.002 A 
ATOM      4  C4  I4B d   1      -0.793   0.842   3.360  0.00  0.00    -0.004 A 
ATOM      5  C5  I4B d   1      -1.671   0.931   2.284  0.00  0.00     0.002 A 
ATOM      6  C6  I4B d   1      -1.183   0.851   0.971  0.00  0.00     0.003 A 
ENDROOT
BRANCH   1   7
ATOM      7  C1' I4B d   1       0.738   0.691  -0.636  0.00  0.00     0.060 C 
BRANCH   7   8
ATOM      8  C2' I4B d   1       0.490  -0.684  -1.223  0.00  0.00    -0.013 C 
ATOM      9  C4' I4B d   1       0.451  -0.635  -2.727  0.00  0.00     0.013 C 
ATOM     10  C3' I4B d   1       1.576  -1.597  -0.738  0.00  0.00     0.013 C 
ENDBRANCH   7   8
ENDBRANCH   1   7
TORSDOF 2
ENDMDL
