MODEL 1
REMARK minimizedAffinity -1.66871309
REMARK minimizedRMSD -1
REMARK  2 active torsions:
REMARK  status: ('A' for Active; 'I' for Inactive)
REMARK    1  A    between atoms: C2'_3  and  C1'_4 
REMARK    2  A    between atoms: C1'_4  and  C1_5 
ROOT
ATOM      1  C1  I4B d   1       0.137  -0.708   0.719  0.00  0.00    -0.075 A 
ATOM      2  C2  I4B d   1      -0.665  -0.295   1.753  0.00  0.00     0.003 A 
ATOM      3  C3  I4B d   1      -0.153  -0.233   3.072  0.00  0.00     0.002 A 
ATOM      4  C4  I4B d   1       1.143  -0.640   3.317  0.00  0.00    -0.004 A 
ATOM      5  C5  I4B d   1       1.962  -1.037   2.264  0.00  0.00     0.002 A 
ATOM      6  C6  I4B d   1       1.460  -1.060   0.954  0.00  0.00     0.003 A 
ENDROOT
BRANCH   1   7
ATOM      7  C1' I4B d   1      -0.446  -0.793  -0.656  0.00  0.00     0.060 C 
BRANCH   7   8
ATOM      8  C2' I4B d   1       0.447  -0.003  -1.591  0.00  0.00    -0.013 C 
ATOM      9  C4' I4B d   1       0.287  -0.464  -3.016  0.00  0.00     0.013 C 
ATOM     10  C3' I4B d   1       0.097   1.448  -1.449  0.00  0.00     0.013 C 
ENDBRANCH   7   8
ENDBRANCH   1   7
TORSDOF 2
ENDMDL
