MODEL 1
REMARK minimizedAffinity -2.28300261
REMARK minimizedRMSD -1
REMARK  2 active torsions:
REMARK  status: ('A' for Active; 'I' for Inactive)
REMARK    1  A    between atoms: C2'_3  and  C1'_4 
REMARK    2  A    between atoms: C1'_4  and  C1_5 
ROOT
ATOM      1  C1  I4B d   1       0.995   0.252  -1.930  0.00  0.00    -0.075 A 
ATOM      2  C2  I4B d   1       1.147  -0.308  -3.174  0.00  0.00     0.003 A 
ATOM      3  C3  I4B d   1       1.329   0.517  -4.310  0.00  0.00     0.002 A 
ATOM      4  C4  I4B d   1       1.302   1.889  -4.165  0.00  0.00    -0.004 A 
ATOM      5  C5  I4B d   1       1.171   2.455  -2.900  0.00  0.00     0.002 A 
ATOM      6  C6  I4B d   1       1.029   1.632  -1.774  0.00  0.00     0.003 A 
ENDROOT
BRANCH   1   7
ATOM      7  C1' I4B d   1       0.772  -0.648  -0.756  0.00  0.00     0.060 C 
BRANCH   7   8
ATOM      8  C2' I4B d   1      -0.216   0.030   0.171  0.00  0.00    -0.013 C 
ATOM      9  C4' I4B d   1      -1.603  -0.526  -0.010  0.00  0.00     0.013 C 
ATOM     10  C3' I4B d   1       0.265  -0.160   1.579  0.00  0.00     0.013 C 
ENDBRANCH   7   8
ENDBRANCH   1   7
TORSDOF 2
ENDMDL
