MODEL 1
REMARK minimizedAffinity -3.87067842
REMARK minimizedRMSD -1
REMARK  2 active torsions:
REMARK  status: ('A' for Active; 'I' for Inactive)
REMARK    1  A    between atoms: C2'_3  and  C1'_4 
REMARK    2  A    between atoms: C1'_4  and  C1_5 
ROOT
ATOM      1  C1  I4B d   1       0.157  -0.336  -0.288  0.00  0.00    -0.075 A 
ATOM      2  C2  I4B d   1      -1.151  -0.042  -0.586  0.00  0.00     0.003 A 
ATOM      3  C3  I4B d   1      -2.029   0.409   0.429  0.00  0.00     0.002 A 
ATOM      4  C4  I4B d   1      -1.575   0.503   1.728  0.00  0.00    -0.004 A 
ATOM      5  C5  I4B d   1      -0.243   0.227   2.024  0.00  0.00     0.002 A 
ATOM      6  C6  I4B d   1       0.632  -0.183   1.008  0.00  0.00     0.003 A 
ENDROOT
BRANCH   1   7
ATOM      7  C1' I4B d   1       1.048  -0.842  -1.378  0.00  0.00     0.060 C 
BRANCH   7   8
ATOM      8  C2' I4B d   1       1.014   0.162  -2.512  0.00  0.00    -0.013 C 
ATOM      9  C4' I4B d   1       2.389   0.701  -2.806  0.00  0.00     0.013 C 
ATOM     10  C3' I4B d   1       0.431  -0.518  -3.715  0.00  0.00     0.013 C 
ENDBRANCH   7   8
ENDBRANCH   1   7
TORSDOF 2
ENDMDL
