MODEL 1
REMARK minimizedAffinity 9.39141369
REMARK minimizedRMSD -1
REMARK  0 active torsions:
REMARK  status: ('A' for Active; 'I' for Inactive)
ROOT
ATOM      1  C1  DEN d   1      -1.258  -0.855   1.532  0.00  0.00     0.130 A 
ATOM      2  C2  DEN d   1      -1.643   0.472   1.059  0.00  0.00    -0.031 A 
ATOM      3  C3  DEN d   1      -0.458   1.098   0.439  0.00  0.00     0.027 A 
ATOM      4  C4  DEN d   1       1.923   0.144   0.162  0.00  0.00     0.027 A 
ATOM      5  C5  DEN d   1       2.734  -0.940   0.416  0.00  0.00    -0.003 A 
ATOM      6  C6  DEN d   1       2.285  -2.047   1.085  0.00  0.00     0.001 A 
ATOM      7  C7  DEN d   1       0.976  -2.116   1.483  0.00  0.00     0.017 A 
ATOM      8  C8  DEN d   1       0.154  -1.024   1.237  0.00  0.00    -0.094 A 
ATOM      9  C9  DEN d   1       0.623   0.081   0.548  0.00  0.00    -0.072 A 
ENDROOT
TORSDOF 0
ENDMDL
