MODEL 1
REMARK minimizedAffinity 9.50728989
REMARK minimizedRMSD -1
REMARK  0 active torsions:
REMARK  status: ('A' for Active; 'I' for Inactive)
ROOT
ATOM      1  C1  DEN d   1      -0.603   1.310   0.701  0.00  0.00     0.130 A 
ATOM      2  C2  DEN d   1      -1.688   0.616   1.390  0.00  0.00    -0.031 A 
ATOM      3  C3  DEN d   1      -1.222  -0.745   1.723  0.00  0.00     0.027 A 
ATOM      4  C4  DEN d   1       1.065  -1.838   1.244  0.00  0.00     0.027 A 
ATOM      5  C5  DEN d   1       2.303  -1.647   0.672  0.00  0.00    -0.003 A 
ATOM      6  C6  DEN d   1       2.645  -0.478   0.045  0.00  0.00     0.001 A 
ATOM      7  C7  DEN d   1       1.753   0.562   0.015  0.00  0.00     0.017 A 
ATOM      8  C8  DEN d   1       0.500   0.374   0.582  0.00  0.00    -0.094 A 
ATOM      9  C9  DEN d   1       0.178  -0.811   1.222  0.00  0.00    -0.072 A 
ENDROOT
TORSDOF 0
ENDMDL
