MODEL 1
REMARK minimizedAffinity 6.37227011
REMARK minimizedRMSD -1
REMARK  0 active torsions:
REMARK  status: ('A' for Active; 'I' for Inactive)
ROOT
ATOM      1  C1  DEN d   1      -2.278   4.918  -5.999  0.00  0.00     0.130 A 
ATOM      2  C2  DEN d   1      -1.367   3.778  -5.961  0.00  0.00    -0.031 A 
ATOM      3  C3  DEN d   1      -2.179   2.544  -5.944  0.00  0.00     0.027 A 
ATOM      4  C4  DEN d   1      -4.745   2.291  -5.979  0.00  0.00     0.027 A 
ATOM      5  C5  DEN d   1      -5.941   2.975  -6.000  0.00  0.00    -0.003 A 
ATOM      6  C6  DEN d   1      -5.999   4.344  -5.988  0.00  0.00     0.001 A 
ATOM      7  C7  DEN d   1      -4.840   5.073  -6.000  0.00  0.00     0.017 A 
ATOM      8  C8  DEN d   1      -3.631   4.390  -5.971  0.00  0.00    -0.094 A 
ATOM      9  C9  DEN d   1      -3.592   3.006  -5.996  0.00  0.00    -0.072 A 
ENDROOT
TORSDOF 0
ENDMDL
