MODEL 1
REMARK minimizedAffinity -4.47100067
REMARK minimizedRMSD -1
REMARK  0 active torsions:
REMARK  status: ('A' for Active; 'I' for Inactive)
ROOT
ATOM      1  C1  DEN d   1      -1.037   0.281   0.292  0.00  0.00     0.130 A 
ATOM      2  C2  DEN d   1      -0.187  -0.895   0.131  0.00  0.00    -0.031 A 
ATOM      3  C3  DEN d   1       1.207  -0.433  -0.023  0.00  0.00     0.027 A 
ATOM      4  C4  DEN d   1       2.127   1.977  -0.021  0.00  0.00     0.027 A 
ATOM      5  C5  DEN d   1       1.786   3.308   0.072  0.00  0.00    -0.003 A 
ATOM      6  C6  DEN d   1       0.488   3.722   0.210  0.00  0.00     0.001 A 
ATOM      7  C7  DEN d   1      -0.514   2.793   0.304  0.00  0.00     0.017 A 
ATOM      8  C8  DEN d   1      -0.180   1.449   0.203  0.00  0.00    -0.094 A 
ATOM      9  C9  DEN d   1       1.140   1.050   0.076  0.00  0.00    -0.072 A 
ENDROOT
TORSDOF 0
ENDMDL
