MODEL 1
REMARK minimizedAffinity -4.88534117
REMARK minimizedRMSD -1
REMARK  0 active torsions:
REMARK  status: ('A' for Active; 'I' for Inactive)
ROOT
ATOM      1  C1  DEN d   1      -1.852   1.463  -0.609  0.00  0.00     0.130 A 
ATOM      2  C2  DEN d   1      -0.860   2.091   0.260  0.00  0.00    -0.031 A 
ATOM      3  C3  DEN d   1       0.133   1.064   0.636  0.00  0.00     0.027 A 
ATOM      4  C4  DEN d   1       0.233  -1.422  -0.043  0.00  0.00     0.027 A 
ATOM      5  C5  DEN d   1      -0.396  -2.416  -0.759  0.00  0.00    -0.003 A 
ATOM      6  C6  DEN d   1      -1.563  -2.198  -1.442  0.00  0.00     0.001 A 
ATOM      7  C7  DEN d   1      -2.114  -0.943  -1.460  0.00  0.00     0.017 A 
ATOM      8  C8  DEN d   1      -1.490   0.063  -0.734  0.00  0.00    -0.094 A 
ATOM      9  C9  DEN d   1      -0.304  -0.175  -0.061  0.00  0.00    -0.072 A 
ENDROOT
TORSDOF 0
ENDMDL
