MODEL 1
REMARK minimizedAffinity -3.07114005
REMARK minimizedRMSD -1
REMARK  0 active torsions:
REMARK  status: ('A' for Active; 'I' for Inactive)
ROOT
ATOM      1  C1  DEN d   1       1.017  -0.673   0.200  0.00  0.00     0.130 A 
ATOM      2  C2  DEN d   1      -0.419  -0.860   0.007  0.00  0.00    -0.031 A 
ATOM      3  C3  DEN d   1      -1.078   0.449   0.188  0.00  0.00     0.027 A 
ATOM      4  C4  DEN d   1      -0.021   2.736   0.740  0.00  0.00     0.027 A 
ATOM      5  C5  DEN d   1       1.161   3.391   1.007  0.00  0.00    -0.003 A 
ATOM      6  C6  DEN d   1       2.364   2.737   1.057  0.00  0.00     0.001 A 
ATOM      7  C7  DEN d   1       2.417   1.394   0.792  0.00  0.00     0.017 A 
ATOM      8  C8  DEN d   1       1.229   0.725   0.529  0.00  0.00    -0.094 A 
ATOM      9  C9  DEN d   1       0.025   1.406   0.471  0.00  0.00    -0.072 A 
ENDROOT
TORSDOF 0
ENDMDL
