MODEL 1
REMARK minimizedAffinity 9.7360096
REMARK minimizedRMSD -1
REMARK  0 active torsions:
REMARK  status: ('A' for Active; 'I' for Inactive)
ROOT
ATOM      1  C1  DEN d   1      -0.727   2.672   2.094  0.00  0.00     0.130 A 
ATOM      2  C2  DEN d   1      -1.814   1.863   1.548  0.00  0.00    -0.031 A 
ATOM      3  C3  DEN d   1      -1.218   0.684   0.888  0.00  0.00     0.027 A 
ATOM      4  C4  DEN d   1       1.267   0.032   0.664  0.00  0.00     0.027 A 
ATOM      5  C5  DEN d   1       2.558   0.412   0.957  0.00  0.00    -0.003 A 
ATOM      6  C6  DEN d   1       2.844   1.579   1.615  0.00  0.00     0.001 A 
ATOM      7  C7  DEN d   1       1.823   2.386   2.041  0.00  0.00     0.017 A 
ATOM      8  C8  DEN d   1       0.519   2.013   1.743  0.00  0.00    -0.094 A 
ATOM      9  C9  DEN d   1       0.249   0.824   1.088  0.00  0.00    -0.072 A 
ENDROOT
TORSDOF 0
ENDMDL
