MODEL 1
REMARK minimizedAffinity -4.75287819
REMARK minimizedRMSD -1
REMARK  0 active torsions:
REMARK  status: ('A' for Active; 'I' for Inactive)
ROOT
ATOM      1  C1  DEN d   1       0.472  -1.297   0.201  0.00  0.00     0.130 A 
ATOM      2  C2  DEN d   1      -0.962  -1.205  -0.064  0.00  0.00    -0.031 A 
ATOM      3  C3  DEN d   1      -1.369   0.203   0.111  0.00  0.00     0.027 A 
ATOM      4  C4  DEN d   1       0.074   2.241   0.756  0.00  0.00     0.027 A 
ATOM      5  C5  DEN d   1       1.344   2.657   1.092  0.00  0.00    -0.003 A 
ATOM      6  C6  DEN d   1       2.396   1.786   1.186  0.00  0.00     0.001 A 
ATOM      7  C7  DEN d   1       2.207   0.460   0.897  0.00  0.00     0.017 A 
ATOM      8  C8  DEN d   1       0.928   0.032   0.566  0.00  0.00    -0.094 A 
ATOM      9  C9  DEN d   1      -0.120   0.930   0.465  0.00  0.00    -0.072 A 
ENDROOT
TORSDOF 0
ENDMDL
