MODEL 1
REMARK minimizedAffinity -3.53415394
REMARK minimizedRMSD -1
REMARK  0 active torsions:
REMARK  status: ('A' for Active; 'I' for Inactive)
ROOT
ATOM      1  C1  DEN d   1      -1.304  -0.806  -0.205  0.00  0.00     0.130 A 
ATOM      2  C2  DEN d   1      -0.137   0.053  -0.388  0.00  0.00    -0.031 A 
ATOM      3  C3  DEN d   1       0.829  -0.665  -1.245  0.00  0.00     0.027 A 
ATOM      4  C4  DEN d   1       0.629  -3.008  -2.304  0.00  0.00     0.027 A 
ATOM      5  C5  DEN d   1      -0.173  -4.121  -2.424  0.00  0.00    -0.003 A 
ATOM      6  C6  DEN d   1      -1.383  -4.221  -1.790  0.00  0.00     0.001 A 
ATOM      7  C7  DEN d   1      -1.847  -3.170  -1.043  0.00  0.00     0.017 A 
ATOM      8  C8  DEN d   1      -1.040  -2.047  -0.912  0.00  0.00    -0.094 A 
ATOM      9  C9  DEN d   1       0.174  -1.960  -1.571  0.00  0.00    -0.072 A 
ENDROOT
TORSDOF 0
ENDMDL
