MODEL 1
REMARK minimizedAffinity 6.02672005
REMARK minimizedRMSD -1
REMARK  1 active torsions:
REMARK  status: ('A' for Active; 'I' for Inactive)
REMARK    1  A    between atoms: N_2  and  C1_3 
ROOT
ATOM      1  C1  UNL d   1       0.176   0.457  -0.078  0.00  0.00     0.143 A 
ATOM      2  C2  UNL d   1       0.547  -0.259  -1.222  0.00  0.00    -0.057 A 
ATOM      3  C3  UNL d   1       0.600  -1.658  -1.217  0.00  0.00     0.033 A 
ATOM      4  C4  UNL d   1       0.309  -2.367  -0.056  0.00  0.00    -0.042 A 
ATOM      5  C5  UNL d   1      -0.037  -1.675   1.099  0.00  0.00     0.033 A 
ATOM      6  C6  UNL d   1      -0.095  -0.279   1.086  0.00  0.00    -0.057 A 
ENDROOT
BRANCH   1   7
ATOM      7  N   UNL d   1       0.201   1.851   0.009  0.00  0.00    -0.732 N 
ATOM      8  C   UNL d   1       1.453   2.558   0.174  0.00  0.00     0.284 C 
ATOM      9  H3  UNL d   1      -0.442   2.292  -0.645  0.00  0.00     0.395 HD
ENDBRANCH   1   7
TORSDOF 1
ENDMDL
