MODEL 1
REMARK minimizedAffinity 2.09041572
REMARK minimizedRMSD -1
REMARK  1 active torsions:
REMARK  status: ('A' for Active; 'I' for Inactive)
REMARK    1  A    between atoms: N_2  and  C1_3 
ROOT
ATOM      1  C1  UNL d   1      -0.579  -3.534   5.993  0.00  0.00     0.143 A 
ATOM      2  C2  UNL d   1      -1.241  -4.760   5.861  0.00  0.00    -0.057 A 
ATOM      3  C3  UNL d   1      -0.531  -5.964   5.785  0.00  0.00     0.033 A 
ATOM      4  C4  UNL d   1       0.860  -5.961   5.811  0.00  0.00    -0.042 A 
ATOM      5  C5  UNL d   1       1.540  -4.753   5.916  0.00  0.00     0.033 A 
ATOM      6  C6  UNL d   1       0.825  -3.554   5.998  0.00  0.00    -0.057 A 
ENDROOT
BRANCH   1   7
ATOM      7  N   UNL d   1      -1.224  -2.295   5.974  0.00  0.00    -0.732 N 
ATOM      8  C   UNL d   1      -0.461  -1.066   6.000  0.00  0.00     0.284 C 
ATOM      9  H3  UNL d   1      -2.016  -2.280   5.336  0.00  0.00     0.395 HD
ENDBRANCH   1   7
TORSDOF 1
ENDMDL
