MODEL 1
REMARK minimizedAffinity 2.70279121
REMARK minimizedRMSD -1
REMARK  1 active torsions:
REMARK  status: ('A' for Active; 'I' for Inactive)
REMARK    1  A    between atoms: N_2  and  C1_3 
ROOT
ATOM      1  C1  UNL d   1       2.908   0.465  -0.368  0.00  0.00     0.143 A 
ATOM      2  C2  UNL d   1       3.658  -0.607  -0.864  0.00  0.00    -0.057 A 
ATOM      3  C3  UNL d   1       3.131  -1.903  -0.909  0.00  0.00     0.033 A 
ATOM      4  C4  UNL d   1       1.850  -2.156  -0.429  0.00  0.00    -0.042 A 
ATOM      5  C5  UNL d   1       1.096  -1.111   0.092  0.00  0.00     0.033 A 
ATOM      6  C6  UNL d   1       1.626   0.183   0.127  0.00  0.00    -0.057 A 
ENDROOT
BRANCH   1   7
ATOM      7  N   UNL d   1       3.412   1.758  -0.207  0.00  0.00    -0.732 N 
ATOM      8  C   UNL d   1       4.722   1.972   0.370  0.00  0.00     0.284 C 
ATOM      9  H3  UNL d   1       3.206   2.357  -1.002  0.00  0.00     0.395 HD
ENDBRANCH   1   7
TORSDOF 1
ENDMDL
