MODEL 1
REMARK minimizedAffinity 4.28537321
REMARK minimizedRMSD -1
REMARK  1 active torsions:
REMARK  status: ('A' for Active; 'I' for Inactive)
REMARK    1  A    between atoms: C1_2  and  C2_3 
ROOT
ATOM      1  C2  UNL d   1       3.704   5.713   0.049  0.00  0.00    -0.076 A 
ATOM      2  C3  UNL d   1       2.365   6.000  -0.269  0.00  0.00     0.004 A 
ATOM      3  C4  UNL d   1       1.869   5.778  -1.553  0.00  0.00    -0.003 A 
ATOM      4  C5  UNL d   1       2.704   5.264  -2.539  0.00  0.00     0.000 A 
ATOM      5  C6  UNL d   1       4.030   4.957  -2.236  0.00  0.00     0.000 A 
ATOM      6  C7  UNL d   1       4.541   5.160  -0.943  0.00  0.00    -0.073 A 
ATOM      7  C8  UNL d   1       5.981   4.816  -0.673  0.00  0.00     0.078 C 
ENDROOT
BRANCH   1   8
ATOM      8  C1  UNL d   1       4.192   5.999   1.451  0.00  0.00     0.053 C 
ATOM      9  C   UNL d   1       4.831   4.784   2.105  0.00  0.00     0.018 C 
ENDBRANCH   1   8
TORSDOF 1
ENDMDL
