MODEL 1
REMARK minimizedAffinity 11.6505718
REMARK minimizedRMSD -1
REMARK  1 active torsions:
REMARK  status: ('A' for Active; 'I' for Inactive)
REMARK    1  A    between atoms: C1_2  and  C2_3 
ROOT
ATOM      1  C2  UNL d   1      -2.717   3.955   4.042  0.00  0.00    -0.076 A 
ATOM      2  C3  UNL d   1      -3.770   3.958   3.111  0.00  0.00     0.004 A 
ATOM      3  C4  UNL d   1      -4.738   4.960   3.126  0.00  0.00    -0.003 A 
ATOM      4  C5  UNL d   1      -4.668   5.977   4.072  0.00  0.00     0.000 A 
ATOM      5  C6  UNL d   1      -3.621   6.000   4.992  0.00  0.00     0.000 A 
ATOM      6  C7  UNL d   1      -2.628   5.005   4.980  0.00  0.00    -0.073 A 
ATOM      7  C8  UNL d   1      -1.524   5.076   6.000  0.00  0.00     0.078 C 
ENDROOT
BRANCH   1   8
ATOM      8  C1  UNL d   1      -1.712   2.826   3.996  0.00  0.00     0.053 C 
ATOM      9  C   UNL d   1      -2.287   1.559   3.382  0.00  0.00     0.018 C 
ENDBRANCH   1   8
TORSDOF 1
ENDMDL
