MODEL 1
REMARK minimizedAffinity 22.0320568
REMARK minimizedRMSD -1
REMARK  1 active torsions:
REMARK  status: ('A' for Active; 'I' for Inactive)
REMARK    1  A    between atoms: C1_2  and  C2_3 
ROOT
ATOM      1  C2  UNL d   1      -3.740   5.861   3.711  0.00  0.00    -0.076 A 
ATOM      2  C3  UNL d   1      -3.971   5.950   5.095  0.00  0.00     0.004 A 
ATOM      3  C4  UNL d   1      -2.911   5.964   6.000  0.00  0.00    -0.003 A 
ATOM      4  C5  UNL d   1      -1.602   5.890   5.535  0.00  0.00     0.000 A 
ATOM      5  C6  UNL d   1      -1.354   5.820   4.165  0.00  0.00     0.000 A 
ATOM      6  C7  UNL d   1      -2.410   5.821   3.239  0.00  0.00    -0.073 A 
ATOM      7  C8  UNL d   1      -2.085   5.737   1.772  0.00  0.00     0.078 C 
ENDROOT
BRANCH   1   8
ATOM      8  C1  UNL d   1      -4.930   5.822   2.779  0.00  0.00     0.053 C 
ATOM      9  C   UNL d   1      -4.822   4.715   1.742  0.00  0.00     0.018 C 
ENDBRANCH   1   8
TORSDOF 1
ENDMDL
