MODEL 1
REMARK minimizedAffinity 8.72928143
REMARK minimizedRMSD -1
REMARK  1 active torsions:
REMARK  status: ('A' for Active; 'I' for Inactive)
REMARK    1  A    between atoms: C1_2  and  C2_3 
ROOT
ATOM      1  C2  UNL d   1      -3.191   2.977   3.382  0.00  0.00    -0.076 A 
ATOM      2  C3  UNL d   1      -2.508   1.855   3.884  0.00  0.00     0.004 A 
ATOM      3  C4  UNL d   1      -2.998   0.566   3.680  0.00  0.00    -0.003 A 
ATOM      4  C5  UNL d   1      -4.178   0.378   2.970  0.00  0.00     0.000 A 
ATOM      5  C6  UNL d   1      -4.859   1.478   2.449  0.00  0.00     0.000 A 
ATOM      6  C7  UNL d   1      -4.371   2.783   2.632  0.00  0.00    -0.073 A 
ATOM      7  C8  UNL d   1      -5.149   3.933   2.054  0.00  0.00     0.078 C 
ENDROOT
BRANCH   1   8
ATOM      8  C1  UNL d   1      -2.626   4.352   3.658  0.00  0.00     0.053 C 
ATOM      9  C   UNL d   1      -2.914   4.826   5.074  0.00  0.00     0.018 C 
ENDBRANCH   1   8
TORSDOF 1
ENDMDL
