MODEL 1
REMARK minimizedAffinity 14.2387314
REMARK minimizedRMSD -1
REMARK  1 active torsions:
REMARK  status: ('A' for Active; 'I' for Inactive)
REMARK    1  A    between atoms: C1_2  and  C2_3 
ROOT
ATOM      1  C2  UNL d   1       2.368  -0.642  -1.609  0.00  0.00    -0.076 A 
ATOM      2  C3  UNL d   1       2.233   0.748  -1.767  0.00  0.00     0.004 A 
ATOM      3  C4  UNL d   1       1.190   1.287  -2.519  0.00  0.00    -0.003 A 
ATOM      4  C5  UNL d   1       0.265   0.444  -3.123  0.00  0.00     0.000 A 
ATOM      5  C6  UNL d   1       0.373  -0.937  -2.962  0.00  0.00     0.000 A 
ATOM      6  C7  UNL d   1       1.409  -1.496  -2.194  0.00  0.00    -0.073 A 
ATOM      7  C8  UNL d   1       1.481  -2.992  -2.059  0.00  0.00     0.078 C 
ENDROOT
BRANCH   1   8
ATOM      8  C1  UNL d   1       3.535  -1.170  -0.805  0.00  0.00     0.053 C 
ATOM      9  C   UNL d   1       4.875  -0.880  -1.464  0.00  0.00     0.018 C 
ENDBRANCH   1   8
TORSDOF 1
ENDMDL
