MODEL 1
REMARK minimizedAffinity 10.634305
REMARK minimizedRMSD -1
REMARK  1 active torsions:
REMARK  status: ('A' for Active; 'I' for Inactive)
REMARK    1  A    between atoms: C1_2  and  C2_3 
ROOT
ATOM      1  C2  UNL d   1      -2.666  -0.128   2.139  0.00  0.00    -0.076 A 
ATOM      2  C3  UNL d   1      -1.460   0.471   2.542  0.00  0.00     0.004 A 
ATOM      3  C4  UNL d   1      -1.424   1.798   2.967  0.00  0.00    -0.003 A 
ATOM      4  C5  UNL d   1      -2.594   2.548   2.997  0.00  0.00     0.000 A 
ATOM      5  C6  UNL d   1      -3.803   1.965   2.618  0.00  0.00     0.000 A 
ATOM      6  C7  UNL d   1      -3.859   0.624   2.202  0.00  0.00    -0.073 A 
ATOM      7  C8  UNL d   1      -5.189   0.049   1.799  0.00  0.00     0.078 C 
ENDROOT
BRANCH   1   8
ATOM      8  C1  UNL d   1      -2.640  -1.562   1.662  0.00  0.00     0.053 C 
ATOM      9  C   UNL d   1      -2.219  -1.684   0.206  0.00  0.00     0.018 C 
ENDBRANCH   1   8
TORSDOF 1
ENDMDL
