MODEL 1
REMARK minimizedAffinity 5.97341299
REMARK minimizedRMSD -1
REMARK  1 active torsions:
REMARK  status: ('A' for Active; 'I' for Inactive)
REMARK    1  A    between atoms: C1_2  and  C2_3 
ROOT
ATOM      1  C2  UNL d   1      -3.395  -0.183  -0.163  0.00  0.00    -0.076 A 
ATOM      2  C3  UNL d   1      -4.443  -0.327  -1.089  0.00  0.00     0.004 A 
ATOM      3  C4  UNL d   1      -5.734  -0.639  -0.668  0.00  0.00    -0.003 A 
ATOM      4  C5  UNL d   1      -5.999  -0.812   0.686  0.00  0.00     0.000 A 
ATOM      5  C6  UNL d   1      -4.975  -0.656   1.620  0.00  0.00     0.000 A 
ATOM      6  C7  UNL d   1      -3.671  -0.325   1.213  0.00  0.00    -0.073 A 
ATOM      7  C8  UNL d   1      -2.604  -0.174   2.263  0.00  0.00     0.078 C 
ENDROOT
BRANCH   1   8
ATOM      8  C1  UNL d   1      -2.009   0.130  -0.681  0.00  0.00     0.053 C 
ATOM      9  C   UNL d   1      -1.871   1.573  -1.141  0.00  0.00     0.018 C 
ENDBRANCH   1   8
TORSDOF 1
ENDMDL
