MODEL 1
REMARK minimizedAffinity 17.0405006
REMARK minimizedRMSD -1
REMARK  1 active torsions:
REMARK  status: ('A' for Active; 'I' for Inactive)
REMARK    1  A    between atoms: C1_2  and  C2_3 
ROOT
ATOM      1  C2  UNL d   1      -2.669   1.792   4.402  0.00  0.00    -0.076 A 
ATOM      2  C3  UNL d   1      -3.066   1.447   5.706  0.00  0.00     0.004 A 
ATOM      3  C4  UNL d   1      -3.525   0.164   6.000  0.00  0.00    -0.003 A 
ATOM      4  C5  UNL d   1      -3.593  -0.795   4.995  0.00  0.00     0.000 A 
ATOM      5  C6  UNL d   1      -3.186  -0.475   3.700  0.00  0.00     0.000 A 
ATOM      6  C7  UNL d   1      -2.706   0.809   3.390  0.00  0.00    -0.073 A 
ATOM      7  C8  UNL d   1      -2.287   1.101   1.976  0.00  0.00     0.078 C 
ENDROOT
BRANCH   1   8
ATOM      8  C1  UNL d   1      -2.206   3.207   4.137  0.00  0.00     0.053 C 
ATOM      9  C   UNL d   1      -2.523   4.149   5.288  0.00  0.00     0.018 C 
ENDBRANCH   1   8
TORSDOF 1
ENDMDL
