MODEL 1
REMARK minimizedAffinity 17.4801998
REMARK minimizedRMSD -1
REMARK  1 active torsions:
REMARK  status: ('A' for Active; 'I' for Inactive)
REMARK    1  A    between atoms: C1_2  and  C2_3 
ROOT
ATOM      1  C2  UNL d   1       3.701   5.480   2.112  0.00  0.00    -0.076 A 
ATOM      2  C3  UNL d   1       4.018   5.970   3.391  0.00  0.00     0.004 A 
ATOM      3  C4  UNL d   1       5.156   5.531   4.066  0.00  0.00    -0.003 A 
ATOM      4  C5  UNL d   1       5.995   4.594   3.473  0.00  0.00     0.000 A 
ATOM      5  C6  UNL d   1       5.705   4.109   2.198  0.00  0.00     0.000 A 
ATOM      6  C7  UNL d   1       4.571   4.554   1.497  0.00  0.00    -0.073 A 
ATOM      7  C8  UNL d   1       4.303   3.994   0.127  0.00  0.00     0.078 C 
ENDROOT
BRANCH   1   8
ATOM      8  C1  UNL d   1       2.439   5.973   1.440  0.00  0.00     0.053 C 
ATOM      9  C   UNL d   1       2.357   5.557  -0.020  0.00  0.00     0.018 C 
ENDBRANCH   1   8
TORSDOF 1
ENDMDL
