MODEL 1
REMARK minimizedAffinity 11.4755135
REMARK minimizedRMSD -1
REMARK  1 active torsions:
REMARK  status: ('A' for Active; 'I' for Inactive)
REMARK    1  A    between atoms: C1_2  and  C2_3 
ROOT
ATOM      1  C2  UNL d   1       1.741   3.537  -2.241  0.00  0.00    -0.076 A 
ATOM      2  C3  UNL d   1       0.764   2.825  -2.959  0.00  0.00     0.004 A 
ATOM      3  C4  UNL d   1       0.512   1.481  -2.689  0.00  0.00    -0.003 A 
ATOM      4  C5  UNL d   1       1.233   0.827  -1.695  0.00  0.00     0.000 A 
ATOM      5  C6  UNL d   1       2.193   1.522  -0.961  0.00  0.00     0.000 A 
ATOM      6  C7  UNL d   1       2.448   2.882  -1.210  0.00  0.00    -0.073 A 
ATOM      7  C8  UNL d   1       3.500   3.581  -0.393  0.00  0.00     0.078 C 
ENDROOT
BRANCH   1   8
ATOM      8  C1  UNL d   1       1.990   4.985  -2.597  0.00  0.00     0.053 C 
ATOM      9  C   UNL d   1       0.900   5.909  -2.076  0.00  0.00     0.018 C 
ENDBRANCH   1   8
TORSDOF 1
ENDMDL
