MODEL 1
REMARK minimizedAffinity -2.0999279
REMARK minimizedRMSD -1
REMARK  1 active torsions:
REMARK  status: ('A' for Active; 'I' for Inactive)
REMARK    1  A    between atoms: C1_2  and  C2_3 
ROOT
ATOM      1  C2  UNL d   1      -2.427  -0.378   0.593  0.00  0.00    -0.076 A 
ATOM      2  C3  UNL d   1      -3.030  -0.267   1.858  0.00  0.00     0.004 A 
ATOM      3  C4  UNL d   1      -2.455   0.513   2.861  0.00  0.00    -0.003 A 
ATOM      4  C5  UNL d   1      -1.268   1.194   2.614  0.00  0.00     0.000 A 
ATOM      5  C6  UNL d   1      -0.666   1.109   1.360  0.00  0.00     0.000 A 
ATOM      6  C7  UNL d   1      -1.240   0.341   0.333  0.00  0.00    -0.073 A 
ATOM      7  C8  UNL d   1      -0.544   0.280  -0.999  0.00  0.00     0.078 C 
ENDROOT
BRANCH   1   8
ATOM      8  C1  UNL d   1      -3.081  -1.259  -0.446  0.00  0.00     0.053 C 
ATOM      9  C   UNL d   1      -4.600  -1.181  -0.404  0.00  0.00     0.018 C 
ENDBRANCH   1   8
TORSDOF 1
ENDMDL
