MODEL 1
REMARK minimizedAffinity 8.13416958
REMARK minimizedRMSD -1
REMARK  1 active torsions:
REMARK  status: ('A' for Active; 'I' for Inactive)
REMARK    1  A    between atoms: C1_2  and  C2_3 
ROOT
ATOM      1  C2  UNL d   1      -4.616  -0.149   3.837  0.00  0.00    -0.076 A 
ATOM      2  C3  UNL d   1      -4.593  -0.315   2.442  0.00  0.00     0.004 A 
ATOM      3  C4  UNL d   1      -3.421  -0.115   1.715  0.00  0.00    -0.003 A 
ATOM      4  C5  UNL d   1      -2.252   0.253   2.372  0.00  0.00     0.000 A 
ATOM      5  C6  UNL d   1      -2.252   0.404   3.758  0.00  0.00     0.000 A 
ATOM      6  C7  UNL d   1      -3.422   0.191   4.508  0.00  0.00    -0.073 A 
ATOM      7  C8  UNL d   1      -3.367   0.374   6.000  0.00  0.00     0.078 C 
ENDROOT
BRANCH   1   8
ATOM      8  C1  UNL d   1      -5.924  -0.353   4.569  0.00  0.00     0.053 C 
ATOM      9  C   UNL d   1      -5.999  -1.705   5.262  0.00  0.00     0.018 C 
ENDBRANCH   1   8
TORSDOF 1
ENDMDL
