MODEL 1
REMARK minimizedAffinity 5.81284761
REMARK minimizedRMSD -1
REMARK  1 active torsions:
REMARK  status: ('A' for Active; 'I' for Inactive)
REMARK    1  A    between atoms: C1_2  and  C2_3 
ROOT
ATOM      1  C2  UNL d   1      -4.271   0.657   3.450  0.00  0.00    -0.076 A 
ATOM      2  C3  UNL d   1      -4.047   0.520   4.831  0.00  0.00     0.004 A 
ATOM      3  C4  UNL d   1      -4.794  -0.376   5.593  0.00  0.00    -0.003 A 
ATOM      4  C5  UNL d   1      -5.777  -1.151   4.987  0.00  0.00     0.000 A 
ATOM      5  C6  UNL d   1      -6.000  -1.041   3.614  0.00  0.00     0.000 A 
ATOM      6  C7  UNL d   1      -5.244  -0.154   2.829  0.00  0.00    -0.073 A 
ATOM      7  C8  UNL d   1      -5.531  -0.072   1.354  0.00  0.00     0.078 C 
ENDROOT
BRANCH   1   8
ATOM      8  C1  UNL d   1      -3.448   1.665   2.680  0.00  0.00     0.053 C 
ATOM      9  C   UNL d   1      -1.955   1.498   2.912  0.00  0.00     0.018 C 
ENDBRANCH   1   8
TORSDOF 1
ENDMDL
