MODEL 1
REMARK minimizedAffinity 11.7152014
REMARK minimizedRMSD -1
REMARK  0 active torsions:
REMARK  status: ('A' for Active; 'I' for Inactive)
ROOT
ATOM      1  C   UNL d   1       3.738  -0.525  -1.922  0.00  0.00     0.124 A 
ATOM      2  C1  UNL d   1       3.458   0.832  -1.990  0.00  0.00     0.062 A 
ATOM      3  C2  UNL d   1       2.232   1.317  -1.542  0.00  0.00     0.162 A 
ATOM      4  C3  UNL d   1       1.278   0.443  -1.021  0.00  0.00    -0.034 A 
ATOM      5  C4  UNL d   1       1.567  -0.921  -0.957  0.00  0.00     0.162 A 
ATOM      6  C5  UNL d   1       2.793  -1.400  -1.406  0.00  0.00     0.062 A 
ATOM      7  F   UNL d   1       3.063  -2.712  -1.340  0.00  0.00    -0.097 F 
ATOM      8  F1  UNL d   1       0.672  -1.789  -0.462  0.00  0.00    -0.096 F 
ATOM      9  I   UNL d   1      -0.556   1.164  -0.350  0.00  0.00    -0.060 I 
ATOM     10  F2  UNL d   1       1.988   2.634  -1.620  0.00  0.00    -0.096 F 
ATOM     11  F3  UNL d   1       4.369   1.680  -2.490  0.00  0.00    -0.097 F 
ATOM     12  F4  UNL d   1       4.918  -0.989  -2.355  0.00  0.00    -0.092 F 
ENDROOT
TORSDOF 0
ENDMDL
