MODEL 1
REMARK minimizedAffinity -0.205559298
REMARK minimizedRMSD -1
REMARK  0 active torsions:
REMARK  status: ('A' for Active; 'I' for Inactive)
ROOT
ATOM      1  C   UNL d   1       0.903  -0.195  -1.436  0.00  0.00     0.124 A 
ATOM      2  C1  UNL d   1       1.120  -1.027  -0.346  0.00  0.00     0.062 A 
ATOM      3  C2  UNL d   1       0.519  -0.749   0.878  0.00  0.00     0.162 A 
ATOM      4  C3  UNL d   1      -0.307   0.366   1.019  0.00  0.00    -0.034 A 
ATOM      5  C4  UNL d   1      -0.520   1.199  -0.080  0.00  0.00     0.162 A 
ATOM      6  C5  UNL d   1       0.083   0.917  -1.302  0.00  0.00     0.062 A 
ATOM      7  F   UNL d   1      -0.128   1.722  -2.353  0.00  0.00    -0.097 F 
ATOM      8  F1  UNL d   1      -1.308   2.280   0.021  0.00  0.00    -0.096 F 
ATOM      9  I   UNL d   1      -1.208   0.785   2.848  0.00  0.00    -0.060 I 
ATOM     10  F2  UNL d   1       0.747  -1.570   1.914  0.00  0.00    -0.096 F 
ATOM     11  F3  UNL d   1       1.912  -2.101  -0.473  0.00  0.00    -0.097 F 
ATOM     12  F4  UNL d   1       1.483  -0.464  -2.612  0.00  0.00    -0.092 F 
ENDROOT
TORSDOF 0
ENDMDL
