MODEL 1
REMARK minimizedAffinity -0.190651432
REMARK minimizedRMSD -1
REMARK  0 active torsions:
REMARK  status: ('A' for Active; 'I' for Inactive)
ROOT
ATOM      1  C   UNL d   1      -1.931  -2.081  -1.209  0.00  0.00     0.124 A 
ATOM      2  C1  UNL d   1      -0.758  -2.680  -1.645  0.00  0.00     0.062 A 
ATOM      3  C2  UNL d   1       0.421  -1.943  -1.717  0.00  0.00     0.162 A 
ATOM      4  C3  UNL d   1       0.432  -0.597  -1.349  0.00  0.00    -0.034 A 
ATOM      5  C4  UNL d   1      -0.753  -0.001  -0.912  0.00  0.00     0.162 A 
ATOM      6  C5  UNL d   1      -1.928  -0.742  -0.843  0.00  0.00     0.062 A 
ATOM      7  F   UNL d   1      -3.060  -0.162  -0.421  0.00  0.00    -0.097 F 
ATOM      8  F1  UNL d   1      -0.777   1.291  -0.552  0.00  0.00    -0.096 F 
ATOM      9  I   UNL d   1       2.191   0.510  -1.455  0.00  0.00    -0.060 I 
ATOM     10  F2  UNL d   1       1.540  -2.547  -2.142  0.00  0.00    -0.096 F 
ATOM     11  F3  UNL d   1      -0.759  -3.973  -2.000  0.00  0.00    -0.097 F 
ATOM     12  F4  UNL d   1      -3.063  -2.793  -1.142  0.00  0.00    -0.092 F 
ENDROOT
TORSDOF 0
ENDMDL
