MODEL 1
REMARK minimizedAffinity 13.1866903
REMARK minimizedRMSD -1
REMARK  0 active torsions:
REMARK  status: ('A' for Active; 'I' for Inactive)
ROOT
ATOM      1  C   UNL d   1       3.020   1.299  -2.739  0.00  0.00     0.124 A 
ATOM      2  C1  UNL d   1       2.676   0.257  -1.890  0.00  0.00     0.062 A 
ATOM      3  C2  UNL d   1       1.470   0.289  -1.196  0.00  0.00     0.162 A 
ATOM      4  C3  UNL d   1       0.598   1.367  -1.349  0.00  0.00    -0.034 A 
ATOM      5  C4  UNL d   1       0.952   2.412  -2.205  0.00  0.00     0.162 A 
ATOM      6  C5  UNL d   1       2.158   2.375  -2.896  0.00  0.00     0.062 A 
ATOM      7  F   UNL d   1       2.489   3.383  -3.717  0.00  0.00    -0.097 F 
ATOM      8  F1  UNL d   1       0.137   3.463  -2.376  0.00  0.00    -0.096 F 
ATOM      9  I   UNL d   1      -1.207   1.418  -0.314  0.00  0.00    -0.060 I 
ATOM     10  F2  UNL d   1       1.163  -0.732  -0.382  0.00  0.00    -0.096 F 
ATOM     11  F3  UNL d   1       3.508  -0.783  -1.736  0.00  0.00    -0.097 F 
ATOM     12  F4  UNL d   1       4.182   1.267  -3.405  0.00  0.00    -0.092 F 
ENDROOT
TORSDOF 0
ENDMDL
