MODEL 1
REMARK minimizedAffinity 11.9584646
REMARK minimizedRMSD -1
REMARK  0 active torsions:
REMARK  status: ('A' for Active; 'I' for Inactive)
ROOT
ATOM      1  C   UNL d   1       0.934   1.084  -0.530  0.00  0.00     0.124 A 
ATOM      2  C1  UNL d   1       1.096   0.043  -1.435  0.00  0.00     0.062 A 
ATOM      3  C2  UNL d   1       0.096  -0.913  -1.587  0.00  0.00     0.162 A 
ATOM      4  C3  UNL d   1      -1.075  -0.834  -0.833  0.00  0.00    -0.034 A 
ATOM      5  C4  UNL d   1      -1.229   0.214   0.075  0.00  0.00     0.162 A 
ATOM      6  C5  UNL d   1      -0.228   1.168   0.224  0.00  0.00     0.062 A 
ATOM      7  F   UNL d   1      -0.386   2.172   1.099  0.00  0.00    -0.097 F 
ATOM      8  F1  UNL d   1      -2.343   0.321   0.816  0.00  0.00    -0.096 F 
ATOM      9  I   UNL d   1      -2.571  -2.263  -1.058  0.00  0.00    -0.060 I 
ATOM     10  F2  UNL d   1       0.279  -1.907  -2.469  0.00  0.00    -0.096 F 
ATOM     11  F3  UNL d   1       2.218  -0.041  -2.164  0.00  0.00    -0.097 F 
ATOM     12  F4  UNL d   1       1.898   2.002  -0.384  0.00  0.00    -0.092 F 
ENDROOT
TORSDOF 0
ENDMDL
