MODEL 1
REMARK minimizedAffinity 7.8631258
REMARK minimizedRMSD -1
REMARK  0 active torsions:
REMARK  status: ('A' for Active; 'I' for Inactive)
ROOT
ATOM      1  C   UNL d   1       2.621   1.100  -2.452  0.00  0.00     0.124 A 
ATOM      2  C1  UNL d   1       1.625   2.063  -2.529  0.00  0.00     0.062 A 
ATOM      3  C2  UNL d   1       0.475   1.945  -1.754  0.00  0.00     0.162 A 
ATOM      4  C3  UNL d   1       0.315   0.860  -0.892  0.00  0.00    -0.034 A 
ATOM      5  C4  UNL d   1       1.321  -0.105  -0.820  0.00  0.00     0.162 A 
ATOM      6  C5  UNL d   1       2.468   0.017  -1.597  0.00  0.00     0.062 A 
ATOM      7  F   UNL d   1       3.430  -0.915  -1.521  0.00  0.00    -0.097 F 
ATOM      8  F1  UNL d   1       1.200  -1.162  -0.002  0.00  0.00    -0.096 F 
ATOM      9  I   UNL d   1      -1.402   0.681   0.269  0.00  0.00    -0.060 I 
ATOM     10  F2  UNL d   1      -0.471   2.891  -1.849  0.00  0.00    -0.096 F 
ATOM     11  F3  UNL d   1       1.770   3.110  -3.355  0.00  0.00    -0.097 F 
ATOM     12  F4  UNL d   1       3.726   1.215  -3.200  0.00  0.00    -0.092 F 
ENDROOT
TORSDOF 0
ENDMDL
