MODEL 1
REMARK minimizedAffinity 3.43772459
REMARK minimizedRMSD -1
REMARK  0 active torsions:
REMARK  status: ('A' for Active; 'I' for Inactive)
ROOT
ATOM      1  C   UNL d   1       1.794  -2.464  -1.765  0.00  0.00     0.124 A 
ATOM      2  C1  UNL d   1       0.487  -2.913  -1.632  0.00  0.00     0.062 A 
ATOM      3  C2  UNL d   1      -0.508  -2.050  -1.182  0.00  0.00     0.162 A 
ATOM      4  C3  UNL d   1      -0.200  -0.728  -0.862  0.00  0.00    -0.034 A 
ATOM      5  C4  UNL d   1       1.116  -0.283  -0.997  0.00  0.00     0.162 A 
ATOM      6  C5  UNL d   1       2.107  -1.150  -1.447  0.00  0.00     0.062 A 
ATOM      7  F   UNL d   1       3.369  -0.714  -1.574  0.00  0.00    -0.097 F 
ATOM      8  F1  UNL d   1       1.446   0.982  -0.698  0.00  0.00    -0.096 F 
ATOM      9  I   UNL d   1      -1.685   0.566  -0.189  0.00  0.00    -0.060 I 
ATOM     10  F2  UNL d   1      -1.762  -2.511  -1.064  0.00  0.00    -0.096 F 
ATOM     11  F3  UNL d   1       0.182  -4.182  -1.938  0.00  0.00    -0.097 F 
ATOM     12  F4  UNL d   1       2.749  -3.296  -2.197  0.00  0.00    -0.092 F 
ENDROOT
TORSDOF 0
ENDMDL
