MODEL 1
REMARK minimizedAffinity 18.4233513
REMARK minimizedRMSD -1
REMARK  0 active torsions:
REMARK  status: ('A' for Active; 'I' for Inactive)
ROOT
ATOM      1  C   UNL d   1       2.308  -0.562  -1.601  0.00  0.00     0.124 A 
ATOM      2  C1  UNL d   1       1.869  -1.849  -1.878  0.00  0.00     0.062 A 
ATOM      3  C2  UNL d   1       0.548  -2.209  -1.624  0.00  0.00     0.162 A 
ATOM      4  C3  UNL d   1      -0.344  -1.279  -1.089  0.00  0.00    -0.034 A 
ATOM      5  C4  UNL d   1       0.105   0.014  -0.812  0.00  0.00     0.162 A 
ATOM      6  C5  UNL d   1       1.426   0.368  -1.068  0.00  0.00     0.062 A 
ATOM      7  F   UNL d   1       1.848   1.612  -0.800  0.00  0.00    -0.097 F 
ATOM      8  F1  UNL d   1      -0.726   0.932  -0.298  0.00  0.00    -0.096 F 
ATOM      9  I   UNL d   1      -2.319  -1.812  -0.708  0.00  0.00    -0.060 I 
ATOM     10  F2  UNL d   1       0.152  -3.460  -1.901  0.00  0.00    -0.096 F 
ATOM     11  F3  UNL d   1       2.719  -2.750  -2.392  0.00  0.00    -0.097 F 
ATOM     12  F4  UNL d   1       3.579  -0.219  -1.846  0.00  0.00    -0.092 F 
ENDROOT
TORSDOF 0
ENDMDL
