MODEL 1
REMARK minimizedAffinity 9.49125957
REMARK minimizedRMSD -1
REMARK  0 active torsions:
REMARK  status: ('A' for Active; 'I' for Inactive)
ROOT
ATOM      1  C   UNL d   1       2.289  -0.558  -2.074  0.00  0.00     0.124 A 
ATOM      2  C1  UNL d   1       1.443   0.193  -1.270  0.00  0.00     0.062 A 
ATOM      3  C2  UNL d   1       0.203  -0.314  -0.891  0.00  0.00     0.162 A 
ATOM      4  C3  UNL d   1      -0.198  -1.580  -1.316  0.00  0.00    -0.034 A 
ATOM      5  C4  UNL d   1       0.657  -2.330  -2.125  0.00  0.00     0.162 A 
ATOM      6  C5  UNL d   1       1.895  -1.818  -2.501  0.00  0.00     0.062 A 
ATOM      7  F   UNL d   1       2.711  -2.546  -3.278  0.00  0.00    -0.097 F 
ATOM      8  F1  UNL d   1       0.303  -3.551  -2.551  0.00  0.00    -0.096 F 
ATOM      9  I   UNL d   1      -2.051  -2.343  -0.752  0.00  0.00    -0.060 I 
ATOM     10  F2  UNL d   1      -0.594   0.434  -0.114  0.00  0.00    -0.096 F 
ATOM     11  F3  UNL d   1       1.820   1.412  -0.857  0.00  0.00    -0.097 F 
ATOM     12  F4  UNL d   1       3.480  -0.067  -2.437  0.00  0.00    -0.092 F 
ENDROOT
TORSDOF 0
ENDMDL
