MODEL 1
REMARK minimizedAffinity 16.0555553
REMARK minimizedRMSD -1
REMARK  0 active torsions:
REMARK  status: ('A' for Active; 'I' for Inactive)
ROOT
ATOM      1  C   UNL d   1       1.057   1.513  -0.201  0.00  0.00     0.124 A 
ATOM      2  C1  UNL d   1       1.261   0.502  -1.129  0.00  0.00     0.062 A 
ATOM      3  C2  UNL d   1       0.280  -0.462  -1.341  0.00  0.00     0.162 A 
ATOM      4  C3  UNL d   1      -0.916  -0.418  -0.625  0.00  0.00    -0.034 A 
ATOM      5  C4  UNL d   1      -1.114   0.602   0.308  0.00  0.00     0.162 A 
ATOM      6  C5  UNL d   1      -0.130   1.563   0.517  0.00  0.00     0.062 A 
ATOM      7  F   UNL d   1      -0.329   2.539   1.414  0.00  0.00    -0.097 F 
ATOM      8  F1  UNL d   1      -2.252   0.674   1.014  0.00  0.00    -0.096 F 
ATOM      9  I   UNL d   1      -2.387  -1.857  -0.940  0.00  0.00    -0.060 I 
ATOM     10  F2  UNL d   1       0.504  -1.428  -2.244  0.00  0.00    -0.096 F 
ATOM     11  F3  UNL d   1       2.408   0.452  -1.822  0.00  0.00    -0.097 F 
ATOM     12  F4  UNL d   1       2.003   2.439   0.003  0.00  0.00    -0.092 F 
ENDROOT
TORSDOF 0
ENDMDL
