MODEL 1
REMARK minimizedAffinity 8.35529804
REMARK minimizedRMSD -1
REMARK  0 active torsions:
REMARK  status: ('A' for Active; 'I' for Inactive)
ROOT
ATOM      1  C   UNL d   1       2.268  -0.937  -1.342  0.00  0.00     0.124 A 
ATOM      2  C1  UNL d   1       1.792  -2.215  -1.600  0.00  0.00     0.062 A 
ATOM      3  C2  UNL d   1       0.437  -2.500  -1.452  0.00  0.00     0.162 A 
ATOM      4  C3  UNL d   1      -0.451  -1.505  -1.045  0.00  0.00    -0.034 A 
ATOM      5  C4  UNL d   1       0.035  -0.223  -0.786  0.00  0.00     0.162 A 
ATOM      6  C5  UNL d   1       1.390   0.058  -0.935  0.00  0.00     0.062 A 
ATOM      7  F   UNL d   1       1.848   1.293  -0.685  0.00  0.00    -0.097 F 
ATOM      8  F1  UNL d   1      -0.791   0.758  -0.392  0.00  0.00    -0.096 F 
ATOM      9  I   UNL d   1      -2.477  -1.928  -0.822  0.00  0.00    -0.060 I 
ATOM     10  F2  UNL d   1       0.005  -3.744  -1.709  0.00  0.00    -0.096 F 
ATOM     11  F3  UNL d   1       2.638  -3.178  -1.993  0.00  0.00    -0.097 F 
ATOM     12  F4  UNL d   1       3.572  -0.665  -1.484  0.00  0.00    -0.092 F 
ENDROOT
TORSDOF 0
ENDMDL
