MODEL 1
REMARK minimizedAffinity -1.76346123
REMARK minimizedRMSD -1
REMARK  0 active torsions:
REMARK  status: ('A' for Active; 'I' for Inactive)
ROOT
ATOM      1  C   UNL d   1       1.087  -1.557  -0.900  0.00  0.00     0.124 A 
ATOM      2  C1  UNL d   1      -0.284  -1.592  -0.687  0.00  0.00     0.062 A 
ATOM      3  C2  UNL d   1      -0.953  -0.458  -0.237  0.00  0.00     0.162 A 
ATOM      4  C3  UNL d   1      -0.251   0.724   0.003  0.00  0.00    -0.034 A 
ATOM      5  C4  UNL d   1       1.128   0.752  -0.213  0.00  0.00     0.162 A 
ATOM      6  C5  UNL d   1       1.791  -0.385  -0.663  0.00  0.00     0.062 A 
ATOM      7  F   UNL d   1       3.116  -0.348  -0.869  0.00  0.00    -0.097 F 
ATOM      8  F1  UNL d   1       1.834   1.871   0.007  0.00  0.00    -0.096 F 
ATOM      9  I   UNL d   1      -1.246   2.423   0.677  0.00  0.00    -0.060 I 
ATOM     10  F2  UNL d   1      -2.278  -0.521  -0.039  0.00  0.00    -0.096 F 
ATOM     11  F3  UNL d   1      -0.967  -2.724  -0.915  0.00  0.00    -0.097 F 
ATOM     12  F4  UNL d   1       1.727  -2.650  -1.333  0.00  0.00    -0.092 F 
ENDROOT
TORSDOF 0
ENDMDL
