MODEL 1
REMARK minimizedAffinity 8.03816414
REMARK minimizedRMSD -1
REMARK  0 active torsions:
REMARK  status: ('A' for Active; 'I' for Inactive)
ROOT
ATOM      1  C   UNL d   1       2.689   1.039  -2.711  0.00  0.00     0.124 A 
ATOM      2  C1  UNL d   1       1.876   2.160  -2.815  0.00  0.00     0.062 A 
ATOM      3  C2  UNL d   1       0.651   2.199  -2.154  0.00  0.00     0.162 A 
ATOM      4  C3  UNL d   1       0.232   1.115  -1.384  0.00  0.00    -0.034 A 
ATOM      5  C4  UNL d   1       1.054  -0.009  -1.285  0.00  0.00     0.162 A 
ATOM      6  C5  UNL d   1       2.277  -0.044  -1.947  0.00  0.00     0.062 A 
ATOM      7  F   UNL d   1       3.061  -1.127  -1.846  0.00  0.00    -0.097 F 
ATOM      8  F1  UNL d   1       0.682  -1.069  -0.553  0.00  0.00    -0.096 F 
ATOM      9  I   UNL d   1      -1.599   1.170  -0.395  0.00  0.00    -0.060 I 
ATOM     10  F2  UNL d   1      -0.114   3.295  -2.272  0.00  0.00    -0.096 F 
ATOM     11  F3  UNL d   1       2.271   3.207  -3.553  0.00  0.00    -0.097 F 
ATOM     12  F4  UNL d   1       3.866   1.003  -3.348  0.00  0.00    -0.092 F 
ENDROOT
TORSDOF 0
ENDMDL
