MODEL 1
REMARK minimizedAffinity 8.93763161
REMARK minimizedRMSD -1
REMARK  0 active torsions:
REMARK  status: ('A' for Active; 'I' for Inactive)
ROOT
ATOM      1  C   UNL d   1       0.900  -1.372  -0.681  0.00  0.00     0.124 A 
ATOM      2  C1  UNL d   1       2.145  -1.297  -1.291  0.00  0.00     0.062 A 
ATOM      3  C2  UNL d   1       2.482  -0.186  -2.059  0.00  0.00     0.162 A 
ATOM      4  C3  UNL d   1       1.573   0.859  -2.222  0.00  0.00    -0.034 A 
ATOM      5  C4  UNL d   1       0.323   0.776  -1.606  0.00  0.00     0.162 A 
ATOM      6  C5  UNL d   1      -0.010  -0.337  -0.840  0.00  0.00     0.062 A 
ATOM      7  F   UNL d   1      -1.213  -0.408  -0.252  0.00  0.00    -0.097 F 
ATOM      8  F1  UNL d   1      -0.575   1.763  -1.742  0.00  0.00    -0.096 F 
ATOM      9  I   UNL d   1       2.073   2.521  -3.369  0.00  0.00    -0.060 I 
ATOM     10  F2  UNL d   1       3.692  -0.140  -2.636  0.00  0.00    -0.096 F 
ATOM     11  F3  UNL d   1       3.025  -2.297  -1.140  0.00  0.00    -0.097 F 
ATOM     12  F4  UNL d   1       0.578  -2.443   0.056  0.00  0.00    -0.092 F 
ENDROOT
TORSDOF 0
ENDMDL
