MODEL 1
REMARK minimizedAffinity 1.66689742
REMARK minimizedRMSD -1
REMARK  0 active torsions:
REMARK  status: ('A' for Active; 'I' for Inactive)
ROOT
ATOM      1  C4' PXY d   1       6.000  -2.738   6.000  0.00  0.00     0.077 C 
ATOM      2  C1' PXY d   1       2.395   0.404   2.753  0.00  0.00     0.077 C 
ATOM      3  C1  PXY d   1       3.334  -0.415   3.615  0.00  0.00    -0.082 A 
ATOM      4  C2  PXY d   1       4.523  -0.757   3.145  0.00  0.00     0.003 A 
ATOM      5  C3  PXY d   1       5.372  -1.526   3.899  0.00  0.00     0.003 A 
ATOM      6  C4  PXY d   1       5.023  -1.903   5.168  0.00  0.00    -0.082 A 
ATOM      7  C5  PXY d   1       3.816  -1.549   5.659  0.00  0.00     0.003 A 
ATOM      8  C6  PXY d   1       2.952  -0.804   4.862  0.00  0.00     0.003 A 
ENDROOT
TORSDOF 0
ENDMDL
