MODEL 1
REMARK minimizedAffinity 4.9112978
REMARK minimizedRMSD -1
REMARK  0 active torsions:
REMARK  status: ('A' for Active; 'I' for Inactive)
ROOT
ATOM      1  C4' PXY d   1       2.697  -5.931  -0.602  0.00  0.00     0.077 C 
ATOM      2  C1' PXY d   1       4.774  -5.877  -5.996  0.00  0.00     0.077 C 
ATOM      3  C1  PXY d   1       4.241  -5.895  -4.577  0.00  0.00    -0.082 A 
ATOM      4  C2  PXY d   1       2.938  -5.998  -4.369  0.00  0.00     0.003 A 
ATOM      5  C3  PXY d   1       2.436  -5.984  -3.093  0.00  0.00     0.003 A 
ATOM      6  C4  PXY d   1       3.281  -5.917  -2.017  0.00  0.00    -0.082 A 
ATOM      7  C5  PXY d   1       4.612  -5.823  -2.221  0.00  0.00     0.003 A 
ATOM      8  C6  PXY d   1       5.098  -5.797  -3.525  0.00  0.00     0.003 A 
ENDROOT
TORSDOF 0
ENDMDL
