MODEL 1
REMARK minimizedAffinity 10.8491888
REMARK minimizedRMSD -1
REMARK  0 active torsions:
REMARK  status: ('A' for Active; 'I' for Inactive)
ROOT
ATOM      1  C4' PXY d   1       2.795   3.310   3.397  0.00  0.00     0.077 C 
ATOM      2  C1' PXY d   1       2.276  -2.440   3.692  0.00  0.00     0.077 C 
ATOM      3  C1  PXY d   1       2.420  -0.933   3.605  0.00  0.00    -0.082 A 
ATOM      4  C2  PXY d   1       2.182  -0.190   4.673  0.00  0.00     0.003 A 
ATOM      5  C3  PXY d   1       2.277   1.176   4.603  0.00  0.00     0.003 A 
ATOM      6  C4  PXY d   1       2.671   1.784   3.442  0.00  0.00    -0.082 A 
ATOM      7  C5  PXY d   1       2.926   1.032   2.350  0.00  0.00     0.003 A 
ATOM      8  C6  PXY d   1       2.784  -0.350   2.430  0.00  0.00     0.003 A 
ENDROOT
TORSDOF 0
ENDMDL
