MODEL 1
REMARK minimizedAffinity 10.6243687
REMARK minimizedRMSD -1
REMARK  0 active torsions:
REMARK  status: ('A' for Active; 'I' for Inactive)
ROOT
ATOM      1  C4' PXY d   1       3.002   0.094   1.455  0.00  0.00     0.077 C 
ATOM      2  C1' PXY d   1       1.525  -3.997   5.262  0.00  0.00     0.077 C 
ATOM      3  C1  PXY d   1       1.918  -2.933   4.256  0.00  0.00    -0.082 A 
ATOM      4  C2  PXY d   1       2.036  -1.675   4.647  0.00  0.00     0.003 A 
ATOM      5  C3  PXY d   1       2.360  -0.695   3.744  0.00  0.00     0.003 A 
ATOM      6  C4  PXY d   1       2.617  -1.015   2.438  0.00  0.00    -0.082 A 
ATOM      7  C5  PXY d   1       2.509  -2.298   2.033  0.00  0.00     0.003 A 
ATOM      8  C6  PXY d   1       2.139  -3.271   2.957  0.00  0.00     0.003 A 
ENDROOT
TORSDOF 0
ENDMDL
