MODEL 1
REMARK minimizedAffinity -0.880034506
REMARK minimizedRMSD -1
REMARK  0 active torsions:
REMARK  status: ('A' for Active; 'I' for Inactive)
ROOT
ATOM      1  C4' PXY d   1       1.855  -3.830   4.727  0.00  0.00     0.077 C 
ATOM      2  C1' PXY d   1       3.156   0.793   1.510  0.00  0.00     0.077 C 
ATOM      3  C1  PXY d   1       2.823  -0.415   2.363  0.00  0.00    -0.082 A 
ATOM      4  C2  PXY d   1       2.401  -1.528   1.785  0.00  0.00     0.003 A 
ATOM      5  C3  PXY d   1       2.065  -2.620   2.543  0.00  0.00     0.003 A 
ATOM      6  C4  PXY d   1       2.212  -2.589   3.904  0.00  0.00    -0.082 A 
ATOM      7  C5  PXY d   1       2.652  -1.461   4.501  0.00  0.00     0.003 A 
ATOM      8  C6  PXY d   1       2.949  -0.351   3.716  0.00  0.00     0.003 A 
ENDROOT
TORSDOF 0
ENDMDL
