MODEL 1
REMARK minimizedAffinity 5.10402966
REMARK minimizedRMSD -1
REMARK  0 active torsions:
REMARK  status: ('A' for Active; 'I' for Inactive)
ROOT
ATOM      1  C4' PXY d   1       2.961   0.570   2.141  0.00  0.00     0.077 C 
ATOM      2  C1' PXY d   1       2.766  -4.418   5.056  0.00  0.00     0.077 C 
ATOM      3  C1  PXY d   1       2.805  -3.112   4.288  0.00  0.00    -0.082 A 
ATOM      4  C2  PXY d   1       3.963  -2.644   3.851  0.00  0.00     0.003 A 
ATOM      5  C3  PXY d   1       4.020  -1.448   3.182  0.00  0.00     0.003 A 
ATOM      6  C4  PXY d   1       2.873  -0.750   2.913  0.00  0.00    -0.082 A 
ATOM      7  C5  PXY d   1       1.687  -1.226   3.347  0.00  0.00     0.003 A 
ATOM      8  C6  PXY d   1       1.655  -2.421   4.059  0.00  0.00     0.003 A 
ENDROOT
TORSDOF 0
ENDMDL
