MODEL 1
REMARK minimizedAffinity 3.66035318
REMARK minimizedRMSD -1
REMARK  0 active torsions:
REMARK  status: ('A' for Active; 'I' for Inactive)
ROOT
ATOM      1  C4' PXY d   1       1.222  -0.503   1.505  0.00  0.00     0.077 C 
ATOM      2  C1' PXY d   1       3.823  -4.047   5.259  0.00  0.00     0.077 C 
ATOM      3  C1  PXY d   1       3.149  -3.108   4.278  0.00  0.00    -0.082 A 
ATOM      4  C2  PXY d   1       1.913  -3.359   3.876  0.00  0.00     0.003 A 
ATOM      5  C3  PXY d   1       1.300  -2.537   2.965  0.00  0.00     0.003 A 
ATOM      6  C4  PXY d   1       1.939  -1.419   2.502  0.00  0.00    -0.082 A 
ATOM      7  C5  PXY d   1       3.195  -1.150   2.915  0.00  0.00     0.003 A 
ATOM      8  C6  PXY d   1       3.815  -2.019   3.808  0.00  0.00     0.003 A 
ENDROOT
TORSDOF 0
ENDMDL
