MODEL 1
REMARK minimizedAffinity 0.661884189
REMARK minimizedRMSD -1
REMARK  0 active torsions:
REMARK  status: ('A' for Active; 'I' for Inactive)
ROOT
ATOM      1  C4' PXY d   1       2.786   0.335   1.980  0.00  0.00     0.077 C 
ATOM      2  C1' PXY d   1       0.917   4.877  -1.069  0.00  0.00     0.077 C 
ATOM      3  C1  PXY d   1       1.411   3.680  -0.281  0.00  0.00    -0.082 A 
ATOM      4  C2  PXY d   1       0.914   3.438   0.922  0.00  0.00     0.003 A 
ATOM      5  C3  PXY d   1       1.372   2.379   1.662  0.00  0.00     0.003 A 
ATOM      6  C4  PXY d   1       2.310   1.526   1.144  0.00  0.00    -0.082 A 
ATOM      7  C5  PXY d   1       2.815   1.760  -0.086  0.00  0.00     0.003 A 
ATOM      8  C6  PXY d   1       2.366   2.864  -0.804  0.00  0.00     0.003 A 
ENDROOT
TORSDOF 0
ENDMDL
