MODEL 1
REMARK minimizedAffinity 8.60272408
REMARK minimizedRMSD -1
REMARK  0 active torsions:
REMARK  status: ('A' for Active; 'I' for Inactive)
ROOT
ATOM      1  C4' PXY d   1       1.860  -2.589   4.577  0.00  0.00     0.077 C 
ATOM      2  C1' PXY d   1       2.938   2.203   1.528  0.00  0.00     0.077 C 
ATOM      3  C1  PXY d   1       2.659   0.952   2.338  0.00  0.00    -0.082 A 
ATOM      4  C2  PXY d   1       2.659  -0.228   1.741  0.00  0.00     0.003 A 
ATOM      5  C3  PXY d   1       2.377  -1.366   2.452  0.00  0.00     0.003 A 
ATOM      6  C4  PXY d   1       2.146  -1.301   3.800  0.00  0.00    -0.082 A 
ATOM      7  C5  PXY d   1       2.154  -0.101   4.419  0.00  0.00     0.003 A 
ATOM      8  C6  PXY d   1       2.402   1.046   3.671  0.00  0.00     0.003 A 
ENDROOT
TORSDOF 0
ENDMDL
