MODEL 1
REMARK minimizedAffinity 6.50627089
REMARK minimizedRMSD -1
REMARK  0 active torsions:
REMARK  status: ('A' for Active; 'I' for Inactive)
ROOT
ATOM      1  C4' PXY d   1       3.397  -3.751   6.000  0.00  0.00     0.077 C 
ATOM      2  C1' PXY d   1       1.965  -0.044   1.802  0.00  0.00     0.077 C 
ATOM      3  C1  PXY d   1       2.342  -1.026   2.894  0.00  0.00    -0.082 A 
ATOM      4  C2  PXY d   1       1.944  -0.806   4.136  0.00  0.00     0.003 A 
ATOM      5  C3  PXY d   1       2.303  -1.667   5.142  0.00  0.00     0.003 A 
ATOM      6  C4  PXY d   1       3.032  -2.792   4.863  0.00  0.00    -0.082 A 
ATOM      7  C5  PXY d   1       3.432  -3.029   3.596  0.00  0.00     0.003 A 
ATOM      8  C6  PXY d   1       3.093  -2.121   2.597  0.00  0.00     0.003 A 
ENDROOT
TORSDOF 0
ENDMDL
