MODEL 1
REMARK minimizedAffinity 13.9459877
REMARK minimizedRMSD -1
REMARK  0 active torsions:
REMARK  status: ('A' for Active; 'I' for Inactive)
ROOT
ATOM      1  C4' PXY d   1      -5.999   1.970  -0.888  0.00  0.00     0.077 C 
ATOM      2  C1' PXY d   1      -5.740   3.718   4.616  0.00  0.00     0.077 C 
ATOM      3  C1  PXY d   1      -5.814   3.270   3.169  0.00  0.00    -0.082 A 
ATOM      4  C2  PXY d   1      -5.766   1.980   2.880  0.00  0.00     0.003 A 
ATOM      5  C3  PXY d   1      -5.800   1.560   1.576  0.00  0.00     0.003 A 
ATOM      6  C4  PXY d   1      -5.937   2.466   0.559  0.00  0.00    -0.082 A 
ATOM      7  C5  PXY d   1      -5.997   3.784   0.846  0.00  0.00     0.003 A 
ATOM      8  C6  PXY d   1      -5.920   4.193   2.175  0.00  0.00     0.003 A 
ENDROOT
TORSDOF 0
ENDMDL
