MODEL 1
REMARK minimizedAffinity 9.43079662
REMARK minimizedRMSD -1
REMARK  0 active torsions:
REMARK  status: ('A' for Active; 'I' for Inactive)
ROOT
ATOM      1  C4' PXY d   1      -6.000   2.231   3.698  0.00  0.00     0.077 C 
ATOM      2  C1' PXY d   1      -1.865   4.160   0.149  0.00  0.00     0.077 C 
ATOM      3  C1  PXY d   1      -2.957   3.663   1.075  0.00  0.00    -0.082 A 
ATOM      4  C2  PXY d   1      -2.632   3.032   2.191  0.00  0.00     0.003 A 
ATOM      5  C3  PXY d   1      -3.608   2.547   3.024  0.00  0.00     0.003 A 
ATOM      6  C4  PXY d   1      -4.930   2.758   2.738  0.00  0.00    -0.082 A 
ATOM      7  C5  PXY d   1      -5.270   3.410   1.606  0.00  0.00     0.003 A 
ATOM      8  C6  PXY d   1      -4.265   3.858   0.753  0.00  0.00     0.003 A 
ENDROOT
TORSDOF 0
ENDMDL
