MODEL 1
REMARK minimizedAffinity 7.32073927
REMARK minimizedRMSD -1
REMARK  1 active torsions:
REMARK  status: ('A' for Active; 'I' for Inactive)
REMARK    1  A    between atoms: C1_2  and  C2_3 
ROOT
ATOM      1  C2  UNL d   1       3.755  -4.591  -0.882  0.00  0.00    -0.077 A 
ATOM      2  C3  UNL d   1       2.505  -4.915  -1.428  0.00  0.00     0.002 A 
ATOM      3  C4  UNL d   1       1.492  -3.956  -1.492  0.00  0.00     0.002 A 
ATOM      4  C5  UNL d   1       1.720  -2.667  -1.016  0.00  0.00    -0.004 A 
ATOM      5  C6  UNL d   1       2.959  -2.335  -0.470  0.00  0.00     0.002 A 
ATOM      6  C7  UNL d   1       3.972  -3.293  -0.404  0.00  0.00     0.002 A 
ENDROOT
BRANCH   1   7
ATOM      7  C1  UNL d   1       4.864  -5.610  -0.858  0.00  0.00     0.055 C 
ATOM      8  C   UNL d   1       5.973  -5.197   0.100  0.00  0.00     0.019 C 
ENDBRANCH   1   7
TORSDOF 1
ENDMDL
