MODEL 1
REMARK minimizedAffinity 11.9699793
REMARK minimizedRMSD -1
REMARK  1 active torsions:
REMARK  status: ('A' for Active; 'I' for Inactive)
REMARK    1  A    between atoms: C1_2  and  C2_3 
ROOT
ATOM      1  C2  UNL d   1      -1.783   4.812  -1.582  0.00  0.00    -0.077 A 
ATOM      2  C3  UNL d   1      -0.636   5.530  -1.949  0.00  0.00     0.002 A 
ATOM      3  C4  UNL d   1       0.620   4.923  -1.907  0.00  0.00     0.002 A 
ATOM      4  C5  UNL d   1       0.742   3.595  -1.502  0.00  0.00    -0.004 A 
ATOM      5  C6  UNL d   1      -0.393   2.873  -1.133  0.00  0.00     0.002 A 
ATOM      6  C7  UNL d   1      -1.650   3.479  -1.173  0.00  0.00     0.002 A 
ENDROOT
BRANCH   1   7
ATOM      7  C1  UNL d   1      -3.145   5.449  -1.674  0.00  0.00     0.055 C 
ATOM      8  C   UNL d   1      -3.990   4.797  -2.758  0.00  0.00     0.019 C 
ENDBRANCH   1   7
TORSDOF 1
ENDMDL
