MODEL 1
REMARK minimizedAffinity 3.90393901
REMARK minimizedRMSD -1
REMARK  1 active torsions:
REMARK  status: ('A' for Active; 'I' for Inactive)
REMARK    1  A    between atoms: C1_2  and  C2_3 
ROOT
ATOM      1  C2  UNL d   1      -0.266   3.534  -0.620  0.00  0.00    -0.077 A 
ATOM      2  C3  UNL d   1      -1.572   3.928  -0.939  0.00  0.00     0.002 A 
ATOM      3  C4  UNL d   1      -1.808   5.157  -1.558  0.00  0.00     0.002 A 
ATOM      4  C5  UNL d   1      -0.741   5.999  -1.868  0.00  0.00    -0.004 A 
ATOM      5  C6  UNL d   1       0.562   5.616  -1.553  0.00  0.00     0.002 A 
ATOM      6  C7  UNL d   1       0.799   4.389  -0.933  0.00  0.00     0.002 A 
ENDROOT
BRANCH   1   7
ATOM      7  C1  UNL d   1      -0.005   2.187   0.004  0.00  0.00     0.055 C 
ATOM      8  C   UNL d   1      -0.019   2.269   1.523  0.00  0.00     0.019 C 
ENDBRANCH   1   7
TORSDOF 1
ENDMDL
