MODEL 1
REMARK minimizedAffinity 7.94105291
REMARK minimizedRMSD -1
REMARK  1 active torsions:
REMARK  status: ('A' for Active; 'I' for Inactive)
REMARK    1  A    between atoms: C1_2  and  C2_3 
ROOT
ATOM      1  C2  UNL d   1      -0.669  -4.098  -3.270  0.00  0.00    -0.077 A 
ATOM      2  C3  UNL d   1      -0.563  -4.134  -1.873  0.00  0.00     0.002 A 
ATOM      3  C4  UNL d   1       0.666  -3.906  -1.251  0.00  0.00     0.002 A 
ATOM      4  C5  UNL d   1       1.797  -3.637  -2.019  0.00  0.00    -0.004 A 
ATOM      5  C6  UNL d   1       1.702  -3.601  -3.409  0.00  0.00     0.002 A 
ATOM      6  C7  UNL d   1       0.475  -3.830  -4.032  0.00  0.00     0.002 A 
ENDROOT
BRANCH   1   7
ATOM      7  C1  UNL d   1      -2.004  -4.295  -3.940  0.00  0.00     0.055 C 
ATOM      8  C   UNL d   1      -1.963  -5.453  -4.926  0.00  0.00     0.019 C 
ENDBRANCH   1   7
TORSDOF 1
ENDMDL
