MODEL 1
REMARK minimizedAffinity 5.35042334
REMARK minimizedRMSD -1
REMARK  1 active torsions:
REMARK  status: ('A' for Active; 'I' for Inactive)
REMARK    1  A    between atoms: C1_2  and  C2_3 
ROOT
ATOM      1  C2  UNL d   1       0.943   1.528  -0.559  0.00  0.00    -0.077 A 
ATOM      2  C3  UNL d   1       1.089   1.934   0.775  0.00  0.00     0.002 A 
ATOM      3  C4  UNL d   1       0.215   2.872   1.328  0.00  0.00     0.002 A 
ATOM      4  C5  UNL d   1      -0.813   3.409   0.555  0.00  0.00    -0.004 A 
ATOM      5  C6  UNL d   1      -0.965   3.014  -0.773  0.00  0.00     0.002 A 
ATOM      6  C7  UNL d   1      -0.092   2.077  -1.327  0.00  0.00     0.002 A 
ENDROOT
BRANCH   1   7
ATOM      7  C1  UNL d   1       1.854   0.480  -1.142  0.00  0.00     0.055 C 
ATOM      8  C   UNL d   1       2.018  -0.700  -0.195  0.00  0.00     0.019 C 
ENDBRANCH   1   7
TORSDOF 1
ENDMDL
