MODEL 1
REMARK minimizedAffinity 18.4811974
REMARK minimizedRMSD -1
REMARK  2 active torsions:
REMARK  status: ('A' for Active; 'I' for Inactive)
REMARK    1  A    between atoms: C2'_3  and  C1'_4 
REMARK    2  A    between atoms: C1'_4  and  C1_5 
ROOT
ATOM      1  C1  I4B d   1      -3.050   1.116   3.287  0.00  0.00    -0.075 A 
ATOM      2  C2  I4B d   1      -4.054   1.045   2.355  0.00  0.00     0.003 A 
ATOM      3  C3  I4B d   1      -5.136   0.150   2.539  0.00  0.00     0.002 A 
ATOM      4  C4  I4B d   1      -5.147  -0.686   3.637  0.00  0.00    -0.004 A 
ATOM      5  C5  I4B d   1      -4.139  -0.596   4.593  0.00  0.00     0.002 A 
ATOM      6  C6  I4B d   1      -3.090   0.319   4.424  0.00  0.00     0.003 A 
ENDROOT
BRANCH   1   7
ATOM      7  C1' I4B d   1      -1.906   2.049   3.045  0.00  0.00     0.060 C 
BRANCH   7   8
ATOM      8  C2' I4B d   1      -0.694   1.500   3.770  0.00  0.00    -0.013 C 
ATOM      9  C4' I4B d   1       0.347   1.009   2.799  0.00  0.00     0.013 C 
ATOM     10  C3' I4B d   1      -0.147   2.588   4.646  0.00  0.00     0.013 C 
ENDBRANCH   7   8
ENDBRANCH   1   7
TORSDOF 2
ENDMDL
