MODEL 1
REMARK minimizedAffinity 13.4473906
REMARK minimizedRMSD -1
REMARK  2 active torsions:
REMARK  status: ('A' for Active; 'I' for Inactive)
REMARK    1  A    between atoms: C2'_3  and  C1'_4 
REMARK    2  A    between atoms: C1'_4  and  C1_5 
ROOT
ATOM      1  C1  I4B d   1       2.129   1.340   1.102  0.00  0.00    -0.075 A 
ATOM      2  C2  I4B d   1       3.483   1.563   1.135  0.00  0.00     0.003 A 
ATOM      3  C3  I4B d   1       4.354   0.782   0.337  0.00  0.00     0.002 A 
ATOM      4  C4  I4B d   1       3.836  -0.237  -0.437  0.00  0.00    -0.004 A 
ATOM      5  C5  I4B d   1       2.461  -0.446  -0.486  0.00  0.00     0.002 A 
ATOM      6  C6  I4B d   1       1.601   0.355   0.278  0.00  0.00     0.003 A 
ENDROOT
BRANCH   1   7
ATOM      7  C1' I4B d   1       1.242   2.161   1.983  0.00  0.00     0.060 C 
BRANCH   7   8
ATOM      8  C2' I4B d   1       0.533   1.222   2.938  0.00  0.00    -0.013 C 
ATOM      9  C4' I4B d   1       0.841   1.566   4.371  0.00  0.00     0.013 C 
ATOM     10  C3' I4B d   1      -0.939   1.307   2.664  0.00  0.00     0.013 C 
ENDBRANCH   7   8
ENDBRANCH   1   7
TORSDOF 2
ENDMDL
