MODEL 1
REMARK minimizedAffinity 12.5567274
REMARK minimizedRMSD -1
REMARK  2 active torsions:
REMARK  status: ('A' for Active; 'I' for Inactive)
REMARK    1  A    between atoms: C2'_3  and  C1'_4 
REMARK    2  A    between atoms: C1'_4  and  C1_5 
ROOT
ATOM      1  C1  I4B d   1       2.470  -0.967  -1.272  0.00  0.00    -0.075 A 
ATOM      2  C2  I4B d   1       2.691   0.387  -1.275  0.00  0.00     0.003 A 
ATOM      3  C3  I4B d   1       3.745   0.940  -0.507  0.00  0.00     0.002 A 
ATOM      4  C4  I4B d   1       4.515   0.112   0.284  0.00  0.00    -0.004 A 
ATOM      5  C5  I4B d   1       4.305  -1.264   0.268  0.00  0.00     0.002 A 
ATOM      6  C6  I4B d   1       3.284  -1.809  -0.524  0.00  0.00     0.003 A 
ENDROOT
BRANCH   1   7
ATOM      7  C1' I4B d   1       1.328  -1.513  -2.069  0.00  0.00     0.060 C 
BRANCH   7   8
ATOM      8  C2' I4B d   1       0.309  -2.075  -1.100  0.00  0.00    -0.013 C 
ATOM      9  C4' I4B d   1      -0.452  -3.222  -1.712  0.00  0.00     0.013 C 
ATOM     10  C3' I4B d   1       1.036  -2.508   0.138  0.00  0.00     0.013 C 
ENDBRANCH   7   8
ENDBRANCH   1   7
TORSDOF 2
ENDMDL
