MODEL 1
REMARK minimizedAffinity 12.7911873
REMARK minimizedRMSD -1
REMARK  2 active torsions:
REMARK  status: ('A' for Active; 'I' for Inactive)
REMARK    1  A    between atoms: C2'_3  and  C1'_4 
REMARK    2  A    between atoms: C1'_4  and  C1_5 
ROOT
ATOM      1  C1  I4B d   1       0.519  -2.836  -1.430  0.00  0.00    -0.075 A 
ATOM      2  C2  I4B d   1       0.529  -1.695  -2.193  0.00  0.00     0.003 A 
ATOM      3  C3  I4B d   1       1.674  -0.862  -2.215  0.00  0.00     0.002 A 
ATOM      4  C4  I4B d   1       2.760  -1.179  -1.425  0.00  0.00    -0.004 A 
ATOM      5  C5  I4B d   1       2.757  -2.348  -0.669  0.00  0.00     0.002 A 
ATOM      6  C6  I4B d   1       1.635  -3.189  -0.681  0.00  0.00     0.003 A 
ENDROOT
BRANCH   1   7
ATOM      7  C1' I4B d   1      -0.719  -3.675  -1.405  0.00  0.00     0.060 C 
BRANCH   7   8
ATOM      8  C2' I4B d   1      -1.056  -4.052  -2.833  0.00  0.00    -0.013 C 
ATOM      9  C4' I4B d   1      -0.579  -5.443  -3.157  0.00  0.00     0.013 C 
ATOM     10  C3' I4B d   1      -2.542  -3.936  -3.003  0.00  0.00     0.013 C 
ENDBRANCH   7   8
ENDBRANCH   1   7
TORSDOF 2
ENDMDL
