MODEL 1
REMARK minimizedAffinity 14.5537605
REMARK minimizedRMSD -1
REMARK  2 active torsions:
REMARK  status: ('A' for Active; 'I' for Inactive)
REMARK    1  A    between atoms: C2'_3  and  C1'_4 
REMARK    2  A    between atoms: C1'_4  and  C1_5 
ROOT
ATOM      1  C1  I4B d   1      -3.964  -0.125   4.536  0.00  0.00    -0.075 A 
ATOM      2  C2  I4B d   1      -4.097   0.722   3.464  0.00  0.00     0.003 A 
ATOM      3  C3  I4B d   1      -3.993   2.122   3.645  0.00  0.00     0.002 A 
ATOM      4  C4  I4B d   1      -3.806   2.632   4.914  0.00  0.00    -0.004 A 
ATOM      5  C5  I4B d   1      -3.648   1.771   5.996  0.00  0.00     0.002 A 
ATOM      6  C6  I4B d   1      -3.715   0.383   5.805  0.00  0.00     0.003 A 
ENDROOT
BRANCH   1   7
ATOM      7  C1' I4B d   1      -4.113  -1.597   4.315  0.00  0.00     0.060 C 
BRANCH   7   8
ATOM      8  C2' I4B d   1      -4.337  -2.251   5.663  0.00  0.00    -0.013 C 
ATOM      9  C4' I4B d   1      -5.804  -2.318   5.999  0.00  0.00     0.013 C 
ATOM     10  C3' I4B d   1      -3.729  -3.621   5.620  0.00  0.00     0.013 C 
ENDBRANCH   7   8
ENDBRANCH   1   7
TORSDOF 2
ENDMDL
