MODEL 1
REMARK minimizedAffinity 19.391037
REMARK minimizedRMSD -1
REMARK  2 active torsions:
REMARK  status: ('A' for Active; 'I' for Inactive)
REMARK    1  A    between atoms: C2'_3  and  C1'_4 
REMARK    2  A    between atoms: C1'_4  and  C1_5 
ROOT
ATOM      1  C1  I4B d   1       1.647  -5.185  -1.326  0.00  0.00    -0.075 A 
ATOM      2  C2  I4B d   1       1.135  -5.999  -2.305  0.00  0.00     0.003 A 
ATOM      3  C3  I4B d   1      -0.035  -5.620  -3.007  0.00  0.00     0.002 A 
ATOM      4  C4  I4B d   1      -0.685  -4.453  -2.664  0.00  0.00    -0.004 A 
ATOM      5  C5  I4B d   1      -0.152  -3.618  -1.686  0.00  0.00     0.002 A 
ATOM      6  C6  I4B d   1       1.028  -3.979  -1.021  0.00  0.00     0.003 A 
ENDROOT
BRANCH   1   7
ATOM      7  C1' I4B d   1       2.866  -5.631  -0.582  0.00  0.00     0.060 C 
BRANCH   7   8
ATOM      8  C2' I4B d   1       4.066  -4.938  -1.194  0.00  0.00    -0.013 C 
ATOM      9  C4' I4B d   1       4.416  -3.683  -0.439  0.00  0.00     0.013 C 
ATOM     10  C3' I4B d   1       5.210  -5.907  -1.194  0.00  0.00     0.013 C 
ENDBRANCH   7   8
ENDBRANCH   1   7
TORSDOF 2
ENDMDL
