MODEL 1
REMARK minimizedAffinity 25.3052292
REMARK minimizedRMSD -1
REMARK  2 active torsions:
REMARK  status: ('A' for Active; 'I' for Inactive)
REMARK    1  A    between atoms: C2'_3  and  C1'_4 
REMARK    2  A    between atoms: C1'_4  and  C1_5 
ROOT
ATOM      1  C1  I4B d   1       1.643   0.482   1.119  0.00  0.00    -0.075 A 
ATOM      2  C2  I4B d   1       2.547   1.444   1.494  0.00  0.00     0.003 A 
ATOM      3  C3  I4B d   1       3.640   1.763   0.651  0.00  0.00     0.002 A 
ATOM      4  C4  I4B d   1       3.817   1.064  -0.525  0.00  0.00    -0.004 A 
ATOM      5  C5  I4B d   1       2.886   0.105  -0.915  0.00  0.00     0.002 A 
ATOM      6  C6  I4B d   1       1.786  -0.180  -0.093  0.00  0.00     0.003 A 
ENDROOT
BRANCH   1   7
ATOM      7  C1' I4B d   1       0.520   0.147   2.049  0.00  0.00     0.060 C 
BRANCH   7   8
ATOM      8  C2' I4B d   1       0.280   1.348   2.942  0.00  0.00    -0.013 C 
ATOM      9  C4' I4B d   1      -1.173   1.744   2.943  0.00  0.00     0.013 C 
ATOM     10  C3' I4B d   1       0.746   0.998   4.323  0.00  0.00     0.013 C 
ENDBRANCH   7   8
ENDBRANCH   1   7
TORSDOF 2
ENDMDL
