MODEL 1
REMARK minimizedAffinity 23.9187012
REMARK minimizedRMSD -1
REMARK  2 active torsions:
REMARK  status: ('A' for Active; 'I' for Inactive)
REMARK    1  A    between atoms: C2'_3  and  C1'_4 
REMARK    2  A    between atoms: C1'_4  and  C1_5 
ROOT
ATOM      1  C1  I4B d   1       0.014  -4.490  -1.401  0.00  0.00    -0.075 A 
ATOM      2  C2  I4B d   1      -0.992  -3.576  -1.587  0.00  0.00     0.003 A 
ATOM      3  C3  I4B d   1      -1.913  -3.736  -2.650  0.00  0.00     0.002 A 
ATOM      4  C4  I4B d   1      -1.762  -4.791  -3.527  0.00  0.00    -0.004 A 
ATOM      5  C5  I4B d   1      -0.756  -5.730  -3.323  0.00  0.00     0.002 A 
ATOM      6  C6  I4B d   1       0.131  -5.586  -2.246  0.00  0.00     0.003 A 
ENDROOT
BRANCH   1   7
ATOM      7  C1' I4B d   1       0.990  -4.272  -0.288  0.00  0.00     0.060 C 
BRANCH   7   8
ATOM      8  C2' I4B d   1       2.354  -4.722  -0.768  0.00  0.00    -0.013 C 
ATOM      9  C4' I4B d   1       3.397  -3.664  -0.516  0.00  0.00     0.013 C 
ATOM     10  C3' I4B d   1       2.697  -5.999  -0.062  0.00  0.00     0.013 C 
ENDBRANCH   7   8
ENDBRANCH   1   7
TORSDOF 2
ENDMDL
