MODEL 1
REMARK minimizedAffinity 11.4232197
REMARK minimizedRMSD -1
REMARK  2 active torsions:
REMARK  status: ('A' for Active; 'I' for Inactive)
REMARK    1  A    between atoms: C2'_3  and  C1'_4 
REMARK    2  A    between atoms: C1'_4  and  C1_5 
ROOT
ATOM      1  C1  I4B d   1       0.211  -3.099  -1.539  0.00  0.00    -0.075 A 
ATOM      2  C2  I4B d   1       0.289  -1.849  -2.101  0.00  0.00     0.003 A 
ATOM      3  C3  I4B d   1       1.471  -1.080  -1.967  0.00  0.00     0.002 A 
ATOM      4  C4  I4B d   1       2.524  -1.575  -1.226  0.00  0.00    -0.004 A 
ATOM      5  C5  I4B d   1       2.452  -2.852  -0.677  0.00  0.00     0.002 A 
ATOM      6  C6  I4B d   1       1.293  -3.624  -0.844  0.00  0.00     0.003 A 
ENDROOT
BRANCH   1   7
ATOM      7  C1' I4B d   1      -1.063  -3.871  -1.671  0.00  0.00     0.060 C 
BRANCH   7   8
ATOM      8  C2' I4B d   1      -1.173  -4.348  -3.105  0.00  0.00    -0.013 C 
ATOM      9  C4' I4B d   1      -0.860  -5.817  -3.216  0.00  0.00     0.013 C 
ATOM     10  C3' I4B d   1      -2.563  -4.053  -3.586  0.00  0.00     0.013 C 
ENDBRANCH   7   8
ENDBRANCH   1   7
TORSDOF 2
ENDMDL
