MODEL 1
REMARK minimizedAffinity 15.6994438
REMARK minimizedRMSD -1
REMARK  2 active torsions:
REMARK  status: ('A' for Active; 'I' for Inactive)
REMARK    1  A    between atoms: C2'_3  and  C1'_4 
REMARK    2  A    between atoms: C1'_4  and  C1_5 
ROOT
ATOM      1  C1  I4B d   1       0.214  -2.847  -1.849  0.00  0.00    -0.075 A 
ATOM      2  C2  I4B d   1       0.386  -1.510  -2.108  0.00  0.00     0.003 A 
ATOM      3  C3  I4B d   1       1.430  -0.791  -1.476  0.00  0.00     0.002 A 
ATOM      4  C4  I4B d   1       2.239  -1.431  -0.561  0.00  0.00    -0.004 A 
ATOM      5  C5  I4B d   1       2.077  -2.792  -0.316  0.00  0.00     0.002 A 
ATOM      6  C6  I4B d   1       1.066  -3.508  -0.974  0.00  0.00     0.003 A 
ENDROOT
BRANCH   1   7
ATOM      7  C1' I4B d   1      -0.919  -3.568  -2.509  0.00  0.00     0.060 C 
BRANCH   7   8
ATOM      8  C2' I4B d   1      -0.332  -4.657  -3.383  0.00  0.00    -0.013 C 
ATOM      9  C4' I4B d   1      -0.404  -6.000  -2.705  0.00  0.00     0.013 C 
ATOM     10  C3' I4B d   1      -1.085  -4.665  -4.681  0.00  0.00     0.013 C 
ENDBRANCH   7   8
ENDBRANCH   1   7
TORSDOF 2
ENDMDL
