MODEL 1
REMARK minimizedAffinity 13.8373499
REMARK minimizedRMSD -1
REMARK  2 active torsions:
REMARK  status: ('A' for Active; 'I' for Inactive)
REMARK    1  A    between atoms: C2'_3  and  C1'_4 
REMARK    2  A    between atoms: C1'_4  and  C1_5 
ROOT
ATOM      1  C1  I4B d   1       1.255   0.837   0.891  0.00  0.00    -0.075 A 
ATOM      2  C2  I4B d   1       0.631   0.010  -0.009  0.00  0.00     0.003 A 
ATOM      3  C3  I4B d   1       1.395  -0.847  -0.838  0.00  0.00     0.002 A 
ATOM      4  C4  I4B d   1       2.773  -0.807  -0.770  0.00  0.00    -0.004 A 
ATOM      5  C5  I4B d   1       3.403   0.016   0.159  0.00  0.00     0.002 A 
ATOM      6  C6  I4B d   1       2.639   0.834   1.004  0.00  0.00     0.003 A 
ENDROOT
BRANCH   1   7
ATOM      7  C1' I4B d   1       0.419   1.752   1.728  0.00  0.00     0.060 C 
BRANCH   7   8
ATOM      8  C2' I4B d   1      -0.642   0.917   2.416  0.00  0.00    -0.013 C 
ATOM      9  C4' I4B d   1      -0.139   0.369   3.726  0.00  0.00     0.013 C 
ATOM     10  C3' I4B d   1      -1.852   1.780   2.619  0.00  0.00     0.013 C 
ENDBRANCH   7   8
ENDBRANCH   1   7
TORSDOF 2
ENDMDL
