MODEL 1
REMARK minimizedAffinity 9.20110226
REMARK minimizedRMSD -1
REMARK  2 active torsions:
REMARK  status: ('A' for Active; 'I' for Inactive)
REMARK    1  A    between atoms: C2'_3  and  C1'_4 
REMARK    2  A    between atoms: C1'_4  and  C1_5 
ROOT
ATOM      1  C1  I4B d   1      -0.923   1.581   3.815  0.00  0.00    -0.075 A 
ATOM      2  C2  I4B d   1      -0.968   1.974   5.129  0.00  0.00     0.003 A 
ATOM      3  C3  I4B d   1       0.109   1.676   6.000  0.00  0.00     0.002 A 
ATOM      4  C4  I4B d   1       1.180   0.944   5.529  0.00  0.00    -0.004 A 
ATOM      5  C5  I4B d   1       1.235   0.567   4.190  0.00  0.00     0.002 A 
ATOM      6  C6  I4B d   1       0.183   0.898   3.324  0.00  0.00     0.003 A 
ENDROOT
BRANCH   1   7
ATOM      7  C1' I4B d   1      -2.092   1.884   2.932  0.00  0.00     0.060 C 
BRANCH   7   8
ATOM      8  C2' I4B d   1      -3.351   1.477   3.669  0.00  0.00    -0.013 C 
ATOM      9  C4' I4B d   1      -4.227   2.669   3.951  0.00  0.00     0.013 C 
ATOM     10  C3' I4B d   1      -4.070   0.462   2.831  0.00  0.00     0.013 C 
ENDBRANCH   7   8
ENDBRANCH   1   7
TORSDOF 2
ENDMDL
