MODEL 1
REMARK minimizedAffinity 18.6852703
REMARK minimizedRMSD -1
REMARK  2 active torsions:
REMARK  status: ('A' for Active; 'I' for Inactive)
REMARK    1  A    between atoms: C2'_3  and  C1'_4 
REMARK    2  A    between atoms: C1'_4  and  C1_5 
ROOT
ATOM      1  C1  I4B d   1       1.342  -1.748  -2.604  0.00  0.00    -0.075 A 
ATOM      2  C2  I4B d   1       0.763  -2.172  -1.434  0.00  0.00     0.003 A 
ATOM      3  C3  I4B d   1       0.631  -1.283  -0.340  0.00  0.00     0.002 A 
ATOM      4  C4  I4B d   1       1.135  -0.002  -0.441  0.00  0.00    -0.004 A 
ATOM      5  C5  I4B d   1       1.701   0.434  -1.635  0.00  0.00     0.002 A 
ATOM      6  C6  I4B d   1       1.794  -0.440  -2.728  0.00  0.00     0.003 A 
ENDROOT
BRANCH   1   7
ATOM      7  C1' I4B d   1       1.495  -2.723  -3.728  0.00  0.00     0.060 C 
BRANCH   7   8
ATOM      8  C2' I4B d   1       2.356  -2.075  -4.794  0.00  0.00    -0.013 C 
ATOM      9  C4' I4B d   1       3.543  -2.938  -5.134  0.00  0.00     0.013 C 
ATOM     10  C3' I4B d   1       1.498  -1.835  -6.000  0.00  0.00     0.013 C 
ENDBRANCH   7   8
ENDBRANCH   1   7
TORSDOF 2
ENDMDL
