MODEL 1
REMARK minimizedAffinity -3.57630157
REMARK minimizedRMSD -1
REMARK  0 active torsions:
REMARK  status: ('A' for Active; 'I' for Inactive)
ROOT
ATOM      1  C   UNL d   1       0.607  -0.561   0.024  0.00  0.00     0.023 A 
ATOM      2  C1  UNL d   1       0.212   0.720  -0.360  0.00  0.00     0.003 A 
ATOM      3  C2  UNL d   1      -1.055   1.195  -0.014  0.00  0.00     0.048 A 
ATOM      4  C3  UNL d   1      -1.921   0.383   0.718  0.00  0.00     0.023 A 
ATOM      5  C4  UNL d   1      -1.530  -0.899   1.106  0.00  0.00     0.048 A 
ATOM      6  C5  UNL d   1      -0.263  -1.370   0.756  0.00  0.00     0.003 A 
ATOM      7  I   UNL d   1      -3.807   1.088   1.236  0.00  0.00    -0.146 I 
ENDROOT
TORSDOF 0
ENDMDL
