MODEL 1
REMARK minimizedAffinity -3.46569133
REMARK minimizedRMSD -1
REMARK  0 active torsions:
REMARK  status: ('A' for Active; 'I' for Inactive)
ROOT
ATOM      1  C   UNL d   1      -2.788   1.711   0.040  0.00  0.00     0.023 A 
ATOM      2  C1  UNL d   1      -2.506   0.960   1.181  0.00  0.00     0.003 A 
ATOM      3  C2  UNL d   1      -1.415   0.089   1.193  0.00  0.00     0.048 A 
ATOM      4  C3  UNL d   1      -0.610  -0.026   0.060  0.00  0.00     0.023 A 
ATOM      5  C4  UNL d   1      -0.888   0.724  -1.084  0.00  0.00     0.048 A 
ATOM      6  C5  UNL d   1      -1.980   1.593  -1.091  0.00  0.00     0.003 A 
ATOM      7  I   UNL d   1       1.015  -1.322   0.075  0.00  0.00    -0.146 I 
ENDROOT
TORSDOF 0
ENDMDL
