MODEL 1
REMARK minimizedAffinity -0.598784149
REMARK minimizedRMSD -1
REMARK  0 active torsions:
REMARK  status: ('A' for Active; 'I' for Inactive)
ROOT
ATOM      1  C   UNL d   1      -4.826   0.385   1.352  0.00  0.00     0.023 A 
ATOM      2  C1  UNL d   1      -3.865   1.211   1.936  0.00  0.00     0.003 A 
ATOM      3  C2  UNL d   1      -2.619   1.372   1.327  0.00  0.00     0.048 A 
ATOM      4  C3  UNL d   1      -2.340   0.705   0.135  0.00  0.00     0.023 A 
ATOM      5  C4  UNL d   1      -3.299  -0.122  -0.453  0.00  0.00     0.048 A 
ATOM      6  C5  UNL d   1      -4.543  -0.280   0.160  0.00  0.00     0.003 A 
ATOM      7  I   UNL d   1      -0.485   0.942  -0.772  0.00  0.00    -0.146 I 
ENDROOT
TORSDOF 0
ENDMDL
