MODEL 1
REMARK minimizedAffinity -1.901788
REMARK minimizedRMSD -1
REMARK  0 active torsions:
REMARK  status: ('A' for Active; 'I' for Inactive)
ROOT
ATOM      1  C   UNL d   1       2.675  -0.901  -0.333  0.00  0.00     0.023 A 
ATOM      2  C1  UNL d   1       1.676  -1.870  -0.234  0.00  0.00     0.003 A 
ATOM      3  C2  UNL d   1       0.341  -1.487  -0.095  0.00  0.00     0.048 A 
ATOM      4  C3  UNL d   1       0.010  -0.133  -0.056  0.00  0.00     0.023 A 
ATOM      5  C4  UNL d   1       1.006   0.840  -0.155  0.00  0.00     0.048 A 
ATOM      6  C5  UNL d   1       2.340   0.453  -0.293  0.00  0.00     0.003 A 
ATOM      7  I   UNL d   1      -1.977   0.439   0.151  0.00  0.00    -0.146 I 
ENDROOT
TORSDOF 0
ENDMDL
