MODEL 1
REMARK minimizedAffinity -1.90431404
REMARK minimizedRMSD -1
REMARK  0 active torsions:
REMARK  status: ('A' for Active; 'I' for Inactive)
ROOT
ATOM      1  C   UNL d   1       3.888  -0.002  -0.580  0.00  0.00     0.023 A 
ATOM      2  C1  UNL d   1       3.099  -1.145  -0.709  0.00  0.00     0.003 A 
ATOM      3  C2  UNL d   1       1.710  -1.052  -0.598  0.00  0.00     0.048 A 
ATOM      4  C3  UNL d   1       1.117   0.187  -0.358  0.00  0.00     0.023 A 
ATOM      5  C4  UNL d   1       1.903   1.334  -0.229  0.00  0.00     0.048 A 
ATOM      6  C5  UNL d   1       3.291   1.236  -0.341  0.00  0.00     0.003 A 
ATOM      7  I   UNL d   1      -0.950   0.327  -0.192  0.00  0.00    -0.146 I 
ENDROOT
TORSDOF 0
ENDMDL
