MODEL 1
REMARK minimizedAffinity 0.486320883
REMARK minimizedRMSD -1
REMARK  0 active torsions:
REMARK  status: ('A' for Active; 'I' for Inactive)
ROOT
ATOM      1  C   UNL d   1       0.399   0.027  -0.668  0.00  0.00     0.023 A 
ATOM      2  C1  UNL d   1       0.223   0.001   0.715  0.00  0.00     0.003 A 
ATOM      3  C2  UNL d   1      -1.015   0.332   1.269  0.00  0.00     0.048 A 
ATOM      4  C3  UNL d   1      -2.074   0.687   0.434  0.00  0.00     0.023 A 
ATOM      5  C4  UNL d   1      -1.902   0.714  -0.951  0.00  0.00     0.048 A 
ATOM      6  C5  UNL d   1      -0.662   0.383  -1.500  0.00  0.00     0.003 A 
ATOM      7  I   UNL d   1      -3.918   1.179   1.256  0.00  0.00    -0.146 I 
ENDROOT
TORSDOF 0
ENDMDL
