MODEL 1
REMARK minimizedAffinity -1.64323473
REMARK minimizedRMSD -1
REMARK  0 active torsions:
REMARK  status: ('A' for Active; 'I' for Inactive)
ROOT
ATOM      1  C   UNL d   1       1.596  -1.843   0.483  0.00  0.00     0.023 A 
ATOM      2  C1  UNL d   1       0.861  -1.732  -0.697  0.00  0.00     0.003 A 
ATOM      3  C2  UNL d   1      -0.243  -0.879  -0.757  0.00  0.00     0.048 A 
ATOM      4  C3  UNL d   1      -0.606  -0.139   0.368  0.00  0.00     0.023 A 
ATOM      5  C4  UNL d   1       0.127  -0.246   1.551  0.00  0.00     0.048 A 
ATOM      6  C5  UNL d   1       1.229  -1.101   1.606  0.00  0.00     0.003 A 
ATOM      7  I   UNL d   1      -2.248   1.132   0.282  0.00  0.00    -0.146 I 
ENDROOT
TORSDOF 0
ENDMDL
