MODEL 1
REMARK minimizedAffinity -1.88166142
REMARK minimizedRMSD -1
REMARK  0 active torsions:
REMARK  status: ('A' for Active; 'I' for Inactive)
ROOT
ATOM      1  C   UNL d   1      -3.879   0.982   0.854  0.00  0.00     0.023 A 
ATOM      2  C1  UNL d   1      -3.536   0.767  -0.481  0.00  0.00     0.003 A 
ATOM      3  C2  UNL d   1      -2.278   0.255  -0.806  0.00  0.00     0.048 A 
ATOM      4  C3  UNL d   1      -1.368  -0.040   0.208  0.00  0.00     0.023 A 
ATOM      5  C4  UNL d   1      -1.707   0.173   1.546  0.00  0.00     0.048 A 
ATOM      6  C5  UNL d   1      -2.965   0.686   1.866  0.00  0.00     0.003 A 
ATOM      7  I   UNL d   1       0.505  -0.801  -0.273  0.00  0.00    -0.146 I 
ENDROOT
TORSDOF 0
ENDMDL
