MODEL 1
REMARK minimizedAffinity 16.9771309
REMARK minimizedRMSD -1
REMARK  0 active torsions:
REMARK  status: ('A' for Active; 'I' for Inactive)
ROOT
ATOM      1  O1  BZF d   1      -2.831   2.441  -2.992  0.00  0.00    -0.204 OA
ATOM      2  C2  BZF d   1      -2.067   3.040  -3.975  0.00  0.00     0.174 A 
ATOM      3  C3  BZF d   1      -2.138   4.384  -3.883  0.00  0.00    -0.012 A 
ATOM      4  C3A BZF d   1      -2.927   4.640  -2.717  0.00  0.00    -0.107 A 
ATOM      5  C4  BZF d   1      -3.337   5.784  -2.094  0.00  0.00     0.055 A 
ATOM      6  C5  BZF d   1      -4.160   5.691  -1.016  0.00  0.00    -0.016 A 
ATOM      7  C6  BZF d   1      -4.595   4.472  -0.539  0.00  0.00     0.022 A 
ATOM      8  C7  BZF d   1      -4.211   3.310  -1.121  0.00  0.00     0.029 A 
ATOM      9  C7A BZF d   1      -3.353   3.399  -2.189  0.00  0.00     0.058 A 
ENDROOT
TORSDOF 0
ENDMDL
