MODEL 1
REMARK minimizedAffinity 16.2609024
REMARK minimizedRMSD -1
REMARK  0 active torsions:
REMARK  status: ('A' for Active; 'I' for Inactive)
ROOT
ATOM      1  O1  BZF d   1       2.011   4.918   0.470  0.00  0.00    -0.204 OA
ATOM      2  C2  BZF d   1       1.254   5.996   0.056  0.00  0.00     0.174 A 
ATOM      3  C3  BZF d   1       0.323   5.611  -0.842  0.00  0.00    -0.012 A 
ATOM      4  C3A BZF d   1       0.450   4.189  -0.928  0.00  0.00    -0.107 A 
ATOM      5  C4  BZF d   1      -0.210   3.229  -1.642  0.00  0.00     0.055 A 
ATOM      6  C5  BZF d   1       0.207   1.939  -1.555  0.00  0.00    -0.016 A 
ATOM      7  C6  BZF d   1       1.282   1.574  -0.771  0.00  0.00     0.022 A 
ATOM      8  C7  BZF d   1       1.964   2.489  -0.041  0.00  0.00     0.029 A 
ATOM      9  C7A BZF d   1       1.525   3.789  -0.100  0.00  0.00     0.058 A 
ENDROOT
TORSDOF 0
ENDMDL
