MODEL 1
REMARK minimizedAffinity 18.5723686
REMARK minimizedRMSD -1
REMARK  0 active torsions:
REMARK  status: ('A' for Active; 'I' for Inactive)
ROOT
ATOM      1  O1  BZF d   1       0.799   2.394   0.812  0.00  0.00    -0.204 OA
ATOM      2  C2  BZF d   1       0.753   1.577  -0.301  0.00  0.00     0.174 A 
ATOM      3  C3  BZF d   1       0.798   2.308  -1.433  0.00  0.00    -0.012 A 
ATOM      4  C3A BZF d   1       0.971   3.661  -1.001  0.00  0.00    -0.107 A 
ATOM      5  C4  BZF d   1       1.100   4.849  -1.662  0.00  0.00     0.055 A 
ATOM      6  C5  BZF d   1       1.180   6.000  -0.944  0.00  0.00    -0.016 A 
ATOM      7  C6  BZF d   1       1.127   6.000   0.435  0.00  0.00     0.022 A 
ATOM      8  C7  BZF d   1       1.005   4.846   1.135  0.00  0.00     0.029 A 
ATOM      9  C7A BZF d   1       0.957   3.679   0.413  0.00  0.00     0.058 A 
ENDROOT
TORSDOF 0
ENDMDL
