MODEL 1
REMARK minimizedAffinity 11.2307739
REMARK minimizedRMSD -1
REMARK  0 active torsions:
REMARK  status: ('A' for Active; 'I' for Inactive)
ROOT
ATOM      1  O1  BZF d   1      -4.407   5.197  -1.022  0.00  0.00    -0.204 OA
ATOM      2  C2  BZF d   1      -4.880   3.990  -0.544  0.00  0.00     0.174 A 
ATOM      3  C3  BZF d   1      -4.373   2.962  -1.255  0.00  0.00    -0.012 A 
ATOM      4  C3A BZF d   1      -3.459   3.559  -2.180  0.00  0.00    -0.107 A 
ATOM      5  C4  BZF d   1      -2.635   3.053  -3.144  0.00  0.00     0.055 A 
ATOM      6  C5  BZF d   1      -1.926   3.912  -3.923  0.00  0.00    -0.016 A 
ATOM      7  C6  BZF d   1      -2.020   5.279  -3.769  0.00  0.00     0.022 A 
ATOM      8  C7  BZF d   1      -2.821   5.828  -2.823  0.00  0.00     0.029 A 
ATOM      9  C7A BZF d   1      -3.514   4.962  -2.012  0.00  0.00     0.058 A 
ENDROOT
TORSDOF 0
ENDMDL
