MODEL 1
REMARK minimizedAffinity 12.627387
REMARK minimizedRMSD -1
REMARK  0 active torsions:
REMARK  status: ('A' for Active; 'I' for Inactive)
ROOT
ATOM      1  O1  BZF d   1      -0.400   2.988  -0.394  0.00  0.00    -0.204 OA
ATOM      2  C2  BZF d   1       0.807   2.844  -1.050  0.00  0.00     0.174 A 
ATOM      3  C3  BZF d   1       0.632   2.877  -2.387  0.00  0.00    -0.012 A 
ATOM      4  C3A BZF d   1      -0.761   3.145  -2.577  0.00  0.00    -0.107 A 
ATOM      5  C4  BZF d   1      -1.542   3.310  -3.685  0.00  0.00     0.055 A 
ATOM      6  C5  BZF d   1      -2.881   3.487  -3.528  0.00  0.00    -0.016 A 
ATOM      7  C6  BZF d   1      -3.471   3.499  -2.281  0.00  0.00     0.022 A 
ATOM      8  C7  BZF d   1      -2.736   3.344  -1.153  0.00  0.00     0.029 A 
ATOM      9  C7A BZF d   1      -1.378   3.198  -1.306  0.00  0.00     0.058 A 
ENDROOT
TORSDOF 0
ENDMDL
