MODEL 1
REMARK minimizedAffinity 18.4862556
REMARK minimizedRMSD -1
REMARK  0 active torsions:
REMARK  status: ('A' for Active; 'I' for Inactive)
ROOT
ATOM      1  O1  BZF d   1      -4.102   5.615  -1.566  0.00  0.00    -0.204 OA
ATOM      2  C2  BZF d   1      -5.058   4.979  -0.798  0.00  0.00     0.174 A 
ATOM      3  C3  BZF d   1      -4.916   3.640  -0.870  0.00  0.00    -0.012 A 
ATOM      4  C3A BZF d   1      -3.745   3.427  -1.664  0.00  0.00    -0.107 A 
ATOM      5  C4  BZF d   1      -3.081   2.308  -2.077  0.00  0.00     0.055 A 
ATOM      6  C5  BZF d   1      -2.012   2.442  -2.905  0.00  0.00    -0.016 A 
ATOM      7  C6  BZF d   1      -1.582   3.678  -3.342  0.00  0.00     0.022 A 
ATOM      8  C7  BZF d   1      -2.205   4.817  -2.954  0.00  0.00     0.029 A 
ATOM      9  C7A BZF d   1      -3.266   4.687  -2.092  0.00  0.00     0.058 A 
ENDROOT
TORSDOF 0
ENDMDL
