MODEL 1
REMARK minimizedAffinity 21.2748642
REMARK minimizedRMSD -1
REMARK  0 active torsions:
REMARK  status: ('A' for Active; 'I' for Inactive)
ROOT
ATOM      1  O1  BZF d   1      -2.483   4.379  -1.847  0.00  0.00    -0.204 OA
ATOM      2  C2  BZF d   1      -2.616   3.005  -1.777  0.00  0.00     0.174 A 
ATOM      3  C3  BZF d   1      -2.493   2.450  -3.000  0.00  0.00    -0.012 A 
ATOM      4  C3A BZF d   1      -2.178   3.536  -3.877  0.00  0.00    -0.107 A 
ATOM      5  C4  BZF d   1      -1.924   3.619  -5.216  0.00  0.00     0.055 A 
ATOM      6  C5  BZF d   1      -1.723   4.840  -5.776  0.00  0.00    -0.016 A 
ATOM      7  C6  BZF d   1      -1.776   5.999  -5.029  0.00  0.00     0.022 A 
ATOM      8  C7  BZF d   1      -2.020   5.967  -3.697  0.00  0.00     0.029 A 
ATOM      9  C7A BZF d   1      -2.190   4.732  -3.121  0.00  0.00     0.058 A 
ENDROOT
TORSDOF 0
ENDMDL
