MODEL 1
REMARK minimizedAffinity 3.72335696
REMARK minimizedRMSD -1
REMARK  0 active torsions:
REMARK  status: ('A' for Active; 'I' for Inactive)
ROOT
ATOM      1  O1  BZF d   1       0.715  -0.583   3.167  0.00  0.00    -0.204 OA
ATOM      2  C2  BZF d   1       1.269  -1.246   2.090  0.00  0.00     0.174 A 
ATOM      3  C3  BZF d   1       0.519  -2.313   1.747  0.00  0.00    -0.012 A 
ATOM      4  C3A BZF d   1      -0.622  -2.263   2.610  0.00  0.00    -0.107 A 
ATOM      5  C4  BZF d   1      -1.734  -3.045   2.742  0.00  0.00     0.055 A 
ATOM      6  C5  BZF d   1      -2.623  -2.766   3.731  0.00  0.00    -0.016 A 
ATOM      7  C6  BZF d   1      -2.430  -1.719   4.607  0.00  0.00     0.022 A 
ATOM      8  C7  BZF d   1      -1.344  -0.913   4.513  0.00  0.00     0.029 A 
ATOM      9  C7A BZF d   1      -0.461  -1.171   3.494  0.00  0.00     0.058 A 
ENDROOT
TORSDOF 0
ENDMDL
