MODEL 1
REMARK minimizedAffinity 8.02754021
REMARK minimizedRMSD -1
REMARK  0 active torsions:
REMARK  status: ('A' for Active; 'I' for Inactive)
ROOT
ATOM      1  O1  BZF d   1       0.336  -0.020   4.220  0.00  0.00    -0.204 OA
ATOM      2  C2  BZF d   1      -0.841  -0.667   4.546  0.00  0.00     0.174 A 
ATOM      3  C3  BZF d   1      -1.087  -1.675   3.684  0.00  0.00    -0.012 A 
ATOM      4  C3A BZF d   1       0.050  -1.715   2.818  0.00  0.00    -0.107 A 
ATOM      5  C4  BZF d   1       0.401  -2.512   1.765  0.00  0.00     0.055 A 
ATOM      6  C5  BZF d   1       1.546  -2.242   1.085  0.00  0.00    -0.016 A 
ATOM      7  C6  BZF d   1       2.360  -1.182   1.426  0.00  0.00     0.022 A 
ATOM      8  C7  BZF d   1       2.057  -0.367   2.466  0.00  0.00     0.029 A 
ATOM      9  C7A BZF d   1       0.918  -0.658   3.176  0.00  0.00     0.058 A 
ENDROOT
TORSDOF 0
ENDMDL
