MODEL 1
REMARK minimizedAffinity 21.0932598
REMARK minimizedRMSD -1
REMARK  0 active torsions:
REMARK  status: ('A' for Active; 'I' for Inactive)
ROOT
ATOM      1  O1  BZF d   1      -1.480   2.317  -3.032  0.00  0.00    -0.204 OA
ATOM      2  C2  BZF d   1      -0.949   2.621  -1.793  0.00  0.00     0.174 A 
ATOM      3  C3  BZF d   1      -0.698   3.942  -1.692  0.00  0.00    -0.012 A 
ATOM      4  C3A BZF d   1      -1.181   4.512  -2.912  0.00  0.00    -0.107 A 
ATOM      5  C4  BZF d   1      -1.229   5.787  -3.399  0.00  0.00     0.055 A 
ATOM      6  C5  BZF d   1      -1.697   5.996  -4.658  0.00  0.00    -0.016 A 
ATOM      7  C6  BZF d   1      -2.121   4.955  -5.457  0.00  0.00     0.022 A 
ATOM      8  C7  BZF d   1      -2.098   3.674  -5.016  0.00  0.00     0.029 A 
ATOM      9  C7A BZF d   1      -1.656   3.462  -3.733  0.00  0.00     0.058 A 
ENDROOT
TORSDOF 0
ENDMDL
