MODEL 1
REMARK minimizedAffinity 9.96385479
REMARK minimizedRMSD -1
REMARK  0 active torsions:
REMARK  status: ('A' for Active; 'I' for Inactive)
ROOT
ATOM      1  O1  BZF d   1       0.817  -2.647   1.330  0.00  0.00    -0.204 OA
ATOM      2  C2  BZF d   1       1.828  -1.706   1.369  0.00  0.00     0.174 A 
ATOM      3  C3  BZF d   1       1.573  -0.768   2.304  0.00  0.00    -0.012 A 
ATOM      4  C3A BZF d   1       0.370  -1.197   2.949  0.00  0.00    -0.107 A 
ATOM      5  C4  BZF d   1      -0.379  -0.691   3.973  0.00  0.00     0.055 A 
ATOM      6  C5  BZF d   1      -1.538  -1.312   4.313  0.00  0.00    -0.016 A 
ATOM      7  C6  BZF d   1      -1.981  -2.437   3.650  0.00  0.00     0.022 A 
ATOM      8  C7  BZF d   1      -1.270  -2.979   2.631  0.00  0.00     0.029 A 
ATOM      9  C7A BZF d   1      -0.082  -2.373   2.306  0.00  0.00     0.058 A 
ENDROOT
TORSDOF 0
ENDMDL
