MODEL 1
REMARK minimizedAffinity 14.195138
REMARK minimizedRMSD -1
REMARK  0 active torsions:
REMARK  status: ('A' for Active; 'I' for Inactive)
ROOT
ATOM      1  O1  BZF d   1       1.303  -2.585   1.472  0.00  0.00    -0.204 OA
ATOM      2  C2  BZF d   1       2.016  -1.412   1.317  0.00  0.00     0.174 A 
ATOM      3  C3  BZF d   1       1.444  -0.408   2.012  0.00  0.00    -0.012 A 
ATOM      4  C3A BZF d   1       0.353  -1.011   2.715  0.00  0.00    -0.107 A 
ATOM      5  C4  BZF d   1      -0.584  -0.530   3.584  0.00  0.00     0.055 A 
ATOM      6  C5  BZF d   1      -1.556  -1.365   4.035  0.00  0.00    -0.016 A 
ATOM      7  C6  BZF d   1      -1.625  -2.683   3.634  0.00  0.00     0.022 A 
ATOM      8  C7  BZF d   1      -0.715  -3.207   2.777  0.00  0.00     0.029 A 
ATOM      9  C7A BZF d   1       0.288  -2.374   2.345  0.00  0.00     0.058 A 
ENDROOT
TORSDOF 0
ENDMDL
