MODEL 1
REMARK minimizedAffinity 12.5507021
REMARK minimizedRMSD -1
REMARK  0 active torsions:
REMARK  status: ('A' for Active; 'I' for Inactive)
ROOT
ATOM      1  O1  BZF d   1       1.700  -0.426   2.288  0.00  0.00    -0.204 OA
ATOM      2  C2  BZF d   1       2.182  -1.286   1.320  0.00  0.00     0.174 A 
ATOM      3  C3  BZF d   1       1.335  -2.318   1.132  0.00  0.00    -0.012 A 
ATOM      4  C3A BZF d   1       0.212  -2.041   1.974  0.00  0.00    -0.107 A 
ATOM      5  C4  BZF d   1      -0.966  -2.691   2.213  0.00  0.00     0.055 A 
ATOM      6  C5  BZF d   1      -1.817  -2.193   3.148  0.00  0.00    -0.016 A 
ATOM      7  C6  BZF d   1      -1.521  -1.052   3.865  0.00  0.00     0.022 A 
ATOM      8  C7  BZF d   1      -0.368  -0.370   3.659  0.00  0.00     0.029 A 
ATOM      9  C7A BZF d   1       0.479  -0.852   2.692  0.00  0.00     0.058 A 
ENDROOT
TORSDOF 0
ENDMDL
