MODEL 1
REMARK minimizedAffinity 10.5371771
REMARK minimizedRMSD -1
REMARK  0 active torsions:
REMARK  status: ('A' for Active; 'I' for Inactive)
ROOT
ATOM      1  O1  BZF d   1       2.374  -5.586  -5.655  0.00  0.00    -0.204 OA
ATOM      2  C2  BZF d   1       1.480  -4.537  -5.561  0.00  0.00     0.174 A 
ATOM      3  C3  BZF d   1       2.127  -3.354  -5.570  0.00  0.00    -0.012 A 
ATOM      4  C3A BZF d   1       3.505  -3.680  -5.769  0.00  0.00    -0.107 A 
ATOM      5  C4  BZF d   1       4.641  -2.930  -5.884  0.00  0.00     0.055 A 
ATOM      6  C5  BZF d   1       5.839  -3.560  -5.999  0.00  0.00    -0.016 A 
ATOM      7  C6  BZF d   1       5.940  -4.936  -5.998  0.00  0.00     0.022 A 
ATOM      8  C7  BZF d   1       4.841  -5.722  -5.892  0.00  0.00     0.029 A 
ATOM      9  C7A BZF d   1       3.625  -5.089  -5.809  0.00  0.00     0.058 A 
ENDROOT
TORSDOF 0
ENDMDL
