MODEL 1
REMARK minimizedAffinity 7.08961105
REMARK minimizedRMSD -1
REMARK  0 active torsions:
REMARK  status: ('A' for Active; 'I' for Inactive)
ROOT
ATOM      1  O1  BZF d   1       1.059  -0.636   2.881  0.00  0.00    -0.204 OA
ATOM      2  C2  BZF d   1       1.501  -1.498   1.896  0.00  0.00     0.174 A 
ATOM      3  C3  BZF d   1       0.824  -2.663   1.941  0.00  0.00    -0.012 A 
ATOM      4  C3A BZF d   1      -0.163  -2.486   2.962  0.00  0.00    -0.107 A 
ATOM      5  C4  BZF d   1      -1.149  -3.287   3.463  0.00  0.00     0.055 A 
ATOM      6  C5  BZF d   1      -1.894  -2.841   4.509  0.00  0.00    -0.016 A 
ATOM      7  C6  BZF d   1      -1.676  -1.605   5.081  0.00  0.00     0.022 A 
ATOM      8  C7  BZF d   1      -0.712  -0.774   4.615  0.00  0.00     0.029 A 
ATOM      9  C7A BZF d   1       0.020  -1.207   3.537  0.00  0.00     0.058 A 
ENDROOT
TORSDOF 0
ENDMDL
