MODEL 1
REMARK minimizedAffinity 6.78799438
REMARK minimizedRMSD -1
REMARK  0 active torsions:
REMARK  status: ('A' for Active; 'I' for Inactive)
ROOT
ATOM      1  O1  BZF d   1      -3.047   5.301  -2.236  0.00  0.00    -0.204 OA
ATOM      2  C2  BZF d   1      -3.515   4.127  -1.678  0.00  0.00     0.174 A 
ATOM      3  C3  BZF d   1      -3.567   3.145  -2.601  0.00  0.00    -0.012 A 
ATOM      4  C3A BZF d   1      -3.014   3.718  -3.790  0.00  0.00    -0.107 A 
ATOM      5  C4  BZF d   1      -2.782   3.233  -5.046  0.00  0.00     0.055 A 
ATOM      6  C5  BZF d   1      -2.298   4.073  -5.999  0.00  0.00    -0.016 A 
ATOM      7  C6  BZF d   1      -2.041   5.402  -5.733  0.00  0.00     0.022 A 
ATOM      8  C7  BZF d   1      -2.251   5.927  -4.502  0.00  0.00     0.029 A 
ATOM      9  C7A BZF d   1      -2.709   5.073  -3.528  0.00  0.00     0.058 A 
ENDROOT
TORSDOF 0
ENDMDL
