MODEL 1
REMARK minimizedAffinity 14.1930313
REMARK minimizedRMSD -1
REMARK  0 active torsions:
REMARK  status: ('A' for Active; 'I' for Inactive)
ROOT
ATOM      1  O1  BZF d   1      -1.758   3.927  -5.233  0.00  0.00    -0.204 OA
ATOM      2  C2  BZF d   1      -1.503   5.270  -5.433  0.00  0.00     0.174 A 
ATOM      3  C3  BZF d   1      -1.906   5.997  -4.370  0.00  0.00    -0.012 A 
ATOM      4  C3A BZF d   1      -2.361   5.039  -3.410  0.00  0.00    -0.107 A 
ATOM      5  C4  BZF d   1      -2.867   5.144  -2.146  0.00  0.00     0.055 A 
ATOM      6  C5  BZF d   1      -3.284   4.020  -1.505  0.00  0.00    -0.016 A 
ATOM      7  C6  BZF d   1      -3.215   2.778  -2.100  0.00  0.00     0.022 A 
ATOM      8  C7  BZF d   1      -2.716   2.622  -3.351  0.00  0.00     0.029 A 
ATOM      9  C7A BZF d   1      -2.263   3.752  -3.988  0.00  0.00     0.058 A 
ENDROOT
TORSDOF 0
ENDMDL
