MODEL 1
REMARK minimizedAffinity 16.8955212
REMARK minimizedRMSD -1
REMARK  0 active torsions:
REMARK  status: ('A' for Active; 'I' for Inactive)
ROOT
ATOM      1  O1  BZF d   1      -3.593   2.336  -2.635  0.00  0.00    -0.204 OA
ATOM      2  C2  BZF d   1      -4.550   2.539  -1.660  0.00  0.00     0.174 A 
ATOM      3  C3  BZF d   1      -4.478   3.795  -1.173  0.00  0.00    -0.012 A 
ATOM      4  C3A BZF d   1      -3.470   4.444  -1.954  0.00  0.00    -0.107 A 
ATOM      5  C4  BZF d   1      -2.954   5.708  -1.958  0.00  0.00     0.055 A 
ATOM      6  C5  BZF d   1      -1.926   6.000  -2.798  0.00  0.00    -0.016 A 
ATOM      7  C6  BZF d   1      -1.387   5.051  -3.643  0.00  0.00     0.022 A 
ATOM      8  C7  BZF d   1      -1.869   3.785  -3.678  0.00  0.00     0.029 A 
ATOM      9  C7A BZF d   1      -2.929   3.496  -2.854  0.00  0.00     0.058 A 
ENDROOT
TORSDOF 0
ENDMDL
