MODEL 1
REMARK minimizedAffinity 10.9295855
REMARK minimizedRMSD -1
REMARK  0 active torsions:
REMARK  status: ('A' for Active; 'I' for Inactive)
ROOT
ATOM      1  O1  BZF d   1       1.210  -2.753   1.786  0.00  0.00    -0.204 OA
ATOM      2  C2  BZF d   1       1.906  -1.574   1.602  0.00  0.00     0.174 A 
ATOM      3  C3  BZF d   1       1.241  -0.536   2.150  0.00  0.00    -0.012 A 
ATOM      4  C3A BZF d   1       0.101  -1.115   2.791  0.00  0.00    -0.107 A 
ATOM      5  C4  BZF d   1      -0.930  -0.596   3.520  0.00  0.00     0.055 A 
ATOM      6  C5  BZF d   1      -1.922  -1.424   3.943  0.00  0.00    -0.016 A 
ATOM      7  C6  BZF d   1      -1.917  -2.772   3.650  0.00  0.00     0.022 A 
ATOM      8  C7  BZF d   1      -0.913  -3.333   2.935  0.00  0.00     0.029 A 
ATOM      9  C7A BZF d   1       0.108  -2.506   2.534  0.00  0.00     0.058 A 
ENDROOT
TORSDOF 0
ENDMDL
