MODEL 1
REMARK minimizedAffinity -5.34989882
REMARK minimizedRMSD -1
REMARK  1 active torsions:
REMARK  status: ('A' for Active; 'I' for Inactive)
REMARK    1  A    between atoms: C3_4  and  O_7 
ROOT
ATOM      1  C   UNL d   1       2.118  -0.932  -2.619  0.00  0.00    -0.033 A 
ATOM      2  C1  UNL d   1       1.557   0.313  -2.326  0.00  0.00     0.039 A 
ATOM      3  C2  UNL d   1       0.634   0.436  -1.285  0.00  0.00    -0.080 A 
ATOM      4  C3  UNL d   1       0.282  -0.690  -0.547  0.00  0.00     0.150 A 
ATOM      5  C4  UNL d   1       0.840  -1.932  -0.832  0.00  0.00    -0.007 A 
ATOM      6  C5  UNL d   1       1.761  -2.054  -1.871  0.00  0.00     0.039 A 
ENDROOT
BRANCH   4   7
ATOM      7  O   UNL d   1      -0.618  -0.620   0.474  0.00  0.00    -0.526 OA
ATOM      8  H5  UNL d   1      -0.942   0.295   0.537  0.00  0.00     0.418 HD
ENDBRANCH   4   7
TORSDOF 1
ENDMDL
