MODEL 1
REMARK minimizedAffinity -4.05410385
REMARK minimizedRMSD -1
REMARK  1 active torsions:
REMARK  status: ('A' for Active; 'I' for Inactive)
REMARK    1  A    between atoms: C3_4  and  O_7 
ROOT
ATOM      1  C   UNL d   1       2.343  -0.126  -2.458  0.00  0.00    -0.033 A 
ATOM      2  C1  UNL d   1       1.457  -1.186  -2.252  0.00  0.00     0.039 A 
ATOM      3  C2  UNL d   1       0.495  -1.108  -1.243  0.00  0.00    -0.080 A 
ATOM      4  C3  UNL d   1       0.428   0.033  -0.449  0.00  0.00     0.150 A 
ATOM      5  C4  UNL d   1       1.304   1.095  -0.651  0.00  0.00    -0.007 A 
ATOM      6  C5  UNL d   1       2.265   1.015  -1.658  0.00  0.00     0.039 A 
ENDROOT
BRANCH   4   7
ATOM      7  O   UNL d   1      -0.491   0.153   0.551  0.00  0.00    -0.526 OA
ATOM      8  H5  UNL d   1      -1.009  -0.668   0.592  0.00  0.00     0.418 HD
ENDBRANCH   4   7
TORSDOF 1
ENDMDL
