MODEL 1
REMARK minimizedAffinity -4.24078178
REMARK minimizedRMSD -1
REMARK  1 active torsions:
REMARK  status: ('A' for Active; 'I' for Inactive)
REMARK    1  A    between atoms: C3_4  and  O_7 
ROOT
ATOM      1  C   UNL d   1       2.211  -1.605  -2.390  0.00  0.00    -0.033 A 
ATOM      2  C1  UNL d   1       2.041  -0.220  -2.319  0.00  0.00     0.039 A 
ATOM      3  C2  UNL d   1       1.105   0.326  -1.439  0.00  0.00    -0.080 A 
ATOM      4  C3  UNL d   1       0.348  -0.521  -0.635  0.00  0.00     0.150 A 
ATOM      5  C4  UNL d   1       0.514  -1.901  -0.697  0.00  0.00    -0.007 A 
ATOM      6  C5  UNL d   1       1.448  -2.445  -1.578  0.00  0.00     0.039 A 
ENDROOT
BRANCH   4   7
ATOM      7  O   UNL d   1      -0.581  -0.035   0.237  0.00  0.00    -0.526 OA
ATOM      8  H5  UNL d   1      -0.607   0.933   0.151  0.00  0.00     0.418 HD
ENDBRANCH   4   7
TORSDOF 1
ENDMDL
