MODEL 1
REMARK minimizedAffinity -4.21846104
REMARK minimizedRMSD -1
REMARK  1 active torsions:
REMARK  status: ('A' for Active; 'I' for Inactive)
REMARK    1  A    between atoms: C3_4  and  O_7 
ROOT
ATOM      1  C   UNL d   1      -0.147   0.145   0.007  0.00  0.00    -0.033 A 
ATOM      2  C1  UNL d   1       0.131  -1.105  -0.550  0.00  0.00     0.039 A 
ATOM      3  C2  UNL d   1       0.944  -1.202  -1.681  0.00  0.00    -0.080 A 
ATOM      4  C3  UNL d   1       1.471  -0.043  -2.245  0.00  0.00     0.150 A 
ATOM      5  C4  UNL d   1       1.201   1.205  -1.693  0.00  0.00    -0.007 A 
ATOM      6  C5  UNL d   1       0.389   1.300  -0.564  0.00  0.00     0.039 A 
ENDROOT
BRANCH   4   7
ATOM      7  O   UNL d   1       2.265  -0.088  -3.352  0.00  0.00    -0.526 OA
ATOM      8  H5  UNL d   1       2.342  -1.013  -3.639  0.00  0.00     0.418 HD
ENDBRANCH   4   7
TORSDOF 1
ENDMDL
