MODEL 1
REMARK minimizedAffinity 3.28134966
REMARK minimizedRMSD -1
REMARK  1 active torsions:
REMARK  status: ('A' for Active; 'I' for Inactive)
REMARK    1  A    between atoms: C3_4  and  O_7 
ROOT
ATOM      1  C   UNL d   1      -3.001   1.095   4.808  0.00  0.00    -0.033 A 
ATOM      2  C1  UNL d   1      -2.395   0.692   6.000  0.00  0.00     0.039 A 
ATOM      3  C2  UNL d   1      -1.068   0.259   5.999  0.00  0.00    -0.080 A 
ATOM      4  C3  UNL d   1      -0.358   0.234   4.802  0.00  0.00     0.150 A 
ATOM      5  C4  UNL d   1      -0.954   0.638   3.611  0.00  0.00    -0.007 A 
ATOM      6  C5  UNL d   1      -2.279   1.069   3.614  0.00  0.00     0.039 A 
ENDROOT
BRANCH   4   7
ATOM      7  O   UNL d   1       0.938  -0.185   4.750  0.00  0.00    -0.526 OA
ATOM      8  H5  UNL d   1       1.208  -0.460   5.642  0.00  0.00     0.418 HD
ENDBRANCH   4   7
TORSDOF 1
ENDMDL
