MODEL 1
REMARK minimizedAffinity -4.11925888
REMARK minimizedRMSD -1
REMARK  1 active torsions:
REMARK  status: ('A' for Active; 'I' for Inactive)
REMARK    1  A    between atoms: C3_4  and  O_7 
ROOT
ATOM      1  C   UNL d   1       0.070   1.498   0.117  0.00  0.00    -0.033 A 
ATOM      2  C1  UNL d   1      -0.833   1.268  -0.922  0.00  0.00     0.039 A 
ATOM      3  C2  UNL d   1      -0.367   0.921  -2.192  0.00  0.00    -0.080 A 
ATOM      4  C3  UNL d   1       1.004   0.806  -2.408  0.00  0.00     0.150 A 
ATOM      5  C4  UNL d   1       1.909   1.029  -1.376  0.00  0.00    -0.007 A 
ATOM      6  C5  UNL d   1       1.441   1.377  -0.109  0.00  0.00     0.039 A 
ENDROOT
BRANCH   4   7
ATOM      7  O   UNL d   1       1.507   0.474  -3.631  0.00  0.00    -0.526 OA
ATOM      8  H5  UNL d   1       0.766   0.378  -4.252  0.00  0.00     0.418 HD
ENDBRANCH   4   7
TORSDOF 1
ENDMDL
