MODEL 1
REMARK minimizedAffinity -2.60628033
REMARK minimizedRMSD -1
REMARK  1 active torsions:
REMARK  status: ('A' for Active; 'I' for Inactive)
REMARK    1  A    between atoms: C3_4  and  O_7 
ROOT
ATOM      1  C   UNL d   1       1.286   0.388  -2.440  0.00  0.00    -0.033 A 
ATOM      2  C1  UNL d   1       1.289   1.395  -1.472  0.00  0.00     0.039 A 
ATOM      3  C2  UNL d   1       0.738   1.156  -0.212  0.00  0.00    -0.080 A 
ATOM      4  C3  UNL d   1       0.188  -0.092   0.068  0.00  0.00     0.150 A 
ATOM      5  C4  UNL d   1       0.185  -1.101  -0.890  0.00  0.00    -0.007 A 
ATOM      6  C5  UNL d   1       0.736  -0.860  -2.148  0.00  0.00     0.039 A 
ENDROOT
BRANCH   4   7
ATOM      7  O   UNL d   1      -0.366  -0.371   1.282  0.00  0.00    -0.526 OA
ATOM      8  H5  UNL d   1      -0.318   0.428   1.833  0.00  0.00     0.418 HD
ENDBRANCH   4   7
TORSDOF 1
ENDMDL
