MODEL 1
REMARK minimizedAffinity -5.5447793
REMARK minimizedRMSD -1
REMARK  1 active torsions:
REMARK  status: ('A' for Active; 'I' for Inactive)
REMARK    1  A    between atoms: C3_4  and  O_7 
ROOT
ATOM      1  C   UNL d   1       2.038  -0.458  -2.721  0.00  0.00    -0.033 A 
ATOM      2  C1  UNL d   1       1.771  -1.650  -2.045  0.00  0.00     0.039 A 
ATOM      3  C2  UNL d   1       0.942  -1.646  -0.922  0.00  0.00    -0.080 A 
ATOM      4  C3  UNL d   1       0.386  -0.447  -0.486  0.00  0.00     0.150 A 
ATOM      5  C4  UNL d   1       0.645   0.744  -1.157  0.00  0.00    -0.007 A 
ATOM      6  C5  UNL d   1       1.474   0.739  -2.278  0.00  0.00     0.039 A 
ENDROOT
BRANCH   4   7
ATOM      7  O   UNL d   1      -0.426  -0.393   0.608  0.00  0.00    -0.526 OA
ATOM      8  H5  UNL d   1      -0.492  -1.285   0.986  0.00  0.00     0.418 HD
ENDBRANCH   4   7
TORSDOF 1
ENDMDL
