MODEL 1
REMARK minimizedAffinity -3.36281133
REMARK minimizedRMSD -1
REMARK  1 active torsions:
REMARK  status: ('A' for Active; 'I' for Inactive)
REMARK    1  A    between atoms: C3_4  and  O_7 
ROOT
ATOM      1  C   UNL d   1       0.763   1.227  -0.864  0.00  0.00    -0.033 A 
ATOM      2  C1  UNL d   1       0.039   0.234  -0.202  0.00  0.00     0.039 A 
ATOM      3  C2  UNL d   1       0.240  -1.110  -0.522  0.00  0.00    -0.080 A 
ATOM      4  C3  UNL d   1       1.169  -1.447  -1.503  0.00  0.00     0.150 A 
ATOM      5  C4  UNL d   1       1.897  -0.463  -2.164  0.00  0.00    -0.007 A 
ATOM      6  C5  UNL d   1       1.693   0.879  -1.844  0.00  0.00     0.039 A 
ENDROOT
BRANCH   4   7
ATOM      7  O   UNL d   1       1.397  -2.745  -1.853  0.00  0.00    -0.526 OA
ATOM      8  H5  UNL d   1       0.802  -3.312  -1.334  0.00  0.00     0.418 HD
ENDBRANCH   4   7
TORSDOF 1
ENDMDL
