MODEL 1
REMARK minimizedAffinity -4.34954119
REMARK minimizedRMSD -1
REMARK  1 active torsions:
REMARK  status: ('A' for Active; 'I' for Inactive)
REMARK    1  A    between atoms: C3_4  and  O_7 
ROOT
ATOM      1  C   UNL d   1      -3.102   0.707   2.112  0.00  0.00    -0.033 A 
ATOM      2  C1  UNL d   1      -1.937   0.111   2.599  0.00  0.00     0.039 A 
ATOM      3  C2  UNL d   1      -0.851  -0.101   1.747  0.00  0.00    -0.080 A 
ATOM      4  C3  UNL d   1      -0.943   0.286   0.413  0.00  0.00     0.150 A 
ATOM      5  C4  UNL d   1      -2.099   0.884  -0.078  0.00  0.00    -0.007 A 
ATOM      6  C5  UNL d   1      -3.182   1.095   0.774  0.00  0.00     0.039 A 
ENDROOT
BRANCH   4   7
ATOM      7  O   UNL d   1       0.089   0.095  -0.457  0.00  0.00    -0.526 OA
ATOM      8  H5  UNL d   1       0.811  -0.354   0.015  0.00  0.00     0.418 HD
ENDBRANCH   4   7
TORSDOF 1
ENDMDL
