MODEL 1
REMARK minimizedAffinity -4.33293676
REMARK minimizedRMSD -1
REMARK  1 active torsions:
REMARK  status: ('A' for Active; 'I' for Inactive)
REMARK    1  A    between atoms: C3_4  and  O_7 
ROOT
ATOM      1  C   UNL d   1       0.654  -0.127  -0.009  0.00  0.00    -0.033 A 
ATOM      2  C1  UNL d   1       0.277  -0.595   1.251  0.00  0.00     0.039 A 
ATOM      3  C2  UNL d   1      -0.998  -0.316   1.748  0.00  0.00    -0.080 A 
ATOM      4  C3  UNL d   1      -1.884   0.431   0.976  0.00  0.00     0.150 A 
ATOM      5  C4  UNL d   1      -1.516   0.897  -0.281  0.00  0.00    -0.007 A 
ATOM      6  C5  UNL d   1      -0.242   0.618  -0.776  0.00  0.00     0.039 A 
ENDROOT
BRANCH   4   7
ATOM      7  O   UNL d   1      -3.137   0.733   1.421  0.00  0.00    -0.526 OA
ATOM      8  H5  UNL d   1      -3.241   0.370   2.316  0.00  0.00     0.418 HD
ENDBRANCH   4   7
TORSDOF 1
ENDMDL
