MODEL 1
REMARK minimizedAffinity -3.74296951
REMARK minimizedRMSD -1
REMARK  1 active torsions:
REMARK  status: ('A' for Active; 'I' for Inactive)
REMARK    1  A    between atoms: C3_4  and  O_7 
ROOT
ATOM      1  C   UNL d   1      -0.082   0.423   1.004  0.00  0.00    -0.033 A 
ATOM      2  C1  UNL d   1      -0.183  -0.754   0.259  0.00  0.00     0.039 A 
ATOM      3  C2  UNL d   1       0.608  -0.932  -0.878  0.00  0.00    -0.080 A 
ATOM      4  C3  UNL d   1       1.495   0.072  -1.258  0.00  0.00     0.150 A 
ATOM      5  C4  UNL d   1       1.603   1.245  -0.518  0.00  0.00    -0.007 A 
ATOM      6  C5  UNL d   1       0.812   1.421   0.617  0.00  0.00     0.039 A 
ENDROOT
BRANCH   4   7
ATOM      7  O   UNL d   1       2.283  -0.055  -2.363  0.00  0.00    -0.526 OA
ATOM      8  H5  UNL d   1       2.080  -0.903  -2.790  0.00  0.00     0.418 HD
ENDBRANCH   4   7
TORSDOF 1
ENDMDL
