MODEL 1
REMARK minimizedAffinity -0.489429086
REMARK minimizedRMSD -1
REMARK  1 active torsions:
REMARK  status: ('A' for Active; 'I' for Inactive)
REMARK    1  A    between atoms: C3_4  and  O_7 
ROOT
ATOM      1  C   UNL d   1      -0.056  -0.448   0.679  0.00  0.00    -0.033 A 
ATOM      2  C1  UNL d   1       0.265   0.895   0.472  0.00  0.00     0.039 A 
ATOM      3  C2  UNL d   1       1.103   1.260  -0.583  0.00  0.00    -0.080 A 
ATOM      4  C3  UNL d   1       1.614   0.274  -1.423  0.00  0.00     0.150 A 
ATOM      5  C4  UNL d   1       1.296  -1.066  -1.225  0.00  0.00    -0.007 A 
ATOM      6  C5  UNL d   1       0.459  -1.429  -0.170  0.00  0.00     0.039 A 
ENDROOT
BRANCH   4   7
ATOM      7  O   UNL d   1       2.440   0.581  -2.463  0.00  0.00    -0.526 OA
ATOM      8  H5  UNL d   1       2.595   1.540  -2.460  0.00  0.00     0.418 HD
ENDBRANCH   4   7
TORSDOF 1
ENDMDL
