MODEL 1
REMARK minimizedAffinity -4.74901342
REMARK minimizedRMSD -1
REMARK  1 active torsions:
REMARK  status: ('A' for Active; 'I' for Inactive)
REMARK    1  A    between atoms: C3_4  and  O_7 
ROOT
ATOM      1  C   UNL d   1       1.576   0.051  -2.123  0.00  0.00    -0.033 A 
ATOM      2  C1  UNL d   1       1.740   1.136  -1.260  0.00  0.00     0.039 A 
ATOM      3  C2  UNL d   1       0.882   1.300  -0.171  0.00  0.00    -0.080 A 
ATOM      4  C3  UNL d   1      -0.135   0.374   0.044  0.00  0.00     0.150 A 
ATOM      5  C4  UNL d   1      -0.302  -0.712  -0.810  0.00  0.00    -0.007 A 
ATOM      6  C5  UNL d   1       0.556  -0.873  -1.898  0.00  0.00     0.039 A 
ENDROOT
BRANCH   4   7
ATOM      7  O   UNL d   1      -1.000   0.495   1.090  0.00  0.00    -0.526 OA
ATOM      8  H5  UNL d   1      -0.782   1.306   1.578  0.00  0.00     0.418 HD
ENDBRANCH   4   7
TORSDOF 1
ENDMDL
