MODEL 1
REMARK minimizedAffinity -4.33196115
REMARK minimizedRMSD -1
REMARK  1 active torsions:
REMARK  status: ('A' for Active; 'I' for Inactive)
REMARK    1  A    between atoms: C3_4  and  O_7 
ROOT
ATOM      1  C   UNL d   1       0.339   0.456   0.574  0.00  0.00    -0.033 A 
ATOM      2  C1  UNL d   1       0.063   1.005  -0.679  0.00  0.00     0.039 A 
ATOM      3  C2  UNL d   1      -1.250   1.044  -1.153  0.00  0.00    -0.080 A 
ATOM      4  C3  UNL d   1      -2.276   0.531  -0.364  0.00  0.00     0.150 A 
ATOM      5  C4  UNL d   1      -2.008  -0.015   0.887  0.00  0.00    -0.007 A 
ATOM      6  C5  UNL d   1      -0.697  -0.053   1.358  0.00  0.00     0.039 A 
ENDROOT
BRANCH   4   7
ATOM      7  O   UNL d   1      -3.572   0.542  -0.786  0.00  0.00    -0.526 OA
ATOM      8  H5  UNL d   1      -3.602   0.922  -1.679  0.00  0.00     0.418 HD
ENDBRANCH   4   7
TORSDOF 1
ENDMDL
