MODEL 1
REMARK minimizedAffinity -1.17383516
REMARK minimizedRMSD -1
REMARK  0 active torsions:
REMARK  status: ('A' for Active; 'I' for Inactive)
ROOT
ATOM      1  C   UNL d   1       2.598  -4.778   0.059  0.00  0.00     0.077 C 
ATOM      2  C1  UNL d   1       1.454  -3.967  -0.472  0.00  0.00    -0.074 A 
ATOM      3  C2  UNL d   1       0.434  -4.564  -1.219  0.00  0.00    -0.005 A 
ATOM      4  C3  UNL d   1      -0.628  -3.798  -1.699  0.00  0.00     0.006 A 
ATOM      5  C4  UNL d   1      -0.681  -2.429  -1.437  0.00  0.00    -0.005 A 
ATOM      6  C5  UNL d   1       0.329  -1.814  -0.691  0.00  0.00    -0.074 A 
ATOM      7  C6  UNL d   1       0.282  -0.345  -0.392  0.00  0.00     0.077 C 
ATOM      8  C7  UNL d   1       1.390  -2.592  -0.206  0.00  0.00    -0.001 A 
ENDROOT
TORSDOF 0
ENDMDL
