MODEL 1
REMARK minimizedAffinity -5.36083841
REMARK minimizedRMSD -1
REMARK  0 active torsions:
REMARK  status: ('A' for Active; 'I' for Inactive)
ROOT
ATOM      1  C   UNL d   1      -0.059  -0.732  -2.462  0.00  0.00     0.077 C 
ATOM      2  C1  UNL d   1       0.023  -0.344  -1.015  0.00  0.00    -0.074 A 
ATOM      3  C2  UNL d   1       0.864  -1.030  -0.134  0.00  0.00    -0.005 A 
ATOM      4  C3  UNL d   1       0.938  -0.651   1.207  0.00  0.00     0.006 A 
ATOM      5  C4  UNL d   1       0.172   0.416   1.678  0.00  0.00    -0.005 A 
ATOM      6  C5  UNL d   1      -0.674   1.115   0.811  0.00  0.00    -0.074 A 
ATOM      7  C6  UNL d   1      -1.495   2.271   1.299  0.00  0.00     0.077 C 
ATOM      8  C7  UNL d   1      -0.737   0.733  -0.536  0.00  0.00    -0.001 A 
ENDROOT
TORSDOF 0
ENDMDL
