MODEL 1
REMARK minimizedAffinity -5.83127689
REMARK minimizedRMSD -1
REMARK  0 active torsions:
REMARK  status: ('A' for Active; 'I' for Inactive)
ROOT
ATOM      1  C   UNL d   1      -1.073   3.405  -1.588  0.00  0.00     0.077 C 
ATOM      2  C1  UNL d   1      -0.701   2.502  -0.450  0.00  0.00    -0.074 A 
ATOM      3  C2  UNL d   1      -0.754   2.953   0.873  0.00  0.00    -0.005 A 
ATOM      4  C3  UNL d   1      -0.414   2.098   1.922  0.00  0.00     0.006 A 
ATOM      5  C4  UNL d   1      -0.019   0.786   1.659  0.00  0.00    -0.005 A 
ATOM      6  C5  UNL d   1       0.039   0.317   0.343  0.00  0.00    -0.074 A 
ATOM      7  C6  UNL d   1       0.453  -1.093   0.043  0.00  0.00     0.077 C 
ATOM      8  C7  UNL d   1      -0.311   1.180  -0.705  0.00  0.00    -0.001 A 
ENDROOT
TORSDOF 0
ENDMDL
