MODEL 1
REMARK minimizedAffinity -4.253088
REMARK minimizedRMSD -1
REMARK  0 active torsions:
REMARK  status: ('A' for Active; 'I' for Inactive)
ROOT
ATOM      1  C   UNL d   1       0.281   0.004  -2.174  0.00  0.00     0.077 C 
ATOM      2  C1  UNL d   1       0.075   0.413  -0.746  0.00  0.00    -0.074 A 
ATOM      3  C2  UNL d   1       0.789  -0.202   0.289  0.00  0.00    -0.005 A 
ATOM      4  C3  UNL d   1       0.593   0.196   1.611  0.00  0.00     0.006 A 
ATOM      5  C4  UNL d   1      -0.315   1.211   1.912  0.00  0.00    -0.005 A 
ATOM      6  C5  UNL d   1      -1.037   1.838   0.892  0.00  0.00    -0.074 A 
ATOM      7  C6  UNL d   1      -2.010   2.937   1.197  0.00  0.00     0.077 C 
ATOM      8  C7  UNL d   1      -0.830   1.437  -0.435  0.00  0.00    -0.001 A 
ENDROOT
TORSDOF 0
ENDMDL
