MODEL 1
REMARK minimizedAffinity -5.21378517
REMARK minimizedRMSD -1
REMARK  0 active torsions:
REMARK  status: ('A' for Active; 'I' for Inactive)
ROOT
ATOM      1  C   UNL d   1       0.074  -0.959  -1.780  0.00  0.00     0.077 C 
ATOM      2  C1  UNL d   1       0.016  -0.499  -0.354  0.00  0.00    -0.074 A 
ATOM      3  C2  UNL d   1       0.588  -1.260   0.671  0.00  0.00    -0.005 A 
ATOM      4  C3  UNL d   1       0.535  -0.814   1.992  0.00  0.00     0.006 A 
ATOM      5  C4  UNL d   1      -0.088   0.396   2.300  0.00  0.00    -0.005 A 
ATOM      6  C5  UNL d   1      -0.664   1.171   1.289  0.00  0.00    -0.074 A 
ATOM      7  C6  UNL d   1      -1.330   2.478   1.602  0.00  0.00     0.077 C 
ATOM      8  C7  UNL d   1      -0.601   0.719  -0.037  0.00  0.00    -0.001 A 
ENDROOT
TORSDOF 0
ENDMDL
