MODEL 1
REMARK minimizedAffinity -4.75631905
REMARK minimizedRMSD -1
REMARK  0 active torsions:
REMARK  status: ('A' for Active; 'I' for Inactive)
ROOT
ATOM      1  C   UNL d   1      -1.517   2.388   1.606  0.00  0.00     0.077 C 
ATOM      2  C1  UNL d   1      -0.661   1.505   0.748  0.00  0.00    -0.074 A 
ATOM      3  C2  UNL d   1      -0.081   0.342   1.267  0.00  0.00    -0.005 A 
ATOM      4  C3  UNL d   1       0.705  -0.475   0.455  0.00  0.00     0.006 A 
ATOM      5  C4  UNL d   1       0.919  -0.139  -0.883  0.00  0.00    -0.005 A 
ATOM      6  C5  UNL d   1       0.347   1.019  -1.419  0.00  0.00    -0.074 A 
ATOM      7  C6  UNL d   1       0.559   1.390  -2.857  0.00  0.00     0.077 C 
ATOM      8  C7  UNL d   1      -0.448   1.831  -0.598  0.00  0.00    -0.001 A 
ENDROOT
TORSDOF 0
ENDMDL
