MODEL 1
REMARK minimizedAffinity -3.21301365
REMARK minimizedRMSD -1
REMARK  0 active torsions:
REMARK  status: ('A' for Active; 'I' for Inactive)
ROOT
ATOM      1  C   UNL d   1       1.665  -2.490  -0.638  0.00  0.00    -0.002 A 
ATOM      2  C1  UNL d   1       2.424  -1.517  -1.271  0.00  0.00     0.010 A 
ATOM      3  C2  UNL d   1       1.973  -0.197  -1.340  0.00  0.00     0.041 A 
ATOM      4  C3  UNL d   1       0.735   0.131  -0.754  0.00  0.00    -0.075 A 
ATOM      5  S   UNL d   1      -0.018   1.682  -0.715  0.00  0.00     0.015 SA
ATOM      6  C4  UNL d   1      -1.365   1.088   0.144  0.00  0.00     0.022 A 
ATOM      7  C5  UNL d   1      -1.260  -0.258   0.403  0.00  0.00     0.026 A 
ATOM      8  C6  UNL d   1      -0.048  -0.832  -0.110  0.00  0.00    -0.082 A 
ATOM      9  C7  UNL d   1       0.437  -2.161  -0.058  0.00  0.00     0.045 A 
ENDROOT
TORSDOF 0
ENDMDL
