MODEL 1
REMARK minimizedAffinity -3.02178645
REMARK minimizedRMSD -1
REMARK  0 active torsions:
REMARK  status: ('A' for Active; 'I' for Inactive)
ROOT
ATOM      1  C   UNL d   1       3.047  -0.765  -1.317  0.00  0.00    -0.002 A 
ATOM      2  C1  UNL d   1       3.031   0.623  -1.332  0.00  0.00     0.010 A 
ATOM      3  C2  UNL d   1       1.924   1.325  -0.852  0.00  0.00     0.041 A 
ATOM      4  C3  UNL d   1       0.824   0.603  -0.351  0.00  0.00    -0.075 A 
ATOM      5  S   UNL d   1      -0.640   1.251   0.289  0.00  0.00     0.015 SA
ATOM      6  C4  UNL d   1      -1.279  -0.299   0.598  0.00  0.00     0.022 A 
ATOM      7  C5  UNL d   1      -0.410  -1.298   0.228  0.00  0.00     0.026 A 
ATOM      8  C6  UNL d   1       0.817  -0.795  -0.325  0.00  0.00    -0.082 A 
ATOM      9  C7  UNL d   1       1.954  -1.478  -0.819  0.00  0.00     0.045 A 
ENDROOT
TORSDOF 0
ENDMDL
