MODEL 1
REMARK minimizedAffinity -3.47010732
REMARK minimizedRMSD -1
REMARK  0 active torsions:
REMARK  status: ('A' for Active; 'I' for Inactive)
ROOT
ATOM      1  C   UNL d   1       1.931  -1.889  -0.403  0.00  0.00    -0.002 A 
ATOM      2  C1  UNL d   1       1.842  -1.152  -1.575  0.00  0.00     0.010 A 
ATOM      3  C2  UNL d   1       0.806  -0.234  -1.760  0.00  0.00     0.041 A 
ATOM      4  C3  UNL d   1      -0.146  -0.066  -0.736  0.00  0.00    -0.075 A 
ATOM      5  S   UNL d   1      -1.500   1.002  -0.741  0.00  0.00     0.015 SA
ATOM      6  C4  UNL d   1      -1.991   0.506   0.814  0.00  0.00     0.022 A 
ATOM      7  C5  UNL d   1      -1.154  -0.451   1.339  0.00  0.00     0.026 A 
ATOM      8  C6  UNL d   1      -0.077  -0.795   0.454  0.00  0.00    -0.082 A 
ATOM      9  C7  UNL d   1       0.985  -1.719   0.611  0.00  0.00     0.045 A 
ENDROOT
TORSDOF 0
ENDMDL
