MODEL 1
REMARK minimizedAffinity -0.57069236
REMARK minimizedRMSD -1
REMARK  0 active torsions:
REMARK  status: ('A' for Active; 'I' for Inactive)
ROOT
ATOM      1  C   UNL d   1       5.353  -1.404   5.236  0.00  0.00    -0.002 A 
ATOM      2  C1  UNL d   1       4.983  -1.256   3.907  0.00  0.00     0.010 A 
ATOM      3  C2  UNL d   1       4.954   0.008   3.314  0.00  0.00     0.041 A 
ATOM      4  C3  UNL d   1       5.309   1.131   4.087  0.00  0.00    -0.075 A 
ATOM      5  S   UNL d   1       5.348   2.777   3.573  0.00  0.00     0.015 SA
ATOM      6  C4  UNL d   1       5.858   3.321   5.105  0.00  0.00     0.022 A 
ATOM      7  C5  UNL d   1       6.000   2.287   5.999  0.00  0.00     0.026 A 
ATOM      8  C6  UNL d   1       5.686   1.007   5.427  0.00  0.00    -0.082 A 
ATOM      9  C7  UNL d   1       5.705  -0.287   5.999  0.00  0.00     0.045 A 
ENDROOT
TORSDOF 0
ENDMDL
