MODEL 1
REMARK minimizedAffinity 4.84340858
REMARK minimizedRMSD -1
REMARK  0 active torsions:
REMARK  status: ('A' for Active; 'I' for Inactive)
ROOT
ATOM      1  C   UNL d   1       5.257  -0.214   5.011  0.00  0.00    -0.002 A 
ATOM      2  C1  UNL d   1       3.966  -0.200   4.503  0.00  0.00     0.010 A 
ATOM      3  C2  UNL d   1       3.389   0.993   4.062  0.00  0.00     0.041 A 
ATOM      4  C3  UNL d   1       4.141   2.182   4.138  0.00  0.00    -0.075 A 
ATOM      5  S   UNL d   1       3.641   3.760   3.656  0.00  0.00     0.015 SA
ATOM      6  C4  UNL d   1       5.131   4.452   4.111  0.00  0.00     0.022 A 
ATOM      7  C5  UNL d   1       6.000   3.516   4.621  0.00  0.00     0.026 A 
ATOM      8  C6  UNL d   1       5.444   2.193   4.644  0.00  0.00    -0.082 A 
ATOM      9  C7  UNL d   1       6.000   0.967   5.085  0.00  0.00     0.045 A 
ENDROOT
TORSDOF 0
ENDMDL
