MODEL 1
REMARK minimizedAffinity -2.96354342
REMARK minimizedRMSD -1
REMARK  0 active torsions:
REMARK  status: ('A' for Active; 'I' for Inactive)
ROOT
ATOM      1  C   UNL d   1      -0.753   0.614   0.560  0.00  0.00    -0.002 A 
ATOM      2  C1  UNL d   1      -1.019  -0.739   0.716  0.00  0.00     0.010 A 
ATOM      3  C2  UNL d   1      -0.155  -1.699   0.185  0.00  0.00     0.041 A 
ATOM      4  C3  UNL d   1       0.993  -1.272  -0.511  0.00  0.00    -0.075 A 
ATOM      5  S   UNL d   1       2.194  -2.267  -1.245  0.00  0.00     0.015 SA
ATOM      6  C4  UNL d   1       3.089  -0.920  -1.783  0.00  0.00     0.022 A 
ATOM      7  C5  UNL d   1       2.500   0.268  -1.420  0.00  0.00     0.026 A 
ATOM      8  C6  UNL d   1       1.283   0.085  -0.680  0.00  0.00    -0.082 A 
ATOM      9  C7  UNL d   1       0.387   1.033  -0.131  0.00  0.00     0.045 A 
ENDROOT
TORSDOF 0
ENDMDL
