MODEL 1
REMARK minimizedAffinity -4.10074759
REMARK minimizedRMSD -1
REMARK  0 active torsions:
REMARK  status: ('A' for Active; 'I' for Inactive)
ROOT
ATOM      1  C   UNL d   1       2.269  -2.039  -0.546  0.00  0.00    -0.002 A 
ATOM      2  C1  UNL d   1       3.006  -1.075  -1.217  0.00  0.00     0.010 A 
ATOM      3  C2  UNL d   1       2.419   0.135  -1.592  0.00  0.00     0.041 A 
ATOM      4  C3  UNL d   1       1.065   0.362  -1.277  0.00  0.00    -0.075 A 
ATOM      5  S   UNL d   1       0.136   1.770  -1.635  0.00  0.00     0.015 SA
ATOM      6  C4  UNL d   1      -1.262   1.124  -0.905  0.00  0.00     0.022 A 
ATOM      7  C5  UNL d   1      -1.043  -0.134  -0.395  0.00  0.00     0.026 A 
ATOM      8  C6  UNL d   1       0.302  -0.594  -0.600  0.00  0.00    -0.082 A 
ATOM      9  C7  UNL d   1       0.926  -1.810  -0.235  0.00  0.00     0.045 A 
ENDROOT
TORSDOF 0
ENDMDL
