MODEL 1
REMARK minimizedAffinity -0.354439855
REMARK minimizedRMSD -1
REMARK  0 active torsions:
REMARK  status: ('A' for Active; 'I' for Inactive)
ROOT
ATOM      1  C   UNL d   1      -1.812   1.358   2.117  0.00  0.00    -0.002 A 
ATOM      2  C1  UNL d   1      -1.429   1.423   3.449  0.00  0.00     0.010 A 
ATOM      3  C2  UNL d   1      -1.991   0.561   4.392  0.00  0.00     0.041 A 
ATOM      4  C3  UNL d   1      -2.952  -0.379   3.970  0.00  0.00    -0.075 A 
ATOM      5  S   UNL d   1      -3.774  -1.537   4.947  0.00  0.00     0.015 SA
ATOM      6  C4  UNL d   1      -4.652  -2.146   3.619  0.00  0.00     0.022 A 
ATOM      7  C5  UNL d   1      -4.338  -1.494   2.451  0.00  0.00     0.026 A 
ATOM      8  C6  UNL d   1      -3.352  -0.465   2.633  0.00  0.00    -0.082 A 
ATOM      9  C7  UNL d   1      -2.765   0.424   1.701  0.00  0.00     0.045 A 
ENDROOT
TORSDOF 0
ENDMDL
