MODEL 1
REMARK minimizedAffinity -1.21794581
REMARK minimizedRMSD -1
REMARK  0 active torsions:
REMARK  status: ('A' for Active; 'I' for Inactive)
ROOT
ATOM      1  C   UNL d   1       2.220  -1.720  -0.933  0.00  0.00    -0.002 A 
ATOM      2  C1  UNL d   1       1.337  -2.662  -0.424  0.00  0.00     0.010 A 
ATOM      3  C2  UNL d   1       0.133  -2.264   0.160  0.00  0.00     0.041 A 
ATOM      4  C3  UNL d   1      -0.172  -0.890   0.224  0.00  0.00    -0.075 A 
ATOM      5  S   UNL d   1      -1.588  -0.170   0.893  0.00  0.00     0.015 SA
ATOM      6  C4  UNL d   1      -1.055   1.405   0.519  0.00  0.00     0.022 A 
ATOM      7  C5  UNL d   1       0.172   1.400  -0.101  0.00  0.00     0.026 A 
ATOM      8  C6  UNL d   1       0.701   0.077  -0.282  0.00  0.00    -0.082 A 
ATOM      9  C7  UNL d   1       1.914  -0.358  -0.868  0.00  0.00     0.045 A 
ENDROOT
TORSDOF 0
ENDMDL
