MODEL 1
REMARK minimizedAffinity 1.59953976
REMARK minimizedRMSD -1
REMARK  0 active torsions:
REMARK  status: ('A' for Active; 'I' for Inactive)
ROOT
ATOM      1  C   UNL d   1      -2.993   0.597   3.720  0.00  0.00    -0.002 A 
ATOM      2  C1  UNL d   1      -2.101   1.582   4.119  0.00  0.00     0.010 A 
ATOM      3  C2  UNL d   1      -1.015   1.926   3.312  0.00  0.00     0.041 A 
ATOM      4  C3  UNL d   1      -0.839   1.258   2.084  0.00  0.00    -0.075 A 
ATOM      5  S   UNL d   1       0.418   1.513   0.932  0.00  0.00     0.015 SA
ATOM      6  C4  UNL d   1      -0.200   0.321  -0.117  0.00  0.00     0.022 A 
ATOM      7  C5  UNL d   1      -1.337  -0.268   0.383  0.00  0.00     0.026 A 
ATOM      8  C6  UNL d   1      -1.724   0.263   1.660  0.00  0.00    -0.082 A 
ATOM      9  C7  UNL d   1      -2.815  -0.064   2.501  0.00  0.00     0.045 A 
ENDROOT
TORSDOF 0
ENDMDL
