MODEL 1
REMARK minimizedAffinity -4.61842728
REMARK minimizedRMSD -1
REMARK  0 active torsions:
REMARK  status: ('A' for Active; 'I' for Inactive)
ROOT
ATOM      1  C   UNL d   1      -0.600   1.698  -1.168  0.00  0.00    -0.002 A 
ATOM      2  C1  UNL d   1      -1.399   0.794  -0.482  0.00  0.00     0.010 A 
ATOM      3  C2  UNL d   1      -0.877  -0.424  -0.041  0.00  0.00     0.041 A 
ATOM      4  C3  UNL d   1       0.475  -0.720  -0.303  0.00  0.00    -0.075 A 
ATOM      5  S   UNL d   1       1.331  -2.149   0.142  0.00  0.00     0.015 SA
ATOM      6  C4  UNL d   1       2.778  -1.593  -0.567  0.00  0.00     0.022 A 
ATOM      7  C5  UNL d   1       2.629  -0.349  -1.134  0.00  0.00     0.026 A 
ATOM      8  C6  UNL d   1       1.300   0.175  -0.991  0.00  0.00    -0.082 A 
ATOM      9  C7  UNL d   1       0.741   1.400  -1.425  0.00  0.00     0.045 A 
ENDROOT
TORSDOF 0
ENDMDL
