MODEL 1
REMARK minimizedAffinity -1.61323953
REMARK minimizedRMSD -1
REMARK  0 active torsions:
REMARK  status: ('A' for Active; 'I' for Inactive)
ROOT
ATOM      1  C   UNL d   1      -0.460   3.198   0.157  0.00  0.00    -0.002 A 
ATOM      2  C1  UNL d   1      -0.692   2.059  -0.601  0.00  0.00     0.010 A 
ATOM      3  C2  UNL d   1      -1.321   0.947  -0.038  0.00  0.00     0.041 A 
ATOM      4  C3  UNL d   1      -1.718   1.001   1.313  0.00  0.00    -0.075 A 
ATOM      5  S   UNL d   1      -2.506  -0.240   2.214  0.00  0.00     0.015 SA
ATOM      6  C4  UNL d   1      -2.553   0.713   3.627  0.00  0.00     0.022 A 
ATOM      7  C5  UNL d   1      -1.986   1.950   3.433  0.00  0.00     0.026 A 
ATOM      8  C6  UNL d   1      -1.496   2.137   2.096  0.00  0.00    -0.082 A 
ATOM      9  C7  UNL d   1      -0.855   3.247   1.496  0.00  0.00     0.045 A 
ENDROOT
TORSDOF 0
ENDMDL
