MODEL 1
REMARK minimizedAffinity -3.12015963
REMARK minimizedRMSD -1
REMARK  0 active torsions:
REMARK  status: ('A' for Active; 'I' for Inactive)
ROOT
ATOM      1  C   UNL d   1      -3.372   1.580   3.969  0.00  0.00    -0.002 A 
ATOM      2  C1  UNL d   1      -4.046   0.442   3.550  0.00  0.00     0.010 A 
ATOM      3  C2  UNL d   1      -3.631  -0.250   2.411  0.00  0.00     0.041 A 
ATOM      4  C3  UNL d   1      -2.515   0.223   1.694  0.00  0.00    -0.075 A 
ATOM      5  S   UNL d   1      -1.826  -0.463   0.270  0.00  0.00     0.015 SA
ATOM      6  C4  UNL d   1      -0.619   0.738   0.186  0.00  0.00     0.022 A 
ATOM      7  C5  UNL d   1      -0.725   1.648   1.211  0.00  0.00     0.026 A 
ATOM      8  C6  UNL d   1      -1.819   1.366   2.097  0.00  0.00    -0.082 A 
ATOM      9  C7  UNL d   1      -2.264   2.047   3.256  0.00  0.00     0.045 A 
ENDROOT
TORSDOF 0
ENDMDL
