MODEL 1
REMARK minimizedAffinity -2.1252346
REMARK minimizedRMSD -1
REMARK  0 active torsions:
REMARK  status: ('A' for Active; 'I' for Inactive)
ROOT
ATOM      1  C   UNL d   1       1.944  -0.882  -0.612  0.00  0.00    -0.002 A 
ATOM      2  C1  UNL d   1       1.880   0.189  -1.493  0.00  0.00     0.010 A 
ATOM      3  C2  UNL d   1       0.800   1.073  -1.457  0.00  0.00     0.041 A 
ATOM      4  C3  UNL d   1      -0.223   0.863  -0.512  0.00  0.00    -0.075 A 
ATOM      5  S   UNL d   1      -1.640   1.818  -0.284  0.00  0.00     0.015 SA
ATOM      6  C4  UNL d   1      -2.194   0.827   0.988  0.00  0.00     0.022 A 
ATOM      7  C5  UNL d   1      -1.331  -0.211   1.245  0.00  0.00     0.026 A 
ATOM      8  C6  UNL d   1      -0.180  -0.208   0.386  0.00  0.00    -0.082 A 
ATOM      9  C7  UNL d   1       0.927  -1.088   0.324  0.00  0.00     0.045 A 
ENDROOT
TORSDOF 0
ENDMDL
