MODEL 1
REMARK minimizedAffinity 2.1372838
REMARK minimizedRMSD -1
REMARK  1 active torsions:
REMARK  status: ('A' for Active; 'I' for Inactive)
REMARK    1  A    between atoms: C1_2  and  C2_3 
ROOT
ATOM      1  C2  UNL d   1       0.770   1.071   1.447  0.00  0.00    -0.081 A 
ATOM      2  C3  UNL d   1       0.608   1.070   0.056  0.00  0.00     0.006 A 
ATOM      3  C4  UNL d   1       0.492  -0.134  -0.642  0.00  0.00     0.002 A 
ATOM      4  C5  UNL d   1       0.528  -1.356   0.038  0.00  0.00    -0.080 A 
ATOM      5  C6  UNL d   1       0.375  -2.655  -0.696  0.00  0.00     0.076 C 
ATOM      6  C7  UNL d   1       0.708  -1.356   1.426  0.00  0.00     0.002 A 
ATOM      7  C8  UNL d   1       0.824  -0.152   2.125  0.00  0.00     0.006 A 
ENDROOT
BRANCH   1   8
ATOM      8  C1  UNL d   1       0.830   2.369   2.211  0.00  0.00     0.054 C 
ATOM      9  C   UNL d   1       2.264   2.735   2.568  0.00  0.00     0.018 C 
ENDBRANCH   1   8
TORSDOF 1
ENDMDL
