MODEL 1
REMARK minimizedAffinity 5.16682673
REMARK minimizedRMSD -1
REMARK  1 active torsions:
REMARK  status: ('A' for Active; 'I' for Inactive)
REMARK    1  A    between atoms: C1_2  and  C2_3 
ROOT
ATOM      1  C2  UNL d   1       0.583  -0.443   0.902  0.00  0.00    -0.081 A 
ATOM      2  C3  UNL d   1       0.471  -0.414   2.297  0.00  0.00     0.006 A 
ATOM      3  C4  UNL d   1       1.574  -0.705   3.103  0.00  0.00     0.002 A 
ATOM      4  C5  UNL d   1       2.810  -1.021   2.527  0.00  0.00    -0.080 A 
ATOM      5  C6  UNL d   1       4.010  -1.305   3.381  0.00  0.00     0.076 C 
ATOM      6  C7  UNL d   1       2.918  -1.067   1.133  0.00  0.00     0.002 A 
ATOM      7  C8  UNL d   1       1.815  -0.777   0.327  0.00  0.00     0.006 A 
ENDROOT
BRANCH   1   8
ATOM      8  C1  UNL d   1      -0.588  -0.067   0.030  0.00  0.00     0.054 C 
ATOM      9  C   UNL d   1      -0.131   0.659  -1.227  0.00  0.00     0.018 C 
ENDBRANCH   1   8
TORSDOF 1
ENDMDL
