MODEL 1
REMARK minimizedAffinity 7.82197237
REMARK minimizedRMSD -1
REMARK  1 active torsions:
REMARK  status: ('A' for Active; 'I' for Inactive)
REMARK    1  A    between atoms: C1_2  and  C2_3 
ROOT
ATOM      1  C2  UNL d   1       0.402   2.377   1.818  0.00  0.00    -0.081 A 
ATOM      2  C3  UNL d   1       0.771   1.986   3.111  0.00  0.00     0.006 A 
ATOM      3  C4  UNL d   1       0.734   0.640   3.482  0.00  0.00     0.002 A 
ATOM      4  C5  UNL d   1       0.337  -0.339   2.564  0.00  0.00    -0.080 A 
ATOM      5  C6  UNL d   1       0.322  -1.790   2.940  0.00  0.00     0.076 C 
ATOM      6  C7  UNL d   1      -0.048   0.053   1.277  0.00  0.00     0.002 A 
ATOM      7  C8  UNL d   1      -0.012   1.399   0.906  0.00  0.00     0.006 A 
ENDROOT
BRANCH   1   8
ATOM      8  C1  UNL d   1       0.502   3.820   1.395  0.00  0.00     0.054 C 
ATOM      9  C   UNL d   1       1.866   4.403   1.737  0.00  0.00     0.018 C 
ENDBRANCH   1   8
TORSDOF 1
ENDMDL
