MODEL 1
REMARK minimizedAffinity 17.2399273
REMARK minimizedRMSD -1
REMARK  1 active torsions:
REMARK  status: ('A' for Active; 'I' for Inactive)
REMARK    1  A    between atoms: C1_2  and  C2_3 
ROOT
ATOM      1  C2  UNL d   1       0.740   1.413   2.589  0.00  0.00    -0.081 A 
ATOM      2  C3  UNL d   1       0.265   1.656   1.294  0.00  0.00     0.006 A 
ATOM      3  C4  UNL d   1       0.475   2.895   0.683  0.00  0.00     0.002 A 
ATOM      4  C5  UNL d   1       1.170   3.908   1.354  0.00  0.00    -0.080 A 
ATOM      5  C6  UNL d   1       1.429   5.232   0.698  0.00  0.00     0.076 C 
ATOM      6  C7  UNL d   1       1.629   3.671   2.654  0.00  0.00     0.002 A 
ATOM      7  C8  UNL d   1       1.418   2.433   3.265  0.00  0.00     0.006 A 
ENDROOT
BRANCH   1   8
ATOM      8  C1  UNL d   1       0.571   0.057   3.225  0.00  0.00     0.054 C 
ATOM      9  C   UNL d   1       0.827  -1.060   2.223  0.00  0.00     0.018 C 
ENDBRANCH   1   8
TORSDOF 1
ENDMDL
