MODEL 1
REMARK minimizedAffinity -2.70577669
REMARK minimizedRMSD -1
REMARK  1 active torsions:
REMARK  status: ('A' for Active; 'I' for Inactive)
REMARK    1  A    between atoms: C1_2  and  C2_3 
ROOT
ATOM      1  C2  UNL d   1       0.383   3.110   0.274  0.00  0.00    -0.081 A 
ATOM      2  C3  UNL d   1       0.461   2.995   1.667  0.00  0.00     0.006 A 
ATOM      3  C4  UNL d   1       0.420   1.739   2.278  0.00  0.00     0.002 A 
ATOM      4  C5  UNL d   1       0.308   0.578   1.506  0.00  0.00    -0.080 A 
ATOM      5  C6  UNL d   1       0.292  -0.778   2.147  0.00  0.00     0.076 C 
ATOM      6  C7  UNL d   1       0.212   0.693   0.115  0.00  0.00     0.002 A 
ATOM      7  C8  UNL d   1       0.253   1.949  -0.496  0.00  0.00     0.006 A 
ENDROOT
BRANCH   1   8
ATOM      8  C1  UNL d   1       0.493   4.458  -0.392  0.00  0.00     0.054 C 
ATOM      9  C   UNL d   1       0.003   4.405  -1.832  0.00  0.00     0.018 C 
ENDBRANCH   1   8
TORSDOF 1
ENDMDL
