MODEL 1
REMARK minimizedAffinity -1.67967045
REMARK minimizedRMSD -1
REMARK  1 active torsions:
REMARK  status: ('A' for Active; 'I' for Inactive)
REMARK    1  A    between atoms: C1_2  and  C2_3 
ROOT
ATOM      1  C2  UNL d   1      -1.383   0.133  -1.138  0.00  0.00    -0.081 A 
ATOM      2  C3  UNL d   1      -0.541   0.061  -0.022  0.00  0.00     0.006 A 
ATOM      3  C4  UNL d   1       0.149   1.192   0.419  0.00  0.00     0.002 A 
ATOM      4  C5  UNL d   1       0.002   2.416  -0.243  0.00  0.00    -0.080 A 
ATOM      5  C6  UNL d   1       0.714   3.646   0.238  0.00  0.00     0.076 C 
ATOM      6  C7  UNL d   1      -0.826   2.484  -1.369  0.00  0.00     0.002 A 
ATOM      7  C8  UNL d   1      -1.515   1.353  -1.811  0.00  0.00     0.006 A 
ENDROOT
BRANCH   1   8
ATOM      8  C1  UNL d   1      -2.179  -1.070  -1.578  0.00  0.00     0.054 C 
ATOM      9  C   UNL d   1      -3.614  -0.691  -1.913  0.00  0.00     0.018 C 
ENDBRANCH   1   8
TORSDOF 1
ENDMDL
