MODEL 1
REMARK minimizedAffinity 13.9181566
REMARK minimizedRMSD -1
REMARK  0 active torsions:
REMARK  status: ('A' for Active; 'I' for Inactive)
ROOT
ATOM      1  C2' OXE d   1       4.485   0.347  -4.760  0.00  0.00     0.078 C 
ATOM      2  C1' OXE d   1       4.063  -2.371  -4.202  0.00  0.00     0.078 C 
ATOM      3  C1  OXE d   1       2.856  -1.468  -4.251  0.00  0.00    -0.078 A 
ATOM      4  C2  OXE d   1       3.077  -0.130  -4.478  0.00  0.00    -0.078 A 
ATOM      5  C3  OXE d   1       1.994   0.738  -4.588  0.00  0.00     0.003 A 
ATOM      6  C4  OXE d   1       0.696   0.290  -4.317  0.00  0.00    -0.002 A 
ATOM      7  C5  OXE d   1       0.453  -1.061  -4.044  0.00  0.00    -0.002 A 
ATOM      8  C6  OXE d   1       1.515  -1.959  -4.049  0.00  0.00     0.003 A 
ENDROOT
TORSDOF 0
ENDMDL
