MODEL 1
REMARK minimizedAffinity 7.54234314
REMARK minimizedRMSD -1
REMARK  0 active torsions:
REMARK  status: ('A' for Active; 'I' for Inactive)
ROOT
ATOM      1  C2' OXE d   1       1.166  -0.103  -4.085  0.00  0.00     0.078 C 
ATOM      2  C1' OXE d   1      -0.125  -2.138  -5.524  0.00  0.00     0.078 C 
ATOM      3  C1  OXE d   1      -0.470  -1.982  -4.064  0.00  0.00    -0.078 A 
ATOM      4  C2  OXE d   1       0.201  -1.013  -3.357  0.00  0.00    -0.078 A 
ATOM      5  C3  OXE d   1      -0.118  -0.790  -2.020  0.00  0.00     0.003 A 
ATOM      6  C4  OXE d   1      -1.004  -1.644  -1.351  0.00  0.00    -0.002 A 
ATOM      7  C5  OXE d   1      -1.668  -2.662  -2.043  0.00  0.00    -0.002 A 
ATOM      8  C6  OXE d   1      -1.445  -2.816  -3.407  0.00  0.00     0.003 A 
ENDROOT
TORSDOF 0
ENDMDL
