MODEL 1
REMARK minimizedAffinity 2.91119599
REMARK minimizedRMSD -1
REMARK  0 active torsions:
REMARK  status: ('A' for Active; 'I' for Inactive)
ROOT
ATOM      1  C2' OXE d   1      -1.878   0.016   1.549  0.00  0.00     0.078 C 
ATOM      2  C1' OXE d   1      -0.800   2.457   2.419  0.00  0.00     0.078 C 
ATOM      3  C1  OXE d   1      -0.162   1.187   2.923  0.00  0.00    -0.078 A 
ATOM      4  C2  OXE d   1      -0.725  -0.003   2.529  0.00  0.00    -0.078 A 
ATOM      5  C3  OXE d   1      -0.142  -1.205   2.920  0.00  0.00     0.003 A 
ATOM      6  C4  OXE d   1       0.918  -1.213   3.835  0.00  0.00    -0.002 A 
ATOM      7  C5  OXE d   1       1.481  -0.013   4.280  0.00  0.00    -0.002 A 
ATOM      8  C6  OXE d   1       0.982   1.193   3.801  0.00  0.00     0.003 A 
ENDROOT
TORSDOF 0
ENDMDL
