MODEL 1
REMARK minimizedAffinity 6.41484976
REMARK minimizedRMSD -1
REMARK  0 active torsions:
REMARK  status: ('A' for Active; 'I' for Inactive)
ROOT
ATOM      1  C2' OXE d   1      -0.837   2.002   3.020  0.00  0.00     0.078 C 
ATOM      2  C1' OXE d   1       0.683   1.169   5.228  0.00  0.00     0.078 C 
ATOM      3  C1  OXE d   1       0.595   0.239   4.044  0.00  0.00    -0.078 A 
ATOM      4  C2  OXE d   1      -0.189   0.635   2.987  0.00  0.00    -0.078 A 
ATOM      5  C3  OXE d   1      -0.261  -0.161   1.847  0.00  0.00     0.003 A 
ATOM      6  C4  OXE d   1       0.333  -1.428   1.828  0.00  0.00    -0.002 A 
ATOM      7  C5  OXE d   1       1.103  -1.867   2.910  0.00  0.00    -0.002 A 
ATOM      8  C6  OXE d   1       1.279  -1.030   4.006  0.00  0.00     0.003 A 
ENDROOT
TORSDOF 0
ENDMDL
