MODEL 1
REMARK minimizedAffinity 5.42236948
REMARK minimizedRMSD -1
REMARK  0 active torsions:
REMARK  status: ('A' for Active; 'I' for Inactive)
ROOT
ATOM      1  C2' OXE d   1       1.676  -2.407   4.131  0.00  0.00     0.078 C 
ATOM      2  C1' OXE d   1       2.637   0.211   3.812  0.00  0.00     0.078 C 
ATOM      3  C1  OXE d   1       1.236  -0.087   3.338  0.00  0.00    -0.078 A 
ATOM      4  C2  OXE d   1       0.791  -1.382   3.455  0.00  0.00    -0.078 A 
ATOM      5  C3  OXE d   1      -0.512  -1.699   3.083  0.00  0.00     0.003 A 
ATOM      6  C4  OXE d   1      -1.320  -0.747   2.449  0.00  0.00    -0.002 A 
ATOM      7  C5  OXE d   1      -0.872   0.567   2.284  0.00  0.00    -0.002 A 
ATOM      8  C6  OXE d   1       0.385   0.924   2.760  0.00  0.00     0.003 A 
ENDROOT
TORSDOF 0
ENDMDL
