MODEL 1
REMARK minimizedAffinity 14.7080841
REMARK minimizedRMSD -1
REMARK  0 active torsions:
REMARK  status: ('A' for Active; 'I' for Inactive)
ROOT
ATOM      1  C2' OXE d   1      -1.117   1.775   2.489  0.00  0.00     0.078 C 
ATOM      2  C1' OXE d   1      -2.346  -0.709   2.042  0.00  0.00     0.078 C 
ATOM      3  C1  OXE d   1      -0.901  -0.707   2.476  0.00  0.00    -0.078 A 
ATOM      4  C2  OXE d   1      -0.295   0.514   2.647  0.00  0.00    -0.078 A 
ATOM      5  C3  OXE d   1       1.020   0.574   3.100  0.00  0.00     0.003 A 
ATOM      6  C4  OXE d   1       1.777  -0.597   3.234  0.00  0.00    -0.002 A 
ATOM      7  C5  OXE d   1       1.190  -1.850   3.026  0.00  0.00    -0.002 A 
ATOM      8  C6  OXE d   1      -0.157  -1.923   2.689  0.00  0.00     0.003 A 
ENDROOT
TORSDOF 0
ENDMDL
