MODEL 1
REMARK minimizedAffinity 3.35670543
REMARK minimizedRMSD -1
REMARK  1 active torsions:
REMARK  status: ('A' for Active; 'I' for Inactive)
REMARK    1  A    between atoms: C1_2  and  C2_3 
ROOT
ATOM      1  C2  UNL d   1      -4.825   0.374  -4.951  0.00  0.00    -0.073 A 
ATOM      2  C3  UNL d   1      -3.923  -0.016  -5.947  0.00  0.00    -0.002 A 
ATOM      3  C4  UNL d   1      -2.840  -0.839  -5.635  0.00  0.00     0.004 A 
ATOM      4  C5  UNL d   1      -2.652  -1.285  -4.327  0.00  0.00    -0.004 A 
ATOM      5  C6  UNL d   1      -3.549  -0.916  -3.320  0.00  0.00    -0.075 A 
ATOM      6  C7  UNL d   1      -3.360  -1.386  -1.907  0.00  0.00     0.076 C 
ATOM      7  C8  UNL d   1      -4.633  -0.087  -3.641  0.00  0.00     0.001 A 
ENDROOT
BRANCH   1   8
ATOM      8  C1  UNL d   1      -6.000   1.257  -5.285  0.00  0.00     0.053 C 
ATOM      9  C   UNL d   1      -5.612   2.726  -5.338  0.00  0.00     0.018 C 
ENDBRANCH   1   8
TORSDOF 1
ENDMDL
