MODEL 1
REMARK minimizedAffinity 5.72921133
REMARK minimizedRMSD -1
REMARK  1 active torsions:
REMARK  status: ('A' for Active; 'I' for Inactive)
REMARK    1  A    between atoms: C1_2  and  C2_3 
ROOT
ATOM      1  C2  UNL d   1       3.408  -0.001   0.090  0.00  0.00    -0.073 A 
ATOM      2  C3  UNL d   1       2.231  -0.752   0.008  0.00  0.00    -0.002 A 
ATOM      3  C4  UNL d   1       2.275  -2.144   0.101  0.00  0.00     0.004 A 
ATOM      4  C5  UNL d   1       3.494  -2.797   0.284  0.00  0.00    -0.004 A 
ATOM      5  C6  UNL d   1       4.680  -2.062   0.380  0.00  0.00    -0.075 A 
ATOM      6  C7  UNL d   1       6.000  -2.750   0.575  0.00  0.00     0.076 C 
ATOM      7  C8  UNL d   1       4.628  -0.665   0.283  0.00  0.00     0.001 A 
ENDROOT
BRANCH   1   8
ATOM      8  C1  UNL d   1       3.365   1.503  -0.004  0.00  0.00     0.053 C 
ATOM      9  C   UNL d   1       2.550   2.121   1.121  0.00  0.00     0.018 C 
ENDBRANCH   1   8
TORSDOF 1
ENDMDL
