MODEL 1
REMARK minimizedAffinity 1.20629203
REMARK minimizedRMSD -1
REMARK  1 active torsions:
REMARK  status: ('A' for Active; 'I' for Inactive)
REMARK    1  A    between atoms: C1_2  and  C2_3 
ROOT
ATOM      1  C2  UNL d   1      -4.415  -0.861  -3.983  0.00  0.00    -0.073 A 
ATOM      2  C3  UNL d   1      -5.680  -0.540  -4.490  0.00  0.00    -0.002 A 
ATOM      3  C4  UNL d   1      -5.818   0.443  -5.471  0.00  0.00     0.004 A 
ATOM      4  C5  UNL d   1      -4.695   1.111  -5.959  0.00  0.00    -0.004 A 
ATOM      5  C6  UNL d   1      -3.421   0.796  -5.473  0.00  0.00    -0.075 A 
ATOM      6  C7  UNL d   1      -2.203   1.507  -5.986  0.00  0.00     0.076 C 
ATOM      7  C8  UNL d   1      -3.291  -0.191  -4.487  0.00  0.00     0.001 A 
ENDROOT
BRANCH   1   8
ATOM      8  C1  UNL d   1      -4.261  -1.926  -2.930  0.00  0.00     0.053 C 
ATOM      9  C   UNL d   1      -3.497  -1.421  -1.716  0.00  0.00     0.018 C 
ENDBRANCH   1   8
TORSDOF 1
ENDMDL
