MODEL 1
REMARK minimizedAffinity 1.06541383
REMARK minimizedRMSD -1
REMARK  1 active torsions:
REMARK  status: ('A' for Active; 'I' for Inactive)
REMARK    1  A    between atoms: C1_2  and  C2_3 
ROOT
ATOM      1  C2  UNL d   1      -4.268  -0.864  -2.901  0.00  0.00    -0.073 A 
ATOM      2  C3  UNL d   1      -5.424  -0.224  -3.362  0.00  0.00    -0.002 A 
ATOM      3  C4  UNL d   1      -5.484   0.270  -4.665  0.00  0.00     0.004 A 
ATOM      4  C5  UNL d   1      -4.394   0.123  -5.523  0.00  0.00    -0.004 A 
ATOM      5  C6  UNL d   1      -3.234  -0.524  -5.084  0.00  0.00    -0.075 A 
ATOM      6  C7  UNL d   1      -2.051  -0.688  -5.993  0.00  0.00     0.076 C 
ATOM      7  C8  UNL d   1      -3.181  -1.015  -3.773  0.00  0.00     0.001 A 
ENDROOT
BRANCH   1   8
ATOM      8  C1  UNL d   1      -4.201  -1.405  -1.496  0.00  0.00     0.053 C 
ATOM      9  C   UNL d   1      -2.994  -0.876  -0.738  0.00  0.00     0.018 C 
ENDBRANCH   1   8
TORSDOF 1
ENDMDL
