MODEL 1
REMARK minimizedAffinity 7.59016991
REMARK minimizedRMSD -1
REMARK  1 active torsions:
REMARK  status: ('A' for Active; 'I' for Inactive)
REMARK    1  A    between atoms: C1_2  and  C2_3 
ROOT
ATOM      1  C2  UNL d   1       2.774  -1.537   0.444  0.00  0.00    -0.073 A 
ATOM      2  C3  UNL d   1       1.878  -0.569  -0.022  0.00  0.00    -0.002 A 
ATOM      3  C4  UNL d   1       2.312   0.734  -0.268  0.00  0.00     0.004 A 
ATOM      4  C5  UNL d   1       3.647   1.080  -0.059  0.00  0.00    -0.004 A 
ATOM      5  C6  UNL d   1       4.561   0.124   0.395  0.00  0.00    -0.075 A 
ATOM      6  C7  UNL d   1       6.000   0.481   0.628  0.00  0.00     0.076 C 
ATOM      7  C8  UNL d   1       4.116  -1.182   0.643  0.00  0.00     0.001 A 
ENDROOT
BRANCH   1   8
ATOM      8  C1  UNL d   1       2.311  -2.947   0.706  0.00  0.00     0.053 C 
ATOM      9  C   UNL d   1       3.325  -3.739   1.517  0.00  0.00     0.018 C 
ENDBRANCH   1   8
TORSDOF 1
ENDMDL
