MODEL 1
REMARK minimizedAffinity -1.10121548
REMARK minimizedRMSD -1
REMARK  1 active torsions:
REMARK  status: ('A' for Active; 'I' for Inactive)
REMARK    1  A    between atoms: C1_2  and  C2_3 
ROOT
ATOM      1  C2  UNL d   1       3.864  -1.013   0.002  0.00  0.00    -0.073 A 
ATOM      2  C3  UNL d   1       2.473  -1.166  -0.026  0.00  0.00    -0.002 A 
ATOM      3  C4  UNL d   1       1.886  -2.354   0.413  0.00  0.00     0.004 A 
ATOM      4  C5  UNL d   1       2.682  -3.396   0.890  0.00  0.00    -0.004 A 
ATOM      5  C6  UNL d   1       4.073  -3.257   0.936  0.00  0.00    -0.075 A 
ATOM      6  C7  UNL d   1       4.942  -4.370   1.444  0.00  0.00     0.076 C 
ATOM      7  C8  UNL d   1       4.655  -2.063   0.491  0.00  0.00     0.001 A 
ENDROOT
BRANCH   1   8
ATOM      8  C1  UNL d   1       4.502   0.270  -0.465  0.00  0.00     0.053 C 
ATOM      9  C   UNL d   1       5.959   0.369  -0.041  0.00  0.00     0.018 C 
ENDBRANCH   1   8
TORSDOF 1
ENDMDL
