MODEL 1
REMARK minimizedAffinity 4.19261551
REMARK minimizedRMSD -1
REMARK  1 active torsions:
REMARK  status: ('A' for Active; 'I' for Inactive)
REMARK    1  A    between atoms: C1_2  and  C2_3 
ROOT
ATOM      1  C2  UNL d   1      -3.747   1.199  -3.750  0.00  0.00    -0.073 A 
ATOM      2  C3  UNL d   1      -4.638   1.435  -4.803  0.00  0.00    -0.002 A 
ATOM      3  C4  UNL d   1      -4.650   0.596  -5.918  0.00  0.00     0.004 A 
ATOM      4  C5  UNL d   1      -3.778  -0.490  -5.989  0.00  0.00    -0.004 A 
ATOM      5  C6  UNL d   1      -2.888  -0.749  -4.942  0.00  0.00    -0.075 A 
ATOM      6  C7  UNL d   1      -1.941  -1.912  -5.003  0.00  0.00     0.076 C 
ATOM      7  C8  UNL d   1      -2.880   0.099  -3.826  0.00  0.00     0.001 A 
ENDROOT
BRANCH   1   8
ATOM      8  C1  UNL d   1      -3.735   2.098  -2.541  0.00  0.00     0.053 C 
ATOM      9  C   UNL d   1      -3.062   3.431  -2.829  0.00  0.00     0.018 C 
ENDBRANCH   1   8
TORSDOF 1
ENDMDL
