MODEL 1
REMARK minimizedAffinity -3.31116557
REMARK minimizedRMSD -1
REMARK  1 active torsions:
REMARK  status: ('A' for Active; 'I' for Inactive)
REMARK    1  A    between atoms: C1_2  and  C2_3 
ROOT
ATOM      1  C2  UNL d   1      -1.477   0.881   0.304  0.00  0.00    -0.077 A 
ATOM      2  C3  UNL d   1      -0.976  -0.368   0.696  0.00  0.00     0.002 A 
ATOM      3  C4  UNL d   1       0.290  -0.784   0.277  0.00  0.00     0.002 A 
ATOM      4  C5  UNL d   1       1.065   0.045  -0.531  0.00  0.00    -0.004 A 
ATOM      5  C6  UNL d   1       0.575   1.288  -0.928  0.00  0.00     0.002 A 
ATOM      6  C7  UNL d   1      -0.691   1.705  -0.511  0.00  0.00     0.002 A 
ENDROOT
BRANCH   1   7
ATOM      7  C1  UNL d   1      -2.821   1.352   0.795  0.00  0.00     0.055 C 
ATOM      8  C   UNL d   1      -2.779   2.817   1.204  0.00  0.00     0.019 C 
ENDBRANCH   1   7
TORSDOF 1
ENDMDL
