MODEL 1
REMARK minimizedAffinity -5.17356682
REMARK minimizedRMSD -1
REMARK  1 active torsions:
REMARK  status: ('A' for Active; 'I' for Inactive)
REMARK    1  A    between atoms: C1_2  and  C2_3 
ROOT
ATOM      1  C2  UNL d   1      -0.148  -0.343  -0.504  0.00  0.00    -0.077 A 
ATOM      2  C3  UNL d   1       0.228  -0.742   0.786  0.00  0.00     0.002 A 
ATOM      3  C4  UNL d   1      -0.321  -0.117   1.907  0.00  0.00     0.002 A 
ATOM      4  C5  UNL d   1      -1.252   0.908   1.750  0.00  0.00    -0.004 A 
ATOM      5  C6  UNL d   1      -1.631   1.313   0.471  0.00  0.00     0.002 A 
ATOM      6  C7  UNL d   1      -1.082   0.690  -0.651  0.00  0.00     0.002 A 
ENDROOT
BRANCH   1   7
ATOM      7  C1  UNL d   1       0.406  -1.049  -1.714  0.00  0.00     0.055 C 
ATOM      8  C   UNL d   1       0.317  -2.561  -1.561  0.00  0.00     0.019 C 
ENDBRANCH   1   7
TORSDOF 1
ENDMDL
