MODEL 1
REMARK minimizedAffinity -4.44471884
REMARK minimizedRMSD -1
REMARK  1 active torsions:
REMARK  status: ('A' for Active; 'I' for Inactive)
REMARK    1  A    between atoms: C1_2  and  C2_3 
ROOT
ATOM      1  C2  UNL d   1      -0.921   1.287  -0.093  0.00  0.00    -0.077 A 
ATOM      2  C3  UNL d   1      -0.488  -0.039   0.049  0.00  0.00     0.002 A 
ATOM      3  C4  UNL d   1       0.598  -0.510  -0.692  0.00  0.00     0.002 A 
ATOM      4  C5  UNL d   1       1.261   0.338  -1.576  0.00  0.00    -0.004 A 
ATOM      5  C6  UNL d   1       0.837   1.658  -1.725  0.00  0.00     0.002 A 
ATOM      6  C7  UNL d   1      -0.249   2.130  -0.986  0.00  0.00     0.002 A 
ENDROOT
BRANCH   1   7
ATOM      7  C1  UNL d   1      -2.061   1.811   0.742  0.00  0.00     0.055 C 
ATOM      8  C   UNL d   1      -1.598   2.175   2.144  0.00  0.00     0.019 C 
ENDBRANCH   1   7
TORSDOF 1
ENDMDL
