MODEL 1
REMARK minimizedAffinity -4.21252966
REMARK minimizedRMSD -1
REMARK  1 active torsions:
REMARK  status: ('A' for Active; 'I' for Inactive)
REMARK    1  A    between atoms: C1_2  and  C2_3 
ROOT
ATOM      1  C2  UNL d   1       0.252  -0.357   0.059  0.00  0.00    -0.077 A 
ATOM      2  C3  UNL d   1      -0.296   0.845  -0.412  0.00  0.00     0.002 A 
ATOM      3  C4  UNL d   1      -1.143   1.602   0.400  0.00  0.00     0.002 A 
ATOM      4  C5  UNL d   1      -1.446   1.168   1.688  0.00  0.00    -0.004 A 
ATOM      5  C6  UNL d   1      -0.908  -0.026   2.166  0.00  0.00     0.002 A 
ATOM      6  C7  UNL d   1      -0.062  -0.785   1.356  0.00  0.00     0.002 A 
ENDROOT
BRANCH   1   7
ATOM      7  C1  UNL d   1       1.204  -1.149  -0.797  0.00  0.00     0.055 C 
ATOM      8  C   UNL d   1       0.471  -2.209  -1.606  0.00  0.00     0.019 C 
ENDBRANCH   1   7
TORSDOF 1
ENDMDL
