MODEL 1
REMARK minimizedAffinity -4.18756056
REMARK minimizedRMSD -1
REMARK  1 active torsions:
REMARK  status: ('A' for Active; 'I' for Inactive)
REMARK    1  A    between atoms: C1_2  and  C2_3 
ROOT
ATOM      1  C2  UNL d   1       0.185  -0.631   0.023  0.00  0.00    -0.077 A 
ATOM      2  C3  UNL d   1      -0.609   0.312  -0.645  0.00  0.00     0.002 A 
ATOM      3  C4  UNL d   1      -1.352   1.247   0.078  0.00  0.00     0.002 A 
ATOM      4  C5  UNL d   1      -1.306   1.251   1.470  0.00  0.00    -0.004 A 
ATOM      5  C6  UNL d   1      -0.521   0.315   2.143  0.00  0.00     0.002 A 
ATOM      6  C7  UNL d   1       0.222  -0.621   1.423  0.00  0.00     0.002 A 
ENDROOT
BRANCH   1   7
ATOM      7  C1  UNL d   1       1.026  -1.609  -0.756  0.00  0.00     0.055 C 
ATOM      8  C   UNL d   1       0.255  -2.189  -1.933  0.00  0.00     0.019 C 
ENDBRANCH   1   7
TORSDOF 1
ENDMDL
