MODEL 1
REMARK minimizedAffinity -5.11638784
REMARK minimizedRMSD -1
REMARK  1 active torsions:
REMARK  status: ('A' for Active; 'I' for Inactive)
REMARK    1  A    between atoms: C1_2  and  C2_3 
ROOT
ATOM      1  C2  UNL d   1       0.782  -0.327  -0.390  0.00  0.00    -0.077 A 
ATOM      2  C3  UNL d   1      -0.176  -0.366   0.633  0.00  0.00     0.002 A 
ATOM      3  C4  UNL d   1      -0.879   0.787   0.987  0.00  0.00     0.002 A 
ATOM      4  C5  UNL d   1      -0.635   1.986   0.322  0.00  0.00    -0.004 A 
ATOM      5  C6  UNL d   1       0.318   2.036  -0.695  0.00  0.00     0.002 A 
ATOM      6  C7  UNL d   1       1.022   0.885  -1.050  0.00  0.00     0.002 A 
ENDROOT
BRANCH   1   7
ATOM      7  C1  UNL d   1       1.506  -1.580  -0.807  0.00  0.00     0.055 C 
ATOM      8  C   UNL d   1       0.564  -2.563  -1.488  0.00  0.00     0.019 C 
ENDBRANCH   1   7
TORSDOF 1
ENDMDL
