MODEL 1
REMARK minimizedAffinity -4.23295546
REMARK minimizedRMSD -1
REMARK  1 active torsions:
REMARK  status: ('A' for Active; 'I' for Inactive)
REMARK    1  A    between atoms: C1_2  and  C2_3 
ROOT
ATOM      1  C2  UNL d   1      -0.075   0.238   0.101  0.00  0.00    -0.077 A 
ATOM      2  C3  UNL d   1      -0.867   1.167  -0.587  0.00  0.00     0.002 A 
ATOM      3  C4  UNL d   1      -1.893   1.847   0.073  0.00  0.00     0.002 A 
ATOM      4  C5  UNL d   1      -2.132   1.608   1.424  0.00  0.00    -0.004 A 
ATOM      5  C6  UNL d   1      -1.350   0.684   2.117  0.00  0.00     0.002 A 
ATOM      6  C7  UNL d   1      -0.326   0.003   1.458  0.00  0.00     0.002 A 
ENDROOT
BRANCH   1   7
ATOM      7  C1  UNL d   1       1.064  -0.459  -0.597  0.00  0.00     0.055 C 
ATOM      8  C   UNL d   1       0.699  -1.893  -0.954  0.00  0.00     0.019 C 
ENDBRANCH   1   7
TORSDOF 1
ENDMDL
