MODEL 1
REMARK minimizedAffinity -4.24619722
REMARK minimizedRMSD -1
REMARK  1 active torsions:
REMARK  status: ('A' for Active; 'I' for Inactive)
REMARK    1  A    between atoms: C1_2  and  C2_3 
ROOT
ATOM      1  C2  UNL d   1      -0.709   0.914   1.439  0.00  0.00    -0.077 A 
ATOM      2  C3  UNL d   1      -0.061  -0.218   1.951  0.00  0.00     0.002 A 
ATOM      3  C4  UNL d   1       0.777  -0.982   1.135  0.00  0.00     0.002 A 
ATOM      4  C5  UNL d   1       0.977  -0.618  -0.195  0.00  0.00    -0.004 A 
ATOM      5  C6  UNL d   1       0.335   0.506  -0.714  0.00  0.00     0.002 A 
ATOM      6  C7  UNL d   1      -0.503   1.269   0.100  0.00  0.00     0.002 A 
ENDROOT
BRANCH   1   7
ATOM      7  C1  UNL d   1      -1.574   1.767   2.330  0.00  0.00     0.055 C 
ATOM      8  C   UNL d   1      -2.544   2.612   1.517  0.00  0.00     0.019 C 
ENDBRANCH   1   7
TORSDOF 1
ENDMDL
