MODEL 1
REMARK minimizedAffinity -3.89126396
REMARK minimizedRMSD -1
REMARK  1 active torsions:
REMARK  status: ('A' for Active; 'I' for Inactive)
REMARK    1  A    between atoms: C1_2  and  C2_3 
ROOT
ATOM      1  C2  UNL d   1      -0.932   0.502   1.133  0.00  0.00    -0.077 A 
ATOM      2  C3  UNL d   1      -0.409  -0.685   1.667  0.00  0.00     0.002 A 
ATOM      3  C4  UNL d   1       0.432  -1.494   0.901  0.00  0.00     0.002 A 
ATOM      4  C5  UNL d   1       0.762  -1.123  -0.401  0.00  0.00    -0.004 A 
ATOM      5  C6  UNL d   1       0.246   0.053  -0.942  0.00  0.00     0.002 A 
ATOM      6  C7  UNL d   1      -0.596   0.863  -0.179  0.00  0.00     0.002 A 
ENDROOT
BRANCH   1   7
ATOM      7  C1  UNL d   1      -1.800   1.400   1.974  0.00  0.00     0.055 C 
ATOM      8  C   UNL d   1      -1.061   1.881   3.214  0.00  0.00     0.019 C 
ENDBRANCH   1   7
TORSDOF 1
ENDMDL
