MODEL 1
REMARK minimizedAffinity -4.26980352
REMARK minimizedRMSD -1
REMARK  1 active torsions:
REMARK  status: ('A' for Active; 'I' for Inactive)
REMARK    1  A    between atoms: C1_2  and  C2_3 
ROOT
ATOM      1  C2  UNL d   1       0.627  -2.551  -0.472  0.00  0.00    -0.077 A 
ATOM      2  C3  UNL d   1       0.130  -1.817   0.614  0.00  0.00     0.002 A 
ATOM      3  C4  UNL d   1       0.178  -0.421   0.605  0.00  0.00     0.002 A 
ATOM      4  C5  UNL d   1       0.717   0.252  -0.489  0.00  0.00    -0.004 A 
ATOM      5  C6  UNL d   1       1.215  -0.469  -1.574  0.00  0.00     0.002 A 
ATOM      6  C7  UNL d   1       1.169  -1.864  -1.566  0.00  0.00     0.002 A 
ENDROOT
BRANCH   1   7
ATOM      7  C1  UNL d   1       0.532  -4.054  -0.486  0.00  0.00     0.055 C 
ATOM      8  C   UNL d   1       1.507  -4.679   0.501  0.00  0.00     0.019 C 
ENDBRANCH   1   7
TORSDOF 1
ENDMDL
