MODEL 1
REMARK minimizedAffinity -3.95627689
REMARK minimizedRMSD -1
REMARK  1 active torsions:
REMARK  status: ('A' for Active; 'I' for Inactive)
REMARK    1  A    between atoms: C1_2  and  C2_3 
ROOT
ATOM      1  C2  UNL d   1      -0.362   0.499   0.312  0.00  0.00    -0.077 A 
ATOM      2  C3  UNL d   1      -0.335   0.041   1.636  0.00  0.00     0.002 A 
ATOM      3  C4  UNL d   1      -1.337   0.415   2.534  0.00  0.00     0.002 A 
ATOM      4  C5  UNL d   1      -2.375   1.245   2.116  0.00  0.00    -0.004 A 
ATOM      5  C6  UNL d   1      -2.410   1.708   0.801  0.00  0.00     0.002 A 
ATOM      6  C7  UNL d   1      -1.409   1.336  -0.097  0.00  0.00     0.002 A 
ENDROOT
BRANCH   1   7
ATOM      7  C1  UNL d   1       0.690   0.057  -0.671  0.00  0.00     0.055 C 
ATOM      8  C   UNL d   1       1.004   1.155  -1.677  0.00  0.00     0.019 C 
ENDBRANCH   1   7
TORSDOF 1
ENDMDL
