MODEL 1
REMARK minimizedAffinity -3.7800951
REMARK minimizedRMSD -1
REMARK  1 active torsions:
REMARK  status: ('A' for Active; 'I' for Inactive)
REMARK    1  A    between atoms: C1_2  and  C2_3 
ROOT
ATOM      1  C2  UNL d   1      -0.033  -0.118  -0.036  0.00  0.00    -0.077 A 
ATOM      2  C3  UNL d   1      -0.780   1.026  -0.348  0.00  0.00     0.002 A 
ATOM      3  C4  UNL d   1      -1.574   1.638   0.624  0.00  0.00     0.002 A 
ATOM      4  C5  UNL d   1      -1.625   1.116   1.914  0.00  0.00    -0.004 A 
ATOM      5  C6  UNL d   1      -0.888  -0.024   2.234  0.00  0.00     0.002 A 
ATOM      6  C7  UNL d   1      -0.094  -0.637   1.264  0.00  0.00     0.002 A 
ENDROOT
BRANCH   1   7
ATOM      7  C1  UNL d   1       0.863  -0.751  -1.069  0.00  0.00     0.055 C 
ATOM      8  C   UNL d   1       0.259  -2.038  -1.611  0.00  0.00     0.019 C 
ENDBRANCH   1   7
TORSDOF 1
ENDMDL
