MODEL 1
REMARK minimizedAffinity 11.481514
REMARK minimizedRMSD -1
REMARK  2 active torsions:
REMARK  status: ('A' for Active; 'I' for Inactive)
REMARK    1  A    between atoms: C2'_3  and  C1'_4 
REMARK    2  A    between atoms: C1'_4  and  C1_5 
ROOT
ATOM      1  C1  I4B d   1       1.207  -0.448  -0.794  0.00  0.00    -0.075 A 
ATOM      2  C2  I4B d   1       0.438   0.045  -1.818  0.00  0.00     0.003 A 
ATOM      3  C3  I4B d   1      -0.058  -0.824  -2.820  0.00  0.00     0.002 A 
ATOM      4  C4  I4B d   1       0.279  -2.162  -2.786  0.00  0.00    -0.004 A 
ATOM      5  C5  I4B d   1       1.038  -2.665  -1.733  0.00  0.00     0.002 A 
ATOM      6  C6  I4B d   1       1.495  -1.805  -0.724  0.00  0.00     0.003 A 
ENDROOT
BRANCH   1   7
ATOM      7  C1' I4B d   1       1.741   0.504   0.229  0.00  0.00     0.060 C 
BRANCH   7   8
ATOM      8  C2' I4B d   1       0.574   1.287   0.794  0.00  0.00    -0.013 C 
ATOM      9  C4' I4B d   1       0.044   0.646   2.050  0.00  0.00     0.013 C 
ATOM     10  C3' I4B d   1       1.039   2.688   1.055  0.00  0.00     0.013 C 
ENDBRANCH   7   8
ENDBRANCH   1   7
TORSDOF 2
ENDMDL
