MODEL 1
REMARK minimizedAffinity 13.7206593
REMARK minimizedRMSD -1
REMARK  2 active torsions:
REMARK  status: ('A' for Active; 'I' for Inactive)
REMARK    1  A    between atoms: C2'_3  and  C1'_4 
REMARK    2  A    between atoms: C1'_4  and  C1_5 
ROOT
ATOM      1  C1  I4B d   1       1.707  -2.757  -1.420  0.00  0.00    -0.075 A 
ATOM      2  C2  I4B d   1       2.826  -2.016  -1.134  0.00  0.00     0.003 A 
ATOM      3  C3  I4B d   1       2.704  -0.760  -0.491  0.00  0.00     0.002 A 
ATOM      4  C4  I4B d   1       1.449  -0.265  -0.200  0.00  0.00    -0.004 A 
ATOM      5  C5  I4B d   1       0.317  -1.028  -0.470  0.00  0.00     0.002 A 
ATOM      6  C6  I4B d   1       0.447  -2.288  -1.073  0.00  0.00     0.003 A 
ENDROOT
BRANCH   1   7
ATOM      7  C1' I4B d   1       1.870  -4.064  -2.129  0.00  0.00     0.060 C 
BRANCH   7   8
ATOM      8  C2' I4B d   1       3.108  -4.743  -1.578  0.00  0.00    -0.013 C 
ATOM      9  C4' I4B d   1       2.753  -6.000  -0.829  0.00  0.00     0.013 C 
ATOM     10  C3' I4B d   1       4.024  -5.038  -2.728  0.00  0.00     0.013 C 
ENDBRANCH   7   8
ENDBRANCH   1   7
TORSDOF 2
ENDMDL
