MODEL 1
REMARK minimizedAffinity 2.61320662
REMARK minimizedRMSD -1
REMARK  2 active torsions:
REMARK  status: ('A' for Active; 'I' for Inactive)
REMARK    1  A    between atoms: C2'_3  and  C1'_4 
REMARK    2  A    between atoms: C1'_4  and  C1_5 
ROOT
ATOM      1  C1  I4B d   1       0.725  -1.533  -1.434  0.00  0.00    -0.075 A 
ATOM      2  C2  I4B d   1       1.379  -1.095  -0.309  0.00  0.00     0.003 A 
ATOM      3  C3  I4B d   1       1.789   0.256  -0.203  0.00  0.00     0.002 A 
ATOM      4  C4  I4B d   1       1.571   1.117  -1.259  0.00  0.00    -0.004 A 
ATOM      5  C5  I4B d   1       0.887   0.677  -2.389  0.00  0.00     0.002 A 
ATOM      6  C6  I4B d   1       0.451  -0.653  -2.472  0.00  0.00     0.003 A 
ENDROOT
BRANCH   1   7
ATOM      7  C1' I4B d   1       0.336  -2.974  -1.526  0.00  0.00     0.060 C 
BRANCH   7   8
ATOM      8  C2' I4B d   1       1.574  -3.770  -1.886  0.00  0.00    -0.013 C 
ATOM      9  C4' I4B d   1       2.225  -4.350  -0.657  0.00  0.00     0.013 C 
ATOM     10  C3' I4B d   1       1.168  -4.850  -2.844  0.00  0.00     0.013 C 
ENDBRANCH   7   8
ENDBRANCH   1   7
TORSDOF 2
ENDMDL
