MODEL 1
REMARK minimizedAffinity 4.68832874
REMARK minimizedRMSD -1
REMARK  2 active torsions:
REMARK  status: ('A' for Active; 'I' for Inactive)
REMARK    1  A    between atoms: C2'_3  and  C1'_4 
REMARK    2  A    between atoms: C1'_4  and  C1_5 
ROOT
ATOM      1  C1  I4B d   1       1.124   3.388  -0.528  0.00  0.00    -0.075 A 
ATOM      2  C2  I4B d   1       0.950   3.624   0.813  0.00  0.00     0.003 A 
ATOM      3  C3  I4B d   1       1.032   4.943   1.321  0.00  0.00     0.002 A 
ATOM      4  C4  I4B d   1       1.338   5.983   0.466  0.00  0.00    -0.004 A 
ATOM      5  C5  I4B d   1       1.491   5.744  -0.897  0.00  0.00     0.002 A 
ATOM      6  C6  I4B d   1       1.371   4.441  -1.400  0.00  0.00     0.003 A 
ENDROOT
BRANCH   1   7
ATOM      7  C1' I4B d   1       1.063   1.978  -1.026  0.00  0.00     0.060 C 
BRANCH   7   8
ATOM      8  C2' I4B d   1       0.198   1.959  -2.270  0.00  0.00    -0.013 C 
ATOM      9  C4' I4B d   1       0.224   0.607  -2.931  0.00  0.00     0.013 C 
ATOM     10  C3' I4B d   1      -1.196   2.340  -1.870  0.00  0.00     0.013 C 
ENDBRANCH   7   8
ENDBRANCH   1   7
TORSDOF 2
ENDMDL
