MODEL 1
REMARK minimizedAffinity 22.271162
REMARK minimizedRMSD -1
REMARK  2 active torsions:
REMARK  status: ('A' for Active; 'I' for Inactive)
REMARK    1  A    between atoms: C2'_3  and  C1'_4 
REMARK    2  A    between atoms: C1'_4  and  C1_5 
ROOT
ATOM      1  C1  I4B d   1       1.983  -3.004  -0.830  0.00  0.00    -0.075 A 
ATOM      2  C2  I4B d   1       2.779  -1.962  -0.423  0.00  0.00     0.003 A 
ATOM      3  C3  I4B d   1       2.270  -0.641  -0.402  0.00  0.00     0.002 A 
ATOM      4  C4  I4B d   1       0.984  -0.402  -0.842  0.00  0.00    -0.004 A 
ATOM      5  C5  I4B d   1       0.171  -1.461  -1.233  0.00  0.00     0.002 A 
ATOM      6  C6  I4B d   1       0.669  -2.772  -1.215  0.00  0.00     0.003 A 
ENDROOT
BRANCH   1   7
ATOM      7  C1' I4B d   1       2.563  -4.382  -0.870  0.00  0.00     0.060 C 
BRANCH   7   8
ATOM      8  C2' I4B d   1       3.093  -4.624  -2.269  0.00  0.00    -0.013 C 
ATOM      9  C4' I4B d   1       4.414  -5.347  -2.234  0.00  0.00     0.013 C 
ATOM     10  C3' I4B d   1       2.064  -5.412  -3.023  0.00  0.00     0.013 C 
ENDBRANCH   7   8
ENDBRANCH   1   7
TORSDOF 2
ENDMDL
