MODEL 1
REMARK minimizedAffinity 1.09648776
REMARK minimizedRMSD -1
REMARK  2 active torsions:
REMARK  status: ('A' for Active; 'I' for Inactive)
REMARK    1  A    between atoms: C2'_3  and  C1'_4 
REMARK    2  A    between atoms: C1'_4  and  C1_5 
ROOT
ATOM      1  C1  I4B d   1       0.531  -0.092  -1.132  0.00  0.00    -0.075 A 
ATOM      2  C2  I4B d   1      -0.731  -0.321  -0.645  0.00  0.00     0.003 A 
ATOM      3  C3  I4B d   1      -1.711  -0.934  -1.463  0.00  0.00     0.002 A 
ATOM      4  C4  I4B d   1      -1.402  -1.252  -2.770  0.00  0.00    -0.004 A 
ATOM      5  C5  I4B d   1      -0.115  -1.039  -3.255  0.00  0.00     0.002 A 
ATOM      6  C6  I4B d   1       0.862  -0.467  -2.428  0.00  0.00     0.003 A 
ENDROOT
BRANCH   1   7
ATOM      7  C1' I4B d   1       1.532   0.587  -0.251  0.00  0.00     0.060 C 
BRANCH   7   8
ATOM      8  C2' I4B d   1       0.864   1.799   0.366  0.00  0.00    -0.013 C 
ATOM      9  C4' I4B d   1       0.710   1.639   1.855  0.00  0.00     0.013 C 
ATOM     10  C3' I4B d   1       1.694   3.003   0.034  0.00  0.00     0.013 C 
ENDBRANCH   7   8
ENDBRANCH   1   7
TORSDOF 2
ENDMDL
