MODEL 1
REMARK minimizedAffinity 11.959836
REMARK minimizedRMSD -1
REMARK  2 active torsions:
REMARK  status: ('A' for Active; 'I' for Inactive)
REMARK    1  A    between atoms: C2'_3  and  C1'_4 
REMARK    2  A    between atoms: C1'_4  and  C1_5 
ROOT
ATOM      1  C1  I4B d   1       0.888  -1.835  -1.269  0.00  0.00    -0.075 A 
ATOM      2  C2  I4B d   1       1.673  -1.298  -0.279  0.00  0.00     0.003 A 
ATOM      3  C3  I4B d   1       1.958   0.089  -0.268  0.00  0.00     0.002 A 
ATOM      4  C4  I4B d   1       1.482   0.888  -1.287  0.00  0.00    -0.004 A 
ATOM      5  C5  I4B d   1       0.667   0.347  -2.277  0.00  0.00     0.002 A 
ATOM      6  C6  I4B d   1       0.358  -1.021  -2.262  0.00  0.00     0.003 A 
ENDROOT
BRANCH   1   7
ATOM      7  C1' I4B d   1       0.634  -3.309  -1.268  0.00  0.00     0.060 C 
BRANCH   7   8
ATOM      8  C2' I4B d   1       1.825  -3.988  -1.913  0.00  0.00    -0.013 C 
ATOM      9  C4' I4B d   1       2.558  -4.857  -0.926  0.00  0.00     0.013 C 
ATOM     10  C3' I4B d   1       1.325  -4.792  -3.076  0.00  0.00     0.013 C 
ENDBRANCH   7   8
ENDBRANCH   1   7
TORSDOF 2
ENDMDL
