MODEL 1
REMARK minimizedAffinity 7.76649237
REMARK minimizedRMSD -1
REMARK  2 active torsions:
REMARK  status: ('A' for Active; 'I' for Inactive)
REMARK    1  A    between atoms: C2'_3  and  C1'_4 
REMARK    2  A    between atoms: C1'_4  and  C1_5 
ROOT
ATOM      1  C1  I4B d   1       0.101   1.563   2.387  0.00  0.00    -0.075 A 
ATOM      2  C2  I4B d   1       0.938   2.487   1.813  0.00  0.00     0.003 A 
ATOM      3  C3  I4B d   1       1.510   2.239   0.542  0.00  0.00     0.002 A 
ATOM      4  C4  I4B d   1       1.260   1.039  -0.093  0.00  0.00    -0.004 A 
ATOM      5  C5  I4B d   1       0.392   0.113   0.480  0.00  0.00     0.002 A 
ATOM      6  C6  I4B d   1      -0.200   0.382   1.723  0.00  0.00     0.003 A 
ENDROOT
BRANCH   1   7
ATOM      7  C1' I4B d   1      -0.459   1.844   3.746  0.00  0.00     0.060 C 
BRANCH   7   8
ATOM      8  C2' I4B d   1      -1.641   2.778   3.579  0.00  0.00    -0.013 C 
ATOM      9  C4' I4B d   1      -2.914   2.009   3.341  0.00  0.00     0.013 C 
ATOM     10  C3' I4B d   1      -1.741   3.622   4.815  0.00  0.00     0.013 C 
ENDBRANCH   7   8
ENDBRANCH   1   7
TORSDOF 2
ENDMDL
