MODEL 1
REMARK minimizedAffinity 0.521155655
REMARK minimizedRMSD -1
REMARK  2 active torsions:
REMARK  status: ('A' for Active; 'I' for Inactive)
REMARK    1  A    between atoms: C2'_3  and  C1'_4 
REMARK    2  A    between atoms: C1'_4  and  C1_5 
ROOT
ATOM      1  C1  I4B d   1       1.198   0.781   0.142  0.00  0.00    -0.075 A 
ATOM      2  C2  I4B d   1       0.281   0.642   1.154  0.00  0.00     0.003 A 
ATOM      3  C3  I4B d   1      -0.370  -0.598   1.359  0.00  0.00     0.002 A 
ATOM      4  C4  I4B d   1      -0.115  -1.650   0.503  0.00  0.00    -0.004 A 
ATOM      5  C5  I4B d   1       0.831  -1.514  -0.508  0.00  0.00     0.002 A 
ATOM      6  C6  I4B d   1       1.501  -0.294  -0.683  0.00  0.00     0.003 A 
ENDROOT
BRANCH   1   7
ATOM      7  C1' I4B d   1       1.843   2.115  -0.067  0.00  0.00     0.060 C 
BRANCH   7   8
ATOM      8  C2' I4B d   1       1.570   2.547  -1.493  0.00  0.00    -0.013 C 
ATOM      9  C4' I4B d   1       2.399   1.757  -2.471  0.00  0.00     0.013 C 
ATOM     10  C3' I4B d   1       0.105   2.369  -1.758  0.00  0.00     0.013 C 
ENDBRANCH   7   8
ENDBRANCH   1   7
TORSDOF 2
ENDMDL
