MODEL 1
REMARK minimizedAffinity 6.7825346
REMARK minimizedRMSD -1
REMARK  2 active torsions:
REMARK  status: ('A' for Active; 'I' for Inactive)
REMARK    1  A    between atoms: C2'_3  and  C1'_4 
REMARK    2  A    between atoms: C1'_4  and  C1_5 
ROOT
ATOM      1  C1  I4B d   1      -4.734  -3.650  -5.067  0.00  0.00    -0.075 A 
ATOM      2  C2  I4B d   1      -4.222  -4.517  -6.000  0.00  0.00     0.003 A 
ATOM      3  C3  I4B d   1      -3.011  -5.205  -5.744  0.00  0.00     0.002 A 
ATOM      4  C4  I4B d   1      -2.324  -4.959  -4.573  0.00  0.00    -0.004 A 
ATOM      5  C5  I4B d   1      -2.856  -4.096  -3.619  0.00  0.00     0.002 A 
ATOM      6  C6  I4B d   1      -4.075  -3.447  -3.862  0.00  0.00     0.003 A 
ENDROOT
BRANCH   1   7
ATOM      7  C1' I4B d   1      -5.998  -2.915  -5.384  0.00  0.00     0.060 C 
BRANCH   7   8
ATOM      8  C2' I4B d   1      -5.741  -1.435  -5.183  0.00  0.00    -0.013 C 
ATOM      9  C4' I4B d   1      -5.531  -1.111  -3.727  0.00  0.00     0.013 C 
ATOM     10  C3' I4B d   1      -4.541  -1.059  -6.000  0.00  0.00     0.013 C 
ENDBRANCH   7   8
ENDBRANCH   1   7
TORSDOF 2
ENDMDL
