MODEL 1
REMARK minimizedAffinity 13.7421618
REMARK minimizedRMSD -1
REMARK  2 active torsions:
REMARK  status: ('A' for Active; 'I' for Inactive)
REMARK    1  A    between atoms: C2'_3  and  C1'_4 
REMARK    2  A    between atoms: C1'_4  and  C1_5 
ROOT
ATOM      1  C1  I4B d   1       0.454  -2.053  -1.563  0.00  0.00    -0.075 A 
ATOM      2  C2  I4B d   1       0.138  -0.923  -2.275  0.00  0.00     0.003 A 
ATOM      3  C3  I4B d   1       0.728   0.319  -1.937  0.00  0.00     0.002 A 
ATOM      4  C4  I4B d   1       1.582   0.395  -0.857  0.00  0.00    -0.004 A 
ATOM      5  C5  I4B d   1       1.919  -0.757  -0.150  0.00  0.00     0.002 A 
ATOM      6  C6  I4B d   1       1.360  -1.991  -0.513  0.00  0.00     0.003 A 
ENDROOT
BRANCH   1   7
ATOM      7  C1' I4B d   1      -0.213  -3.343  -1.926  0.00  0.00     0.060 C 
BRANCH   7   8
ATOM      8  C2' I4B d   1       0.658  -4.047  -2.946  0.00  0.00    -0.013 C 
ATOM      9  C4' I4B d   1       1.681  -4.926  -2.276  0.00  0.00     0.013 C 
ATOM     10  C3' I4B d   1      -0.237  -4.846  -3.846  0.00  0.00     0.013 C 
ENDBRANCH   7   8
ENDBRANCH   1   7
TORSDOF 2
ENDMDL
