MODEL 1
REMARK minimizedAffinity 2.50581002
REMARK minimizedRMSD -1
REMARK  0 active torsions:
REMARK  status: ('A' for Active; 'I' for Inactive)
ROOT
ATOM      1  C4' PXY d   1      -1.846  -1.494   1.729  0.00  0.00     0.077 C 
ATOM      2  C1' PXY d   1       3.249  -3.470  -0.156  0.00  0.00     0.077 C 
ATOM      3  C1  PXY d   1       1.906  -2.959   0.330  0.00  0.00    -0.082 A 
ATOM      4  C2  PXY d   1       1.831  -1.780   0.924  0.00  0.00     0.003 A 
ATOM      5  C3  PXY d   1       0.631  -1.317   1.398  0.00  0.00     0.003 A 
ATOM      6  C4  PXY d   1      -0.514  -2.045   1.214  0.00  0.00    -0.082 A 
ATOM      7  C5  PXY d   1      -0.447  -3.245   0.599  0.00  0.00     0.003 A 
ATOM      8  C6  PXY d   1       0.788  -3.715   0.162  0.00  0.00     0.003 A 
ENDROOT
TORSDOF 0
ENDMDL
