MODEL 1
REMARK minimizedAffinity 4.10442638
REMARK minimizedRMSD -1
REMARK  0 active torsions:
REMARK  status: ('A' for Active; 'I' for Inactive)
ROOT
ATOM      1  C4' PXY d   1       0.388   0.034   4.005  0.00  0.00     0.077 C 
ATOM      2  C1' PXY d   1      -0.030  -1.750  -1.478  0.00  0.00     0.077 C 
ATOM      3  C1  PXY d   1       0.093  -1.284  -0.040  0.00  0.00    -0.082 A 
ATOM      4  C2  PXY d   1      -0.959  -1.349   0.760  0.00  0.00     0.003 A 
ATOM      5  C3  PXY d   1      -0.875  -0.902   2.054  0.00  0.00     0.003 A 
ATOM      6  C4  PXY d   1       0.313  -0.434   2.549  0.00  0.00    -0.082 A 
ATOM      7  C5  PXY d   1       1.393  -0.375   1.742  0.00  0.00     0.003 A 
ATOM      8  C6  PXY d   1       1.276  -0.795   0.420  0.00  0.00     0.003 A 
ENDROOT
TORSDOF 0
ENDMDL
