MODEL 1
REMARK minimizedAffinity 5.03524065
REMARK minimizedRMSD -1
REMARK  0 active torsions:
REMARK  status: ('A' for Active; 'I' for Inactive)
ROOT
ATOM      1  C4' PXY d   1      -1.201  -1.443   0.674  0.00  0.00     0.077 C 
ATOM      2  C1' PXY d   1       4.538  -1.425  -0.013  0.00  0.00     0.077 C 
ATOM      3  C1  PXY d   1       3.032  -1.439   0.158  0.00  0.00    -0.082 A 
ATOM      4  C2  PXY d   1       2.411  -0.349   0.577  0.00  0.00     0.003 A 
ATOM      5  C3  PXY d   1       1.053  -0.354   0.768  0.00  0.00     0.003 A 
ATOM      6  C4  PXY d   1       0.317  -1.471   0.477  0.00  0.00    -0.082 A 
ATOM      7  C5  PXY d   1       0.942  -2.585   0.039  0.00  0.00     0.003 A 
ATOM      8  C6  PXY d   1       2.326  -2.571  -0.109  0.00  0.00     0.003 A 
ENDROOT
TORSDOF 0
ENDMDL
