MODEL 1
REMARK minimizedAffinity -1.20861912
REMARK minimizedRMSD -1
REMARK  0 active torsions:
REMARK  status: ('A' for Active; 'I' for Inactive)
ROOT
ATOM      1  C4' PXY d   1       0.250   0.476   1.912  0.00  0.00     0.077 C 
ATOM      2  C1' PXY d   1       0.321  -4.304  -1.338  0.00  0.00     0.077 C 
ATOM      3  C1  PXY d   1       0.312  -3.055  -0.479  0.00  0.00    -0.082 A 
ATOM      4  C2  PXY d   1      -0.774  -2.300  -0.434  0.00  0.00     0.003 A 
ATOM      5  C3  PXY d   1      -0.788  -1.150   0.313  0.00  0.00     0.003 A 
ATOM      6  C4  PXY d   1       0.301  -0.799   1.065  0.00  0.00    -0.082 A 
ATOM      7  C5  PXY d   1       1.409  -1.570   1.033  0.00  0.00     0.003 A 
ATOM      8  C6  PXY d   1       1.417  -2.711   0.235  0.00  0.00     0.003 A 
ENDROOT
TORSDOF 0
ENDMDL
