MODEL 1
REMARK minimizedAffinity -2.03397655
REMARK minimizedRMSD -1
REMARK  0 active torsions:
REMARK  status: ('A' for Active; 'I' for Inactive)
ROOT
ATOM      1  C4' PXY d   1      -0.070  -3.835  -0.388  0.00  0.00     0.077 C 
ATOM      2  C1' PXY d   1       2.766   0.750   1.696  0.00  0.00     0.077 C 
ATOM      3  C1  PXY d   1       2.013  -0.450   1.159  0.00  0.00    -0.082 A 
ATOM      4  C2  PXY d   1       2.672  -1.404   0.520  0.00  0.00     0.003 A 
ATOM      5  C3  PXY d   1       2.002  -2.481  -0.000  0.00  0.00     0.003 A 
ATOM      6  C4  PXY d   1       0.651  -2.610   0.180  0.00  0.00    -0.082 A 
ATOM      7  C5  PXY d   1      -0.027  -1.646   0.840  0.00  0.00     0.003 A 
ATOM      8  C6  PXY d   1       0.666  -0.541   1.325  0.00  0.00     0.003 A 
ENDROOT
TORSDOF 0
ENDMDL
