MODEL 1
REMARK minimizedAffinity 4.17622519
REMARK minimizedRMSD -1
REMARK  0 active torsions:
REMARK  status: ('A' for Active; 'I' for Inactive)
ROOT
ATOM      1  C4' PXY d   1       2.719  -3.922  -0.479  0.00  0.00     0.077 C 
ATOM      2  C1' PXY d   1      -0.862   0.241   1.327  0.00  0.00     0.077 C 
ATOM      3  C1  PXY d   1       0.087  -0.842   0.853  0.00  0.00    -0.082 A 
ATOM      4  C2  PXY d   1      -0.395  -1.913   0.242  0.00  0.00     0.003 A 
ATOM      5  C3  PXY d   1       0.446  -2.917  -0.164  0.00  0.00     0.003 A 
ATOM      6  C4  PXY d   1       1.799  -2.799   0.008  0.00  0.00    -0.082 A 
ATOM      7  C5  PXY d   1       2.299  -1.705   0.620  0.00  0.00     0.003 A 
ATOM      8  C6  PXY d   1       1.425  -0.717   1.063  0.00  0.00     0.003 A 
ENDROOT
TORSDOF 0
ENDMDL
