MODEL 1
REMARK minimizedAffinity 1.71300662
REMARK minimizedRMSD -1
REMARK  0 active torsions:
REMARK  status: ('A' for Active; 'I' for Inactive)
ROOT
ATOM      1  C4' PXY d   1       2.285  -3.870  -0.375  0.00  0.00     0.077 C 
ATOM      2  C1' PXY d   1      -1.500  -0.000   1.653  0.00  0.00     0.077 C 
ATOM      3  C1  PXY d   1      -0.516  -1.025   1.125  0.00  0.00    -0.082 A 
ATOM      4  C2  PXY d   1       0.765  -0.709   1.023  0.00  0.00     0.003 A 
ATOM      5  C3  PXY d   1       1.664  -1.612   0.517  0.00  0.00     0.003 A 
ATOM      6  C4  PXY d   1       1.257  -2.870   0.162  0.00  0.00    -0.082 A 
ATOM      7  C5  PXY d   1      -0.047  -3.204   0.273  0.00  0.00     0.003 A 
ATOM      8  C6  PXY d   1      -0.950  -2.258   0.750  0.00  0.00     0.003 A 
ENDROOT
TORSDOF 0
ENDMDL
