MODEL 1
REMARK minimizedAffinity -2.39253139
REMARK minimizedRMSD -1
REMARK  0 active torsions:
REMARK  status: ('A' for Active; 'I' for Inactive)
ROOT
ATOM      1  C4' PXY d   1      -1.143   0.024   1.305  0.00  0.00     0.077 C 
ATOM      2  C1' PXY d   1       2.999  -3.388  -0.844  0.00  0.00     0.077 C 
ATOM      3  C1  PXY d   1       1.904  -2.500  -0.287  0.00  0.00    -0.082 A 
ATOM      4  C2  PXY d   1       2.193  -1.268   0.099  0.00  0.00     0.003 A 
ATOM      5  C3  PXY d   1       1.222  -0.462   0.635  0.00  0.00     0.003 A 
ATOM      6  C4  PXY d   1      -0.071  -0.904   0.728  0.00  0.00    -0.082 A 
ATOM      7  C5  PXY d   1      -0.376  -2.157   0.327  0.00  0.00     0.003 A 
ATOM      8  C6  PXY d   1       0.633  -2.973  -0.176  0.00  0.00     0.003 A 
ENDROOT
TORSDOF 0
ENDMDL
