MODEL 1
REMARK minimizedAffinity 0.312769532
REMARK minimizedRMSD -1
REMARK  0 active torsions:
REMARK  status: ('A' for Active; 'I' for Inactive)
ROOT
ATOM      1  C4' PXY d   1      -0.734  -3.547  -0.768  0.00  0.00     0.077 C 
ATOM      2  C1' PXY d   1       2.239   0.624   1.910  0.00  0.00     0.077 C 
ATOM      3  C1  PXY d   1       1.449  -0.467   1.216  0.00  0.00    -0.082 A 
ATOM      4  C2  PXY d   1       2.090  -1.453   0.609  0.00  0.00     0.003 A 
ATOM      5  C3  PXY d   1       1.392  -2.431  -0.052  0.00  0.00     0.003 A 
ATOM      6  C4  PXY d   1       0.022  -2.429  -0.046  0.00  0.00    -0.082 A 
ATOM      7  C5  PXY d   1      -0.639  -1.432   0.580  0.00  0.00     0.003 A 
ATOM      8  C6  PXY d   1       0.089  -0.426   1.209  0.00  0.00     0.003 A 
ENDROOT
TORSDOF 0
ENDMDL
