MODEL 1
REMARK minimizedAffinity -2.24389863
REMARK minimizedRMSD -1
REMARK  0 active torsions:
REMARK  status: ('A' for Active; 'I' for Inactive)
ROOT
ATOM      1  C4' PXY d   1       2.926  -3.956  -0.358  0.00  0.00     0.077 C 
ATOM      2  C1' PXY d   1      -1.693  -0.622   0.623  0.00  0.00     0.077 C 
ATOM      3  C1  PXY d   1      -0.474  -1.485   0.363  0.00  0.00    -0.082 A 
ATOM      4  C2  PXY d   1      -0.633  -2.751   0.013  0.00  0.00     0.003 A 
ATOM      5  C3  PXY d   1       0.458  -3.555  -0.195  0.00  0.00     0.003 A 
ATOM      6  C4  PXY d   1       1.725  -3.044  -0.095  0.00  0.00    -0.082 A 
ATOM      7  C5  PXY d   1       1.894  -1.750   0.251  0.00  0.00     0.003 A 
ATOM      8  C6  PXY d   1       0.774  -0.962   0.498  0.00  0.00     0.003 A 
ENDROOT
TORSDOF 0
ENDMDL
