MODEL 1
REMARK minimizedAffinity 4.38500309
REMARK minimizedRMSD -1
REMARK  0 active torsions:
REMARK  status: ('A' for Active; 'I' for Inactive)
ROOT
ATOM      1  C4' PXY d   1       1.326  -4.013  -0.284  0.00  0.00     0.077 C 
ATOM      2  C1' PXY d   1      -0.584   1.017   1.831  0.00  0.00     0.077 C 
ATOM      3  C1  PXY d   1      -0.071  -0.297   1.275  0.00  0.00    -0.082 A 
ATOM      4  C2  PXY d   1      -0.918  -1.144   0.712  0.00  0.00     0.003 A 
ATOM      5  C3  PXY d   1      -0.476  -2.350   0.233  0.00  0.00     0.003 A 
ATOM      6  C4  PXY d   1       0.854  -2.671   0.283  0.00  0.00    -0.082 A 
ATOM      7  C5  PXY d   1       1.726  -1.807   0.846  0.00  0.00     0.003 A 
ATOM      8  C6  PXY d   1       1.251  -0.606   1.364  0.00  0.00     0.003 A 
ENDROOT
TORSDOF 0
ENDMDL
