MODEL 1
REMARK minimizedAffinity -0.640450299
REMARK minimizedRMSD -1
REMARK  0 active torsions:
REMARK  status: ('A' for Active; 'I' for Inactive)
ROOT
ATOM      1  C4' PXY d   1      -4.222   1.488   0.499  0.00  0.00     0.077 C 
ATOM      2  C1' PXY d   1       0.967  -0.649   1.888  0.00  0.00     0.077 C 
ATOM      3  C1  PXY d   1      -0.395  -0.084   1.536  0.00  0.00    -0.082 A 
ATOM      4  C2  PXY d   1      -1.079  -0.605   0.531  0.00  0.00     0.003 A 
ATOM      5  C3  PXY d   1      -2.299  -0.086   0.178  0.00  0.00     0.003 A 
ATOM      6  C4  PXY d   1      -2.847   0.943   0.896  0.00  0.00    -0.082 A 
ATOM      7  C5  PXY d   1      -2.160   1.473   1.930  0.00  0.00     0.003 A 
ATOM      8  C6  PXY d   1      -0.906   0.959   2.246  0.00  0.00     0.003 A 
ENDROOT
TORSDOF 0
ENDMDL
