MODEL 1
REMARK minimizedAffinity 4.24666357
REMARK minimizedRMSD -1
REMARK  0 active torsions:
REMARK  status: ('A' for Active; 'I' for Inactive)
ROOT
ATOM      1  C4' PXY d   1      -2.321   0.533   1.542  0.00  0.00     0.077 C 
ATOM      2  C1' PXY d   1       2.647  -1.983  -0.009  0.00  0.00     0.077 C 
ATOM      3  C1  PXY d   1       1.349  -1.321   0.410  0.00  0.00    -0.082 A 
ATOM      4  C2  PXY d   1       0.230  -1.611  -0.234  0.00  0.00     0.003 A 
ATOM      5  C3  PXY d   1      -0.947  -0.997   0.111  0.00  0.00     0.003 A 
ATOM      6  C4  PXY d   1      -0.989  -0.118   1.160  0.00  0.00    -0.082 A 
ATOM      7  C5  PXY d   1       0.147   0.174   1.829  0.00  0.00     0.003 A 
ATOM      8  C6  PXY d   1       1.339  -0.428   1.437  0.00  0.00     0.003 A 
ENDROOT
TORSDOF 0
ENDMDL
