MODEL 1
REMARK minimizedAffinity -0.580683887
REMARK minimizedRMSD -1
REMARK  0 active torsions:
REMARK  status: ('A' for Active; 'I' for Inactive)
ROOT
ATOM      1  C4' PXY d   1       2.898  -4.051  -0.945  0.00  0.00     0.077 C 
ATOM      2  C1' PXY d   1      -0.801  -0.318   1.462  0.00  0.00     0.077 C 
ATOM      3  C1  PXY d   1       0.175  -1.287   0.825  0.00  0.00    -0.082 A 
ATOM      4  C2  PXY d   1      -0.153  -2.564   0.710  0.00  0.00     0.003 A 
ATOM      5  C3  PXY d   1       0.731  -3.460   0.165  0.00  0.00     0.003 A 
ATOM      6  C4  PXY d   1       1.941  -3.035  -0.316  0.00  0.00    -0.082 A 
ATOM      7  C5  PXY d   1       2.277  -1.732  -0.212  0.00  0.00     0.003 A 
ATOM      8  C6  PXY d   1       1.383  -0.846   0.382  0.00  0.00     0.003 A 
ENDROOT
TORSDOF 0
ENDMDL
