MODEL 1
REMARK minimizedAffinity 2.11139274
REMARK minimizedRMSD -1
REMARK  0 active torsions:
REMARK  status: ('A' for Active; 'I' for Inactive)
ROOT
ATOM      1  C4' PXY d   1      -0.895  -0.890   1.585  0.00  0.00     0.077 C 
ATOM      2  C1' PXY d   1       3.351  -3.836  -1.004  0.00  0.00     0.077 C 
ATOM      3  C1  PXY d   1       2.229  -3.071  -0.331  0.00  0.00    -0.082 A 
ATOM      4  C2  PXY d   1       2.456  -1.854   0.137  0.00  0.00     0.003 A 
ATOM      5  C3  PXY d   1       1.461  -1.160   0.776  0.00  0.00     0.003 A 
ATOM      6  C4  PXY d   1       0.206  -1.696   0.891  0.00  0.00    -0.082 A 
ATOM      7  C5  PXY d   1      -0.036  -2.932   0.406  0.00  0.00     0.003 A 
ATOM      8  C6  PXY d   1       0.998  -3.637  -0.203  0.00  0.00     0.003 A 
ENDROOT
TORSDOF 0
ENDMDL
