MODEL 1
REMARK minimizedAffinity 0.936905861
REMARK minimizedRMSD -1
REMARK  0 active torsions:
REMARK  status: ('A' for Active; 'I' for Inactive)
ROOT
ATOM      1  C4' PXY d   1       0.595  -2.087  -1.985  0.00  0.00     0.077 C 
ATOM      2  C1' PXY d   1       0.648  -1.041   3.699  0.00  0.00     0.077 C 
ATOM      3  C1  PXY d   1       0.638  -1.303   2.206  0.00  0.00    -0.082 A 
ATOM      4  C2  PXY d   1      -0.143  -2.250   1.714  0.00  0.00     0.003 A 
ATOM      5  C3  PXY d   1      -0.140  -2.522   0.370  0.00  0.00     0.003 A 
ATOM      6  C4  PXY d   1       0.630  -1.781  -0.486  0.00  0.00    -0.082 A 
ATOM      7  C5  PXY d   1       1.422  -0.805   0.008  0.00  0.00     0.003 A 
ATOM      8  C6  PXY d   1       1.436  -0.573   1.380  0.00  0.00     0.003 A 
ENDROOT
TORSDOF 0
ENDMDL
