MODEL 1
REMARK minimizedAffinity 3.12785506
REMARK minimizedRMSD -1
REMARK  0 active torsions:
REMARK  status: ('A' for Active; 'I' for Inactive)
ROOT
ATOM      1  C4' PXY d   1       2.832  -3.660  -0.689  0.00  0.00     0.077 C 
ATOM      2  C1' PXY d   1      -1.274   0.026   1.036  0.00  0.00     0.077 C 
ATOM      3  C1  PXY d   1      -0.192  -0.931   0.577  0.00  0.00    -0.082 A 
ATOM      4  C2  PXY d   1      -0.422  -2.234   0.591  0.00  0.00     0.003 A 
ATOM      5  C3  PXY d   1       0.557  -3.115   0.209  0.00  0.00     0.003 A 
ATOM      6  C4  PXY d   1       1.765  -2.656  -0.243  0.00  0.00    -0.082 A 
ATOM      7  C5  PXY d   1       2.004  -1.328  -0.270  0.00  0.00     0.003 A 
ATOM      8  C6  PXY d   1       1.012  -0.451   0.160  0.00  0.00     0.003 A 
ENDROOT
TORSDOF 0
ENDMDL
