MODEL 1
REMARK minimizedAffinity 2.73557258
REMARK minimizedRMSD -1
REMARK  0 active torsions:
REMARK  status: ('A' for Active; 'I' for Inactive)
ROOT
ATOM      1  C4' PXY d   1       3.517  -3.651  -0.755  0.00  0.00     0.077 C 
ATOM      2  C1' PXY d   1      -1.126  -0.738   1.080  0.00  0.00     0.077 C 
ATOM      3  C1  PXY d   1       0.097  -1.491   0.595  0.00  0.00    -0.082 A 
ATOM      4  C2  PXY d   1      -0.007  -2.771   0.276  0.00  0.00     0.003 A 
ATOM      5  C3  PXY d   1       1.096  -3.475  -0.134  0.00  0.00     0.003 A 
ATOM      6  C4  PXY d   1       2.307  -2.849  -0.270  0.00  0.00    -0.082 A 
ATOM      7  C5  PXY d   1       2.418  -1.541   0.043  0.00  0.00     0.003 A 
ATOM      8  C6  PXY d   1       1.296  -0.854   0.497  0.00  0.00     0.003 A 
ENDROOT
TORSDOF 0
ENDMDL
