MODEL 1
REMARK minimizedAffinity 2.25994134
REMARK minimizedRMSD -1
REMARK  0 active torsions:
REMARK  status: ('A' for Active; 'I' for Inactive)
ROOT
ATOM      1  C4' PXY d   1      -4.991  -2.325   1.593  0.00  0.00     0.077 C 
ATOM      2  C1' PXY d   1      -5.694  -6.000   5.999  0.00  0.00     0.077 C 
ATOM      3  C1  PXY d   1      -5.514  -5.026   4.851  0.00  0.00    -0.082 A 
ATOM      4  C2  PXY d   1      -5.570  -5.467   3.605  0.00  0.00     0.003 A 
ATOM      5  C3  PXY d   1      -5.377  -4.606   2.556  0.00  0.00     0.003 A 
ATOM      6  C4  PXY d   1      -5.177  -3.270   2.783  0.00  0.00    -0.082 A 
ATOM      7  C5  PXY d   1      -5.129  -2.811   4.052  0.00  0.00     0.003 A 
ATOM      8  C6  PXY d   1      -5.286  -3.709   5.104  0.00  0.00     0.003 A 
ENDROOT
TORSDOF 0
ENDMDL
