MODEL 1
REMARK minimizedAffinity 3.02506924
REMARK minimizedRMSD -1
REMARK  0 active torsions:
REMARK  status: ('A' for Active; 'I' for Inactive)
ROOT
ATOM      1  C4' PXY d   1       2.428  -3.940  -0.503  0.00  0.00     0.077 C 
ATOM      2  C1' PXY d   1      -1.052   0.366   1.158  0.00  0.00     0.077 C 
ATOM      3  C1  PXY d   1      -0.130  -0.755   0.720  0.00  0.00    -0.082 A 
ATOM      4  C2  PXY d   1      -0.644  -1.879   0.250  0.00  0.00     0.003 A 
ATOM      5  C3  PXY d   1       0.174  -2.915  -0.120  0.00  0.00     0.003 A 
ATOM      6  C4  PXY d   1       1.535  -2.779  -0.058  0.00  0.00    -0.082 A 
ATOM      7  C5  PXY d   1       2.068  -1.630   0.410  0.00  0.00     0.003 A 
ATOM      8  C6  PXY d   1       1.219  -0.606   0.820  0.00  0.00     0.003 A 
ENDROOT
TORSDOF 0
ENDMDL
