MODEL 1
REMARK minimizedAffinity -1.60399187
REMARK minimizedRMSD -1
REMARK  1 active torsions:
REMARK  status: ('A' for Active; 'I' for Inactive)
REMARK    1  A    between atoms: C1_2  and  C2_3 
ROOT
ATOM      1  C2  UNL d   1      -0.363  -0.086   0.476  0.00  0.00    -0.073 A 
ATOM      2  C3  UNL d   1       0.213  -1.314   0.819  0.00  0.00    -0.002 A 
ATOM      3  C4  UNL d   1       1.182  -1.893  -0.001  0.00  0.00     0.004 A 
ATOM      4  C5  UNL d   1       1.590  -1.247  -1.168  0.00  0.00    -0.004 A 
ATOM      5  C6  UNL d   1       1.036  -0.013  -1.522  0.00  0.00    -0.075 A 
ATOM      6  C7  UNL d   1       1.463   0.694  -2.775  0.00  0.00     0.076 C 
ATOM      7  C8  UNL d   1       0.061   0.561  -0.695  0.00  0.00     0.001 A 
ENDROOT
BRANCH   1   8
ATOM      8  C1  UNL d   1      -1.405   0.546   1.362  0.00  0.00     0.053 C 
ATOM      9  C   UNL d   1      -0.901   0.744   2.783  0.00  0.00     0.018 C 
ENDBRANCH   1   8
TORSDOF 1
ENDMDL
