MODEL 1
REMARK minimizedAffinity -1.14668214
REMARK minimizedRMSD -1
REMARK  1 active torsions:
REMARK  status: ('A' for Active; 'I' for Inactive)
REMARK    1  A    between atoms: C1_2  and  C2_3 
ROOT
ATOM      1  C2  UNL d   1      -1.504   0.291   1.401  0.00  0.00    -0.073 A 
ATOM      2  C3  UNL d   1      -0.984   0.920   2.537  0.00  0.00    -0.002 A 
ATOM      3  C4  UNL d   1      -1.794   1.147   3.650  0.00  0.00     0.004 A 
ATOM      4  C5  UNL d   1      -3.129   0.743   3.641  0.00  0.00    -0.004 A 
ATOM      5  C6  UNL d   1      -3.664   0.102   2.520  0.00  0.00    -0.075 A 
ATOM      6  C7  UNL d   1      -5.099  -0.337   2.493  0.00  0.00     0.076 C 
ATOM      7  C8  UNL d   1      -2.845  -0.121   1.405  0.00  0.00     0.001 A 
ENDROOT
BRANCH   1   8
ATOM      8  C1  UNL d   1      -0.631   0.037   0.199  0.00  0.00     0.053 C 
ATOM      9  C   UNL d   1      -0.047  -1.367   0.204  0.00  0.00     0.018 C 
ENDBRANCH   1   8
TORSDOF 1
ENDMDL
