MODEL 1
REMARK minimizedAffinity -2.25101209
REMARK minimizedRMSD -1
REMARK  1 active torsions:
REMARK  status: ('A' for Active; 'I' for Inactive)
REMARK    1  A    between atoms: C1_2  and  C2_3 
ROOT
ATOM      1  C2  UNL d   1      -0.803   0.395   1.281  0.00  0.00    -0.073 A 
ATOM      2  C3  UNL d   1      -0.449   1.191   2.377  0.00  0.00    -0.002 A 
ATOM      3  C4  UNL d   1      -1.279   1.259   3.496  0.00  0.00     0.004 A 
ATOM      4  C5  UNL d   1      -2.467   0.529   3.534  0.00  0.00    -0.004 A 
ATOM      5  C6  UNL d   1      -2.832  -0.281   2.454  0.00  0.00    -0.075 A 
ATOM      6  C7  UNL d   1      -4.108  -1.072   2.479  0.00  0.00     0.076 C 
ATOM      7  C8  UNL d   1      -1.994  -0.343   1.333  0.00  0.00     0.001 A 
ENDROOT
BRANCH   1   8
ATOM      8  C1  UNL d   1       0.094   0.313   0.073  0.00  0.00     0.053 C 
ATOM      9  C   UNL d   1       0.333  -1.124  -0.363  0.00  0.00     0.018 C 
ENDBRANCH   1   8
TORSDOF 1
ENDMDL
