MODEL 1
REMARK minimizedAffinity -3.0022049
REMARK minimizedRMSD -1
REMARK  1 active torsions:
REMARK  status: ('A' for Active; 'I' for Inactive)
REMARK    1  A    between atoms: C1_2  and  C2_3 
ROOT
ATOM      1  C2  UNL d   1      -0.098  -0.550   0.051  0.00  0.00    -0.073 A 
ATOM      2  C3  UNL d   1      -0.345  -1.895   0.351  0.00  0.00    -0.002 A 
ATOM      3  C4  UNL d   1       0.551  -2.884  -0.055  0.00  0.00     0.004 A 
ATOM      4  C5  UNL d   1       1.706  -2.539  -0.758  0.00  0.00    -0.004 A 
ATOM      5  C6  UNL d   1       1.977  -1.200  -1.056  0.00  0.00    -0.075 A 
ATOM      6  C7  UNL d   1       3.214  -0.813  -1.813  0.00  0.00     0.076 C 
ATOM      7  C8  UNL d   1       1.070  -0.213  -0.648  0.00  0.00     0.001 A 
ENDROOT
BRANCH   1   8
ATOM      8  C1  UNL d   1      -1.060   0.522   0.493  0.00  0.00     0.053 C 
ATOM      9  C   UNL d   1      -1.720   0.184   1.820  0.00  0.00     0.018 C 
ENDBRANCH   1   8
TORSDOF 1
ENDMDL
