MODEL 1
REMARK minimizedAffinity -3.52875543
REMARK minimizedRMSD -1
REMARK  1 active torsions:
REMARK  status: ('A' for Active; 'I' for Inactive)
REMARK    1  A    between atoms: C1_2  and  C2_3 
ROOT
ATOM      1  C2  UNL d   1       1.081  -0.658  -0.838  0.00  0.00    -0.073 A 
ATOM      2  C3  UNL d   1       2.061  -1.570  -1.245  0.00  0.00    -0.002 A 
ATOM      3  C4  UNL d   1       2.870  -1.290  -2.348  0.00  0.00     0.004 A 
ATOM      4  C5  UNL d   1       2.712  -0.095  -3.049  0.00  0.00    -0.004 A 
ATOM      5  C6  UNL d   1       1.746   0.835  -2.650  0.00  0.00    -0.075 A 
ATOM      6  C7  UNL d   1       1.563   2.124  -3.395  0.00  0.00     0.076 C 
ATOM      7  C8  UNL d   1       0.936   0.546  -1.544  0.00  0.00     0.001 A 
ENDROOT
BRANCH   1   8
ATOM      8  C1  UNL d   1       0.209  -0.952   0.355  0.00  0.00     0.053 C 
ATOM      9  C   UNL d   1      -0.782   0.168   0.628  0.00  0.00     0.018 C 
ENDBRANCH   1   8
TORSDOF 1
ENDMDL
