MODEL 1
REMARK minimizedAffinity -3.1551013
REMARK minimizedRMSD -1
REMARK  1 active torsions:
REMARK  status: ('A' for Active; 'I' for Inactive)
REMARK    1  A    between atoms: C1_2  and  C2_3 
ROOT
ATOM      1  C2  UNL d   1      -0.645   0.479   0.368  0.00  0.00    -0.073 A 
ATOM      2  C3  UNL d   1      -0.320   1.214  -0.778  0.00  0.00    -0.002 A 
ATOM      3  C4  UNL d   1       0.461   0.642  -1.784  0.00  0.00     0.004 A 
ATOM      4  C5  UNL d   1       0.918  -0.669  -1.658  0.00  0.00    -0.004 A 
ATOM      5  C6  UNL d   1       0.594  -1.424  -0.526  0.00  0.00    -0.075 A 
ATOM      6  C7  UNL d   1       1.081  -2.835  -0.374  0.00  0.00     0.076 C 
ATOM      7  C8  UNL d   1      -0.188  -0.842   0.481  0.00  0.00     0.001 A 
ENDROOT
BRANCH   1   8
ATOM      8  C1  UNL d   1      -1.493   1.089   1.454  0.00  0.00     0.053 C 
ATOM      9  C   UNL d   1      -2.163   0.031   2.316  0.00  0.00     0.018 C 
ENDBRANCH   1   8
TORSDOF 1
ENDMDL
