MODEL 1
REMARK minimizedAffinity -4.91218042
REMARK minimizedRMSD -1
REMARK  1 active torsions:
REMARK  status: ('A' for Active; 'I' for Inactive)
REMARK    1  A    between atoms: C1_2  and  C2_3 
ROOT
ATOM      1  C2  UNL d   1      -0.409  -0.070  -0.020  0.00  0.00    -0.073 A 
ATOM      2  C3  UNL d   1      -0.376  -1.457   0.162  0.00  0.00    -0.002 A 
ATOM      3  C4  UNL d   1       0.722  -2.200  -0.274  0.00  0.00     0.004 A 
ATOM      4  C5  UNL d   1       1.800  -1.563  -0.890  0.00  0.00    -0.004 A 
ATOM      5  C6  UNL d   1       1.791  -0.176  -1.070  0.00  0.00    -0.075 A 
ATOM      6  C7  UNL d   1       2.942   0.523  -1.733  0.00  0.00     0.076 C 
ATOM      7  C8  UNL d   1       0.684   0.562  -0.631  0.00  0.00     0.001 A 
ENDROOT
BRANCH   1   8
ATOM      8  C1  UNL d   1      -1.589   0.737   0.456  0.00  0.00     0.053 C 
ATOM      9  C   UNL d   1      -1.955   0.417   1.897  0.00  0.00     0.018 C 
ENDBRANCH   1   8
TORSDOF 1
ENDMDL
