MODEL 1
REMARK minimizedAffinity 0.406075835
REMARK minimizedRMSD -1
REMARK  1 active torsions:
REMARK  status: ('A' for Active; 'I' for Inactive)
REMARK    1  A    between atoms: C1_2  and  C2_3 
ROOT
ATOM      1  C2  UNL d   1       0.034   0.941  -1.477  0.00  0.00    -0.073 A 
ATOM      2  C3  UNL d   1       0.964   0.982  -2.521  0.00  0.00    -0.002 A 
ATOM      3  C4  UNL d   1       1.784  -0.118  -2.778  0.00  0.00     0.004 A 
ATOM      4  C5  UNL d   1       1.678  -1.270  -2.000  0.00  0.00    -0.004 A 
ATOM      5  C6  UNL d   1       0.746  -1.335  -0.959  0.00  0.00    -0.075 A 
ATOM      6  C7  UNL d   1       0.620  -2.567  -0.112  0.00  0.00     0.076 C 
ATOM      7  C8  UNL d   1      -0.072  -0.226  -0.706  0.00  0.00     0.001 A 
ENDROOT
BRANCH   1   8
ATOM      8  C1  UNL d   1      -0.859   2.123  -1.199  0.00  0.00     0.053 C 
ATOM      9  C   UNL d   1      -0.391   3.373  -1.927  0.00  0.00     0.018 C 
ENDBRANCH   1   8
TORSDOF 1
ENDMDL
