MODEL 1
REMARK minimizedAffinity -3.50629425
REMARK minimizedRMSD -1
REMARK  1 active torsions:
REMARK  status: ('A' for Active; 'I' for Inactive)
REMARK    1  A    between atoms: C1_2  and  C2_3 
ROOT
ATOM      1  C2  UNL d   1       0.708  -0.571  -1.189  0.00  0.00    -0.073 A 
ATOM      2  C3  UNL d   1       0.004  -1.051  -0.079  0.00  0.00    -0.002 A 
ATOM      3  C4  UNL d   1      -1.009  -0.285   0.498  0.00  0.00     0.004 A 
ATOM      4  C5  UNL d   1      -1.333   0.964  -0.031  0.00  0.00    -0.004 A 
ATOM      5  C6  UNL d   1      -0.649   1.456  -1.147  0.00  0.00    -0.075 A 
ATOM      6  C7  UNL d   1      -0.983   2.799  -1.727  0.00  0.00     0.076 C 
ATOM      7  C8  UNL d   1       0.369   0.682  -1.720  0.00  0.00     0.001 A 
ENDROOT
BRANCH   1   8
ATOM      8  C1  UNL d   1       1.798  -1.398  -1.820  0.00  0.00     0.053 C 
ATOM      9  C   UNL d   1       2.457  -0.678  -2.986  0.00  0.00     0.018 C 
ENDBRANCH   1   8
TORSDOF 1
ENDMDL
