MODEL 1
REMARK minimizedAffinity -4.19325447
REMARK minimizedRMSD -1
REMARK  1 active torsions:
REMARK  status: ('A' for Active; 'I' for Inactive)
REMARK    1  A    between atoms: C1_2  and  C2_3 
ROOT
ATOM      1  C2  UNL d   1       0.179   0.309  -0.348  0.00  0.00    -0.073 A 
ATOM      2  C3  UNL d   1       0.384  -1.045  -0.058  0.00  0.00    -0.002 A 
ATOM      3  C4  UNL d   1       1.547  -1.688  -0.482  0.00  0.00     0.004 A 
ATOM      4  C5  UNL d   1       2.519  -0.985  -1.194  0.00  0.00    -0.004 A 
ATOM      5  C6  UNL d   1       2.338   0.371  -1.483  0.00  0.00    -0.075 A 
ATOM      6  C7  UNL d   1       3.372   1.142  -2.250  0.00  0.00     0.076 C 
ATOM      7  C8  UNL d   1       1.165   1.010  -1.056  0.00  0.00     0.001 A 
ENDROOT
BRANCH   1   8
ATOM      8  C1  UNL d   1      -1.073   1.010   0.113  0.00  0.00     0.053 C 
ATOM      9  C   UNL d   1      -1.816   0.210   1.172  0.00  0.00     0.018 C 
ENDBRANCH   1   8
TORSDOF 1
ENDMDL
