MODEL 1
REMARK minimizedAffinity -3.15688944
REMARK minimizedRMSD -1
REMARK  1 active torsions:
REMARK  status: ('A' for Active; 'I' for Inactive)
REMARK    1  A    between atoms: C1_2  and  C2_3 
ROOT
ATOM      1  C2  UNL d   1      -0.876   0.336   0.699  0.00  0.00    -0.073 A 
ATOM      2  C3  UNL d   1      -1.030   1.496  -0.070  0.00  0.00    -0.002 A 
ATOM      3  C4  UNL d   1      -0.231   1.707  -1.194  0.00  0.00     0.004 A 
ATOM      4  C5  UNL d   1       0.724   0.761  -1.565  0.00  0.00    -0.004 A 
ATOM      5  C6  UNL d   1       0.885  -0.410  -0.816  0.00  0.00    -0.075 A 
ATOM      6  C7  UNL d   1       1.910  -1.437  -1.200  0.00  0.00     0.076 C 
ATOM      7  C8  UNL d   1       0.081  -0.614   0.313  0.00  0.00     0.001 A 
ENDROOT
BRANCH   1   8
ATOM      8  C1  UNL d   1      -1.741   0.100   1.910  0.00  0.00     0.053 C 
ATOM      9  C   UNL d   1      -1.324   0.969   3.087  0.00  0.00     0.018 C 
ENDBRANCH   1   8
TORSDOF 1
ENDMDL
