MODEL 1
REMARK minimizedAffinity 4.43749905
REMARK minimizedRMSD -1
REMARK  1 active torsions:
REMARK  status: ('A' for Active; 'I' for Inactive)
REMARK    1  A    between atoms: C1_2  and  C2_3 
ROOT
ATOM      1  C2  UNL d   1       3.424  -3.298   3.611  0.00  0.00    -0.073 A 
ATOM      2  C3  UNL d   1       3.559  -4.537   2.974  0.00  0.00    -0.002 A 
ATOM      3  C4  UNL d   1       2.796  -4.835   1.843  0.00  0.00     0.004 A 
ATOM      4  C5  UNL d   1       1.898  -3.897   1.335  0.00  0.00    -0.004 A 
ATOM      5  C6  UNL d   1       1.758  -2.649   1.951  0.00  0.00    -0.075 A 
ATOM      6  C7  UNL d   1       0.795  -1.629   1.418  0.00  0.00     0.076 C 
ATOM      7  C8  UNL d   1       2.525  -2.358   3.087  0.00  0.00     0.001 A 
ENDROOT
BRANCH   1   8
ATOM      8  C1  UNL d   1       4.250  -2.970   4.828  0.00  0.00     0.053 C 
ATOM      9  C   UNL d   1       4.623  -4.215   5.617  0.00  0.00     0.018 C 
ENDBRANCH   1   8
TORSDOF 1
ENDMDL
