MODEL 1
REMARK minimizedAffinity 5.46152353
REMARK minimizedRMSD -1
REMARK  1 active torsions:
REMARK  status: ('A' for Active; 'I' for Inactive)
REMARK    1  A    between atoms: C1_2  and  C2_3 
ROOT
ATOM      1  C2  UNL d   1       5.844   1.206  -4.425  0.00  0.00    -0.073 A 
ATOM      2  C3  UNL d   1       5.902   0.891  -3.063  0.00  0.00    -0.002 A 
ATOM      3  C4  UNL d   1       5.970  -0.440  -2.649  0.00  0.00     0.004 A 
ATOM      4  C5  UNL d   1       5.988  -1.468  -3.592  0.00  0.00    -0.004 A 
ATOM      5  C6  UNL d   1       5.944  -1.173  -4.959  0.00  0.00    -0.075 A 
ATOM      6  C7  UNL d   1       5.961  -2.267  -5.985  0.00  0.00     0.076 C 
ATOM      7  C8  UNL d   1       5.873   0.166  -5.366  0.00  0.00     0.001 A 
ENDROOT
BRANCH   1   8
ATOM      8  C1  UNL d   1       5.777   2.642  -4.877  0.00  0.00     0.053 C 
ATOM      9  C   UNL d   1       5.833   3.611  -3.706  0.00  0.00     0.018 C 
ENDBRANCH   1   8
TORSDOF 1
ENDMDL
