MODEL 1
REMARK minimizedAffinity 2.26428199
REMARK minimizedRMSD -1
REMARK  1 active torsions:
REMARK  status: ('A' for Active; 'I' for Inactive)
REMARK    1  A    between atoms: C1_2  and  C2_3 
ROOT
ATOM      1  C2  UNL d   1       0.168   3.882  -2.921  0.00  0.00    -0.073 A 
ATOM      2  C3  UNL d   1       0.246   2.607  -2.348  0.00  0.00    -0.002 A 
ATOM      3  C4  UNL d   1      -0.913   1.862  -2.128  0.00  0.00     0.004 A 
ATOM      4  C5  UNL d   1      -2.159   2.379  -2.482  0.00  0.00    -0.004 A 
ATOM      5  C6  UNL d   1      -2.256   3.646  -3.066  0.00  0.00    -0.075 A 
ATOM      6  C7  UNL d   1      -3.589   4.218  -3.452  0.00  0.00     0.076 C 
ATOM      7  C8  UNL d   1      -1.088   4.390  -3.283  0.00  0.00     0.001 A 
ENDROOT
BRANCH   1   8
ATOM      8  C1  UNL d   1       1.417   4.688  -3.167  0.00  0.00     0.053 C 
ATOM      9  C   UNL d   1       1.755   4.777  -4.647  0.00  0.00     0.018 C 
ENDBRANCH   1   8
TORSDOF 1
ENDMDL
