MODEL 1
REMARK minimizedAffinity 7.84405518
REMARK minimizedRMSD -1
REMARK  1 active torsions:
REMARK  status: ('A' for Active; 'I' for Inactive)
REMARK    1  A    between atoms: C1_2  and  C2_3 
ROOT
ATOM      1  C2  UNL d   1       0.290  -2.130   2.011  0.00  0.00    -0.073 A 
ATOM      2  C3  UNL d   1       1.632  -2.296   2.372  0.00  0.00    -0.002 A 
ATOM      3  C4  UNL d   1       2.637  -2.212   1.408  0.00  0.00     0.004 A 
ATOM      4  C5  UNL d   1       2.313  -1.954   0.077  0.00  0.00    -0.004 A 
ATOM      5  C6  UNL d   1       0.979  -1.773  -0.302  0.00  0.00    -0.075 A 
ATOM      6  C7  UNL d   1       0.613  -1.497  -1.731  0.00  0.00     0.076 C 
ATOM      7  C8  UNL d   1      -0.025  -1.862   0.671  0.00  0.00     0.001 A 
ENDROOT
BRANCH   1   8
ATOM      8  C1  UNL d   1      -0.799  -2.213   3.049  0.00  0.00     0.053 C 
ATOM      9  C   UNL d   1      -1.324  -0.840   3.436  0.00  0.00     0.018 C 
ENDBRANCH   1   8
TORSDOF 1
ENDMDL
