MODEL 1
REMARK minimizedAffinity 12.0449429
REMARK minimizedRMSD -1
REMARK  1 active torsions:
REMARK  status: ('A' for Active; 'I' for Inactive)
REMARK    1  A    between atoms: C1_2  and  C2_3 
ROOT
ATOM      1  C2  UNL d   1      -0.201   4.640  -3.307  0.00  0.00    -0.073 A 
ATOM      2  C3  UNL d   1      -1.417   5.322  -3.421  0.00  0.00    -0.002 A 
ATOM      3  C4  UNL d   1      -2.619   4.674  -3.133  0.00  0.00     0.004 A 
ATOM      4  C5  UNL d   1      -2.616   3.341  -2.722  0.00  0.00    -0.004 A 
ATOM      5  C6  UNL d   1      -1.410   2.645  -2.590  0.00  0.00    -0.075 A 
ATOM      6  C7  UNL d   1      -1.390   1.211  -2.152  0.00  0.00     0.076 C 
ATOM      7  C8  UNL d   1      -0.208   3.303  -2.884  0.00  0.00     0.001 A 
ENDROOT
BRANCH   1   8
ATOM      8  C1  UNL d   1       1.100   5.338  -3.610  0.00  0.00     0.053 C 
ATOM      9  C   UNL d   1       1.871   4.647  -4.724  0.00  0.00     0.018 C 
ENDBRANCH   1   8
TORSDOF 1
ENDMDL
