MODEL 1
REMARK minimizedAffinity 10.2856817
REMARK minimizedRMSD -1
REMARK  1 active torsions:
REMARK  status: ('A' for Active; 'I' for Inactive)
REMARK    1  A    between atoms: C1_2  and  C2_3 
ROOT
ATOM      1  C2  UNL d   1      -2.215   0.008  -1.126  0.00  0.00    -0.073 A 
ATOM      2  C3  UNL d   1      -0.827  -0.173  -1.123  0.00  0.00    -0.002 A 
ATOM      3  C4  UNL d   1       0.018   0.856  -1.541  0.00  0.00     0.004 A 
ATOM      4  C5  UNL d   1      -0.514   2.076  -1.957  0.00  0.00    -0.004 A 
ATOM      5  C6  UNL d   1      -1.897   2.280  -1.956  0.00  0.00    -0.075 A 
ATOM      6  C7  UNL d   1      -2.485   3.586  -2.403  0.00  0.00     0.076 C 
ATOM      7  C8  UNL d   1      -2.740   1.241  -1.538  0.00  0.00     0.001 A 
ENDROOT
BRANCH   1   8
ATOM      8  C1  UNL d   1      -3.132  -1.098  -0.670  0.00  0.00     0.053 C 
ATOM      9  C   UNL d   1      -4.083  -1.540  -1.771  0.00  0.00     0.018 C 
ENDBRANCH   1   8
TORSDOF 1
ENDMDL
