MODEL 1
REMARK minimizedAffinity 7.18213129
REMARK minimizedRMSD -1
REMARK  1 active torsions:
REMARK  status: ('A' for Active; 'I' for Inactive)
REMARK    1  A    between atoms: C1_2  and  C2_3 
ROOT
ATOM      1  C2  UNL d   1       0.383   2.245  -2.635  0.00  0.00    -0.073 A 
ATOM      2  C3  UNL d   1       0.576   1.067  -3.364  0.00  0.00    -0.002 A 
ATOM      3  C4  UNL d   1       1.525   0.130  -2.952  0.00  0.00     0.004 A 
ATOM      4  C5  UNL d   1       2.283   0.358  -1.804  0.00  0.00    -0.004 A 
ATOM      5  C6  UNL d   1       2.097   1.524  -1.055  0.00  0.00    -0.075 A 
ATOM      6  C7  UNL d   1       2.907   1.786   0.181  0.00  0.00     0.076 C 
ATOM      7  C8  UNL d   1       1.144   2.462  -1.477  0.00  0.00     0.001 A 
ENDROOT
BRANCH   1   8
ATOM      8  C1  UNL d   1      -0.644   3.257  -3.073  0.00  0.00     0.053 C 
ATOM      9  C   UNL d   1      -2.042   2.893  -2.598  0.00  0.00     0.018 C 
ENDBRANCH   1   8
TORSDOF 1
ENDMDL
