MODEL 1
REMARK minimizedAffinity 8.40943623
REMARK minimizedRMSD -1
REMARK  1 active torsions:
REMARK  status: ('A' for Active; 'I' for Inactive)
REMARK    1  A    between atoms: C1_2  and  C2_3 
ROOT
ATOM      1  C2  UNL d   1      -4.304   0.719  -3.481  0.00  0.00    -0.073 A 
ATOM      2  C3  UNL d   1      -3.348   0.699  -2.459  0.00  0.00    -0.002 A 
ATOM      3  C4  UNL d   1      -3.219  -0.421  -1.636  0.00  0.00     0.004 A 
ATOM      4  C5  UNL d   1      -4.040  -1.532  -1.830  0.00  0.00    -0.004 A 
ATOM      5  C6  UNL d   1      -4.993  -1.536  -2.853  0.00  0.00    -0.075 A 
ATOM      6  C7  UNL d   1      -5.884  -2.722  -3.073  0.00  0.00     0.076 C 
ATOM      7  C8  UNL d   1      -5.118  -0.407  -3.674  0.00  0.00     0.001 A 
ENDROOT
BRANCH   1   8
ATOM      8  C1  UNL d   1      -4.442   1.923  -4.376  0.00  0.00     0.053 C 
ATOM      9  C   UNL d   1      -4.075   3.212  -3.659  0.00  0.00     0.018 C 
ENDBRANCH   1   8
TORSDOF 1
ENDMDL
