MODEL 1
REMARK minimizedAffinity 1.59862983
REMARK minimizedRMSD -1
REMARK  0 active torsions:
REMARK  status: ('A' for Active; 'I' for Inactive)
ROOT
ATOM      1  C1  DEN d   1       5.993   0.089   2.516  0.00  0.00     0.130 A 
ATOM      2  C2  DEN d   1       5.281  -1.095   2.040  0.00  0.00    -0.031 A 
ATOM      3  C3  DEN d   1       4.466  -0.700   0.874  0.00  0.00     0.027 A 
ATOM      4  C4  DEN d   1       4.241   1.617  -0.238  0.00  0.00     0.027 A 
ATOM      5  C5  DEN d   1       4.643   2.933  -0.181  0.00  0.00    -0.003 A 
ATOM      6  C6  DEN d   1       5.489   3.397   0.791  0.00  0.00     0.001 A 
ATOM      7  C7  DEN d   1       5.997   2.528   1.720  0.00  0.00     0.017 A 
ATOM      8  C8  DEN d   1       5.591   1.201   1.673  0.00  0.00    -0.094 A 
ATOM      9  C9  DEN d   1       4.744   0.748   0.675  0.00  0.00    -0.072 A 
ENDROOT
TORSDOF 0
ENDMDL
