MODEL 1
REMARK minimizedAffinity -1.21803427
REMARK minimizedRMSD -1
REMARK  0 active torsions:
REMARK  status: ('A' for Active; 'I' for Inactive)
ROOT
ATOM      1  C1  DEN d   1      -4.736   1.014   3.059  0.00  0.00     0.130 A 
ATOM      2  C2  DEN d   1      -5.165   1.928   4.114  0.00  0.00    -0.031 A 
ATOM      3  C3  DEN d   1      -3.986   2.699   4.556  0.00  0.00     0.027 A 
ATOM      4  C4  DEN d   1      -1.552   2.570   3.712  0.00  0.00     0.027 A 
ATOM      5  C5  DEN d   1      -0.700   1.934   2.835  0.00  0.00    -0.003 A 
ATOM      6  C6  DEN d   1      -1.124   0.933   2.002  0.00  0.00     0.001 A 
ATOM      7  C7  DEN d   1      -2.444   0.567   1.997  0.00  0.00     0.017 A 
ATOM      8  C8  DEN d   1      -3.307   1.198   2.883  0.00  0.00    -0.094 A 
ATOM      9  C9  DEN d   1      -2.862   2.217   3.708  0.00  0.00    -0.072 A 
ENDROOT
TORSDOF 0
ENDMDL
