MODEL 1
REMARK minimizedAffinity 4.03520489
REMARK minimizedRMSD -1
REMARK  0 active torsions:
REMARK  status: ('A' for Active; 'I' for Inactive)
ROOT
ATOM      1  C1  DEN d   1       0.579  -4.214  -3.666  0.00  0.00     0.130 A 
ATOM      2  C2  DEN d   1       1.960  -4.016  -3.233  0.00  0.00    -0.031 A 
ATOM      3  C3  DEN d   1       2.006  -4.178  -1.766  0.00  0.00     0.027 A 
ATOM      4  C4  DEN d   1       0.084  -4.719  -0.132  0.00  0.00     0.027 A 
ATOM      5  C5  DEN d   1      -1.267  -4.962  -0.030  0.00  0.00    -0.003 A 
ATOM      6  C6  DEN d   1      -2.097  -4.941  -1.120  0.00  0.00     0.001 A 
ATOM      7  C7  DEN d   1      -1.576  -4.713  -2.366  0.00  0.00     0.017 A 
ATOM      8  C8  DEN d   1      -0.215  -4.459  -2.476  0.00  0.00    -0.094 A 
ATOM      9  C9  DEN d   1       0.609  -4.498  -1.364  0.00  0.00    -0.072 A 
ENDROOT
TORSDOF 0
ENDMDL
