MODEL 1
REMARK minimizedAffinity 2.65127063
REMARK minimizedRMSD -1
REMARK  0 active torsions:
REMARK  status: ('A' for Active; 'I' for Inactive)
ROOT
ATOM      1  C1  DEN d   1      -4.610   3.379   5.135  0.00  0.00     0.130 A 
ATOM      2  C2  DEN d   1      -5.886   2.863   5.622  0.00  0.00    -0.031 A 
ATOM      3  C3  DEN d   1      -5.987   1.445   5.224  0.00  0.00     0.027 A 
ATOM      4  C4  DEN d   1      -4.298   0.003   3.912  0.00  0.00     0.027 A 
ATOM      5  C5  DEN d   1      -3.076   0.005   3.277  0.00  0.00    -0.003 A 
ATOM      6  C6  DEN d   1      -2.301   1.131   3.188  0.00  0.00     0.001 A 
ATOM      7  C7  DEN d   1      -2.720   2.292   3.783  0.00  0.00     0.017 A 
ATOM      8  C8  DEN d   1      -3.954   2.300   4.418  0.00  0.00    -0.094 A 
ATOM      9  C9  DEN d   1      -4.717   1.148   4.508  0.00  0.00    -0.072 A 
ENDROOT
TORSDOF 0
ENDMDL
