MODEL 1
REMARK minimizedAffinity 6.30954361
REMARK minimizedRMSD -1
REMARK  0 active torsions:
REMARK  status: ('A' for Active; 'I' for Inactive)
ROOT
ATOM      1  C1  DEN d   1      -5.376   0.937   5.353  0.00  0.00     0.130 A 
ATOM      2  C2  DEN d   1      -5.396   2.299   5.878  0.00  0.00    -0.031 A 
ATOM      3  C3  DEN d   1      -4.243   3.025   5.307  0.00  0.00     0.027 A 
ATOM      4  C4  DEN d   1      -2.443   2.176   3.667  0.00  0.00     0.027 A 
ATOM      5  C5  DEN d   1      -2.001   1.086   2.950  0.00  0.00    -0.003 A 
ATOM      6  C6  DEN d   1      -2.629  -0.130   3.010  0.00  0.00     0.001 A 
ATOM      7  C7  DEN d   1      -3.760  -0.273   3.769  0.00  0.00     0.017 A 
ATOM      8  C8  DEN d   1      -4.207   0.820   4.500  0.00  0.00    -0.094 A 
ATOM      9  C9  DEN d   1      -3.566   2.044   4.417  0.00  0.00    -0.072 A 
ENDROOT
TORSDOF 0
ENDMDL
