MODEL 1
REMARK minimizedAffinity 7.3170805
REMARK minimizedRMSD -1
REMARK  0 active torsions:
REMARK  status: ('A' for Active; 'I' for Inactive)
ROOT
ATOM      1  C1  DEN d   1       0.517  -3.890  -3.575  0.00  0.00     0.130 A 
ATOM      2  C2  DEN d   1       1.843  -3.466  -3.135  0.00  0.00    -0.031 A 
ATOM      3  C3  DEN d   1       1.869  -3.506  -1.659  0.00  0.00     0.027 A 
ATOM      4  C4  DEN d   1      -0.005  -4.184  -0.022  0.00  0.00     0.027 A 
ATOM      5  C5  DEN d   1      -1.313  -4.608   0.075  0.00  0.00    -0.003 A 
ATOM      6  C6  DEN d   1      -2.105  -4.787  -1.027  0.00  0.00     0.001 A 
ATOM      7  C7  DEN d   1      -1.584  -4.586  -2.278  0.00  0.00     0.017 A 
ATOM      8  C8  DEN d   1      -0.269  -4.152  -2.383  0.00  0.00    -0.094 A 
ATOM      9  C9  DEN d   1       0.519  -3.988  -1.257  0.00  0.00    -0.072 A 
ENDROOT
TORSDOF 0
ENDMDL
