MODEL 1
REMARK minimizedAffinity 9.34962559
REMARK minimizedRMSD -1
REMARK  0 active torsions:
REMARK  status: ('A' for Active; 'I' for Inactive)
ROOT
ATOM      1  C1  DEN d   1      -4.329   3.339   5.325  0.00  0.00     0.130 A 
ATOM      2  C2  DEN d   1      -5.486   2.757   6.000  0.00  0.00    -0.031 A 
ATOM      3  C3  DEN d   1      -5.690   1.396   5.464  0.00  0.00     0.027 A 
ATOM      4  C4  DEN d   1      -4.331   0.139   3.668  0.00  0.00     0.027 A 
ATOM      5  C5  DEN d   1      -3.266   0.228   2.799  0.00  0.00    -0.003 A 
ATOM      6  C6  DEN d   1      -2.508   1.363   2.687  0.00  0.00     0.001 A 
ATOM      7  C7  DEN d   1      -2.776   2.440   3.491  0.00  0.00     0.017 A 
ATOM      8  C8  DEN d   1      -3.853   2.360   4.364  0.00  0.00    -0.094 A 
ATOM      9  C9  DEN d   1      -4.600   1.199   4.471  0.00  0.00    -0.072 A 
ENDROOT
TORSDOF 0
ENDMDL
