MODEL 1
REMARK minimizedAffinity 0.562426686
REMARK minimizedRMSD -1
REMARK  0 active torsions:
REMARK  status: ('A' for Active; 'I' for Inactive)
ROOT
ATOM      1  C1  DEN d   1      -0.733  -0.660   1.896  0.00  0.00     0.130 A 
ATOM      2  C2  DEN d   1       0.520  -0.172   1.326  0.00  0.00    -0.031 A 
ATOM      3  C3  DEN d   1       0.504   1.303   1.385  0.00  0.00     0.027 A 
ATOM      4  C4  DEN d   1      -1.327   2.871   2.302  0.00  0.00     0.027 A 
ATOM      5  C5  DEN d   1      -2.577   2.921   2.877  0.00  0.00    -0.003 A 
ATOM      6  C6  DEN d   1      -3.309   1.791   3.133  0.00  0.00     0.001 A 
ATOM      7  C7  DEN d   1      -2.777   0.560   2.853  0.00  0.00     0.017 A 
ATOM      8  C8  DEN d   1      -1.520   0.502   2.266  0.00  0.00    -0.094 A 
ATOM      9  C9  DEN d   1      -0.791   1.655   2.027  0.00  0.00    -0.072 A 
ENDROOT
TORSDOF 0
ENDMDL
