MODEL 1
REMARK minimizedAffinity 10.5908699
REMARK minimizedRMSD -1
REMARK  0 active torsions:
REMARK  status: ('A' for Active; 'I' for Inactive)
ROOT
ATOM      1  C1  DEN d   1      -5.986   4.916   3.718  0.00  0.00     0.130 A 
ATOM      2  C2  DEN d   1      -6.000   5.778   4.897  0.00  0.00    -0.031 A 
ATOM      3  C3  DEN d   1      -5.337   5.053   6.000  0.00  0.00     0.027 A 
ATOM      4  C4  DEN d   1      -4.294   2.694   5.996  0.00  0.00     0.027 A 
ATOM      5  C5  DEN d   1      -4.052   1.575   5.230  0.00  0.00    -0.003 A 
ATOM      6  C6  DEN d   1      -4.464   1.479   3.928  0.00  0.00     0.001 A 
ATOM      7  C7  DEN d   1      -5.101   2.538   3.337  0.00  0.00     0.017 A 
ATOM      8  C8  DEN d   1      -5.356   3.667   4.105  0.00  0.00    -0.094 A 
ATOM      9  C9  DEN d   1      -4.920   3.750   5.417  0.00  0.00    -0.072 A 
ENDROOT
TORSDOF 0
ENDMDL
