MODEL 1
REMARK minimizedAffinity 0.752683759
REMARK minimizedRMSD -1
REMARK  0 active torsions:
REMARK  status: ('A' for Active; 'I' for Inactive)
ROOT
ATOM      1  C1  DEN d   1      -2.881   1.165   3.891  0.00  0.00     0.130 A 
ATOM      2  C2  DEN d   1      -3.917   2.043   3.354  0.00  0.00    -0.031 A 
ATOM      3  C3  DEN d   1      -3.304   2.886   2.308  0.00  0.00     0.027 A 
ATOM      4  C4  DEN d   1      -0.865   2.914   1.469  0.00  0.00     0.027 A 
ATOM      5  C5  DEN d   1       0.384   2.357   1.631  0.00  0.00    -0.003 A 
ATOM      6  C6  DEN d   1       0.638   1.395   2.573  0.00  0.00     0.001 A 
ATOM      7  C7  DEN d   1      -0.382   0.929   3.359  0.00  0.00     0.017 A 
ATOM      8  C8  DEN d   1      -1.642   1.491   3.207  0.00  0.00    -0.094 A 
ATOM      9  C9  DEN d   1      -1.882   2.454   2.241  0.00  0.00    -0.072 A 
ENDROOT
TORSDOF 0
ENDMDL
