MODEL 1
REMARK minimizedAffinity 6.55774403
REMARK minimizedRMSD -1
REMARK  0 active torsions:
REMARK  status: ('A' for Active; 'I' for Inactive)
ROOT
ATOM      1  C1  DEN d   1      -5.999   1.426   5.420  0.00  0.00     0.130 A 
ATOM      2  C2  DEN d   1      -5.973   2.766   6.000  0.00  0.00    -0.031 A 
ATOM      3  C3  DEN d   1      -4.795   3.474   5.461  0.00  0.00     0.027 A 
ATOM      4  C4  DEN d   1      -3.020   2.633   3.790  0.00  0.00     0.027 A 
ATOM      5  C5  DEN d   1      -2.614   1.559   3.030  0.00  0.00    -0.003 A 
ATOM      6  C6  DEN d   1      -3.283   0.363   3.039  0.00  0.00     0.001 A 
ATOM      7  C7  DEN d   1      -4.421   0.228   3.789  0.00  0.00     0.017 A 
ATOM      8  C8  DEN d   1      -4.832   1.305   4.564  0.00  0.00    -0.094 A 
ATOM      9  C9  DEN d   1      -4.149   2.508   4.532  0.00  0.00    -0.072 A 
ENDROOT
TORSDOF 0
ENDMDL
