MODEL 1
REMARK minimizedAffinity 12.3647566
REMARK minimizedRMSD -1
REMARK  0 active torsions:
REMARK  status: ('A' for Active; 'I' for Inactive)
ROOT
ATOM      1  C1  DEN d   1       2.454   5.298  -5.061  0.00  0.00     0.130 A 
ATOM      2  C2  DEN d   1       3.555   5.493  -6.000  0.00  0.00    -0.031 A 
ATOM      3  C3  DEN d   1       4.378   4.266  -5.999  0.00  0.00     0.027 A 
ATOM      4  C4  DEN d   1       4.052   2.095  -4.646  0.00  0.00     0.027 A 
ATOM      5  C5  DEN d   1       3.265   1.464  -3.709  0.00  0.00    -0.003 A 
ATOM      6  C6  DEN d   1       2.181   2.074  -3.135  0.00  0.00     0.001 A 
ATOM      7  C7  DEN d   1       1.827   3.338  -3.528  0.00  0.00     0.017 A 
ATOM      8  C8  DEN d   1       2.620   3.984  -4.468  0.00  0.00    -0.094 A 
ATOM      9  C9  DEN d   1       3.705   3.345  -5.044  0.00  0.00    -0.072 A 
ENDROOT
TORSDOF 0
ENDMDL
