MODEL 1
REMARK minimizedAffinity 10.2444019
REMARK minimizedRMSD -1
REMARK  0 active torsions:
REMARK  status: ('A' for Active; 'I' for Inactive)
ROOT
ATOM      1  C1  DEN d   1      -5.166  -1.131   0.827  0.00  0.00     0.130 A 
ATOM      2  C2  DEN d   1      -5.682  -2.492   0.941  0.00  0.00    -0.031 A 
ATOM      3  C3  DEN d   1      -5.220  -3.255  -0.236  0.00  0.00     0.027 A 
ATOM      4  C4  DEN d   1      -3.760  -2.467  -2.210  0.00  0.00     0.027 A 
ATOM      5  C5  DEN d   1      -3.092  -1.391  -2.753  0.00  0.00    -0.003 A 
ATOM      6  C6  DEN d   1      -3.096  -0.155  -2.162  0.00  0.00     0.001 A 
ATOM      7  C7  DEN d   1      -3.745   0.025  -0.970  0.00  0.00     0.017 A 
ATOM      8  C8  DEN d   1      -4.427  -1.053  -0.420  0.00  0.00    -0.094 A 
ATOM      9  C9  DEN d   1      -4.401  -2.297  -1.026  0.00  0.00    -0.072 A 
ENDROOT
TORSDOF 0
ENDMDL
