MODEL 1
REMARK minimizedAffinity 6.64121151
REMARK minimizedRMSD -1
REMARK  0 active torsions:
REMARK  status: ('A' for Active; 'I' for Inactive)
ROOT
ATOM      1  C1  DEN d   1       5.186   4.428  -5.505  0.00  0.00     0.130 A 
ATOM      2  C2  DEN d   1       4.471   5.602  -5.999  0.00  0.00    -0.031 A 
ATOM      3  C3  DEN d   1       3.066   5.501  -5.554  0.00  0.00     0.027 A 
ATOM      4  C4  DEN d   1       1.936   3.655  -4.152  0.00  0.00     0.027 A 
ATOM      5  C5  DEN d   1       2.134   2.452  -3.512  0.00  0.00    -0.003 A 
ATOM      6  C6  DEN d   1       3.345   1.811  -3.520  0.00  0.00     0.001 A 
ATOM      7  C7  DEN d   1       4.417   2.393  -4.144  0.00  0.00     0.017 A 
ATOM      8  C8  DEN d   1       4.223   3.603  -4.798  0.00  0.00    -0.094 A 
ATOM      9  C9  DEN d   1       2.994   4.241  -4.768  0.00  0.00    -0.072 A 
ENDROOT
TORSDOF 0
ENDMDL
