MODEL 1
REMARK minimizedAffinity 13.1466675
REMARK minimizedRMSD -1
REMARK  0 active torsions:
REMARK  status: ('A' for Active; 'I' for Inactive)
ROOT
ATOM      1  C1  DEN d   1      -4.508   3.479   5.260  0.00  0.00     0.130 A 
ATOM      2  C2  DEN d   1      -5.436   2.627   5.999  0.00  0.00    -0.031 A 
ATOM      3  C3  DEN d   1      -5.278   1.245   5.506  0.00  0.00     0.027 A 
ATOM      4  C4  DEN d   1      -3.692   0.343   3.683  0.00  0.00     0.027 A 
ATOM      5  C5  DEN d   1      -2.724   0.689   2.766  0.00  0.00    -0.003 A 
ATOM      6  C6  DEN d   1      -2.311   1.984   2.593  0.00  0.00     0.001 A 
ATOM      7  C7  DEN d   1      -2.835   2.974   3.381  0.00  0.00     0.017 A 
ATOM      8  C8  DEN d   1      -3.817   2.634   4.303  0.00  0.00    -0.094 A 
ATOM      9  C9  DEN d   1      -4.212   1.318   4.470  0.00  0.00    -0.072 A 
ENDROOT
TORSDOF 0
ENDMDL
