MODEL 1
REMARK minimizedAffinity -2.11954188
REMARK minimizedRMSD -1
REMARK  0 active torsions:
REMARK  status: ('A' for Active; 'I' for Inactive)
ROOT
ATOM      1  C1  BNZ d   1      -0.603   0.352   0.107  0.00  0.00     0.000 A 
ATOM      2  C2  BNZ d   1      -1.203   1.553  -0.165  0.00  0.00     0.000 A 
ATOM      3  C3  BNZ d   1      -0.946   2.654   0.603  0.00  0.00     0.000 A 
ATOM      4  C4  BNZ d   1      -0.121   2.544   1.665  0.00  0.00     0.000 A 
ATOM      5  C5  BNZ d   1       0.484   1.338   1.958  0.00  0.00     0.000 A 
ATOM      6  C6  BNZ d   1       0.252   0.241   1.159  0.00  0.00     0.000 A 
ENDROOT
TORSDOF 0
ENDMDL
