MODEL 1
REMARK minimizedAffinity -3.60974145
REMARK minimizedRMSD -1
REMARK  0 active torsions:
REMARK  status: ('A' for Active; 'I' for Inactive)
ROOT
ATOM      1  C1  BNZ d   1       0.558  -0.296   1.504  0.00  0.00     0.000 A 
ATOM      2  C2  BNZ d   1      -0.008   0.762   2.165  0.00  0.00     0.000 A 
ATOM      3  C3  BNZ d   1      -0.926   1.563   1.547  0.00  0.00     0.000 A 
ATOM      4  C4  BNZ d   1      -1.247   1.331   0.258  0.00  0.00     0.000 A 
ATOM      5  C5  BNZ d   1      -0.678   0.275  -0.425  0.00  0.00     0.000 A 
ATOM      6  C6  BNZ d   1       0.216  -0.553   0.212  0.00  0.00     0.000 A 
ENDROOT
TORSDOF 0
ENDMDL
