MODEL 1
REMARK minimizedAffinity -4.0893321
REMARK minimizedRMSD -1
REMARK  0 active torsions:
REMARK  status: ('A' for Active; 'I' for Inactive)
ROOT
ATOM      1  C1  BNZ d   1       0.344   0.491   1.461  0.00  0.00     0.000 A 
ATOM      2  C2  BNZ d   1      -0.200   1.628   1.995  0.00  0.00     0.000 A 
ATOM      3  C3  BNZ d   1      -1.100   2.374   1.286  0.00  0.00     0.000 A 
ATOM      4  C4  BNZ d   1      -1.423   2.005   0.030  0.00  0.00     0.000 A 
ATOM      5  C5  BNZ d   1      -0.876   0.866  -0.526  0.00  0.00     0.000 A 
ATOM      6  C6  BNZ d   1      -0.001   0.096   0.205  0.00  0.00     0.000 A 
ENDROOT
TORSDOF 0
ENDMDL
