MODEL 1
REMARK minimizedAffinity -2.71178007
REMARK minimizedRMSD -1
REMARK  0 active torsions:
REMARK  status: ('A' for Active; 'I' for Inactive)
ROOT
ATOM      1  C1  BNZ d   1      -0.220   0.543   1.769  0.00  0.00     0.000 A 
ATOM      2  C2  BNZ d   1       0.785  -0.018   1.026  0.00  0.00     0.000 A 
ATOM      3  C3  BNZ d   1       0.678  -0.120  -0.332  0.00  0.00     0.000 A 
ATOM      4  C4  BNZ d   1      -0.449   0.300  -0.942  0.00  0.00     0.000 A 
ATOM      5  C5  BNZ d   1      -1.475   0.859  -0.207  0.00  0.00     0.000 A 
ATOM      6  C6  BNZ d   1      -1.348   0.997   1.156  0.00  0.00     0.000 A 
ENDROOT
TORSDOF 0
ENDMDL
