MODEL 1
REMARK minimizedAffinity -2.48685479
REMARK minimizedRMSD -1
REMARK  0 active torsions:
REMARK  status: ('A' for Active; 'I' for Inactive)
ROOT
ATOM      1  C   UNL d   1      -0.974   2.702   0.324  0.00  0.00     0.124 A 
ATOM      2  C1  UNL d   1      -1.890   1.677   0.517  0.00  0.00     0.062 A 
ATOM      3  C2  UNL d   1      -1.602   0.389   0.075  0.00  0.00     0.162 A 
ATOM      4  C3  UNL d   1      -0.392   0.117  -0.563  0.00  0.00    -0.034 A 
ATOM      5  C4  UNL d   1       0.524   1.153  -0.754  0.00  0.00     0.162 A 
ATOM      6  C5  UNL d   1       0.232   2.439  -0.311  0.00  0.00     0.062 A 
ATOM      7  F   UNL d   1       1.118   3.428  -0.497  0.00  0.00    -0.097 F 
ATOM      8  F1  UNL d   1       1.697   0.927  -1.363  0.00  0.00    -0.096 F 
ATOM      9  I   UNL d   1       0.042  -1.807  -1.225  0.00  0.00    -0.060 I 
ATOM     10  F2  UNL d   1      -2.506  -0.582   0.275  0.00  0.00    -0.096 F 
ATOM     11  F3  UNL d   1      -3.056   1.929   1.129  0.00  0.00    -0.097 F 
ATOM     12  F4  UNL d   1      -1.253   3.941   0.749  0.00  0.00    -0.092 F 
ENDROOT
TORSDOF 0
ENDMDL
