MODEL 1
REMARK minimizedAffinity 3.26828003
REMARK minimizedRMSD -1
REMARK  0 active torsions:
REMARK  status: ('A' for Active; 'I' for Inactive)
ROOT
ATOM      1  C   UNL d   1      -0.200  -0.765  -0.482  0.00  0.00     0.124 A 
ATOM      2  C1  UNL d   1       0.465   0.439  -0.673  0.00  0.00     0.062 A 
ATOM      3  C2  UNL d   1       0.222   1.515   0.175  0.00  0.00     0.162 A 
ATOM      4  C3  UNL d   1      -0.690   1.392   1.224  0.00  0.00    -0.034 A 
ATOM      5  C4  UNL d   1      -1.356   0.179   1.409  0.00  0.00     0.162 A 
ATOM      6  C5  UNL d   1      -1.109  -0.893   0.558  0.00  0.00     0.062 A 
ATOM      7  F   UNL d   1      -1.752  -2.055   0.744  0.00  0.00    -0.097 F 
ATOM      8  F1  UNL d   1      -2.239   0.027   2.407  0.00  0.00    -0.096 F 
ATOM      9  I   UNL d   1      -1.057   2.999   2.495  0.00  0.00    -0.060 I 
ATOM     10  F2  UNL d   1       0.878   2.666  -0.033  0.00  0.00    -0.096 F 
ATOM     11  F3  UNL d   1       1.343   0.566  -1.678  0.00  0.00    -0.097 F 
ATOM     12  F4  UNL d   1       0.036  -1.798  -1.301  0.00  0.00    -0.092 F 
ENDROOT
TORSDOF 0
ENDMDL
