MODEL 1
REMARK minimizedAffinity -3.36831832
REMARK minimizedRMSD -1
REMARK  0 active torsions:
REMARK  status: ('A' for Active; 'I' for Inactive)
ROOT
ATOM      1  C   UNL d   1       0.089   2.856   0.371  0.00  0.00     0.124 A 
ATOM      2  C1  UNL d   1      -1.001   2.167   0.884  0.00  0.00     0.062 A 
ATOM      3  C2  UNL d   1      -1.111   0.792   0.699  0.00  0.00     0.162 A 
ATOM      4  C3  UNL d   1      -0.127   0.096  -0.003  0.00  0.00    -0.034 A 
ATOM      5  C4  UNL d   1       0.966   0.796  -0.518  0.00  0.00     0.162 A 
ATOM      6  C5  UNL d   1       1.071   2.170  -0.329  0.00  0.00     0.062 A 
ATOM      7  F   UNL d   1       2.125   2.834  -0.826  0.00  0.00    -0.097 F 
ATOM      8  F1  UNL d   1       1.931   0.158  -1.197  0.00  0.00    -0.096 F 
ATOM      9  I   UNL d   1      -0.287  -1.960  -0.283  0.00  0.00    -0.060 I 
ATOM     10  F2  UNL d   1      -2.175   0.152   1.206  0.00  0.00    -0.096 F 
ATOM     11  F3  UNL d   1      -1.952   2.828   1.561  0.00  0.00    -0.097 F 
ATOM     12  F4  UNL d   1       0.191   4.179   0.550  0.00  0.00    -0.092 F 
ENDROOT
TORSDOF 0
ENDMDL
