MODEL 1
REMARK minimizedAffinity -1.62540662
REMARK minimizedRMSD -1
REMARK  0 active torsions:
REMARK  status: ('A' for Active; 'I' for Inactive)
ROOT
ATOM      1  C   UNL d   1       0.686   2.332   0.397  0.00  0.00     0.124 A 
ATOM      2  C1  UNL d   1       1.610   1.329   0.143  0.00  0.00     0.062 A 
ATOM      3  C2  UNL d   1       1.218  -0.006   0.165  0.00  0.00     0.162 A 
ATOM      4  C3  UNL d   1      -0.107  -0.346   0.441  0.00  0.00    -0.034 A 
ATOM      5  C4  UNL d   1      -1.031   0.669   0.696  0.00  0.00     0.162 A 
ATOM      6  C5  UNL d   1      -0.634   2.002   0.673  0.00  0.00     0.062 A 
ATOM      7  F   UNL d   1      -1.528   2.970   0.918  0.00  0.00    -0.097 F 
ATOM      8  F1  UNL d   1      -2.312   0.377   0.965  0.00  0.00    -0.096 F 
ATOM      9  I   UNL d   1      -0.697  -2.342   0.475  0.00  0.00    -0.060 I 
ATOM     10  F2  UNL d   1       2.133  -0.955  -0.083  0.00  0.00    -0.096 F 
ATOM     11  F3  UNL d   1       2.886   1.646  -0.123  0.00  0.00    -0.097 F 
ATOM     12  F4  UNL d   1       1.066   3.616   0.376  0.00  0.00    -0.092 F 
ENDROOT
TORSDOF 0
ENDMDL
