MODEL 1
REMARK minimizedAffinity -1.27108312
REMARK minimizedRMSD -1
REMARK  0 active torsions:
REMARK  status: ('A' for Active; 'I' for Inactive)
ROOT
ATOM      1  C   UNL d   1       0.717   1.711  -0.057  0.00  0.00     0.124 A 
ATOM      2  C1  UNL d   1      -0.480   1.491   0.610  0.00  0.00     0.062 A 
ATOM      3  C2  UNL d   1      -0.967   0.196   0.766  0.00  0.00     0.162 A 
ATOM      4  C3  UNL d   1      -0.255  -0.890   0.255  0.00  0.00    -0.034 A 
ATOM      5  C4  UNL d   1       0.947  -0.660  -0.416  0.00  0.00     0.162 A 
ATOM      6  C5  UNL d   1       1.429   0.635  -0.569  0.00  0.00     0.062 A 
ATOM      7  F   UNL d   1       2.586   0.846  -1.214  0.00  0.00    -0.097 F 
ATOM      8  F1  UNL d   1       1.657  -1.681  -0.920  0.00  0.00    -0.096 F 
ATOM      9  I   UNL d   1      -0.979  -2.827   0.486  0.00  0.00    -0.060 I 
ATOM     10  F2  UNL d   1      -2.126   0.013   1.415  0.00  0.00    -0.096 F 
ATOM     11  F3  UNL d   1      -1.171   2.528   1.105  0.00  0.00    -0.097 F 
ATOM     12  F4  UNL d   1       1.182   2.957  -0.207  0.00  0.00    -0.092 F 
ENDROOT
TORSDOF 0
ENDMDL
