MODEL 1
REMARK minimizedAffinity -0.777659655
REMARK minimizedRMSD -1
REMARK  0 active torsions:
REMARK  status: ('A' for Active; 'I' for Inactive)
ROOT
ATOM      1  C   UNL d   1      -0.184   2.372   0.370  0.00  0.00     0.124 A 
ATOM      2  C1  UNL d   1      -1.192   1.715   1.062  0.00  0.00     0.062 A 
ATOM      3  C2  UNL d   1      -1.360   0.341   0.918  0.00  0.00     0.162 A 
ATOM      4  C3  UNL d   1      -0.517  -0.387   0.078  0.00  0.00    -0.034 A 
ATOM      5  C4  UNL d   1       0.494   0.281  -0.616  0.00  0.00     0.162 A 
ATOM      6  C5  UNL d   1       0.658   1.654  -0.468  0.00  0.00     0.062 A 
ATOM      7  F   UNL d   1       1.632   2.287  -1.138  0.00  0.00    -0.097 F 
ATOM      8  F1  UNL d   1       1.322  -0.389  -1.431  0.00  0.00    -0.096 F 
ATOM      9  I   UNL d   1      -0.765  -2.442  -0.140  0.00  0.00    -0.060 I 
ATOM     10  F2  UNL d   1      -2.343  -0.267   1.599  0.00  0.00    -0.096 F 
ATOM     11  F3  UNL d   1      -2.008   2.406   1.871  0.00  0.00    -0.097 F 
ATOM     12  F4  UNL d   1      -0.026   3.694   0.510  0.00  0.00    -0.092 F 
ENDROOT
TORSDOF 0
ENDMDL
