MODEL 1
REMARK minimizedAffinity 2.09639335
REMARK minimizedRMSD -1
REMARK  0 active torsions:
REMARK  status: ('A' for Active; 'I' for Inactive)
ROOT
ATOM      1  C   UNL d   1       0.074   3.175   0.545  0.00  0.00     0.124 A 
ATOM      2  C1  UNL d   1       0.866   2.405  -0.295  0.00  0.00     0.062 A 
ATOM      3  C2  UNL d   1       0.612   1.045  -0.444  0.00  0.00     0.162 A 
ATOM      4  C3  UNL d   1      -0.442   0.446   0.248  0.00  0.00    -0.034 A 
ATOM      5  C4  UNL d   1      -1.234   1.227   1.091  0.00  0.00     0.162 A 
ATOM      6  C5  UNL d   1      -0.975   2.586   1.237  0.00  0.00     0.062 A 
ATOM      7  F   UNL d   1      -1.741   3.329   2.048  0.00  0.00    -0.097 F 
ATOM      8  F1  UNL d   1      -2.254   0.684   1.771  0.00  0.00    -0.096 F 
ATOM      9  I   UNL d   1      -0.826  -1.588   0.027  0.00  0.00    -0.060 I 
ATOM     10  F2  UNL d   1       1.393   0.324  -1.262  0.00  0.00    -0.096 F 
ATOM     11  F3  UNL d   1       1.881   2.972  -0.963  0.00  0.00    -0.097 F 
ATOM     12  F4  UNL d   1       0.322   4.484   0.688  0.00  0.00    -0.092 F 
ENDROOT
TORSDOF 0
ENDMDL
