MODEL 1
REMARK minimizedAffinity 21.6491108
REMARK minimizedRMSD -1
REMARK  0 active torsions:
REMARK  status: ('A' for Active; 'I' for Inactive)
ROOT
ATOM      1  C   UNL d   1      -4.784  -0.256   3.591  0.00  0.00     0.124 A 
ATOM      2  C1  UNL d   1      -4.457  -0.921   2.417  0.00  0.00     0.062 A 
ATOM      3  C2  UNL d   1      -3.194  -0.765   1.853  0.00  0.00     0.162 A 
ATOM      4  C3  UNL d   1      -2.248   0.059   2.462  0.00  0.00    -0.034 A 
ATOM      5  C4  UNL d   1      -2.584   0.726   3.642  0.00  0.00     0.162 A 
ATOM      6  C5  UNL d   1      -3.848   0.567   4.202  0.00  0.00     0.062 A 
ATOM      7  F   UNL d   1      -4.162   1.211   5.335  0.00  0.00    -0.097 F 
ATOM      8  F1  UNL d   1      -1.698   1.526   4.253  0.00  0.00    -0.096 F 
ATOM      9  I   UNL d   1      -0.358   0.294   1.622  0.00  0.00    -0.060 I 
ATOM     10  F2  UNL d   1      -2.905  -1.421   0.719  0.00  0.00    -0.096 F 
ATOM     11  F3  UNL d   1      -5.360  -1.715   1.825  0.00  0.00    -0.097 F 
ATOM     12  F4  UNL d   1      -6.000  -0.406   4.131  0.00  0.00    -0.092 F 
ENDROOT
TORSDOF 0
ENDMDL
