MODEL 1
REMARK minimizedAffinity 5.58971214
REMARK minimizedRMSD -1
REMARK  0 active torsions:
REMARK  status: ('A' for Active; 'I' for Inactive)
ROOT
ATOM      1  C   UNL d   1       2.583   3.061  -2.522  0.00  0.00     0.124 A 
ATOM      2  C1  UNL d   1       3.829   2.489  -2.307  0.00  0.00     0.062 A 
ATOM      3  C2  UNL d   1       4.805   2.543  -3.299  0.00  0.00     0.162 A 
ATOM      4  C3  UNL d   1       4.538   3.173  -4.514  0.00  0.00    -0.034 A 
ATOM      5  C4  UNL d   1       3.282   3.746  -4.723  0.00  0.00     0.162 A 
ATOM      6  C5  UNL d   1       2.311   3.689  -3.729  0.00  0.00     0.062 A 
ATOM      7  F   UNL d   1       1.107   4.243  -3.938  0.00  0.00    -0.097 F 
ATOM      8  F1  UNL d   1       2.992   4.360  -5.880  0.00  0.00    -0.096 F 
ATOM      9  I   UNL d   1       5.993   3.257  -6.000  0.00  0.00    -0.060 I 
ATOM     10  F2  UNL d   1       6.000   1.981  -3.065  0.00  0.00    -0.096 F 
ATOM     11  F3  UNL d   1       4.095   1.880  -1.142  0.00  0.00    -0.097 F 
ATOM     12  F4  UNL d   1       1.647   3.006  -1.566  0.00  0.00    -0.092 F 
ENDROOT
TORSDOF 0
ENDMDL
