MODEL 1
REMARK minimizedAffinity -1.10569787
REMARK minimizedRMSD -1
REMARK  0 active torsions:
REMARK  status: ('A' for Active; 'I' for Inactive)
ROOT
ATOM      1  C   UNL d   1      -1.025   2.137   0.769  0.00  0.00     0.124 A 
ATOM      2  C1  UNL d   1      -1.646   0.914   0.981  0.00  0.00     0.062 A 
ATOM      3  C2  UNL d   1      -1.113  -0.246   0.427  0.00  0.00     0.162 A 
ATOM      4  C3  UNL d   1       0.047  -0.189  -0.344  0.00  0.00    -0.034 A 
ATOM      5  C4  UNL d   1       0.665   1.045  -0.554  0.00  0.00     0.162 A 
ATOM      6  C5  UNL d   1       0.129   2.202   0.002  0.00  0.00     0.062 A 
ATOM      7  F   UNL d   1       0.730   3.383  -0.204  0.00  0.00    -0.097 F 
ATOM      8  F1  UNL d   1       1.783   1.135  -1.291  0.00  0.00    -0.096 F 
ATOM      9  I   UNL d   1       0.847  -1.922  -1.175  0.00  0.00    -0.060 I 
ATOM     10  F2  UNL d   1      -1.734  -1.415   0.649  0.00  0.00    -0.096 F 
ATOM     11  F3  UNL d   1      -2.762   0.849   1.722  0.00  0.00    -0.097 F 
ATOM     12  F4  UNL d   1      -1.541   3.252   1.303  0.00  0.00    -0.092 F 
ENDROOT
TORSDOF 0
ENDMDL
