MODEL 1
REMARK minimizedAffinity 1.26977766
REMARK minimizedRMSD -1
REMARK  0 active torsions:
REMARK  status: ('A' for Active; 'I' for Inactive)
ROOT
ATOM      1  C   UNL d   1       0.017   2.129   0.255  0.00  0.00     0.124 A 
ATOM      2  C1  UNL d   1       0.971   1.240  -0.220  0.00  0.00     0.062 A 
ATOM      3  C2  UNL d   1       0.662  -0.109  -0.363  0.00  0.00     0.162 A 
ATOM      4  C3  UNL d   1      -0.608  -0.579  -0.030  0.00  0.00    -0.034 A 
ATOM      5  C4  UNL d   1      -1.562   0.320   0.449  0.00  0.00     0.162 A 
ATOM      6  C5  UNL d   1      -1.249   1.668   0.590  0.00  0.00     0.062 A 
ATOM      7  F   UNL d   1      -2.172   2.525   1.050  0.00  0.00    -0.097 F 
ATOM      8  F1  UNL d   1      -2.794  -0.098   0.778  0.00  0.00    -0.096 F 
ATOM      9  I   UNL d   1      -1.074  -2.596  -0.241  0.00  0.00    -0.060 I 
ATOM     10  F2  UNL d   1       1.604  -0.945  -0.825  0.00  0.00    -0.096 F 
ATOM     11  F3  UNL d   1       2.195   1.683  -0.543  0.00  0.00    -0.097 F 
ATOM     12  F4  UNL d   1       0.317   3.427   0.392  0.00  0.00    -0.092 F 
ENDROOT
TORSDOF 0
ENDMDL
