MODEL 1
REMARK minimizedAffinity -2.23611784
REMARK minimizedRMSD -1
REMARK  0 active torsions:
REMARK  status: ('A' for Active; 'I' for Inactive)
ROOT
ATOM      1  C   UNL d   1      -0.617   0.969   1.127  0.00  0.00     0.124 A 
ATOM      2  C1  UNL d   1       0.265   1.109   0.064  0.00  0.00     0.062 A 
ATOM      3  C2  UNL d   1       0.470   0.054  -0.820  0.00  0.00     0.162 A 
ATOM      4  C3  UNL d   1      -0.210  -1.152  -0.646  0.00  0.00    -0.034 A 
ATOM      5  C4  UNL d   1      -1.095  -1.286   0.425  0.00  0.00     0.162 A 
ATOM      6  C5  UNL d   1      -1.296  -0.228   1.306  0.00  0.00     0.062 A 
ATOM      7  F   UNL d   1      -2.149  -0.366   2.332  0.00  0.00    -0.097 F 
ATOM      8  F1  UNL d   1      -1.765  -2.431   0.621  0.00  0.00    -0.096 F 
ATOM      9  I   UNL d   1       0.093  -2.732  -1.966  0.00  0.00    -0.060 I 
ATOM     10  F2  UNL d   1       1.328   0.217  -1.837  0.00  0.00    -0.096 F 
ATOM     11  F3  UNL d   1       0.923   2.264  -0.110  0.00  0.00    -0.097 F 
ATOM     12  F4  UNL d   1      -0.811   1.985   1.977  0.00  0.00    -0.092 F 
ENDROOT
TORSDOF 0
ENDMDL
