MODEL 1
REMARK minimizedAffinity -1.64155996
REMARK minimizedRMSD -1
REMARK  0 active torsions:
REMARK  status: ('A' for Active; 'I' for Inactive)
ROOT
ATOM      1  C   UNL d   1       0.912   2.259   1.466  0.00  0.00     0.124 A 
ATOM      2  C1  UNL d   1      -0.394   1.930   1.131  0.00  0.00     0.062 A 
ATOM      3  C2  UNL d   1      -0.673   0.720   0.504  0.00  0.00     0.162 A 
ATOM      4  C3  UNL d   1       0.358  -0.172   0.207  0.00  0.00    -0.034 A 
ATOM      5  C4  UNL d   1       1.669   0.166   0.546  0.00  0.00     0.162 A 
ATOM      6  C5  UNL d   1       1.942   1.377   1.173  0.00  0.00     0.062 A 
ATOM      7  F   UNL d   1       3.205   1.692   1.495  0.00  0.00    -0.097 F 
ATOM      8  F1  UNL d   1       2.684  -0.669   0.275  0.00  0.00    -0.096 F 
ATOM      9  I   UNL d   1      -0.054  -1.984  -0.732  0.00  0.00    -0.060 I 
ATOM     10  F2  UNL d   1      -1.944   0.428   0.192  0.00  0.00    -0.096 F 
ATOM     11  F3  UNL d   1      -1.391   2.782   1.413  0.00  0.00    -0.097 F 
ATOM     12  F4  UNL d   1       1.177   3.425   2.069  0.00  0.00    -0.092 F 
ENDROOT
TORSDOF 0
ENDMDL
