MODEL 1
REMARK minimizedAffinity -0.252372712
REMARK minimizedRMSD -1
REMARK  0 active torsions:
REMARK  status: ('A' for Active; 'I' for Inactive)
ROOT
ATOM      1  C   UNL d   1      -1.492   2.452   1.271  0.00  0.00     0.124 A 
ATOM      2  C1  UNL d   1      -0.188   1.978   1.271  0.00  0.00     0.062 A 
ATOM      3  C2  UNL d   1       0.128   0.797   0.605  0.00  0.00     0.162 A 
ATOM      4  C3  UNL d   1      -0.863   0.082  -0.068  0.00  0.00    -0.034 A 
ATOM      5  C4  UNL d   1      -2.173   0.564  -0.062  0.00  0.00     0.162 A 
ATOM      6  C5  UNL d   1      -2.484   1.745   0.605  0.00  0.00     0.062 A 
ATOM      7  F   UNL d   1      -3.745   2.201   0.605  0.00  0.00    -0.097 F 
ATOM      8  F1  UNL d   1      -3.150  -0.099  -0.698  0.00  0.00    -0.096 F 
ATOM      9  I   UNL d   1      -0.395  -1.684  -1.065  0.00  0.00    -0.060 I 
ATOM     10  F2  UNL d   1       1.397   0.363   0.621  0.00  0.00    -0.096 F 
ATOM     11  F3  UNL d   1       0.772   2.659   1.914  0.00  0.00    -0.097 F 
ATOM     12  F4  UNL d   1      -1.794   3.587   1.914  0.00  0.00    -0.092 F 
ENDROOT
TORSDOF 0
ENDMDL
