MODEL 1
REMARK minimizedAffinity -2.80753565
REMARK minimizedRMSD -1
REMARK  0 active torsions:
REMARK  status: ('A' for Active; 'I' for Inactive)
ROOT
ATOM      1  C   UNL d   1       0.836   2.178   0.196  0.00  0.00     0.124 A 
ATOM      2  C1  UNL d   1      -0.470   2.019  -0.248  0.00  0.00     0.062 A 
ATOM      3  C2  UNL d   1      -0.975   0.746  -0.495  0.00  0.00     0.162 A 
ATOM      4  C3  UNL d   1      -0.175  -0.379  -0.298  0.00  0.00    -0.034 A 
ATOM      5  C4  UNL d   1       1.137  -0.211   0.148  0.00  0.00     0.162 A 
ATOM      6  C5  UNL d   1       1.638   1.063   0.393  0.00  0.00     0.062 A 
ATOM      7  F   UNL d   1       2.900   1.214   0.821  0.00  0.00    -0.097 F 
ATOM      8  F1  UNL d   1       1.934  -1.272   0.348  0.00  0.00    -0.096 F 
ATOM      9  I   UNL d   1      -0.927  -2.284  -0.666  0.00  0.00    -0.060 I 
ATOM     10  F2  UNL d   1      -2.241   0.623  -0.923  0.00  0.00    -0.096 F 
ATOM     11  F3  UNL d   1      -1.246   3.095  -0.440  0.00  0.00    -0.097 F 
ATOM     12  F4  UNL d   1       1.320   3.404   0.432  0.00  0.00    -0.092 F 
ENDROOT
TORSDOF 0
ENDMDL
