MODEL 1
REMARK minimizedAffinity 1.47542179
REMARK minimizedRMSD -1
REMARK  0 active torsions:
REMARK  status: ('A' for Active; 'I' for Inactive)
ROOT
ATOM      1  C   UNL d   1       0.638  -3.489  -1.677  0.00  0.00     0.124 A 
ATOM      2  C1  UNL d   1      -0.593  -2.987  -2.073  0.00  0.00     0.062 A 
ATOM      3  C2  UNL d   1      -1.120  -1.856  -1.455  0.00  0.00     0.162 A 
ATOM      4  C3  UNL d   1      -0.415  -1.220  -0.433  0.00  0.00    -0.034 A 
ATOM      5  C4  UNL d   1       0.823  -1.732  -0.039  0.00  0.00     0.162 A 
ATOM      6  C5  UNL d   1       1.345  -2.862  -0.660  0.00  0.00     0.062 A 
ATOM      7  F   UNL d   1       2.535  -3.346  -0.276  0.00  0.00    -0.097 F 
ATOM      8  F1  UNL d   1       1.527  -1.145   0.940  0.00  0.00    -0.096 F 
ATOM      9  I   UNL d   1      -1.199   0.470   0.494  0.00  0.00    -0.060 I 
ATOM     10  F2  UNL d   1      -2.312  -1.393  -1.859  0.00  0.00    -0.096 F 
ATOM     11  F3  UNL d   1      -1.278  -3.592  -3.054  0.00  0.00    -0.097 F 
ATOM     12  F4  UNL d   1       1.142  -4.578  -2.273  0.00  0.00    -0.092 F 
ENDROOT
TORSDOF 0
ENDMDL
