MODEL 1
REMARK minimizedAffinity 0.779530764
REMARK minimizedRMSD -1
REMARK  0 active torsions:
REMARK  status: ('A' for Active; 'I' for Inactive)
ROOT
ATOM      1  C   UNL d   1       0.639  -0.783  -0.782  0.00  0.00     0.124 A 
ATOM      2  C1  UNL d   1       1.211   0.473  -0.932  0.00  0.00     0.062 A 
ATOM      3  C2  UNL d   1       0.774   1.539  -0.151  0.00  0.00     0.162 A 
ATOM      4  C3  UNL d   1      -0.241   1.354   0.788  0.00  0.00    -0.034 A 
ATOM      5  C4  UNL d   1      -0.812   0.088   0.932  0.00  0.00     0.162 A 
ATOM      6  C5  UNL d   1      -0.371  -0.974   0.149  0.00  0.00     0.062 A 
ATOM      7  F   UNL d   1      -0.925  -2.187   0.295  0.00  0.00    -0.097 F 
ATOM      8  F1  UNL d   1      -1.790  -0.125   1.825  0.00  0.00    -0.096 F 
ATOM      9  I   UNL d   1      -0.898   2.945   1.957  0.00  0.00    -0.060 I 
ATOM     10  F2  UNL d   1       1.345   2.741  -0.317  0.00  0.00    -0.096 F 
ATOM     11  F3  UNL d   1       2.187   0.661  -1.832  0.00  0.00    -0.097 F 
ATOM     12  F4  UNL d   1       1.061  -1.806  -1.535  0.00  0.00    -0.092 F 
ENDROOT
TORSDOF 0
ENDMDL
