MODEL 1
REMARK minimizedAffinity 9.93886089
REMARK minimizedRMSD -1
REMARK  2 active torsions:
REMARK  status: ('A' for Active; 'I' for Inactive)
REMARK    1  A    between atoms: C2'_3  and  C1'_4 
REMARK    2  A    between atoms: C1'_4  and  C1_5 
ROOT
ATOM      1  C1  I4B d   1      -2.447   1.726  -0.164  0.00  0.00    -0.075 A 
ATOM      2  C2  I4B d   1      -1.696   0.940   0.675  0.00  0.00     0.003 A 
ATOM      3  C3  I4B d   1      -1.235  -0.327   0.241  0.00  0.00     0.002 A 
ATOM      4  C4  I4B d   1      -1.587  -0.786  -1.011  0.00  0.00    -0.004 A 
ATOM      5  C5  I4B d   1      -2.329   0.021  -1.869  0.00  0.00     0.002 A 
ATOM      6  C6  I4B d   1      -2.751   1.290  -1.447  0.00  0.00     0.003 A 
ENDROOT
BRANCH   1   7
ATOM      7  C1' I4B d   1      -2.946   3.043   0.338  0.00  0.00     0.060 C 
BRANCH   7   8
ATOM      8  C2' I4B d   1      -4.267   2.805   1.042  0.00  0.00    -0.013 C 
ATOM      9  C4' I4B d   1      -4.174   3.148   2.505  0.00  0.00     0.013 C 
ATOM     10  C3' I4B d   1      -5.313   3.633   0.356  0.00  0.00     0.013 C 
ENDBRANCH   7   8
ENDBRANCH   1   7
TORSDOF 2
ENDMDL
