MODEL 1
REMARK minimizedAffinity 18.4374542
REMARK minimizedRMSD -1
REMARK  2 active torsions:
REMARK  status: ('A' for Active; 'I' for Inactive)
REMARK    1  A    between atoms: C2'_3  and  C1'_4 
REMARK    2  A    between atoms: C1'_4  and  C1_5 
ROOT
ATOM      1  C1  I4B d   1      -0.498   1.650  -0.381  0.00  0.00    -0.075 A 
ATOM      2  C2  I4B d   1      -0.003   0.551   0.275  0.00  0.00     0.003 A 
ATOM      3  C3  I4B d   1       0.391  -0.597  -0.454  0.00  0.00     0.002 A 
ATOM      4  C4  I4B d   1       0.227  -0.622  -1.824  0.00  0.00    -0.004 A 
ATOM      5  C5  I4B d   1      -0.254   0.502  -2.490  0.00  0.00     0.002 A 
ATOM      6  C6  I4B d   1      -0.607   1.650  -1.766  0.00  0.00     0.003 A 
ENDROOT
BRANCH   1   7
ATOM      7  C1' I4B d   1      -0.936   2.833   0.423  0.00  0.00     0.060 C 
BRANCH   7   8
ATOM      8  C2' I4B d   1       0.242   3.778   0.541  0.00  0.00    -0.013 C 
ATOM      9  C4' I4B d   1      -0.181   5.207   0.325  0.00  0.00     0.013 C 
ATOM     10  C3' I4B d   1       0.849   3.593   1.900  0.00  0.00     0.013 C 
ENDBRANCH   7   8
ENDBRANCH   1   7
TORSDOF 2
ENDMDL
