MODEL 1
REMARK minimizedAffinity 10.9242868
REMARK minimizedRMSD -1
REMARK  2 active torsions:
REMARK  status: ('A' for Active; 'I' for Inactive)
REMARK    1  A    between atoms: C2'_3  and  C1'_4 
REMARK    2  A    between atoms: C1'_4  and  C1_5 
ROOT
ATOM      1  C1  I4B d   1       1.877  -1.356   3.082  0.00  0.00    -0.075 A 
ATOM      2  C2  I4B d   1       1.066  -2.427   3.365  0.00  0.00     0.003 A 
ATOM      3  C3  I4B d   1       1.531  -3.473   4.199  0.00  0.00     0.002 A 
ATOM      4  C4  I4B d   1       2.822  -3.432   4.684  0.00  0.00    -0.004 A 
ATOM      5  C5  I4B d   1       3.635  -2.334   4.416  0.00  0.00     0.002 A 
ATOM      6  C6  I4B d   1       3.155  -1.284   3.620  0.00  0.00     0.003 A 
ENDROOT
BRANCH   1   7
ATOM      7  C1' I4B d   1       1.366  -0.286   2.171  0.00  0.00     0.060 C 
BRANCH   7   8
ATOM      8  C2' I4B d   1       0.395  -0.925   1.198  0.00  0.00    -0.013 C 
ATOM      9  C4' I4B d   1      -0.769  -0.014   0.911  0.00  0.00     0.013 C 
ATOM     10  C3' I4B d   1       1.148  -1.254  -0.057  0.00  0.00     0.013 C 
ENDBRANCH   7   8
ENDBRANCH   1   7
TORSDOF 2
ENDMDL
