MODEL 1
REMARK minimizedAffinity 9.64737415
REMARK minimizedRMSD -1
REMARK  2 active torsions:
REMARK  status: ('A' for Active; 'I' for Inactive)
REMARK    1  A    between atoms: C2'_3  and  C1'_4 
REMARK    2  A    between atoms: C1'_4  and  C1_5 
ROOT
ATOM      1  C1  I4B d   1       1.147  -0.739   1.071  0.00  0.00    -0.075 A 
ATOM      2  C2  I4B d   1      -0.134  -0.310   1.311  0.00  0.00     0.003 A 
ATOM      3  C3  I4B d   1      -1.198  -0.741   0.481  0.00  0.00     0.002 A 
ATOM      4  C4  I4B d   1      -0.929  -1.556  -0.600  0.00  0.00    -0.004 A 
ATOM      5  C5  I4B d   1       0.368  -2.009  -0.828  0.00  0.00     0.002 A 
ATOM      6  C6  I4B d   1       1.411  -1.608   0.020  0.00  0.00     0.003 A 
ENDROOT
BRANCH   1   7
ATOM      7  C1' I4B d   1       2.251  -0.238   1.947  0.00  0.00     0.060 C 
BRANCH   7   8
ATOM      8  C2' I4B d   1       1.864  -0.509   3.387  0.00  0.00    -0.013 C 
ATOM      9  C4' I4B d   1       2.512  -1.769   3.897  0.00  0.00     0.013 C 
ATOM     10  C3' I4B d   1       2.271   0.679   4.207  0.00  0.00     0.013 C 
ENDBRANCH   7   8
ENDBRANCH   1   7
TORSDOF 2
ENDMDL
