MODEL 1
REMARK minimizedAffinity -4.19993687
REMARK minimizedRMSD -1
REMARK  0 active torsions:
REMARK  status: ('A' for Active; 'I' for Inactive)
ROOT
ATOM      1  C   UNL d   1       2.131  -1.964   2.772  0.00  0.00     0.077 C 
ATOM      2  C1  UNL d   1       1.145  -1.429   1.776  0.00  0.00    -0.074 A 
ATOM      3  C2  UNL d   1      -0.199  -1.254   2.119  0.00  0.00    -0.005 A 
ATOM      4  C3  UNL d   1      -1.103  -0.747   1.185  0.00  0.00     0.006 A 
ATOM      5  C4  UNL d   1      -0.672  -0.410  -0.099  0.00  0.00    -0.005 A 
ATOM      6  C5  UNL d   1       0.669  -0.577  -0.459  0.00  0.00    -0.074 A 
ATOM      7  C6  UNL d   1       1.151  -0.211  -1.832  0.00  0.00     0.077 C 
ATOM      8  C7  UNL d   1       1.572  -1.081   0.487  0.00  0.00    -0.001 A 
ENDROOT
TORSDOF 0
ENDMDL
