MODEL 1
REMARK minimizedAffinity -2.82282448
REMARK minimizedRMSD -1
REMARK  0 active torsions:
REMARK  status: ('A' for Active; 'I' for Inactive)
ROOT
ATOM      1  C   UNL d   1       2.346  -2.455   1.733  0.00  0.00     0.077 C 
ATOM      2  C1  UNL d   1       1.179  -1.524   1.589  0.00  0.00    -0.074 A 
ATOM      3  C2  UNL d   1       0.428  -1.136   2.703  0.00  0.00    -0.005 A 
ATOM      4  C3  UNL d   1      -0.649  -0.262   2.554  0.00  0.00     0.006 A 
ATOM      5  C4  UNL d   1      -0.985   0.232   1.293  0.00  0.00    -0.005 A 
ATOM      6  C5  UNL d   1      -0.245  -0.145   0.168  0.00  0.00    -0.074 A 
ATOM      7  C6  UNL d   1      -0.586   0.383  -1.194  0.00  0.00     0.077 C 
ATOM      8  C7  UNL d   1       0.840  -1.018   0.326  0.00  0.00    -0.001 A 
ENDROOT
TORSDOF 0
ENDMDL
