MODEL 1
REMARK minimizedAffinity -4.45188761
REMARK minimizedRMSD -1
REMARK  0 active torsions:
REMARK  status: ('A' for Active; 'I' for Inactive)
ROOT
ATOM      1  C   UNL d   1      -0.391   0.896  -0.601  0.00  0.00     0.077 C 
ATOM      2  C1  UNL d   1       0.654  -0.039  -0.070  0.00  0.00    -0.074 A 
ATOM      3  C2  UNL d   1       1.565  -0.662  -0.930  0.00  0.00    -0.005 A 
ATOM      4  C3  UNL d   1       2.537  -1.522  -0.420  0.00  0.00     0.006 A 
ATOM      5  C4  UNL d   1       2.609  -1.768   0.952  0.00  0.00    -0.005 A 
ATOM      6  C5  UNL d   1       1.707  -1.154   1.826  0.00  0.00    -0.074 A 
ATOM      7  C6  UNL d   1       1.776  -1.400   3.304  0.00  0.00     0.077 C 
ATOM      8  C7  UNL d   1       0.737  -0.285   1.308  0.00  0.00    -0.001 A 
ENDROOT
TORSDOF 0
ENDMDL
