MODEL 1
REMARK minimizedAffinity -4.08028793
REMARK minimizedRMSD -1
REMARK  0 active torsions:
REMARK  status: ('A' for Active; 'I' for Inactive)
ROOT
ATOM      1  C   UNL d   1      -1.572   0.193  -0.858  0.00  0.00     0.077 C 
ATOM      2  C1  UNL d   1      -0.350  -0.497  -0.328  0.00  0.00    -0.074 A 
ATOM      3  C2  UNL d   1       0.656  -0.941  -1.192  0.00  0.00    -0.005 A 
ATOM      4  C3  UNL d   1       1.791  -1.573  -0.684  0.00  0.00     0.006 A 
ATOM      5  C4  UNL d   1       1.930  -1.768   0.691  0.00  0.00    -0.005 A 
ATOM      6  C5  UNL d   1       0.935  -1.330   1.570  0.00  0.00    -0.074 A 
ATOM      7  C6  UNL d   1       1.074  -1.523   3.051  0.00  0.00     0.077 C 
ATOM      8  C7  UNL d   1      -0.199  -0.689   1.052  0.00  0.00    -0.001 A 
ENDROOT
TORSDOF 0
ENDMDL
