MODEL 1
REMARK minimizedAffinity -5.67396498
REMARK minimizedRMSD -1
REMARK  0 active torsions:
REMARK  status: ('A' for Active; 'I' for Inactive)
ROOT
ATOM      1  C   UNL d   1      -0.257   0.350  -1.294  0.00  0.00     0.077 C 
ATOM      2  C1  UNL d   1       0.084  -0.149   0.078  0.00  0.00    -0.074 A 
ATOM      3  C2  UNL d   1      -0.808   0.013   1.144  0.00  0.00    -0.005 A 
ATOM      4  C3  UNL d   1      -0.481  -0.466   2.413  0.00  0.00     0.006 A 
ATOM      5  C4  UNL d   1       0.738  -1.109   2.629  0.00  0.00    -0.005 A 
ATOM      6  C5  UNL d   1       1.642  -1.281   1.575  0.00  0.00    -0.074 A 
ATOM      7  C6  UNL d   1       2.952  -1.980   1.787  0.00  0.00     0.077 C 
ATOM      8  C7  UNL d   1       1.303  -0.804   0.301  0.00  0.00    -0.001 A 
ENDROOT
TORSDOF 0
ENDMDL
