MODEL 1
REMARK minimizedAffinity -1.28876889
REMARK minimizedRMSD -1
REMARK  0 active torsions:
REMARK  status: ('A' for Active; 'I' for Inactive)
ROOT
ATOM      1  C   UNL d   1       1.878  -1.339  -1.312  0.00  0.00     0.077 C 
ATOM      2  C1  UNL d   1       0.710  -0.440  -1.032  0.00  0.00    -0.074 A 
ATOM      3  C2  UNL d   1      -0.235  -0.772  -0.056  0.00  0.00    -0.005 A 
ATOM      4  C3  UNL d   1      -1.310   0.078   0.200  0.00  0.00     0.006 A 
ATOM      5  C4  UNL d   1      -1.452   1.267  -0.517  0.00  0.00    -0.005 A 
ATOM      6  C5  UNL d   1      -0.517   1.616  -1.497  0.00  0.00    -0.074 A 
ATOM      7  C6  UNL d   1      -0.649   2.894  -2.270  0.00  0.00     0.077 C 
ATOM      8  C7  UNL d   1       0.565   0.759  -1.743  0.00  0.00    -0.001 A 
ENDROOT
TORSDOF 0
ENDMDL
