MODEL 1
REMARK minimizedAffinity -3.74010849
REMARK minimizedRMSD -1
REMARK  0 active torsions:
REMARK  status: ('A' for Active; 'I' for Inactive)
ROOT
ATOM      1  C   UNL d   1      -0.391   0.437  -1.659  0.00  0.00     0.077 C 
ATOM      2  C1  UNL d   1      -0.025  -0.276  -0.391  0.00  0.00    -0.074 A 
ATOM      3  C2  UNL d   1      -0.646   0.047   0.820  0.00  0.00    -0.005 A 
ATOM      4  C3  UNL d   1      -0.302  -0.631   1.989  0.00  0.00     0.006 A 
ATOM      5  C4  UNL d   1       0.665  -1.637   1.959  0.00  0.00    -0.005 A 
ATOM      6  C5  UNL d   1       1.296  -1.974   0.758  0.00  0.00    -0.074 A 
ATOM      7  C6  UNL d   1       2.330  -3.059   0.706  0.00  0.00     0.077 C 
ATOM      8  C7  UNL d   1       0.940  -1.293  -0.414  0.00  0.00    -0.001 A 
ENDROOT
TORSDOF 0
ENDMDL
