MODEL 1
REMARK minimizedAffinity -5.84852028
REMARK minimizedRMSD -1
REMARK  0 active torsions:
REMARK  status: ('A' for Active; 'I' for Inactive)
ROOT
ATOM      1  C   UNL d   1       0.003   0.495  -1.136  0.00  0.00     0.077 C 
ATOM      2  C1  UNL d   1       0.912  -0.382  -0.327  0.00  0.00    -0.074 A 
ATOM      3  C2  UNL d   1       1.795  -1.270  -0.948  0.00  0.00    -0.005 A 
ATOM      4  C3  UNL d   1       2.640  -2.073  -0.182  0.00  0.00     0.006 A 
ATOM      5  C4  UNL d   1       2.611  -1.995   1.211  0.00  0.00    -0.005 A 
ATOM      6  C5  UNL d   1       1.736  -1.111   1.850  0.00  0.00    -0.074 A 
ATOM      7  C6  UNL d   1       1.699  -1.008   3.346  0.00  0.00     0.077 C 
ATOM      8  C7  UNL d   1       0.894  -0.303   1.073  0.00  0.00    -0.001 A 
ENDROOT
TORSDOF 0
ENDMDL
