MODEL 1
REMARK minimizedAffinity -1.95417345
REMARK minimizedRMSD -1
REMARK  0 active torsions:
REMARK  status: ('A' for Active; 'I' for Inactive)
ROOT
ATOM      1  C   UNL d   1       2.960  -1.650  -0.335  0.00  0.00     0.077 C 
ATOM      2  C1  UNL d   1       2.136  -1.420   0.897  0.00  0.00    -0.074 A 
ATOM      3  C2  UNL d   1       2.491  -2.000   2.119  0.00  0.00    -0.005 A 
ATOM      4  C3  UNL d   1       1.720  -1.769   3.258  0.00  0.00     0.006 A 
ATOM      5  C4  UNL d   1       0.587  -0.957   3.186  0.00  0.00    -0.005 A 
ATOM      6  C5  UNL d   1       0.217  -0.368   1.973  0.00  0.00    -0.074 A 
ATOM      7  C6  UNL d   1      -0.992   0.516   1.881  0.00  0.00     0.077 C 
ATOM      8  C7  UNL d   1       1.001  -0.599   0.835  0.00  0.00    -0.001 A 
ENDROOT
TORSDOF 0
ENDMDL
