MODEL 1
REMARK minimizedAffinity -5.00876188
REMARK minimizedRMSD -1
REMARK  0 active torsions:
REMARK  status: ('A' for Active; 'I' for Inactive)
ROOT
ATOM      1  C   UNL d   1      -0.638   0.987  -1.482  0.00  0.00     0.077 C 
ATOM      2  C1  UNL d   1      -0.363   0.233  -0.215  0.00  0.00    -0.074 A 
ATOM      3  C2  UNL d   1      -1.222   0.336   0.884  0.00  0.00    -0.005 A 
ATOM      4  C3  UNL d   1      -0.959  -0.379   2.052  0.00  0.00     0.006 A 
ATOM      5  C4  UNL d   1       0.165  -1.202   2.134  0.00  0.00    -0.005 A 
ATOM      6  C5  UNL d   1       1.035  -1.319   1.045  0.00  0.00    -0.074 A 
ATOM      7  C6  UNL d   1       2.242  -2.207   1.113  0.00  0.00     0.077 C 
ATOM      8  C7  UNL d   1       0.759  -0.603  -0.128  0.00  0.00    -0.001 A 
ENDROOT
TORSDOF 0
ENDMDL
