MODEL 1
REMARK minimizedAffinity -1.28246999
REMARK minimizedRMSD -1
REMARK  0 active torsions:
REMARK  status: ('A' for Active; 'I' for Inactive)
ROOT
ATOM      1  O1  BZF d   1      -2.005   3.557  -5.992  0.00  0.00    -0.204 OA
ATOM      2  C2  BZF d   1      -3.028   4.486  -5.975  0.00  0.00     0.174 A 
ATOM      3  C3  BZF d   1      -4.230   3.874  -6.000  0.00  0.00    -0.012 A 
ATOM      4  C3A BZF d   1      -3.941   2.474  -5.943  0.00  0.00    -0.107 A 
ATOM      5  C4  BZF d   1      -4.722   1.354  -5.921  0.00  0.00     0.055 A 
ATOM      6  C5  BZF d   1      -4.126   0.133  -5.937  0.00  0.00    -0.016 A 
ATOM      7  C6  BZF d   1      -2.754  -0.006  -5.981  0.00  0.00     0.022 A 
ATOM      8  C7  BZF d   1      -1.938   1.076  -5.999  0.00  0.00     0.029 A 
ATOM      9  C7A BZF d   1      -2.536   2.312  -5.949  0.00  0.00     0.058 A 
ENDROOT
TORSDOF 0
ENDMDL
