MODEL 1
REMARK minimizedAffinity 0.296193779
REMARK minimizedRMSD -1
REMARK  0 active torsions:
REMARK  status: ('A' for Active; 'I' for Inactive)
ROOT
ATOM      1  O1  BZF d   1      -2.586   3.595  -5.997  0.00  0.00    -0.204 OA
ATOM      2  C2  BZF d   1      -3.655   4.470  -5.978  0.00  0.00     0.174 A 
ATOM      3  C3  BZF d   1      -4.824   3.797  -6.000  0.00  0.00    -0.012 A 
ATOM      4  C3A BZF d   1      -4.464   2.414  -5.940  0.00  0.00    -0.107 A 
ATOM      5  C4  BZF d   1      -5.187   1.256  -5.914  0.00  0.00     0.055 A 
ATOM      6  C5  BZF d   1      -4.530   0.066  -5.930  0.00  0.00    -0.016 A 
ATOM      7  C6  BZF d   1      -3.153  -0.002  -5.978  0.00  0.00     0.022 A 
ATOM      8  C7  BZF d   1      -2.392   1.120  -6.000  0.00  0.00     0.029 A 
ATOM      9  C7A BZF d   1      -3.053   2.324  -5.950  0.00  0.00     0.058 A 
ENDROOT
TORSDOF 0
ENDMDL
