MODEL 1
REMARK minimizedAffinity -1.13171113
REMARK minimizedRMSD -1
REMARK  0 active torsions:
REMARK  status: ('A' for Active; 'I' for Inactive)
ROOT
ATOM      1  O1  BZF d   1      -4.877   0.480  -5.965  0.00  0.00    -0.204 OA
ATOM      2  C2  BZF d   1      -3.732  -0.294  -5.952  0.00  0.00     0.174 A 
ATOM      3  C3  BZF d   1      -2.630   0.482  -6.000  0.00  0.00    -0.012 A 
ATOM      4  C3A BZF d   1      -3.115   1.828  -5.952  0.00  0.00    -0.107 A 
ATOM      5  C4  BZF d   1      -2.500   3.047  -5.951  0.00  0.00     0.055 A 
ATOM      6  C5  BZF d   1      -3.263   4.171  -5.971  0.00  0.00    -0.016 A 
ATOM      7  C6  BZF d   1      -4.641   4.113  -5.998  0.00  0.00     0.022 A 
ATOM      8  C7  BZF d   1      -5.296   2.926  -5.995  0.00  0.00     0.029 A 
ATOM      9  C7A BZF d   1      -4.528   1.789  -5.941  0.00  0.00     0.058 A 
ENDROOT
TORSDOF 0
ENDMDL
