MODEL 1
REMARK minimizedAffinity 10.0534086
REMARK minimizedRMSD -1
REMARK  0 active torsions:
REMARK  status: ('A' for Active; 'I' for Inactive)
ROOT
ATOM      1  O1  BZF d   1      -4.868  -2.626  -3.934  0.00  0.00    -0.204 OA
ATOM      2  C2  BZF d   1      -3.740  -2.006  -3.430  0.00  0.00     0.174 A 
ATOM      3  C3  BZF d   1      -2.627  -2.683  -3.778  0.00  0.00    -0.012 A 
ATOM      4  C3A BZF d   1      -3.080  -3.743  -4.625  0.00  0.00    -0.107 A 
ATOM      5  C4  BZF d   1      -2.442  -4.746  -5.298  0.00  0.00     0.055 A 
ATOM      6  C5  BZF d   1      -3.182  -5.661  -5.977  0.00  0.00    -0.016 A 
ATOM      7  C6  BZF d   1      -4.560  -5.607  -6.000  0.00  0.00     0.022 A 
ATOM      8  C7  BZF d   1      -5.238  -4.629  -5.352  0.00  0.00     0.029 A 
ATOM      9  C7A BZF d   1      -4.491  -3.683  -4.692  0.00  0.00     0.058 A 
ENDROOT
TORSDOF 0
ENDMDL
