MODEL 1
REMARK minimizedAffinity -1.58873415
REMARK minimizedRMSD -1
REMARK  0 active torsions:
REMARK  status: ('A' for Active; 'I' for Inactive)
ROOT
ATOM      1  O1  BZF d   1      -4.676   5.393  -5.932  0.00  0.00    -0.204 OA
ATOM      2  C2  BZF d   1      -3.421   5.971  -5.945  0.00  0.00     0.174 A 
ATOM      3  C3  BZF d   1      -2.459   5.027  -5.916  0.00  0.00    -0.012 A 
ATOM      4  C3A BZF d   1      -3.155   3.778  -5.977  0.00  0.00    -0.107 A 
ATOM      5  C4  BZF d   1      -2.746   2.475  -5.999  0.00  0.00     0.055 A 
ATOM      6  C5  BZF d   1      -3.681   1.489  -5.987  0.00  0.00    -0.016 A 
ATOM      7  C6  BZF d   1      -5.031   1.770  -5.948  0.00  0.00     0.022 A 
ATOM      8  C7  BZF d   1      -5.485   3.046  -5.931  0.00  0.00     0.029 A 
ATOM      9  C7A BZF d   1      -4.543   4.045  -5.976  0.00  0.00     0.058 A 
ENDROOT
TORSDOF 0
ENDMDL
