MODEL 1
REMARK minimizedAffinity 2.65818763
REMARK minimizedRMSD -1
REMARK  0 active torsions:
REMARK  status: ('A' for Active; 'I' for Inactive)
ROOT
ATOM      1  O1  BZF d   1       4.426  -0.707  -1.415  0.00  0.00    -0.204 OA
ATOM      2  C2  BZF d   1       4.153  -2.041  -1.650  0.00  0.00     0.174 A 
ATOM      3  C3  BZF d   1       2.874  -2.330  -1.335  0.00  0.00    -0.012 A 
ATOM      4  C3A BZF d   1       2.286  -1.079  -0.962  0.00  0.00    -0.107 A 
ATOM      5  C4  BZF d   1       1.033  -0.713  -0.562  0.00  0.00     0.055 A 
ATOM      6  C5  BZF d   1       0.806   0.578  -0.202  0.00  0.00    -0.016 A 
ATOM      7  C6  BZF d   1       1.809   1.525  -0.224  0.00  0.00     0.022 A 
ATOM      8  C7  BZF d   1       3.066   1.210  -0.618  0.00  0.00     0.029 A 
ATOM      9  C7A BZF d   1       3.291  -0.086  -1.015  0.00  0.00     0.058 A 
ENDROOT
TORSDOF 0
ENDMDL
