MODEL 1
REMARK minimizedAffinity -3.91624451
REMARK minimizedRMSD -1
REMARK  0 active torsions:
REMARK  status: ('A' for Active; 'I' for Inactive)
ROOT
ATOM      1  O1  BZF d   1      -4.784   3.609  -5.956  0.00  0.00    -0.204 OA
ATOM      2  C2  BZF d   1      -3.521   4.168  -5.951  0.00  0.00     0.174 A 
ATOM      3  C3  BZF d   1      -2.573   3.209  -5.911  0.00  0.00    -0.012 A 
ATOM      4  C3A BZF d   1      -3.287   1.971  -5.982  0.00  0.00    -0.107 A 
ATOM      5  C4  BZF d   1      -2.898   0.662  -5.999  0.00  0.00     0.055 A 
ATOM      6  C5  BZF d   1      -3.847  -0.309  -6.000  0.00  0.00    -0.016 A 
ATOM      7  C6  BZF d   1      -5.194  -0.009  -5.979  0.00  0.00     0.022 A 
ATOM      8  C7  BZF d   1      -5.629   1.275  -5.967  0.00  0.00     0.029 A 
ATOM      9  C7A BZF d   1      -4.672   2.259  -5.999  0.00  0.00     0.058 A 
ENDROOT
TORSDOF 0
ENDMDL
