MODEL 1
REMARK minimizedAffinity -2.18355513
REMARK minimizedRMSD -1
REMARK  0 active torsions:
REMARK  status: ('A' for Active; 'I' for Inactive)
ROOT
ATOM      1  O1  BZF d   1      -4.436   3.423  -5.959  0.00  0.00    -0.204 OA
ATOM      2  C2  BZF d   1      -3.120   3.845  -5.958  0.00  0.00     0.174 A 
ATOM      3  C3  BZF d   1      -2.280   2.791  -5.917  0.00  0.00    -0.012 A 
ATOM      4  C3A BZF d   1      -3.122   1.636  -5.984  0.00  0.00    -0.107 A 
ATOM      5  C4  BZF d   1      -2.874   0.293  -5.999  0.00  0.00     0.055 A 
ATOM      6  C5  BZF d   1      -3.922  -0.572  -5.996  0.00  0.00    -0.016 A 
ATOM      7  C6  BZF d   1      -5.228  -0.130  -5.973  0.00  0.00     0.022 A 
ATOM      8  C7  BZF d   1      -5.524   1.193  -5.963  0.00  0.00     0.029 A 
ATOM      9  C7A BZF d   1      -4.468   2.070  -5.999  0.00  0.00     0.058 A 
ENDROOT
TORSDOF 0
ENDMDL
