MODEL 1
REMARK minimizedAffinity -3.50592351
REMARK minimizedRMSD -1
REMARK  0 active torsions:
REMARK  status: ('A' for Active; 'I' for Inactive)
ROOT
ATOM      1  O1  BZF d   1      -3.805   3.208  -5.896  0.00  0.00    -0.204 OA
ATOM      2  C2  BZF d   1      -4.948   3.935  -5.624  0.00  0.00     0.174 A 
ATOM      3  C3  BZF d   1      -5.996   3.115  -5.406  0.00  0.00    -0.012 A 
ATOM      4  C3A BZF d   1      -5.456   1.791  -5.460  0.00  0.00    -0.107 A 
ATOM      5  C4  BZF d   1      -6.000   0.548  -5.305  0.00  0.00     0.055 A 
ATOM      6  C5  BZF d   1      -5.214  -0.545  -5.492  0.00  0.00    -0.016 A 
ATOM      7  C6  BZF d   1      -3.884  -0.431  -5.840  0.00  0.00     0.022 A 
ATOM      8  C7  BZF d   1      -3.299   0.781  -6.000  0.00  0.00     0.029 A 
ATOM      9  C7A BZF d   1      -4.082   1.887  -5.779  0.00  0.00     0.058 A 
ENDROOT
TORSDOF 0
ENDMDL
