MODEL 1
REMARK minimizedAffinity -1.50289965
REMARK minimizedRMSD -1
REMARK  0 active torsions:
REMARK  status: ('A' for Active; 'I' for Inactive)
ROOT
ATOM      1  O1  BZF d   1      -1.395  -3.206  -5.910  0.00  0.00    -0.204 OA
ATOM      2  C2  BZF d   1      -1.580  -4.575  -5.885  0.00  0.00     0.174 A 
ATOM      3  C3  BZF d   1      -2.893  -4.880  -5.849  0.00  0.00    -0.012 A 
ATOM      4  C3A BZF d   1      -3.574  -3.625  -5.944  0.00  0.00    -0.107 A 
ATOM      5  C4  BZF d   1      -4.892  -3.273  -5.975  0.00  0.00     0.055 A 
ATOM      6  C5  BZF d   1      -5.223  -1.955  -5.999  0.00  0.00    -0.016 A 
ATOM      7  C6  BZF d   1      -4.263  -0.965  -5.987  0.00  0.00     0.022 A 
ATOM      8  C7  BZF d   1      -2.942  -1.266  -5.961  0.00  0.00     0.029 A 
ATOM      9  C7A BZF d   1      -2.603  -2.597  -5.970  0.00  0.00     0.058 A 
ENDROOT
TORSDOF 0
ENDMDL
