MODEL 1
REMARK minimizedAffinity -3.80896211
REMARK minimizedRMSD -1
REMARK  0 active torsions:
REMARK  status: ('A' for Active; 'I' for Inactive)
ROOT
ATOM      1  O1  BZF d   1      -3.816  -0.628  -5.970  0.00  0.00    -0.204 OA
ATOM      2  C2  BZF d   1      -5.127  -1.063  -5.982  0.00  0.00     0.174 A 
ATOM      3  C3  BZF d   1      -5.978  -0.017  -5.940  0.00  0.00    -0.012 A 
ATOM      4  C3A BZF d   1      -5.147   1.147  -5.992  0.00  0.00    -0.107 A 
ATOM      5  C4  BZF d   1      -5.408   2.487  -5.998  0.00  0.00     0.055 A 
ATOM      6  C5  BZF d   1      -4.369   3.362  -5.981  0.00  0.00    -0.016 A 
ATOM      7  C6  BZF d   1      -3.059   2.933  -5.952  0.00  0.00     0.022 A 
ATOM      8  C7  BZF d   1      -2.750   1.614  -5.949  0.00  0.00     0.029 A 
ATOM      9  C7A BZF d   1      -3.797   0.726  -6.000  0.00  0.00     0.058 A 
ENDROOT
TORSDOF 0
ENDMDL
