MODEL 1
REMARK minimizedAffinity -0.507586241
REMARK minimizedRMSD -1
REMARK  0 active torsions:
REMARK  status: ('A' for Active; 'I' for Inactive)
ROOT
ATOM      1  O1  BZF d   1      -3.747   3.939  -5.931  0.00  0.00    -0.204 OA
ATOM      2  C2  BZF d   1      -5.109   4.167  -5.931  0.00  0.00     0.174 A 
ATOM      3  C3  BZF d   1      -5.790   3.005  -5.999  0.00  0.00    -0.012 A 
ATOM      4  C3A BZF d   1      -4.791   1.981  -5.951  0.00  0.00    -0.107 A 
ATOM      5  C4  BZF d   1      -4.844   0.617  -5.966  0.00  0.00     0.055 A 
ATOM      6  C5  BZF d   1      -3.683  -0.089  -5.982  0.00  0.00    -0.016 A 
ATOM      7  C6  BZF d   1      -2.453   0.536  -5.988  0.00  0.00     0.022 A 
ATOM      8  C7  BZF d   1      -2.350   1.887  -5.968  0.00  0.00     0.029 A 
ATOM      9  C7A BZF d   1      -3.522   2.603  -5.919  0.00  0.00     0.058 A 
ENDROOT
TORSDOF 0
ENDMDL
