MODEL 1
REMARK minimizedAffinity -3.83721876
REMARK minimizedRMSD -1
REMARK  0 active torsions:
REMARK  status: ('A' for Active; 'I' for Inactive)
ROOT
ATOM      1  O1  BZF d   1      -5.955   0.098  -5.978  0.00  0.00    -0.204 OA
ATOM      2  C2  BZF d   1      -5.185  -1.049  -5.991  0.00  0.00     0.174 A 
ATOM      3  C3  BZF d   1      -3.871  -0.743  -5.998  0.00  0.00    -0.012 A 
ATOM      4  C3A BZF d   1      -3.816   0.683  -5.897  0.00  0.00    -0.107 A 
ATOM      5  C4  BZF d   1      -2.790   1.582  -5.840  0.00  0.00     0.055 A 
ATOM      6  C5  BZF d   1      -3.075   2.910  -5.818  0.00  0.00    -0.016 A 
ATOM      7  C6  BZF d   1      -4.373   3.375  -5.857  0.00  0.00     0.022 A 
ATOM      8  C7  BZF d   1      -5.425   2.522  -5.908  0.00  0.00     0.029 A 
ATOM      9  C7A BZF d   1      -5.141   1.178  -5.897  0.00  0.00     0.058 A 
ENDROOT
TORSDOF 0
ENDMDL
