MODEL 1
REMARK minimizedAffinity -3.2233398
REMARK minimizedRMSD -1
REMARK  0 active torsions:
REMARK  status: ('A' for Active; 'I' for Inactive)
ROOT
ATOM      1  O1  BZF d   1      -5.993   0.390  -5.996  0.00  0.00    -0.204 OA
ATOM      2  C2  BZF d   1      -5.286  -0.797  -5.998  0.00  0.00     0.174 A 
ATOM      3  C3  BZF d   1      -3.974  -0.573  -5.782  0.00  0.00    -0.012 A 
ATOM      4  C3A BZF d   1      -3.867   0.834  -5.544  0.00  0.00    -0.107 A 
ATOM      5  C4  BZF d   1      -2.818   1.660  -5.254  0.00  0.00     0.055 A 
ATOM      6  C5  BZF d   1      -3.039   2.997  -5.154  0.00  0.00    -0.016 A 
ATOM      7  C6  BZF d   1      -4.292   3.542  -5.343  0.00  0.00     0.022 A 
ATOM      8  C7  BZF d   1      -5.364   2.763  -5.627  0.00  0.00     0.029 A 
ATOM      9  C7A BZF d   1      -5.150   1.408  -5.697  0.00  0.00     0.058 A 
ENDROOT
TORSDOF 0
ENDMDL
