MODEL 1
REMARK minimizedAffinity -3.38397336
REMARK minimizedRMSD -1
REMARK  0 active torsions:
REMARK  status: ('A' for Active; 'I' for Inactive)
ROOT
ATOM      1  O1  BZF d   1      -5.233   2.880  -5.904  0.00  0.00    -0.204 OA
ATOM      2  C2  BZF d   1      -3.990   3.483  -5.906  0.00  0.00     0.174 A 
ATOM      3  C3  BZF d   1      -3.009   2.558  -5.886  0.00  0.00    -0.012 A 
ATOM      4  C3A BZF d   1      -3.681   1.296  -5.962  0.00  0.00    -0.107 A 
ATOM      5  C4  BZF d   1      -3.246   0.002  -5.997  0.00  0.00     0.055 A 
ATOM      6  C5  BZF d   1      -4.161  -1.002  -5.998  0.00  0.00    -0.016 A 
ATOM      7  C6  BZF d   1      -5.517  -0.749  -5.960  0.00  0.00     0.022 A 
ATOM      8  C7  BZF d   1      -5.996   0.519  -5.930  0.00  0.00     0.029 A 
ATOM      9  C7A BZF d   1      -5.074   1.536  -5.962  0.00  0.00     0.058 A 
ENDROOT
TORSDOF 0
ENDMDL
