MODEL 1
REMARK minimizedAffinity -4.20406342
REMARK minimizedRMSD -1
REMARK  0 active torsions:
REMARK  status: ('A' for Active; 'I' for Inactive)
ROOT
ATOM      1  O1  BZF d   1      -5.256  -0.749  -5.992  0.00  0.00    -0.204 OA
ATOM      2  C2  BZF d   1      -4.389  -1.825  -5.983  0.00  0.00     0.174 A 
ATOM      3  C3  BZF d   1      -3.107  -1.406  -5.962  0.00  0.00    -0.012 A 
ATOM      4  C3A BZF d   1      -3.179   0.020  -5.864  0.00  0.00    -0.107 A 
ATOM      5  C4  BZF d   1      -2.236   1.004  -5.787  0.00  0.00     0.055 A 
ATOM      6  C5  BZF d   1      -2.635   2.303  -5.775  0.00  0.00    -0.016 A 
ATOM      7  C6  BZF d   1      -3.968   2.653  -5.844  0.00  0.00     0.022 A 
ATOM      8  C7  BZF d   1      -4.941   1.711  -5.916  0.00  0.00     0.029 A 
ATOM      9  C7A BZF d   1      -4.541   0.397  -5.895  0.00  0.00     0.058 A 
ENDROOT
TORSDOF 0
ENDMDL
