MODEL 1
REMARK minimizedAffinity -3.76752543
REMARK minimizedRMSD -1
REMARK  0 active torsions:
REMARK  status: ('A' for Active; 'I' for Inactive)
ROOT
ATOM      1  O1  BZF d   1      -3.226   3.174  -5.945  0.00  0.00    -0.204 OA
ATOM      2  C2  BZF d   1      -4.239   4.114  -5.938  0.00  0.00     0.174 A 
ATOM      3  C3  BZF d   1      -5.446   3.517  -6.000  0.00  0.00    -0.012 A 
ATOM      4  C3A BZF d   1      -5.174   2.113  -5.955  0.00  0.00    -0.107 A 
ATOM      5  C4  BZF d   1      -5.968   1.002  -5.966  0.00  0.00     0.055 A 
ATOM      6  C5  BZF d   1      -5.386  -0.226  -5.985  0.00  0.00    -0.016 A 
ATOM      7  C6  BZF d   1      -4.015  -0.379  -5.999  0.00  0.00     0.022 A 
ATOM      8  C7  BZF d   1      -3.186   0.693  -5.984  0.00  0.00     0.029 A 
ATOM      9  C7A BZF d   1      -3.772   1.934  -5.931  0.00  0.00     0.058 A 
ENDROOT
TORSDOF 0
ENDMDL
