MODEL 1
REMARK minimizedAffinity -1.74796629
REMARK minimizedRMSD -1
REMARK  0 active torsions:
REMARK  status: ('A' for Active; 'I' for Inactive)
ROOT
ATOM      1  O1  BZF d   1      -4.393   3.743  -5.978  0.00  0.00    -0.204 OA
ATOM      2  C2  BZF d   1      -3.016   3.844  -5.997  0.00  0.00     0.174 A 
ATOM      3  C3  BZF d   1      -2.445   2.623  -5.951  0.00  0.00    -0.012 A 
ATOM      4  C3A BZF d   1      -3.535   1.697  -5.993  0.00  0.00    -0.107 A 
ATOM      5  C4  BZF d   1      -3.608   0.333  -5.993  0.00  0.00     0.055 A 
ATOM      6  C5  BZF d   1      -4.830  -0.262  -5.967  0.00  0.00    -0.016 A 
ATOM      7  C6  BZF d   1      -5.996   0.474  -5.936  0.00  0.00     0.022 A 
ATOM      8  C7  BZF d   1      -5.974   1.829  -5.941  0.00  0.00     0.029 A 
ATOM      9  C7A BZF d   1      -4.742   2.434  -6.000  0.00  0.00     0.058 A 
ENDROOT
TORSDOF 0
ENDMDL
