MODEL 1
REMARK minimizedAffinity -2.28864527
REMARK minimizedRMSD -1
REMARK  0 active torsions:
REMARK  status: ('A' for Active; 'I' for Inactive)
ROOT
ATOM      1  C   UNL d   1       1.873   4.792  -5.996  0.00  0.00     0.077 C 
ATOM      2  C1  UNL d   1       3.314   4.376  -5.999  0.00  0.00    -0.074 A 
ATOM      3  C2  UNL d   1       4.338   5.329  -5.986  0.00  0.00    -0.005 A 
ATOM      4  C3  UNL d   1       5.673   4.927  -5.980  0.00  0.00     0.006 A 
ATOM      5  C4  UNL d   1       5.999   3.570  -5.987  0.00  0.00    -0.005 A 
ATOM      6  C5  UNL d   1       4.989   2.603  -5.999  0.00  0.00    -0.074 A 
ATOM      7  C6  UNL d   1       5.321   1.140  -5.997  0.00  0.00     0.077 C 
ATOM      8  C7  UNL d   1       3.649   3.014  -5.998  0.00  0.00    -0.001 A 
ENDROOT
TORSDOF 0
ENDMDL
