MODEL 1
REMARK minimizedAffinity 1.38329136
REMARK minimizedRMSD -1
REMARK  0 active torsions:
REMARK  status: ('A' for Active; 'I' for Inactive)
ROOT
ATOM      1  C   UNL d   1       4.752  -5.010  -2.311  0.00  0.00     0.077 C 
ATOM      2  C1  UNL d   1       4.336  -4.430  -0.991  0.00  0.00    -0.074 A 
ATOM      3  C2  UNL d   1       5.289  -3.999  -0.063  0.00  0.00    -0.005 A 
ATOM      4  C3  UNL d   1       4.887  -3.453   1.156  0.00  0.00     0.006 A 
ATOM      5  C4  UNL d   1       3.530  -3.332   1.458  0.00  0.00    -0.005 A 
ATOM      6  C5  UNL d   1       2.563  -3.757   0.542  0.00  0.00    -0.074 A 
ATOM      7  C6  UNL d   1       1.100  -3.625   0.847  0.00  0.00     0.077 C 
ATOM      8  C7  UNL d   1       2.975  -4.298  -0.683  0.00  0.00    -0.001 A 
ENDROOT
TORSDOF 0
ENDMDL
