MODEL 1
REMARK minimizedAffinity 9.90556431
REMARK minimizedRMSD -1
REMARK  0 active torsions:
REMARK  status: ('A' for Active; 'I' for Inactive)
ROOT
ATOM      1  C   UNL d   1       6.000  -1.731   4.892  0.00  0.00     0.077 C 
ATOM      2  C1  UNL d   1       5.494  -3.142   4.831  0.00  0.00    -0.074 A 
ATOM      3  C2  UNL d   1       5.267  -3.875   6.000  0.00  0.00    -0.005 A 
ATOM      4  C3  UNL d   1       4.787  -5.183   5.928  0.00  0.00     0.006 A 
ATOM      5  C4  UNL d   1       4.529  -5.769   4.688  0.00  0.00    -0.005 A 
ATOM      6  C5  UNL d   1       4.749  -5.051   3.508  0.00  0.00    -0.074 A 
ATOM      7  C6  UNL d   1       4.468  -5.663   2.168  0.00  0.00     0.077 C 
ATOM      8  C7  UNL d   1       5.225  -3.735   3.590  0.00  0.00    -0.001 A 
ENDROOT
TORSDOF 0
ENDMDL
