MODEL 1
REMARK minimizedAffinity 8.8933773
REMARK minimizedRMSD -1
REMARK  0 active torsions:
REMARK  status: ('A' for Active; 'I' for Inactive)
ROOT
ATOM      1  C   UNL d   1       0.727  -0.741   1.455  0.00  0.00     0.077 C 
ATOM      2  C1  UNL d   1       1.897  -1.678   1.507  0.00  0.00    -0.074 A 
ATOM      3  C2  UNL d   1       2.188  -2.525   0.432  0.00  0.00    -0.005 A 
ATOM      4  C3  UNL d   1       3.285  -3.384   0.491  0.00  0.00     0.006 A 
ATOM      5  C4  UNL d   1       4.101  -3.406   1.623  0.00  0.00    -0.005 A 
ATOM      6  C5  UNL d   1       3.826  -2.566   2.707  0.00  0.00    -0.074 A 
ATOM      7  C6  UNL d   1       4.698  -2.570   3.927  0.00  0.00     0.077 C 
ATOM      8  C7  UNL d   1       2.726  -1.701   2.637  0.00  0.00    -0.001 A 
ENDROOT
TORSDOF 0
ENDMDL
