MODEL 1
REMARK minimizedAffinity 6.28689575
REMARK minimizedRMSD -1
REMARK  0 active torsions:
REMARK  status: ('A' for Active; 'I' for Inactive)
ROOT
ATOM      1  C   UNL d   1       1.274   5.972  -5.999  0.00  0.00     0.077 C 
ATOM      2  C1  UNL d   1       2.600   5.272  -5.963  0.00  0.00    -0.074 A 
ATOM      3  C2  UNL d   1       3.796   5.997  -5.985  0.00  0.00    -0.005 A 
ATOM      4  C3  UNL d   1       5.022   5.333  -5.941  0.00  0.00     0.006 A 
ATOM      5  C4  UNL d   1       5.064   3.940  -5.874  0.00  0.00    -0.005 A 
ATOM      6  C5  UNL d   1       3.879   3.198  -5.850  0.00  0.00    -0.074 A 
ATOM      7  C6  UNL d   1       3.907   1.701  -5.768  0.00  0.00     0.077 C 
ATOM      8  C7  UNL d   1       2.651   3.873  -5.888  0.00  0.00    -0.001 A 
ENDROOT
TORSDOF 0
ENDMDL
