MODEL 1
REMARK minimizedAffinity 4.52029848
REMARK minimizedRMSD -1
REMARK  0 active torsions:
REMARK  status: ('A' for Active; 'I' for Inactive)
ROOT
ATOM      1  C   UNL d   1       4.965  -3.796   3.300  0.00  0.00     0.077 C 
ATOM      2  C1  UNL d   1       4.225  -3.628   2.006  0.00  0.00    -0.074 A 
ATOM      3  C2  UNL d   1       4.599  -4.344   0.865  0.00  0.00    -0.005 A 
ATOM      4  C3  UNL d   1       3.895  -4.184  -0.329  0.00  0.00     0.006 A 
ATOM      5  C4  UNL d   1       2.811  -3.307  -0.393  0.00  0.00    -0.005 A 
ATOM      6  C5  UNL d   1       2.422  -2.583   0.738  0.00  0.00    -0.074 A 
ATOM      7  C6  UNL d   1       1.253  -1.644   0.689  0.00  0.00     0.077 C 
ATOM      8  C7  UNL d   1       3.130  -2.755   1.936  0.00  0.00    -0.001 A 
ENDROOT
TORSDOF 0
ENDMDL
