MODEL 1
REMARK minimizedAffinity 10.0737314
REMARK minimizedRMSD -1
REMARK  0 active torsions:
REMARK  status: ('A' for Active; 'I' for Inactive)
ROOT
ATOM      1  C   UNL d   1      -0.610   1.890  -3.780  0.00  0.00     0.077 C 
ATOM      2  C1  UNL d   1       0.511   2.510  -4.560  0.00  0.00    -0.074 A 
ATOM      3  C2  UNL d   1       0.456   3.851  -4.956  0.00  0.00    -0.005 A 
ATOM      4  C3  UNL d   1       1.510   4.416  -5.673  0.00  0.00     0.006 A 
ATOM      5  C4  UNL d   1       2.629   3.649  -6.000  0.00  0.00    -0.005 A 
ATOM      6  C5  UNL d   1       2.703   2.308  -5.611  0.00  0.00    -0.074 A 
ATOM      7  C6  UNL d   1       3.902   1.472  -5.945  0.00  0.00     0.077 C 
ATOM      8  C7  UNL d   1       1.642   1.748  -4.885  0.00  0.00    -0.001 A 
ENDROOT
TORSDOF 0
ENDMDL
