MODEL 1
REMARK minimizedAffinity 5.86889362
REMARK minimizedRMSD -1
REMARK  0 active torsions:
REMARK  status: ('A' for Active; 'I' for Inactive)
ROOT
ATOM      1  C   UNL d   1       4.428  -5.109   1.178  0.00  0.00     0.077 C 
ATOM      2  C1  UNL d   1       3.770  -3.872   0.645  0.00  0.00    -0.074 A 
ATOM      3  C2  UNL d   1       2.381  -3.805   0.492  0.00  0.00    -0.005 A 
ATOM      4  C3  UNL d   1       1.782  -2.644   0.003  0.00  0.00     0.006 A 
ATOM      5  C4  UNL d   1       2.565  -1.539  -0.337  0.00  0.00    -0.005 A 
ATOM      6  C5  UNL d   1       3.955  -1.587  -0.189  0.00  0.00    -0.074 A 
ATOM      7  C6  UNL d   1       4.809  -0.406  -0.540  0.00  0.00     0.077 C 
ATOM      8  C7  UNL d   1       4.548  -2.755   0.309  0.00  0.00    -0.001 A 
ENDROOT
TORSDOF 0
ENDMDL
