MODEL 1
REMARK minimizedAffinity 7.40287495
REMARK minimizedRMSD -1
REMARK  0 active torsions:
REMARK  status: ('A' for Active; 'I' for Inactive)
ROOT
ATOM      1  C   UNL d   1       5.357   1.323  -5.997  0.00  0.00     0.077 C 
ATOM      2  C1  UNL d   1       4.183   2.256  -5.987  0.00  0.00    -0.074 A 
ATOM      3  C2  UNL d   1       4.367   3.642  -6.000  0.00  0.00    -0.005 A 
ATOM      4  C3  UNL d   1       3.265   4.498  -6.000  0.00  0.00     0.006 A 
ATOM      5  C4  UNL d   1       1.971   3.977  -5.987  0.00  0.00    -0.005 A 
ATOM      6  C5  UNL d   1       1.767   2.594  -5.975  0.00  0.00    -0.074 A 
ATOM      7  C6  UNL d   1       0.383   2.017  -5.971  0.00  0.00     0.077 C 
ATOM      8  C7  UNL d   1       2.879   1.740  -5.982  0.00  0.00    -0.001 A 
ENDROOT
TORSDOF 0
ENDMDL
