MODEL 1
REMARK minimizedAffinity 11.3639889
REMARK minimizedRMSD -1
REMARK  0 active torsions:
REMARK  status: ('A' for Active; 'I' for Inactive)
ROOT
ATOM      1  C   UNL d   1      -4.118   3.584   6.000  0.00  0.00     0.077 C 
ATOM      2  C1  UNL d   1      -3.957   2.712   4.791  0.00  0.00    -0.074 A 
ATOM      3  C2  UNL d   1      -2.784   1.978   4.584  0.00  0.00    -0.005 A 
ATOM      4  C3  UNL d   1      -2.652   1.164   3.460  0.00  0.00     0.006 A 
ATOM      5  C4  UNL d   1      -3.690   1.074   2.532  0.00  0.00    -0.005 A 
ATOM      6  C5  UNL d   1      -4.871   1.800   2.721  0.00  0.00    -0.074 A 
ATOM      7  C6  UNL d   1      -6.000   1.708   1.739  0.00  0.00     0.077 C 
ATOM      8  C7  UNL d   1      -4.998   2.611   3.858  0.00  0.00    -0.001 A 
ENDROOT
TORSDOF 0
ENDMDL
