MODEL 1
REMARK minimizedAffinity 1.6188693
REMARK minimizedRMSD -1
REMARK  0 active torsions:
REMARK  status: ('A' for Active; 'I' for Inactive)
ROOT
ATOM      1  C   UNL d   1       0.222  -4.180   2.181  0.00  0.00     0.020 A 
ATOM      2  C1  UNL d   1       0.793  -3.712   0.999  0.00  0.00     0.020 A 
ATOM      3  C2  UNL d   1       1.434  -2.472   0.977  0.00  0.00     0.034 A 
ATOM      4  C3  UNL d   1       1.505  -1.695   2.139  0.00  0.00     0.017 A 
ATOM      5  C4  UNL d   1       0.931  -2.166   3.325  0.00  0.00     0.017 A 
ATOM      6  C5  UNL d   1       0.291  -3.409   3.342  0.00  0.00     0.034 A 
ATOM      7 Cl   UNL d   1       0.979  -1.264   4.799  0.00  0.00    -0.070 Cl
ATOM      8 Cl1  UNL d   1       2.314  -0.171   2.039  0.00  0.00    -0.070 Cl
ENDROOT
TORSDOF 0
ENDMDL
