MODEL 1
REMARK minimizedAffinity 5.66677809
REMARK minimizedRMSD -1
REMARK  0 active torsions:
REMARK  status: ('A' for Active; 'I' for Inactive)
ROOT
ATOM      1  C   UNL d   1      -5.760  -6.000  -4.947  0.00  0.00     0.020 A 
ATOM      2  C1  UNL d   1      -5.181  -5.291  -5.999  0.00  0.00     0.020 A 
ATOM      3  C2  UNL d   1      -4.737  -3.982  -5.798  0.00  0.00     0.034 A 
ATOM      4  C3  UNL d   1      -4.872  -3.378  -4.543  0.00  0.00     0.017 A 
ATOM      5  C4  UNL d   1      -5.453  -4.090  -3.488  0.00  0.00     0.017 A 
ATOM      6  C5  UNL d   1      -5.895  -5.401  -3.694  0.00  0.00     0.034 A 
ATOM      7 Cl   UNL d   1      -5.653  -3.412  -1.911  0.00  0.00    -0.070 Cl
ATOM      8 Cl1  UNL d   1      -4.301  -1.757  -4.367  0.00  0.00    -0.070 Cl
ENDROOT
TORSDOF 0
ENDMDL
