MODEL 1
REMARK minimizedAffinity -1.72112727
REMARK minimizedRMSD -1
REMARK  0 active torsions:
REMARK  status: ('A' for Active; 'I' for Inactive)
ROOT
ATOM      1  C   UNL d   1      -5.999  -4.113  -5.312  0.00  0.00     0.020 A 
ATOM      2  C1  UNL d   1      -5.491  -5.412  -5.326  0.00  0.00     0.020 A 
ATOM      3  C2  UNL d   1      -4.983  -5.975  -4.153  0.00  0.00     0.034 A 
ATOM      4  C3  UNL d   1      -4.982  -5.240  -2.962  0.00  0.00     0.017 A 
ATOM      5  C4  UNL d   1      -5.492  -3.937  -2.950  0.00  0.00     0.017 A 
ATOM      6  C5  UNL d   1      -6.000  -3.378  -4.127  0.00  0.00     0.034 A 
ATOM      7 Cl   UNL d   1      -5.525  -2.968  -1.519  0.00  0.00    -0.070 Cl
ATOM      8 Cl1  UNL d   1      -4.338  -5.999  -1.550  0.00  0.00    -0.070 Cl
ENDROOT
TORSDOF 0
ENDMDL
