MODEL 1
REMARK minimizedAffinity 3.75381279
REMARK minimizedRMSD -1
REMARK  0 active torsions:
REMARK  status: ('A' for Active; 'I' for Inactive)
ROOT
ATOM      1  C   UNL d   1      -5.860  -4.207  -5.964  0.00  0.00     0.020 A 
ATOM      2  C1  UNL d   1      -5.078  -5.360  -6.000  0.00  0.00     0.020 A 
ATOM      3  C2  UNL d   1      -4.421  -5.794  -4.846  0.00  0.00     0.034 A 
ATOM      4  C3  UNL d   1      -4.546  -5.075  -3.652  0.00  0.00     0.017 A 
ATOM      5  C4  UNL d   1      -5.332  -3.917  -3.618  0.00  0.00     0.017 A 
ATOM      6  C5  UNL d   1      -5.987  -3.487  -4.776  0.00  0.00     0.034 A 
ATOM      7 Cl   UNL d   1      -5.534  -2.976  -2.182  0.00  0.00    -0.070 Cl
ATOM      8 Cl1  UNL d   1      -3.707  -5.669  -2.264  0.00  0.00    -0.070 Cl
ENDROOT
TORSDOF 0
ENDMDL
