MODEL 1
REMARK minimizedAffinity 6.0676856
REMARK minimizedRMSD -1
REMARK  0 active torsions:
REMARK  status: ('A' for Active; 'I' for Inactive)
ROOT
ATOM      1  C   UNL d   1       6.000   5.987  -2.406  0.00  0.00     0.020 A 
ATOM      2  C1  UNL d   1       5.395   5.993  -1.149  0.00  0.00     0.020 A 
ATOM      3  C2  UNL d   1       4.003   5.997  -1.044  0.00  0.00     0.034 A 
ATOM      4  C3  UNL d   1       3.210   5.995  -2.198  0.00  0.00     0.017 A 
ATOM      5  C4  UNL d   1       3.818   5.989  -3.459  0.00  0.00     0.017 A 
ATOM      6  C5  UNL d   1       5.213   5.985  -3.558  0.00  0.00     0.034 A 
ATOM      7 Cl   UNL d   1       2.906   5.986  -4.927  0.00  0.00    -0.070 Cl
ATOM      8 Cl1  UNL d   1       1.494   5.999  -1.994  0.00  0.00    -0.070 Cl
ENDROOT
TORSDOF 0
ENDMDL
