MODEL 1
REMARK minimizedAffinity 4.14761162
REMARK minimizedRMSD -1
REMARK  0 active torsions:
REMARK  status: ('A' for Active; 'I' for Inactive)
ROOT
ATOM      1  C   UNL d   1      -0.082  -3.489   2.573  0.00  0.00     0.020 A 
ATOM      2  C1  UNL d   1       0.713  -4.427   3.231  0.00  0.00     0.020 A 
ATOM      3  C2  UNL d   1       2.083  -4.202   3.377  0.00  0.00     0.034 A 
ATOM      4  C3  UNL d   1       2.663  -3.036   2.864  0.00  0.00     0.017 A 
ATOM      5  C4  UNL d   1       1.865  -2.095   2.204  0.00  0.00     0.017 A 
ATOM      6  C5  UNL d   1       0.493  -2.325   2.061  0.00  0.00     0.034 A 
ATOM      7 Cl   UNL d   1       2.509  -0.632   1.546  0.00  0.00    -0.070 Cl
ATOM      8 Cl1  UNL d   1       4.364  -2.823   3.081  0.00  0.00    -0.070 Cl
ENDROOT
TORSDOF 0
ENDMDL
