MODEL 1
REMARK minimizedAffinity -0.108770825
REMARK minimizedRMSD -1
REMARK  0 active torsions:
REMARK  status: ('A' for Active; 'I' for Inactive)
ROOT
ATOM      1  C   UNL d   1       5.358  -0.782  -4.599  0.00  0.00     0.020 A 
ATOM      2  C1  UNL d   1       4.073  -0.708  -4.064  0.00  0.00     0.020 A 
ATOM      3  C2  UNL d   1       3.361   0.493  -4.122  0.00  0.00     0.034 A 
ATOM      4  C3  UNL d   1       3.934   1.623  -4.715  0.00  0.00     0.017 A 
ATOM      5  C4  UNL d   1       5.225   1.548  -5.251  0.00  0.00     0.017 A 
ATOM      6  C5  UNL d   1       5.933   0.343  -5.191  0.00  0.00     0.034 A 
ATOM      7 Cl   UNL d   1       5.999   2.900  -5.999  0.00  0.00    -0.070 Cl
ATOM      8 Cl1  UNL d   1       2.997   3.074  -4.751  0.00  0.00    -0.070 Cl
ENDROOT
TORSDOF 0
ENDMDL
