MODEL 1
REMARK minimizedAffinity -1.85735762
REMARK minimizedRMSD -1
REMARK  0 active torsions:
REMARK  status: ('A' for Active; 'I' for Inactive)
ROOT
ATOM      1  C   UNL d   1      -5.249  -5.394  -5.868  0.00  0.00     0.020 A 
ATOM      2  C1  UNL d   1      -5.631  -4.058  -5.979  0.00  0.00     0.020 A 
ATOM      3  C2  UNL d   1      -5.858  -3.299  -4.828  0.00  0.00     0.034 A 
ATOM      4  C3  UNL d   1      -5.703  -3.876  -3.563  0.00  0.00     0.017 A 
ATOM      5  C4  UNL d   1      -5.320  -5.218  -3.453  0.00  0.00     0.017 A 
ATOM      6  C5  UNL d   1      -5.094  -5.973  -4.608  0.00  0.00     0.034 A 
ATOM      7 Cl   UNL d   1      -5.108  -6.000  -1.926  0.00  0.00    -0.070 Cl
ATOM      8 Cl1  UNL d   1      -6.000  -2.879  -2.183  0.00  0.00    -0.070 Cl
ENDROOT
TORSDOF 0
ENDMDL
