MODEL 1
REMARK minimizedAffinity -3.26423979
REMARK minimizedRMSD -1
REMARK  0 active torsions:
REMARK  status: ('A' for Active; 'I' for Inactive)
ROOT
ATOM      1  C   UNL d   1      -5.821  -4.165  -1.701  0.00  0.00     0.020 A 
ATOM      2  C1  UNL d   1      -5.324  -5.464  -1.796  0.00  0.00     0.020 A 
ATOM      3  C2  UNL d   1      -5.005  -6.000  -3.045  0.00  0.00     0.034 A 
ATOM      4  C3  UNL d   1      -5.183  -5.237  -4.205  0.00  0.00     0.017 A 
ATOM      5  C4  UNL d   1      -5.682  -3.933  -4.108  0.00  0.00     0.017 A 
ATOM      6  C5  UNL d   1      -6.000  -3.401  -2.854  0.00  0.00     0.034 A 
ATOM      7 Cl   UNL d   1      -5.929  -2.930  -5.494  0.00  0.00    -0.070 Cl
ATOM      8 Cl1  UNL d   1      -4.768  -5.963  -5.717  0.00  0.00    -0.070 Cl
ENDROOT
TORSDOF 0
ENDMDL
