MODEL 1
REMARK minimizedAffinity 3.79213476
REMARK minimizedRMSD -1
REMARK  0 active torsions:
REMARK  status: ('A' for Active; 'I' for Inactive)
ROOT
ATOM      1  C   UNL d   1       0.428  -4.447   1.627  0.00  0.00     0.020 A 
ATOM      2  C1  UNL d   1       1.548  -5.241   1.869  0.00  0.00     0.020 A 
ATOM      3  C2  UNL d   1       2.599  -4.749   2.646  0.00  0.00     0.034 A 
ATOM      4  C3  UNL d   1       2.532  -3.458   3.184  0.00  0.00     0.017 A 
ATOM      5  C4  UNL d   1       1.407  -2.662   2.940  0.00  0.00     0.017 A 
ATOM      6  C5  UNL d   1       0.358  -3.160   2.162  0.00  0.00     0.034 A 
ATOM      7 Cl   UNL d   1       1.252  -1.060   3.570  0.00  0.00    -0.070 Cl
ATOM      8 Cl1  UNL d   1       3.867  -2.914   4.135  0.00  0.00    -0.070 Cl
ENDROOT
TORSDOF 0
ENDMDL
