MODEL 1
REMARK minimizedAffinity -5.0570817
REMARK minimizedRMSD -1
REMARK  1 active torsions:
REMARK  status: ('A' for Active; 'I' for Inactive)
REMARK    1  A    between atoms: C3_4  and  O_7 
ROOT
ATOM      1  C   UNL d   1      -4.138   0.798   1.520  0.00  0.00    -0.033 A 
ATOM      2  C1  UNL d   1      -3.262   0.876   2.605  0.00  0.00     0.039 A 
ATOM      3  C2  UNL d   1      -3.754   1.150   3.883  0.00  0.00    -0.080 A 
ATOM      4  C3  UNL d   1      -5.121   1.343   4.062  0.00  0.00     0.150 A 
ATOM      5  C4  UNL d   1      -5.999   1.263   2.987  0.00  0.00    -0.007 A 
ATOM      6  C5  UNL d   1      -5.506   0.990   1.711  0.00  0.00     0.039 A 
ENDROOT
BRANCH   4   7
ATOM      7  O   UNL d   1      -5.646   1.618   5.290  0.00  0.00    -0.526 OA
ATOM      8  H5  UNL d   1      -4.918   1.671   5.931  0.00  0.00     0.418 HD
ENDBRANCH   4   7
TORSDOF 1
ENDMDL
