MODEL 1
REMARK minimizedAffinity 2.77249384
REMARK minimizedRMSD -1
REMARK  1 active torsions:
REMARK  status: ('A' for Active; 'I' for Inactive)
REMARK    1  A    between atoms: C3_4  and  O_7 
ROOT
ATOM      1  C   UNL d   1      -4.119   1.468   2.350  0.00  0.00    -0.033 A 
ATOM      2  C1  UNL d   1      -4.302   0.753   1.165  0.00  0.00     0.039 A 
ATOM      3  C2  UNL d   1      -3.462  -0.320   0.859  0.00  0.00    -0.080 A 
ATOM      4  C3  UNL d   1      -2.446  -0.667   1.746  0.00  0.00     0.150 A 
ATOM      5  C4  UNL d   1      -2.262   0.039   2.930  0.00  0.00    -0.007 A 
ATOM      6  C5  UNL d   1      -3.100   1.111   3.233  0.00  0.00     0.039 A 
ENDROOT
BRANCH   4   7
ATOM      7  O   UNL d   1      -1.599  -1.704   1.488  0.00  0.00    -0.526 OA
ATOM      8  H5  UNL d   1      -1.828  -2.080   0.622  0.00  0.00     0.418 HD
ENDBRANCH   4   7
TORSDOF 1
ENDMDL
