MODEL 1
REMARK minimizedAffinity 1.32018948
REMARK minimizedRMSD -1
REMARK  1 active torsions:
REMARK  status: ('A' for Active; 'I' for Inactive)
REMARK    1  A    between atoms: C3_4  and  O_7 
ROOT
ATOM      1  C   UNL d   1      -3.955   0.920   2.000  0.00  0.00    -0.033 A 
ATOM      2  C1  UNL d   1      -3.927  -0.169   1.127  0.00  0.00     0.039 A 
ATOM      3  C2  UNL d   1      -2.826  -1.028   1.113  0.00  0.00    -0.080 A 
ATOM      4  C3  UNL d   1      -1.762  -0.788   1.977  0.00  0.00     0.150 A 
ATOM      5  C4  UNL d   1      -1.784   0.293   2.853  0.00  0.00    -0.007 A 
ATOM      6  C5  UNL d   1      -2.884   1.150   2.864  0.00  0.00     0.039 A 
ENDROOT
BRANCH   4   7
ATOM      7  O   UNL d   1      -0.664  -1.596   1.997  0.00  0.00    -0.526 OA
ATOM      8  H5  UNL d   1      -0.775  -2.283   1.320  0.00  0.00     0.418 HD
ENDBRANCH   4   7
TORSDOF 1
ENDMDL
