MODEL 1
REMARK minimizedAffinity 4.71949148
REMARK minimizedRMSD -1
REMARK  1 active torsions:
REMARK  status: ('A' for Active; 'I' for Inactive)
REMARK    1  A    between atoms: C3_4  and  O_7 
ROOT
ATOM      1  C   UNL d   1       4.887   5.121  -2.108  0.00  0.00    -0.033 A 
ATOM      2  C1  UNL d   1       6.000   4.950  -2.934  0.00  0.00     0.039 A 
ATOM      3  C2  UNL d   1       5.856   4.349  -4.187  0.00  0.00    -0.080 A 
ATOM      4  C3  UNL d   1       4.596   3.927  -4.601  0.00  0.00     0.150 A 
ATOM      5  C4  UNL d   1       3.482   4.098  -3.785  0.00  0.00    -0.007 A 
ATOM      6  C5  UNL d   1       3.628   4.697  -2.534  0.00  0.00     0.039 A 
ENDROOT
BRANCH   4   7
ATOM      7  O   UNL d   1       4.407   3.331  -5.813  0.00  0.00    -0.526 OA
ATOM      8  H5  UNL d   1       5.268   3.253  -6.255  0.00  0.00     0.418 HD
ENDBRANCH   4   7
TORSDOF 1
ENDMDL
