MODEL 1
REMARK minimizedAffinity 2.48223686
REMARK minimizedRMSD -1
REMARK  1 active torsions:
REMARK  status: ('A' for Active; 'I' for Inactive)
REMARK    1  A    between atoms: C3_4  and  O_7 
ROOT
ATOM      1  C   UNL d   1      -3.888  -0.447   0.226  0.00  0.00    -0.033 A 
ATOM      2  C1  UNL d   1      -2.704  -1.035   0.676  0.00  0.00     0.039 A 
ATOM      3  C2  UNL d   1      -2.049  -0.521   1.797  0.00  0.00    -0.080 A 
ATOM      4  C3  UNL d   1      -2.588   0.579   2.459  0.00  0.00     0.150 A 
ATOM      5  C4  UNL d   1      -3.769   1.167   2.018  0.00  0.00    -0.007 A 
ATOM      6  C5  UNL d   1      -4.421   0.653   0.898  0.00  0.00     0.039 A 
ENDROOT
BRANCH   4   7
ATOM      7  O   UNL d   1      -1.982   1.118   3.554  0.00  0.00    -0.526 OA
ATOM      8  H5  UNL d   1      -1.162   0.627   3.725  0.00  0.00     0.418 HD
ENDBRANCH   4   7
TORSDOF 1
ENDMDL
