MODEL 1
REMARK minimizedAffinity 0.835531175
REMARK minimizedRMSD -1
REMARK  1 active torsions:
REMARK  status: ('A' for Active; 'I' for Inactive)
REMARK    1  A    between atoms: C3_4  and  O_7 
ROOT
ATOM      1  C   UNL d   1      -3.444   0.471   0.714  0.00  0.00    -0.033 A 
ATOM      2  C1  UNL d   1      -2.428  -0.456   0.953  0.00  0.00     0.039 A 
ATOM      3  C2  UNL d   1      -1.758  -0.459   2.178  0.00  0.00    -0.080 A 
ATOM      4  C3  UNL d   1      -2.113   0.468   3.154  0.00  0.00     0.150 A 
ATOM      5  C4  UNL d   1      -3.127   1.392   2.924  0.00  0.00    -0.007 A 
ATOM      6  C5  UNL d   1      -3.795   1.394   1.700  0.00  0.00     0.039 A 
ENDROOT
BRANCH   4   7
ATOM      7  O   UNL d   1      -1.485   0.506   4.363  0.00  0.00    -0.526 OA
ATOM      8  H5  UNL d   1      -0.788  -0.171   4.369  0.00  0.00     0.418 HD
ENDBRANCH   4   7
TORSDOF 1
ENDMDL
