MODEL 1
REMARK minimizedAffinity -3.33327842
REMARK minimizedRMSD -1
REMARK  1 active torsions:
REMARK  status: ('A' for Active; 'I' for Inactive)
REMARK    1  A    between atoms: C3_4  and  O_7 
ROOT
ATOM      1  C   UNL d   1      -2.635  -5.267  -5.032  0.00  0.00    -0.033 A 
ATOM      2  C1  UNL d   1      -1.938  -5.998  -5.996  0.00  0.00     0.039 A 
ATOM      3  C2  UNL d   1      -0.542  -6.000  -5.999  0.00  0.00    -0.080 A 
ATOM      4  C3  UNL d   1       0.144  -5.267  -5.034  0.00  0.00     0.150 A 
ATOM      5  C4  UNL d   1      -0.544  -4.540  -4.069  0.00  0.00    -0.007 A 
ATOM      6  C5  UNL d   1      -1.938  -4.539  -4.067  0.00  0.00     0.039 A 
ENDROOT
BRANCH   4   7
ATOM      7  O   UNL d   1       1.507  -5.234  -5.000  0.00  0.00    -0.526 OA
ATOM      8  H5  UNL d   1       1.846  -5.760  -5.744  0.00  0.00     0.418 HD
ENDBRANCH   4   7
TORSDOF 1
ENDMDL
