MODEL 1
REMARK minimizedAffinity -0.212408051
REMARK minimizedRMSD -1
REMARK  1 active torsions:
REMARK  status: ('A' for Active; 'I' for Inactive)
REMARK    1  A    between atoms: C3_4  and  O_7 
ROOT
ATOM      1  C   UNL d   1      -2.550  -0.840   1.285  0.00  0.00    -0.033 A 
ATOM      2  C1  UNL d   1      -2.862   0.257   2.090  0.00  0.00     0.039 A 
ATOM      3  C2  UNL d   1      -2.121   0.511   3.246  0.00  0.00    -0.080 A 
ATOM      4  C3  UNL d   1      -1.071  -0.339   3.584  0.00  0.00     0.150 A 
ATOM      5  C4  UNL d   1      -0.752  -1.431   2.785  0.00  0.00    -0.007 A 
ATOM      6  C5  UNL d   1      -1.493  -1.683   1.631  0.00  0.00     0.039 A 
ENDROOT
BRANCH   4   7
ATOM      7  O   UNL d   1      -0.322  -0.135   4.705  0.00  0.00    -0.526 OA
ATOM      8  H5  UNL d   1      -0.675   0.640   5.174  0.00  0.00     0.418 HD
ENDBRANCH   4   7
TORSDOF 1
ENDMDL
