MODEL 1
REMARK minimizedAffinity 3.64715576
REMARK minimizedRMSD -1
REMARK  1 active torsions:
REMARK  status: ('A' for Active; 'I' for Inactive)
REMARK    1  A    between atoms: C3_4  and  O_7 
ROOT
ATOM      1  C   UNL d   1      -1.687  -1.244   1.254  0.00  0.00    -0.033 A 
ATOM      2  C1  UNL d   1      -0.532  -0.691   1.810  0.00  0.00     0.039 A 
ATOM      3  C2  UNL d   1      -0.609   0.048   2.992  0.00  0.00    -0.080 A 
ATOM      4  C3  UNL d   1      -1.845   0.225   3.608  0.00  0.00     0.150 A 
ATOM      5  C4  UNL d   1      -2.999  -0.327   3.061  0.00  0.00    -0.007 A 
ATOM      6  C5  UNL d   1      -2.920  -1.064   1.880  0.00  0.00     0.039 A 
ENDROOT
BRANCH   4   7
ATOM      7  O   UNL d   1      -1.971   0.942   4.760  0.00  0.00    -0.526 OA
ATOM      8  H5  UNL d   1      -1.096   1.287   5.005  0.00  0.00     0.418 HD
ENDBRANCH   4   7
TORSDOF 1
ENDMDL
