MODEL 1
REMARK minimizedAffinity 3.65600061
REMARK minimizedRMSD -1
REMARK  1 active torsions:
REMARK  status: ('A' for Active; 'I' for Inactive)
REMARK    1  A    between atoms: C3_4  and  O_7 
ROOT
ATOM      1  C   UNL d   1       2.934   0.959   0.729  0.00  0.00    -0.033 A 
ATOM      2  C1  UNL d   1       3.622   1.148  -0.471  0.00  0.00     0.039 A 
ATOM      3  C2  UNL d   1       2.934   1.549  -1.618  0.00  0.00    -0.080 A 
ATOM      4  C3  UNL d   1       1.559   1.758  -1.551  0.00  0.00     0.150 A 
ATOM      5  C4  UNL d   1       0.867   1.575  -0.358  0.00  0.00    -0.007 A 
ATOM      6  C5  UNL d   1       1.556   1.173   0.785  0.00  0.00     0.039 A 
ENDROOT
BRANCH   4   7
ATOM      7  O   UNL d   1       0.843   2.145  -2.645  0.00  0.00    -0.526 OA
ATOM      8  H5  UNL d   1       1.448   2.203  -3.403  0.00  0.00     0.418 HD
ENDBRANCH   4   7
TORSDOF 1
ENDMDL
