MODEL 1
REMARK minimizedAffinity 2.88858986
REMARK minimizedRMSD -1
REMARK  1 active torsions:
REMARK  status: ('A' for Active; 'I' for Inactive)
REMARK    1  A    between atoms: C3_4  and  O_7 
ROOT
ATOM      1  C   UNL d   1      -1.409  -1.522   0.969  0.00  0.00    -0.033 A 
ATOM      2  C1  UNL d   1      -0.370  -1.956   1.795  0.00  0.00     0.039 A 
ATOM      3  C2  UNL d   1      -0.212  -1.407   3.069  0.00  0.00    -0.080 A 
ATOM      4  C3  UNL d   1      -1.099  -0.427   3.505  0.00  0.00     0.150 A 
ATOM      5  C4  UNL d   1      -2.139   0.007   2.690  0.00  0.00    -0.007 A 
ATOM      6  C5  UNL d   1      -2.295  -0.541   1.417  0.00  0.00     0.039 A 
ENDROOT
BRANCH   4   7
ATOM      7  O   UNL d   1      -0.983   0.141   4.739  0.00  0.00    -0.526 OA
ATOM      8  H5  UNL d   1      -0.203  -0.236   5.179  0.00  0.00     0.418 HD
ENDBRANCH   4   7
TORSDOF 1
ENDMDL
