MODEL 1
REMARK minimizedAffinity 9.68869591
REMARK minimizedRMSD -1
REMARK  1 active torsions:
REMARK  status: ('A' for Active; 'I' for Inactive)
REMARK    1  A    between atoms: C3_4  and  O_7 
ROOT
ATOM      1  C   UNL d   1       5.647   3.850  -4.543  0.00  0.00    -0.033 A 
ATOM      2  C1  UNL d   1       5.372   4.274  -3.241  0.00  0.00     0.039 A 
ATOM      3  C2  UNL d   1       4.159   3.938  -2.637  0.00  0.00    -0.080 A 
ATOM      4  C3  UNL d   1       3.231   3.178  -3.344  0.00  0.00     0.150 A 
ATOM      5  C4  UNL d   1       3.500   2.748  -4.639  0.00  0.00    -0.007 A 
ATOM      6  C5  UNL d   1       4.712   3.085  -5.241  0.00  0.00     0.039 A 
ENDROOT
BRANCH   4   7
ATOM      7  O   UNL d   1       2.032   2.829  -2.798  0.00  0.00    -0.526 OA
ATOM      8  H5  UNL d   1       1.973   3.220  -1.910  0.00  0.00     0.418 HD
ENDBRANCH   4   7
TORSDOF 1
ENDMDL
