MODEL 1
REMARK minimizedAffinity 2.31353068
REMARK minimizedRMSD -1
REMARK  1 active torsions:
REMARK  status: ('A' for Active; 'I' for Inactive)
REMARK    1  A    between atoms: C3_4  and  O_7 
ROOT
ATOM      1  C   UNL d   1       4.841   5.397  -2.917  0.00  0.00    -0.033 A 
ATOM      2  C1  UNL d   1       5.044   4.288  -3.741  0.00  0.00     0.039 A 
ATOM      3  C2  UNL d   1       4.074   3.286  -3.818  0.00  0.00    -0.080 A 
ATOM      4  C3  UNL d   1       2.908   3.405  -3.066  0.00  0.00     0.150 A 
ATOM      5  C4  UNL d   1       2.698   4.508  -2.245  0.00  0.00    -0.007 A 
ATOM      6  C5  UNL d   1       3.668   5.507  -2.170  0.00  0.00     0.039 A 
ENDROOT
BRANCH   4   7
ATOM      7  O   UNL d   1       1.936   2.450  -3.104  0.00  0.00    -0.526 OA
ATOM      8  H5  UNL d   1       2.231   1.734  -3.691  0.00  0.00     0.418 HD
ENDBRANCH   4   7
TORSDOF 1
ENDMDL
