MODEL 1
REMARK minimizedAffinity 5.31717825
REMARK minimizedRMSD -1
REMARK  1 active torsions:
REMARK  status: ('A' for Active; 'I' for Inactive)
REMARK    1  A    between atoms: C3_4  and  O_7 
ROOT
ATOM      1  C   UNL d   1      -3.000   0.458   2.372  0.00  0.00    -0.033 A 
ATOM      2  C1  UNL d   1      -2.133   0.565   3.462  0.00  0.00     0.039 A 
ATOM      3  C2  UNL d   1      -2.577   1.136   4.656  0.00  0.00    -0.080 A 
ATOM      4  C3  UNL d   1      -3.888   1.595   4.748  0.00  0.00     0.150 A 
ATOM      5  C4  UNL d   1      -4.758   1.489   3.667  0.00  0.00    -0.007 A 
ATOM      6  C5  UNL d   1      -4.313   0.919   2.475  0.00  0.00     0.039 A 
ENDROOT
BRANCH   4   7
ATOM      7  O   UNL d   1      -4.366   2.165   5.891  0.00  0.00    -0.526 OA
ATOM      8  H5  UNL d   1      -3.645   2.198   6.542  0.00  0.00     0.418 HD
ENDBRANCH   4   7
TORSDOF 1
ENDMDL
