MODEL 1
REMARK minimizedAffinity 2.25247288
REMARK minimizedRMSD -1
REMARK  1 active torsions:
REMARK  status: ('A' for Active; 'I' for Inactive)
REMARK    1  A    between atoms: C3_4  and  O_7 
ROOT
ATOM      1  C   UNL d   1      -4.294   5.487  -1.099  0.00  0.00    -0.033 A 
ATOM      2  C1  UNL d   1      -5.538   4.873  -1.257  0.00  0.00     0.039 A 
ATOM      3  C2  UNL d   1      -5.991   4.527  -2.531  0.00  0.00    -0.080 A 
ATOM      4  C3  UNL d   1      -5.192   4.799  -3.638  0.00  0.00     0.150 A 
ATOM      5  C4  UNL d   1      -3.949   5.407  -3.488  0.00  0.00    -0.007 A 
ATOM      6  C5  UNL d   1      -3.499   5.752  -2.214  0.00  0.00     0.039 A 
ENDROOT
BRANCH   4   7
ATOM      7  O   UNL d   1      -5.594   4.484  -4.902  0.00  0.00    -0.526 OA
ATOM      8  H5  UNL d   1      -6.483   4.097  -4.855  0.00  0.00     0.418 HD
ENDBRANCH   4   7
TORSDOF 1
ENDMDL
