MODEL 1
REMARK minimizedAffinity 1.60103893
REMARK minimizedRMSD -1
REMARK  1 active torsions:
REMARK  status: ('A' for Active; 'I' for Inactive)
REMARK    1  A    between atoms: C3_4  and  O_7 
ROOT
ATOM      1  C   UNL d   1       0.751  -4.851  -4.756  0.00  0.00    -0.033 A 
ATOM      2  C1  UNL d   1      -0.225  -4.099  -4.098  0.00  0.00     0.039 A 
ATOM      3  C2  UNL d   1      -1.576  -4.294  -4.393  0.00  0.00    -0.080 A 
ATOM      4  C3  UNL d   1      -1.937  -5.244  -5.344  0.00  0.00     0.150 A 
ATOM      5  C4  UNL d   1      -0.971  -6.000  -6.000  0.00  0.00    -0.007 A 
ATOM      6  C5  UNL d   1       0.378  -5.803  -5.705  0.00  0.00     0.039 A 
ENDROOT
BRANCH   4   7
ATOM      7  O   UNL d   1      -3.242  -5.467  -5.668  0.00  0.00    -0.526 OA
ATOM      8  H5  UNL d   1      -3.796  -4.853  -5.157  0.00  0.00     0.418 HD
ENDBRANCH   4   7
TORSDOF 1
ENDMDL
