MODEL 1
REMARK minimizedAffinity 3.64365458
REMARK minimizedRMSD -1
REMARK  1 active torsions:
REMARK  status: ('A' for Active; 'I' for Inactive)
REMARK    1  A    between atoms: C3_4  and  O_7 
ROOT
ATOM      1  C   UNL d   1      -5.077   4.488  -0.786  0.00  0.00    -0.033 A 
ATOM      2  C1  UNL d   1      -4.143   5.357  -1.354  0.00  0.00     0.039 A 
ATOM      3  C2  UNL d   1      -4.128   5.563  -2.735  0.00  0.00    -0.080 A 
ATOM      4  C3  UNL d   1      -5.051   4.896  -3.536  0.00  0.00     0.150 A 
ATOM      5  C4  UNL d   1      -5.987   4.032  -2.976  0.00  0.00    -0.007 A 
ATOM      6  C5  UNL d   1      -6.000   3.827  -1.598  0.00  0.00     0.039 A 
ENDROOT
BRANCH   4   7
ATOM      7  O   UNL d   1      -5.071   5.061  -4.889  0.00  0.00    -0.526 OA
ATOM      8  H5  UNL d   1      -4.350   5.664  -5.136  0.00  0.00     0.418 HD
ENDBRANCH   4   7
TORSDOF 1
ENDMDL
