MODEL 1
REMARK minimizedAffinity 4.37123013
REMARK minimizedRMSD -1
REMARK  1 active torsions:
REMARK  status: ('A' for Active; 'I' for Inactive)
REMARK    1  A    between atoms: C3_4  and  O_7 
ROOT
ATOM      1  C   UNL d   1      -2.579   0.088   2.969  0.00  0.00    -0.033 A 
ATOM      2  C1  UNL d   1      -1.875   0.425   4.127  0.00  0.00     0.039 A 
ATOM      3  C2  UNL d   1      -2.513   1.116   5.158  0.00  0.00    -0.080 A 
ATOM      4  C3  UNL d   1      -3.855   1.461   5.021  0.00  0.00     0.150 A 
ATOM      5  C4  UNL d   1      -4.564   1.124   3.873  0.00  0.00    -0.007 A 
ATOM      6  C5  UNL d   1      -3.924   0.436   2.843  0.00  0.00     0.039 A 
ENDROOT
BRANCH   4   7
ATOM      7  O   UNL d   1      -4.520   2.139   5.999  0.00  0.00    -0.526 OA
ATOM      8  H5  UNL d   1      -3.897   2.329   6.720  0.00  0.00     0.418 HD
ENDBRANCH   4   7
TORSDOF 1
ENDMDL
