MODEL 1
REMARK minimizedAffinity 10.9155283
REMARK minimizedRMSD -1
REMARK  1 active torsions:
REMARK  status: ('A' for Active; 'I' for Inactive)
REMARK    1  A    between atoms: C1_2  and  C2_3 
ROOT
ATOM      1  C2  UNL d   1      -1.164  -3.447   1.471  0.00  0.00    -0.076 A 
ATOM      2  C3  UNL d   1      -1.468  -2.404   0.579  0.00  0.00     0.004 A 
ATOM      3  C4  UNL d   1      -1.349  -2.580  -0.798  0.00  0.00    -0.003 A 
ATOM      4  C5  UNL d   1      -0.924  -3.802  -1.307  0.00  0.00     0.000 A 
ATOM      5  C6  UNL d   1      -0.635  -4.854  -0.438  0.00  0.00     0.000 A 
ATOM      6  C7  UNL d   1      -0.765  -4.698   0.953  0.00  0.00    -0.073 A 
ATOM      7  C8  UNL d   1      -0.434  -5.864   1.844  0.00  0.00     0.078 C 
ENDROOT
BRANCH   1   8
ATOM      8  C1  UNL d   1      -1.285  -3.190   2.956  0.00  0.00     0.053 C 
ATOM      9  C   UNL d   1      -2.370  -2.176   3.284  0.00  0.00     0.018 C 
ENDBRANCH   1   8
TORSDOF 1
ENDMDL
