MODEL 1
REMARK minimizedAffinity 5.68821764
REMARK minimizedRMSD -1
REMARK  1 active torsions:
REMARK  status: ('A' for Active; 'I' for Inactive)
REMARK    1  A    between atoms: C1_2  and  C2_3 
ROOT
ATOM      1  C2  UNL d   1      -1.732  -3.099   2.409  0.00  0.00    -0.076 A 
ATOM      2  C3  UNL d   1      -1.442  -4.451   2.662  0.00  0.00     0.004 A 
ATOM      3  C4  UNL d   1      -1.028  -5.300   1.636  0.00  0.00    -0.003 A 
ATOM      4  C5  UNL d   1      -0.897  -4.810   0.342  0.00  0.00     0.000 A 
ATOM      5  C6  UNL d   1      -1.163  -3.467   0.076  0.00  0.00     0.000 A 
ATOM      6  C7  UNL d   1      -1.566  -2.594   1.102  0.00  0.00    -0.073 A 
ATOM      7  C8  UNL d   1      -1.846  -1.157   0.758  0.00  0.00     0.078 C 
ENDROOT
BRANCH   1   8
ATOM      8  C1  UNL d   1      -2.203  -2.233   3.556  0.00  0.00     0.053 C 
ATOM      9  C   UNL d   1      -1.103  -1.961   4.570  0.00  0.00     0.018 C 
ENDBRANCH   1   8
TORSDOF 1
ENDMDL
