MODEL 1
REMARK minimizedAffinity 13.5804043
REMARK minimizedRMSD -1
REMARK  1 active torsions:
REMARK  status: ('A' for Active; 'I' for Inactive)
REMARK    1  A    between atoms: C1_2  and  C2_3 
ROOT
ATOM      1  C2  UNL d   1      -1.242  -3.182  -1.407  0.00  0.00    -0.076 A 
ATOM      2  C3  UNL d   1      -0.846  -4.489  -1.738  0.00  0.00     0.004 A 
ATOM      3  C4  UNL d   1      -0.605  -5.438  -0.746  0.00  0.00    -0.003 A 
ATOM      4  C5  UNL d   1      -0.757  -5.096   0.593  0.00  0.00     0.000 A 
ATOM      5  C6  UNL d   1      -1.167  -3.809   0.939  0.00  0.00     0.000 A 
ATOM      6  C7  UNL d   1      -1.430  -2.845  -0.049  0.00  0.00    -0.073 A 
ATOM      7  C8  UNL d   1      -1.864  -1.470   0.381  0.00  0.00     0.078 C 
ENDROOT
BRANCH   1   8
ATOM      8  C1  UNL d   1      -1.463  -2.187  -2.524  0.00  0.00     0.053 C 
ATOM      9  C   UNL d   1      -1.446  -2.840  -3.897  0.00  0.00     0.018 C 
ENDBRANCH   1   8
TORSDOF 1
ENDMDL
