MODEL 1
REMARK minimizedAffinity 5.62374687
REMARK minimizedRMSD -1
REMARK  1 active torsions:
REMARK  status: ('A' for Active; 'I' for Inactive)
REMARK    1  A    between atoms: C1_2  and  C2_3 
ROOT
ATOM      1  C2  UNL d   1      -1.485  -2.682   1.639  0.00  0.00    -0.076 A 
ATOM      2  C3  UNL d   1      -2.158  -1.726   0.858  0.00  0.00     0.004 A 
ATOM      3  C4  UNL d   1      -2.211  -1.841  -0.530  0.00  0.00    -0.003 A 
ATOM      4  C5  UNL d   1      -1.593  -2.915  -1.160  0.00  0.00     0.000 A 
ATOM      5  C6  UNL d   1      -0.936  -3.883  -0.400  0.00  0.00     0.000 A 
ATOM      6  C7  UNL d   1      -0.887  -3.790   1.001  0.00  0.00    -0.073 A 
ATOM      7  C8  UNL d   1      -0.160  -4.859   1.770  0.00  0.00     0.078 C 
ENDROOT
BRANCH   1   8
ATOM      8  C1  UNL d   1      -1.437  -2.490   3.138  0.00  0.00     0.053 C 
ATOM      9  C   UNL d   1      -2.704  -1.850   3.684  0.00  0.00     0.018 C 
ENDBRANCH   1   8
TORSDOF 1
ENDMDL
