MODEL 1
REMARK minimizedAffinity 12.7282133
REMARK minimizedRMSD -1
REMARK  1 active torsions:
REMARK  status: ('A' for Active; 'I' for Inactive)
REMARK    1  A    between atoms: C1_2  and  C2_3 
ROOT
ATOM      1  C2  UNL d   1      -1.665  -2.336   1.993  0.00  0.00    -0.076 A 
ATOM      2  C3  UNL d   1      -2.297  -1.166   1.537  0.00  0.00     0.004 A 
ATOM      3  C4  UNL d   1      -2.178  -0.757   0.209  0.00  0.00    -0.003 A 
ATOM      4  C5  UNL d   1      -1.426  -1.513  -0.684  0.00  0.00     0.000 A 
ATOM      5  C6  UNL d   1      -0.806  -2.685  -0.253  0.00  0.00     0.000 A 
ATOM      6  C7  UNL d   1      -0.929  -3.120   1.078  0.00  0.00    -0.073 A 
ATOM      7  C8  UNL d   1      -0.235  -4.389   1.490  0.00  0.00     0.078 C 
ENDROOT
BRANCH   1   8
ATOM      8  C1  UNL d   1      -1.806  -2.715   3.450  0.00  0.00     0.053 C 
ATOM      9  C   UNL d   1      -1.919  -1.501   4.359  0.00  0.00     0.018 C 
ENDBRANCH   1   8
TORSDOF 1
ENDMDL
