MODEL 1
REMARK minimizedAffinity 26.5589046
REMARK minimizedRMSD -1
REMARK  1 active torsions:
REMARK  status: ('A' for Active; 'I' for Inactive)
REMARK    1  A    between atoms: C1_2  and  C2_3 
ROOT
ATOM      1  C2  UNL d   1       0.856   1.342  -3.424  0.00  0.00    -0.076 A 
ATOM      2  C3  UNL d   1       1.590   2.276  -2.672  0.00  0.00     0.004 A 
ATOM      3  C4  UNL d   1       2.452   1.863  -1.658  0.00  0.00    -0.003 A 
ATOM      4  C5  UNL d   1       2.595   0.508  -1.379  0.00  0.00     0.000 A 
ATOM      5  C6  UNL d   1       1.888  -0.434  -2.127  0.00  0.00     0.000 A 
ATOM      6  C7  UNL d   1       1.027  -0.034  -3.163  0.00  0.00    -0.073 A 
ATOM      7  C8  UNL d   1       0.285  -1.092  -3.933  0.00  0.00     0.078 C 
ENDROOT
BRANCH   1   8
ATOM      8  C1  UNL d   1      -0.084   1.851  -4.493  0.00  0.00     0.053 C 
ATOM      9  C   UNL d   1       0.282   3.246  -4.975  0.00  0.00     0.018 C 
ENDBRANCH   1   8
TORSDOF 1
ENDMDL
