MODEL 1
REMARK minimizedAffinity 18.3167553
REMARK minimizedRMSD -1
REMARK  1 active torsions:
REMARK  status: ('A' for Active; 'I' for Inactive)
REMARK    1  A    between atoms: C1_2  and  C2_3 
ROOT
ATOM      1  C2  UNL d   1       4.532   1.783  -2.140  0.00  0.00    -0.076 A 
ATOM      2  C3  UNL d   1       5.124   2.833  -1.417  0.00  0.00     0.004 A 
ATOM      3  C4  UNL d   1       4.524   3.337  -0.264  0.00  0.00    -0.003 A 
ATOM      4  C5  UNL d   1       3.323   2.798   0.185  0.00  0.00     0.000 A 
ATOM      5  C6  UNL d   1       2.732   1.744  -0.510  0.00  0.00     0.000 A 
ATOM      6  C7  UNL d   1       3.332   1.214  -1.665  0.00  0.00    -0.073 A 
ATOM      7  C8  UNL d   1       2.646   0.081  -2.379  0.00  0.00     0.078 C 
ENDROOT
BRANCH   1   8
ATOM      8  C1  UNL d   1       5.215   1.296  -3.398  0.00  0.00     0.053 C 
ATOM      9  C   UNL d   1       5.986   2.399  -4.107  0.00  0.00     0.018 C 
ENDBRANCH   1   8
TORSDOF 1
ENDMDL
