MODEL 1
REMARK minimizedAffinity 12.8418617
REMARK minimizedRMSD -1
REMARK  1 active torsions:
REMARK  status: ('A' for Active; 'I' for Inactive)
REMARK    1  A    between atoms: C1_2  and  C2_3 
ROOT
ATOM      1  C2  UNL d   1      -0.126  -0.439  -2.219  0.00  0.00    -0.076 A 
ATOM      2  C3  UNL d   1       0.480   0.389  -1.257  0.00  0.00     0.004 A 
ATOM      3  C4  UNL d   1       1.805   0.799  -1.396  0.00  0.00    -0.003 A 
ATOM      4  C5  UNL d   1       2.545   0.389  -2.500  0.00  0.00     0.000 A 
ATOM      5  C6  UNL d   1       1.955  -0.417  -3.472  0.00  0.00     0.000 A 
ATOM      6  C7  UNL d   1       0.616  -0.827  -3.355  0.00  0.00    -0.073 A 
ATOM      7  C8  UNL d   1       0.032  -1.701  -4.431  0.00  0.00     0.078 C 
ENDROOT
BRANCH   1   8
ATOM      8  C1  UNL d   1      -1.557  -0.874  -2.001  0.00  0.00     0.053 C 
ATOM      9  C   UNL d   1      -1.826  -1.293  -0.564  0.00  0.00     0.018 C 
ENDBRANCH   1   8
TORSDOF 1
ENDMDL
