MODEL 1
REMARK minimizedAffinity 14.9855127
REMARK minimizedRMSD -1
REMARK  1 active torsions:
REMARK  status: ('A' for Active; 'I' for Inactive)
REMARK    1  A    between atoms: C1_2  and  C2_3 
ROOT
ATOM      1  C2  UNL d   1       4.174   2.819   0.007  0.00  0.00    -0.076 A 
ATOM      2  C3  UNL d   1       3.629   3.938   0.660  0.00  0.00     0.004 A 
ATOM      3  C4  UNL d   1       4.264   5.178   0.608  0.00  0.00    -0.003 A 
ATOM      4  C5  UNL d   1       5.455   5.318  -0.097  0.00  0.00     0.000 A 
ATOM      5  C6  UNL d   1       6.000   4.222  -0.765  0.00  0.00     0.000 A 
ATOM      6  C7  UNL d   1       5.364   2.970  -0.737  0.00  0.00    -0.073 A 
ATOM      7  C8  UNL d   1       6.000   1.820  -1.470  0.00  0.00     0.078 C 
ENDROOT
BRANCH   1   8
ATOM      8  C1  UNL d   1       3.455   1.493   0.120  0.00  0.00     0.053 C 
ATOM      9  C   UNL d   1       2.445   1.281  -0.998  0.00  0.00     0.018 C 
ENDBRANCH   1   8
TORSDOF 1
ENDMDL
