MODEL 1
REMARK minimizedAffinity 9.37760353
REMARK minimizedRMSD -1
REMARK  1 active torsions:
REMARK  status: ('A' for Active; 'I' for Inactive)
REMARK    1  A    between atoms: C1_2  and  C2_3 
ROOT
ATOM      1  C2  UNL d   1      -1.772  -3.810   1.158  0.00  0.00    -0.076 A 
ATOM      2  C3  UNL d   1      -0.964  -4.753   0.498  0.00  0.00     0.004 A 
ATOM      3  C4  UNL d   1      -0.423  -5.839   1.184  0.00  0.00    -0.003 A 
ATOM      4  C5  UNL d   1      -0.681  -6.000   2.541  0.00  0.00     0.000 A 
ATOM      5  C6  UNL d   1      -1.494  -5.084   3.207  0.00  0.00     0.000 A 
ATOM      6  C7  UNL d   1      -2.061  -3.993   2.527  0.00  0.00    -0.073 A 
ATOM      7  C8  UNL d   1      -2.926  -3.032   3.296  0.00  0.00     0.078 C 
ENDROOT
BRANCH   1   8
ATOM      8  C1  UNL d   1      -2.309  -2.638   0.368  0.00  0.00     0.053 C 
ATOM      9  C   UNL d   1      -1.306  -2.111  -0.648  0.00  0.00     0.018 C 
ENDBRANCH   1   8
TORSDOF 1
ENDMDL
