MODEL 1
REMARK minimizedAffinity 8.88814926
REMARK minimizedRMSD -1
REMARK  1 active torsions:
REMARK  status: ('A' for Active; 'I' for Inactive)
REMARK    1  A    between atoms: C1_2  and  C2_3 
ROOT
ATOM      1  C2  UNL d   1       2.428   1.925   0.610  0.00  0.00    -0.076 A 
ATOM      2  C3  UNL d   1       1.678   0.753   0.409  0.00  0.00     0.004 A 
ATOM      3  C4  UNL d   1       1.736   0.062  -0.799  0.00  0.00    -0.003 A 
ATOM      4  C5  UNL d   1       2.547   0.531  -1.827  0.00  0.00     0.000 A 
ATOM      5  C6  UNL d   1       3.311   1.682  -1.640  0.00  0.00     0.000 A 
ATOM      6  C7  UNL d   1       3.276   2.382  -0.422  0.00  0.00    -0.073 A 
ATOM      7  C8  UNL d   1       4.116   3.621  -0.277  0.00  0.00     0.078 C 
ENDROOT
BRANCH   1   8
ATOM      8  C1  UNL d   1       2.303   2.648   1.932  0.00  0.00     0.053 C 
ATOM      9  C   UNL d   1       3.395   2.256   2.916  0.00  0.00     0.018 C 
ENDBRANCH   1   8
TORSDOF 1
ENDMDL
