MODEL 1
REMARK minimizedAffinity 11.3339167
REMARK minimizedRMSD -1
REMARK  1 active torsions:
REMARK  status: ('A' for Active; 'I' for Inactive)
REMARK    1  A    between atoms: C1_2  and  C2_3 
ROOT
ATOM      1  C2  UNL d   1      -1.226  -2.383  -1.387  0.00  0.00    -0.076 A 
ATOM      2  C3  UNL d   1      -1.873  -1.170  -1.093  0.00  0.00     0.004 A 
ATOM      3  C4  UNL d   1      -2.580  -1.004   0.097  0.00  0.00    -0.003 A 
ATOM      4  C5  UNL d   1      -2.651  -2.048   1.013  0.00  0.00     0.000 A 
ATOM      5  C6  UNL d   1      -2.001  -3.252   0.746  0.00  0.00     0.000 A 
ATOM      6  C7  UNL d   1      -1.270  -3.430  -0.442  0.00  0.00    -0.073 A 
ATOM      7  C8  UNL d   1      -0.593  -4.752  -0.681  0.00  0.00     0.078 C 
ENDROOT
BRANCH   1   8
ATOM      8  C1  UNL d   1      -0.498  -2.514  -2.705  0.00  0.00     0.053 C 
ATOM      9  C   UNL d   1      -1.420  -2.332  -3.901  0.00  0.00     0.018 C 
ENDBRANCH   1   8
TORSDOF 1
ENDMDL
