MODEL 1
REMARK minimizedAffinity -5.59074163
REMARK minimizedRMSD -1
REMARK  1 active torsions:
REMARK  status: ('A' for Active; 'I' for Inactive)
REMARK    1  A    between atoms: C1_2  and  C2_3 
ROOT
ATOM      1  C2  UNL d   1       0.351  -0.790  -0.107  0.00  0.00    -0.081 A 
ATOM      2  C3  UNL d   1       0.615  -0.677   1.264  0.00  0.00     0.006 A 
ATOM      3  C4  UNL d   1       0.179   0.441   1.979  0.00  0.00     0.002 A 
ATOM      4  C5  UNL d   1      -0.534   1.460   1.339  0.00  0.00    -0.080 A 
ATOM      5  C6  UNL d   1      -1.033   2.651   2.101  0.00  0.00     0.076 C 
ATOM      6  C7  UNL d   1      -0.782   1.356  -0.034  0.00  0.00     0.002 A 
ATOM      7  C8  UNL d   1      -0.346   0.239  -0.750  0.00  0.00     0.006 A 
ENDROOT
BRANCH   1   8
ATOM      8  C1  UNL d   1       0.763  -2.024  -0.868  0.00  0.00     0.054 C 
ATOM      9  C   UNL d   1      -0.379  -3.026  -0.958  0.00  0.00     0.018 C 
ENDBRANCH   1   8
TORSDOF 1
ENDMDL
