MODEL 1
REMARK minimizedAffinity -4.96727371
REMARK minimizedRMSD -1
REMARK  1 active torsions:
REMARK  status: ('A' for Active; 'I' for Inactive)
REMARK    1  A    between atoms: C1_2  and  C2_3 
ROOT
ATOM      1  C2  UNL d   1      -0.751   2.253   0.490  0.00  0.00    -0.081 A 
ATOM      2  C3  UNL d   1      -0.878   0.860   0.434  0.00  0.00     0.006 A 
ATOM      3  C4  UNL d   1      -0.373   0.061   1.463  0.00  0.00     0.002 A 
ATOM      4  C5  UNL d   1       0.260   0.642   2.567  0.00  0.00    -0.080 A 
ATOM      5  C6  UNL d   1       0.779  -0.203   3.693  0.00  0.00     0.076 C 
ATOM      6  C7  UNL d   1       0.402   2.033   2.615  0.00  0.00     0.002 A 
ATOM      7  C8  UNL d   1      -0.102   2.832   1.586  0.00  0.00     0.006 A 
ENDROOT
BRANCH   1   8
ATOM      8  C1  UNL d   1      -1.352   3.121  -0.586  0.00  0.00     0.054 C 
ATOM      9  C   UNL d   1      -0.583   2.993  -1.893  0.00  0.00     0.018 C 
ENDBRANCH   1   8
TORSDOF 1
ENDMDL
