MODEL 1
REMARK minimizedAffinity -2.47768092
REMARK minimizedRMSD -1
REMARK  0 active torsions:
REMARK  status: ('A' for Active; 'I' for Inactive)
ROOT
ATOM      1  C1  BNZ d   1       0.002   1.106  -0.426  0.00  0.00     0.000 A 
ATOM      2  C2  BNZ d   1       1.343   1.216  -0.680  0.00  0.00     0.000 A 
ATOM      3  C3  BNZ d   1       1.792   1.792  -1.835  0.00  0.00     0.000 A 
ATOM      4  C4  BNZ d   1       0.901   2.221  -2.752  0.00  0.00     0.000 A 
ATOM      5  C5  BNZ d   1      -0.455   2.109  -2.515  0.00  0.00     0.000 A 
ATOM      6  C6  BNZ d   1      -0.903   1.564  -1.333  0.00  0.00     0.000 A 
ENDROOT
TORSDOF 0
ENDMDL
