MODEL 1
REMARK minimizedAffinity -5.07696009
REMARK minimizedRMSD -1
REMARK  0 active torsions:
REMARK  status: ('A' for Active; 'I' for Inactive)
ROOT
ATOM      1  C1  BNZ d   1      -2.331  -2.166   1.958  0.00  0.00     0.000 A 
ATOM      2  C2  BNZ d   1      -1.275  -2.449   1.134  0.00  0.00     0.000 A 
ATOM      3  C3  BNZ d   1      -0.630  -1.453   0.455  0.00  0.00     0.000 A 
ATOM      4  C4  BNZ d   1      -1.067  -0.183   0.569  0.00  0.00     0.000 A 
ATOM      5  C5  BNZ d   1      -2.136   0.118   1.389  0.00  0.00     0.000 A 
ATOM      6  C6  BNZ d   1      -2.758  -0.882   2.102  0.00  0.00     0.000 A 
ENDROOT
TORSDOF 0
ENDMDL
