MODEL 1
REMARK minimizedAffinity -4.84392357
REMARK minimizedRMSD -1
REMARK  0 active torsions:
REMARK  status: ('A' for Active; 'I' for Inactive)
ROOT
ATOM      1  C1  BNZ d   1      -1.493  -3.158   1.226  0.00  0.00     0.000 A 
ATOM      2  C2  BNZ d   1      -2.589  -2.352   1.385  0.00  0.00     0.000 A 
ATOM      3  C3  BNZ d   1      -2.521  -1.016   1.104  0.00  0.00     0.000 A 
ATOM      4  C4  BNZ d   1      -1.350  -0.480   0.705  0.00  0.00     0.000 A 
ATOM      5  C5  BNZ d   1      -0.233  -1.278   0.549  0.00  0.00     0.000 A 
ATOM      6  C6  BNZ d   1      -0.315  -2.630   0.795  0.00  0.00     0.000 A 
ENDROOT
TORSDOF 0
ENDMDL
