MODEL 1
REMARK minimizedAffinity -4.21057034
REMARK minimizedRMSD -1
REMARK  0 active torsions:
REMARK  status: ('A' for Active; 'I' for Inactive)
ROOT
ATOM      1  C1  BNZ d   1      -1.402  -0.556   0.429  0.00  0.00     0.000 A 
ATOM      2  C2  BNZ d   1      -0.467   0.352   0.009  0.00  0.00     0.000 A 
ATOM      3  C3  BNZ d   1       0.850   0.003  -0.095  0.00  0.00     0.000 A 
ATOM      4  C4  BNZ d   1       1.237  -1.240   0.259  0.00  0.00     0.000 A 
ATOM      5  C5  BNZ d   1       0.307  -2.164   0.694  0.00  0.00     0.000 A 
ATOM      6  C6  BNZ d   1      -1.024  -1.821   0.760  0.00  0.00     0.000 A 
ENDROOT
TORSDOF 0
ENDMDL
