MODEL 1
REMARK minimizedAffinity -2.58313322
REMARK minimizedRMSD -1
REMARK  0 active torsions:
REMARK  status: ('A' for Active; 'I' for Inactive)
ROOT
ATOM      1  C1  BNZ d   1      -1.565  -1.737   1.083  0.00  0.00     0.000 A 
ATOM      2  C2  BNZ d   1      -1.294  -0.441   0.734  0.00  0.00     0.000 A 
ATOM      3  C3  BNZ d   1      -0.023  -0.054   0.410  0.00  0.00     0.000 A 
ATOM      4  C4  BNZ d   1       0.980  -0.953   0.475  0.00  0.00     0.000 A 
ATOM      5  C5  BNZ d   1       0.724  -2.261   0.835  0.00  0.00     0.000 A 
ATOM      6  C6  BNZ d   1      -0.562  -2.656   1.122  0.00  0.00     0.000 A 
ENDROOT
TORSDOF 0
ENDMDL
