MODEL 1
REMARK minimizedAffinity -1.65034699
REMARK minimizedRMSD -1
REMARK  0 active torsions:
REMARK  status: ('A' for Active; 'I' for Inactive)
ROOT
ATOM      1  C1  BNZ d   1       1.291  -2.296   1.525  0.00  0.00     0.000 A 
ATOM      2  C2  BNZ d   1       0.151  -2.762   2.123  0.00  0.00     0.000 A 
ATOM      3  C3  BNZ d   1      -1.082  -2.383   1.671  0.00  0.00     0.000 A 
ATOM      4  C4  BNZ d   1      -1.173  -1.509   0.649  0.00  0.00     0.000 A 
ATOM      5  C5  BNZ d   1      -0.033  -1.022   0.041  0.00  0.00     0.000 A 
ATOM      6  C6  BNZ d   1       1.206  -1.436   0.473  0.00  0.00     0.000 A 
ENDROOT
TORSDOF 0
ENDMDL
