MODEL 1
REMARK minimizedAffinity -4.9761858
REMARK minimizedRMSD -1
REMARK  0 active torsions:
REMARK  status: ('A' for Active; 'I' for Inactive)
ROOT
ATOM      1  C1  BNZ d   1      -1.232  -0.859   0.745  0.00  0.00     0.000 A 
ATOM      2  C2  BNZ d   1      -0.285  -0.022   0.218  0.00  0.00     0.000 A 
ATOM      3  C3  BNZ d   1       1.006  -0.439   0.055  0.00  0.00     0.000 A 
ATOM      4  C4  BNZ d   1       1.358  -1.678   0.455  0.00  0.00     0.000 A 
ATOM      5  C5  BNZ d   1       0.417  -2.531   0.996  0.00  0.00     0.000 A 
ATOM      6  C6  BNZ d   1      -0.890  -2.121   1.123  0.00  0.00     0.000 A 
ENDROOT
TORSDOF 0
ENDMDL
