MODEL 1
REMARK minimizedAffinity -3.47827506
REMARK minimizedRMSD -1
REMARK  0 active torsions:
REMARK  status: ('A' for Active; 'I' for Inactive)
ROOT
ATOM      1  C1  BNZ d   1       0.113   3.117  -3.339  0.00  0.00     0.000 A 
ATOM      2  C2  BNZ d   1       0.405   3.500  -2.057  0.00  0.00     0.000 A 
ATOM      3  C3  BNZ d   1       1.521   3.030  -1.423  0.00  0.00     0.000 A 
ATOM      4  C4  BNZ d   1       2.322   2.149  -2.056  0.00  0.00     0.000 A 
ATOM      5  C5  BNZ d   1       2.037   1.747  -3.346  0.00  0.00     0.000 A 
ATOM      6  C6  BNZ d   1       0.933   2.251  -3.995  0.00  0.00     0.000 A 
ENDROOT
TORSDOF 0
ENDMDL
