MODEL 1
REMARK minimizedAffinity -0.52278769
REMARK minimizedRMSD -1
REMARK  0 active torsions:
REMARK  status: ('A' for Active; 'I' for Inactive)
ROOT
ATOM      1  C1  BNZ d   1      -0.419  -0.068   0.247  0.00  0.00     0.000 A 
ATOM      2  C2  BNZ d   1      -1.345  -0.938   0.757  0.00  0.00     0.000 A 
ATOM      3  C3  BNZ d   1      -0.993  -2.214   1.098  0.00  0.00     0.000 A 
ATOM      4  C4  BNZ d   1       0.273  -2.631   0.891  0.00  0.00     0.000 A 
ATOM      5  C5  BNZ d   1       1.216  -1.768   0.369  0.00  0.00     0.000 A 
ATOM      6  C6  BNZ d   1       0.868  -0.472   0.064  0.00  0.00     0.000 A 
ENDROOT
TORSDOF 0
ENDMDL
