MODEL 1
REMARK minimizedAffinity -5.40101671
REMARK minimizedRMSD -1
REMARK  0 active torsions:
REMARK  status: ('A' for Active; 'I' for Inactive)
ROOT
ATOM      1  C1  BNZ d   1      -0.980  -0.123   0.130  0.00  0.00     0.000 A 
ATOM      2  C2  BNZ d   1      -1.841  -1.140   0.445  0.00  0.00     0.000 A 
ATOM      3  C3  BNZ d   1      -1.369  -2.373   0.799  0.00  0.00     0.000 A 
ATOM      4  C4  BNZ d   1      -0.039  -2.598   0.799  0.00  0.00     0.000 A 
ATOM      5  C5  BNZ d   1       0.842  -1.586   0.475  0.00  0.00     0.000 A 
ATOM      6  C6  BNZ d   1       0.364  -0.335   0.157  0.00  0.00     0.000 A 
ENDROOT
TORSDOF 0
ENDMDL
