MODEL 1
REMARK minimizedAffinity -3.47443795
REMARK minimizedRMSD -1
REMARK  0 active torsions:
REMARK  status: ('A' for Active; 'I' for Inactive)
ROOT
ATOM      1  C1  BNZ d   1      -2.218  -1.441   1.130  0.00  0.00     0.000 A 
ATOM      2  C2  BNZ d   1      -1.639  -0.444   0.389  0.00  0.00     0.000 A 
ATOM      3  C3  BNZ d   1      -0.341  -0.545  -0.027  0.00  0.00     0.000 A 
ATOM      4  C4  BNZ d   1       0.388  -1.622   0.331  0.00  0.00     0.000 A 
ATOM      5  C5  BNZ d   1      -0.178  -2.631   1.085  0.00  0.00     0.000 A 
ATOM      6  C6  BNZ d   1      -1.497  -2.544   1.469  0.00  0.00     0.000 A 
ENDROOT
TORSDOF 0
ENDMDL
