MODEL 1
REMARK minimizedAffinity -4.66324854
REMARK minimizedRMSD -1
REMARK  0 active torsions:
REMARK  status: ('A' for Active; 'I' for Inactive)
ROOT
ATOM      1  C1  BNZ d   1       0.082  -2.472   1.414  0.00  0.00     0.000 A 
ATOM      2  C2  BNZ d   1      -1.258  -2.653   1.196  0.00  0.00     0.000 A 
ATOM      3  C3  BNZ d   1      -1.923  -1.906   0.264  0.00  0.00     0.000 A 
ATOM      4  C4  BNZ d   1      -1.258  -0.952  -0.419  0.00  0.00     0.000 A 
ATOM      5  C5  BNZ d   1       0.091  -0.751  -0.204  0.00  0.00     0.000 A 
ATOM      6  C6  BNZ d   1       0.766  -1.532   0.707  0.00  0.00     0.000 A 
ENDROOT
TORSDOF 0
ENDMDL
