MODEL 1
REMARK minimizedAffinity -4.87240124
REMARK minimizedRMSD -1
REMARK  0 active torsions:
REMARK  status: ('A' for Active; 'I' for Inactive)
ROOT
ATOM      1  C1  BNZ d   1       0.572  -1.703   0.567  0.00  0.00     0.000 A 
ATOM      2  C2  BNZ d   1      -0.226  -2.670   1.120  0.00  0.00     0.000 A 
ATOM      3  C3  BNZ d   1      -1.586  -2.540   1.118  0.00  0.00     0.000 A 
ATOM      4  C4  BNZ d   1      -2.145  -1.427   0.601  0.00  0.00     0.000 A 
ATOM      5  C5  BNZ d   1      -1.355  -0.439   0.049  0.00  0.00     0.000 A 
ATOM      6  C6  BNZ d   1       0.013  -0.591   0.017  0.00  0.00     0.000 A 
ENDROOT
TORSDOF 0
ENDMDL
