MODEL 1
REMARK minimizedAffinity -5.03215837
REMARK minimizedRMSD -1
REMARK  0 active torsions:
REMARK  status: ('A' for Active; 'I' for Inactive)
ROOT
ATOM      1  C2' OXE d   1       2.080  -0.527  -0.945  0.00  0.00     0.078 C 
ATOM      2  C1' OXE d   1      -0.615   0.076  -0.441  0.00  0.00     0.078 C 
ATOM      3  C1  OXE d   1       0.068  -0.913   0.471  0.00  0.00    -0.078 A 
ATOM      4  C2  OXE d   1       1.373  -1.237   0.188  0.00  0.00    -0.078 A 
ATOM      5  C3  OXE d   1       2.066  -2.102   1.030  0.00  0.00     0.003 A 
ATOM      6  C4  OXE d   1       1.401  -2.763   2.071  0.00  0.00    -0.002 A 
ATOM      7  C5  OXE d   1       0.061  -2.477   2.351  0.00  0.00    -0.002 A 
ATOM      8  C6  OXE d   1      -0.607  -1.525   1.589  0.00  0.00     0.003 A 
ENDROOT
TORSDOF 0
ENDMDL
