MODEL 1
REMARK minimizedAffinity -4.16908979
REMARK minimizedRMSD -1
REMARK  0 active torsions:
REMARK  status: ('A' for Active; 'I' for Inactive)
ROOT
ATOM      1  C2' OXE d   1       0.648   0.438  -0.166  0.00  0.00     0.078 C 
ATOM      2  C1' OXE d   1      -1.663   1.121   1.274  0.00  0.00     0.078 C 
ATOM      3  C1  OXE d   1      -1.762   1.068  -0.230  0.00  0.00    -0.078 A 
ATOM      4  C2  OXE d   1      -0.614   0.779  -0.929  0.00  0.00    -0.078 A 
ATOM      5  C3  OXE d   1      -0.662   0.664  -2.315  0.00  0.00     0.003 A 
ATOM      6  C4  OXE d   1      -1.831   0.990  -3.014  0.00  0.00    -0.002 A 
ATOM      7  C5  OXE d   1      -3.000   1.326  -2.323  0.00  0.00    -0.002 A 
ATOM      8  C6  OXE d   1      -2.994   1.328  -0.933  0.00  0.00     0.003 A 
ENDROOT
TORSDOF 0
ENDMDL
