MODEL 1
REMARK minimizedAffinity -2.33201361
REMARK minimizedRMSD -1
REMARK  0 active torsions:
REMARK  status: ('A' for Active; 'I' for Inactive)
ROOT
ATOM      1  C2' OXE d   1      -1.065  -2.371   1.512  0.00  0.00     0.078 C 
ATOM      2  C1' OXE d   1       1.652  -3.060   1.350  0.00  0.00     0.078 C 
ATOM      3  C1  OXE d   1       1.211  -1.775   0.694  0.00  0.00    -0.078 A 
ATOM      4  C2  OXE d   1      -0.127  -1.469   0.738  0.00  0.00    -0.078 A 
ATOM      5  C3  OXE d   1      -0.579  -0.269   0.197  0.00  0.00     0.003 A 
ATOM      6  C4  OXE d   1       0.293   0.555  -0.526  0.00  0.00    -0.002 A 
ATOM      7  C5  OXE d   1       1.653   0.242  -0.617  0.00  0.00    -0.002 A 
ATOM      8  C6  OXE d   1       2.135  -0.895   0.022  0.00  0.00     0.003 A 
ENDROOT
TORSDOF 0
ENDMDL
