MODEL 1
REMARK minimizedAffinity -4.65624332
REMARK minimizedRMSD -1
REMARK  0 active torsions:
REMARK  status: ('A' for Active; 'I' for Inactive)
ROOT
ATOM      1  C2' OXE d   1       2.773   0.659  -0.516  0.00  0.00     0.078 C 
ATOM      2  C1' OXE d   1      -0.013   0.781  -0.843  0.00  0.00     0.078 C 
ATOM      3  C1  OXE d   1       0.556  -0.392  -0.085  0.00  0.00    -0.078 A 
ATOM      4  C2  OXE d   1       1.923  -0.468   0.031  0.00  0.00    -0.078 A 
ATOM      5  C3  OXE d   1       2.497  -1.500   0.767  0.00  0.00     0.003 A 
ATOM      6  C4  OXE d   1       1.705  -2.544   1.261  0.00  0.00    -0.002 A 
ATOM      7  C5  OXE d   1       0.314  -2.507   1.120  0.00  0.00    -0.002 A 
ATOM      8  C6  OXE d   1      -0.279  -1.419   0.489  0.00  0.00     0.003 A 
ENDROOT
TORSDOF 0
ENDMDL
