MODEL 1
REMARK minimizedAffinity -3.23438835
REMARK minimizedRMSD -1
REMARK  0 active torsions:
REMARK  status: ('A' for Active; 'I' for Inactive)
ROOT
ATOM      1  C2' OXE d   1       1.205  -2.773   0.502  0.00  0.00     0.078 C 
ATOM      2  C1' OXE d   1      -1.401  -2.070   1.271  0.00  0.00     0.078 C 
ATOM      3  C1  OXE d   1      -0.568  -1.025   0.572  0.00  0.00    -0.078 A 
ATOM      4  C2  OXE d   1       0.723  -1.363   0.241  0.00  0.00    -0.078 A 
ATOM      5  C3  OXE d   1       1.516  -0.455  -0.453  0.00  0.00     0.003 A 
ATOM      6  C4  OXE d   1       1.066   0.851  -0.682  0.00  0.00    -0.002 A 
ATOM      7  C5  OXE d   1      -0.231   1.229  -0.317  0.00  0.00    -0.002 A 
ATOM      8  C6  OXE d   1      -1.073   0.292   0.271  0.00  0.00     0.003 A 
ENDROOT
TORSDOF 0
ENDMDL
