MODEL 1
REMARK minimizedAffinity -3.11463642
REMARK minimizedRMSD -1
REMARK  0 active torsions:
REMARK  status: ('A' for Active; 'I' for Inactive)
ROOT
ATOM      1  C2' OXE d   1       1.489  -2.922   1.024  0.00  0.00     0.078 C 
ATOM      2  C1' OXE d   1       3.240  -0.983  -0.002  0.00  0.00     0.078 C 
ATOM      3  C1  OXE d   1       1.772  -0.641   0.065  0.00  0.00    -0.078 A 
ATOM      4  C2  OXE d   1       0.917  -1.613   0.525  0.00  0.00    -0.078 A 
ATOM      5  C3  OXE d   1      -0.439  -1.330   0.659  0.00  0.00     0.003 A 
ATOM      6  C4  OXE d   1      -0.962  -0.120   0.186  0.00  0.00    -0.002 A 
ATOM      7  C5  OXE d   1      -0.113   0.868  -0.323  0.00  0.00    -0.002 A 
ATOM      8  C6  OXE d   1       1.259   0.641  -0.351  0.00  0.00     0.003 A 
ENDROOT
TORSDOF 0
ENDMDL
