MODEL 1
REMARK minimizedAffinity -4.11310673
REMARK minimizedRMSD -1
REMARK  0 active torsions:
REMARK  status: ('A' for Active; 'I' for Inactive)
ROOT
ATOM      1  C2' OXE d   1       1.345  -2.683   1.018  0.00  0.00     0.078 C 
ATOM      2  C1' OXE d   1       3.402  -0.799   0.709  0.00  0.00     0.078 C 
ATOM      3  C1  OXE d   1       2.014  -0.402   0.273  0.00  0.00    -0.078 A 
ATOM      4  C2  OXE d   1       1.022  -1.347   0.385  0.00  0.00    -0.078 A 
ATOM      5  C3  OXE d   1      -0.287  -1.015   0.048  0.00  0.00     0.003 A 
ATOM      6  C4  OXE d   1      -0.575   0.219  -0.546  0.00  0.00    -0.002 A 
ATOM      7  C5  OXE d   1       0.428   1.182  -0.705  0.00  0.00    -0.002 A 
ATOM      8  C6  OXE d   1       1.716   0.903  -0.263  0.00  0.00     0.003 A 
ENDROOT
TORSDOF 0
ENDMDL
