MODEL 1
REMARK minimizedAffinity -0.623303533
REMARK minimizedRMSD -1
REMARK  0 active torsions:
REMARK  status: ('A' for Active; 'I' for Inactive)
ROOT
ATOM      1  C2' OXE d   1      -0.580  -0.094  -0.437  0.00  0.00     0.078 C 
ATOM      2  C1' OXE d   1       1.627   1.608  -0.778  0.00  0.00     0.078 C 
ATOM      3  C1  OXE d   1       1.832   0.340   0.013  0.00  0.00    -0.078 A 
ATOM      4  C2  OXE d   1       0.735  -0.463   0.214  0.00  0.00    -0.078 A 
ATOM      5  C3  OXE d   1       0.881  -1.671   0.891  0.00  0.00     0.003 A 
ATOM      6  C4  OXE d   1       2.098  -2.001   1.499  0.00  0.00    -0.002 A 
ATOM      7  C5  OXE d   1       3.217  -1.177   1.340  0.00  0.00    -0.002 A 
ATOM      8  C6  OXE d   1       3.112  -0.027   0.566  0.00  0.00     0.003 A 
ENDROOT
TORSDOF 0
ENDMDL
