MODEL 1
REMARK minimizedAffinity -2.54099894
REMARK minimizedRMSD -1
REMARK  0 active torsions:
REMARK  status: ('A' for Active; 'I' for Inactive)
ROOT
ATOM      1  C2' OXE d   1      -1.638  -1.889   2.274  0.00  0.00     0.078 C 
ATOM      2  C1' OXE d   1       0.686  -2.682   0.913  0.00  0.00     0.078 C 
ATOM      3  C1  OXE d   1       0.073  -1.354   0.544  0.00  0.00    -0.078 A 
ATOM      4  C2  OXE d   1      -1.090  -0.996   1.182  0.00  0.00    -0.078 A 
ATOM      5  C3  OXE d   1      -1.667   0.243   0.919  0.00  0.00     0.003 A 
ATOM      6  C4  OXE d   1      -1.160   1.059  -0.099  0.00  0.00    -0.002 A 
ATOM      7  C5  OXE d   1       0.001   0.695  -0.789  0.00  0.00    -0.002 A 
ATOM      8  C6  OXE d   1       0.653  -0.486  -0.451  0.00  0.00     0.003 A 
ENDROOT
TORSDOF 0
ENDMDL
