MODEL 1
REMARK minimizedAffinity -4.60576725
REMARK minimizedRMSD -1
REMARK  0 active torsions:
REMARK  status: ('A' for Active; 'I' for Inactive)
ROOT
ATOM      1  C2' OXE d   1       2.594   1.069  -0.246  0.00  0.00     0.078 C 
ATOM      2  C1' OXE d   1      -0.204   0.988  -0.466  0.00  0.00     0.078 C 
ATOM      3  C1  OXE d   1       0.503  -0.268  -0.020  0.00  0.00    -0.078 A 
ATOM      4  C2  OXE d   1       1.876  -0.233   0.040  0.00  0.00    -0.078 A 
ATOM      5  C3  OXE d   1       2.574  -1.347   0.497  0.00  0.00     0.003 A 
ATOM      6  C4  OXE d   1       1.903  -2.549   0.750  0.00  0.00    -0.002 A 
ATOM      7  C5  OXE d   1       0.509  -2.618   0.656  0.00  0.00    -0.002 A 
ATOM      8  C6  OXE d   1      -0.208  -1.477   0.315  0.00  0.00     0.003 A 
ENDROOT
TORSDOF 0
ENDMDL
