MODEL 1
REMARK minimizedAffinity -4.8862133
REMARK minimizedRMSD -1
REMARK  0 active torsions:
REMARK  status: ('A' for Active; 'I' for Inactive)
ROOT
ATOM      1  C2' OXE d   1      -0.940   0.859  -0.225  0.00  0.00     0.078 C 
ATOM      2  C1' OXE d   1       1.856   1.066  -0.078  0.00  0.00     0.078 C 
ATOM      3  C1  OXE d   1       1.218  -0.211   0.411  0.00  0.00    -0.078 A 
ATOM      4  C2  OXE d   1      -0.153  -0.285   0.379  0.00  0.00    -0.078 A 
ATOM      5  C3  OXE d   1      -0.790  -1.461   0.767  0.00  0.00     0.003 A 
ATOM      6  C4  OXE d   1      -0.056  -2.510   1.334  0.00  0.00    -0.002 A 
ATOM      7  C5  OXE d   1       1.339  -2.439   1.413  0.00  0.00    -0.002 A 
ATOM      8  C6  OXE d   1       1.993  -1.316   0.918  0.00  0.00     0.003 A 
ENDROOT
TORSDOF 0
ENDMDL
