MODEL 1
REMARK minimizedAffinity -3.95305896
REMARK minimizedRMSD -1
REMARK  0 active torsions:
REMARK  status: ('A' for Active; 'I' for Inactive)
ROOT
ATOM      1  C2' OXE d   1      -1.394  -1.762   1.244  0.00  0.00     0.078 C 
ATOM      2  C1' OXE d   1       1.210  -2.688   0.751  0.00  0.00     0.078 C 
ATOM      3  C1  OXE d   1       0.873  -1.280   0.330  0.00  0.00    -0.078 A 
ATOM      4  C2  OXE d   1      -0.417  -0.851   0.533  0.00  0.00    -0.078 A 
ATOM      5  C3  OXE d   1      -0.766   0.458   0.214  0.00  0.00     0.003 A 
ATOM      6  C4  OXE d   1       0.140   1.291  -0.453  0.00  0.00    -0.002 A 
ATOM      7  C5  OXE d   1       1.447   0.860  -0.706  0.00  0.00    -0.002 A 
ATOM      8  C6  OXE d   1       1.841  -0.404  -0.283  0.00  0.00     0.003 A 
ENDROOT
TORSDOF 0
ENDMDL
