MODEL 1
REMARK minimizedAffinity -3.08497787
REMARK minimizedRMSD -1
REMARK  0 active torsions:
REMARK  status: ('A' for Active; 'I' for Inactive)
ROOT
ATOM      1  C2' OXE d   1       2.026   0.307  -0.818  0.00  0.00     0.078 C 
ATOM      2  C1' OXE d   1      -0.768   0.523  -0.648  0.00  0.00     0.078 C 
ATOM      3  C1  OXE d   1      -0.102  -0.595   0.114  0.00  0.00    -0.078 A 
ATOM      4  C2  OXE d   1       1.261  -0.721  -0.013  0.00  0.00    -0.078 A 
ATOM      5  C3  OXE d   1       1.932  -1.702   0.712  0.00  0.00     0.003 A 
ATOM      6  C4  OXE d   1       1.216  -2.655   1.446  0.00  0.00    -0.002 A 
ATOM      7  C5  OXE d   1      -0.176  -2.569   1.556  0.00  0.00    -0.002 A 
ATOM      8  C6  OXE d   1      -0.844  -1.521   0.932  0.00  0.00     0.003 A 
ENDROOT
TORSDOF 0
ENDMDL
