MODEL 1
REMARK minimizedAffinity -3.07933521
REMARK minimizedRMSD -1
REMARK  0 active torsions:
REMARK  status: ('A' for Active; 'I' for Inactive)
ROOT
ATOM      1  C2' OXE d   1       2.377   1.188   0.233  0.00  0.00     0.078 C 
ATOM      2  C1' OXE d   1      -0.294   0.835  -0.554  0.00  0.00     0.078 C 
ATOM      3  C1  OXE d   1       0.436  -0.357   0.011  0.00  0.00    -0.078 A 
ATOM      4  C2  OXE d   1       1.756  -0.188   0.351  0.00  0.00    -0.078 A 
ATOM      5  C3  OXE d   1       2.461  -1.241   0.928  0.00  0.00     0.003 A 
ATOM      6  C4  OXE d   1       1.882  -2.512   1.024  0.00  0.00    -0.002 A 
ATOM      7  C5  OXE d   1       0.551  -2.716   0.647  0.00  0.00    -0.002 A 
ATOM      8  C6  OXE d   1      -0.198  -1.642   0.180  0.00  0.00     0.003 A 
ENDROOT
TORSDOF 0
ENDMDL
