MODEL 1
REMARK minimizedAffinity -4.72257662
REMARK minimizedRMSD -1
REMARK  0 active torsions:
REMARK  status: ('A' for Active; 'I' for Inactive)
ROOT
ATOM      1  C2' OXE d   1      -1.320   0.916   0.373  0.00  0.00     0.078 C 
ATOM      2  C1' OXE d   1      -1.655  -1.376   1.958  0.00  0.00     0.078 C 
ATOM      3  C1  OXE d   1      -0.363  -1.233   1.193  0.00  0.00    -0.078 A 
ATOM      4  C2  OXE d   1      -0.227  -0.131   0.383  0.00  0.00    -0.078 A 
ATOM      5  C3  OXE d   1       0.967   0.077  -0.302  0.00  0.00     0.003 A 
ATOM      6  C4  OXE d   1       1.969  -0.901  -0.294  0.00  0.00    -0.002 A 
ATOM      7  C5  OXE d   1       1.833  -2.050   0.493  0.00  0.00    -0.002 A 
ATOM      8  C6  OXE d   1       0.694  -2.210   1.274  0.00  0.00     0.003 A 
ENDROOT
TORSDOF 0
ENDMDL
