MODEL 1
REMARK minimizedAffinity -4.44061279
REMARK minimizedRMSD -1
REMARK  0 active torsions:
REMARK  status: ('A' for Active; 'I' for Inactive)
ROOT
ATOM      1  C2' OXE d   1       2.346   0.754  -0.442  0.00  0.00     0.078 C 
ATOM      2  C1' OXE d   1      -0.445   1.026  -0.312  0.00  0.00     0.078 C 
ATOM      3  C1  OXE d   1       0.155  -0.285   0.131  0.00  0.00    -0.078 A 
ATOM      4  C2  OXE d   1       1.518  -0.426   0.020  0.00  0.00    -0.078 A 
ATOM      5  C3  OXE d   1       2.128  -1.594   0.466  0.00  0.00     0.003 A 
ATOM      6  C4  OXE d   1       1.354  -2.684   0.882  0.00  0.00    -0.002 A 
ATOM      7  C5  OXE d   1      -0.038  -2.576   0.965  0.00  0.00    -0.002 A 
ATOM      8  C6  OXE d   1      -0.649  -1.371   0.634  0.00  0.00     0.003 A 
ENDROOT
TORSDOF 0
ENDMDL
