MODEL 1
REMARK minimizedAffinity -3.24979258
REMARK minimizedRMSD -1
REMARK  0 active torsions:
REMARK  status: ('A' for Active; 'I' for Inactive)
ROOT
ATOM      1  C2' OXE d   1      -3.328   0.494  -2.230  0.00  0.00     0.078 C 
ATOM      2  C1' OXE d   1      -1.273   1.246  -0.472  0.00  0.00     0.078 C 
ATOM      3  C1  OXE d   1      -1.283   1.865  -1.847  0.00  0.00    -0.078 A 
ATOM      4  C2  OXE d   1      -2.265   1.456  -2.717  0.00  0.00    -0.078 A 
ATOM      5  C3  OXE d   1      -2.353   2.035  -3.979  0.00  0.00     0.003 A 
ATOM      6  C4  OXE d   1      -1.361   2.916  -4.426  0.00  0.00    -0.002 A 
ATOM      7  C5  OXE d   1      -0.329   3.316  -3.569  0.00  0.00    -0.002 A 
ATOM      8  C6  OXE d   1      -0.300   2.833  -2.266  0.00  0.00     0.003 A 
ENDROOT
TORSDOF 0
ENDMDL
