MODEL 1
REMARK minimizedAffinity -0.142567784
REMARK minimizedRMSD -1
REMARK  0 active torsions:
REMARK  status: ('A' for Active; 'I' for Inactive)
ROOT
ATOM      1  C2' OXE d   1       1.032  -2.715   1.757  0.00  0.00     0.078 C 
ATOM      2  C1' OXE d   1      -1.326  -1.927   3.061  0.00  0.00     0.078 C 
ATOM      3  C1  OXE d   1      -0.942  -1.196   1.799  0.00  0.00    -0.078 A 
ATOM      4  C2  OXE d   1       0.237  -1.556   1.193  0.00  0.00    -0.078 A 
ATOM      5  C3  OXE d   1       0.611  -0.951  -0.003  0.00  0.00     0.003 A 
ATOM      6  C4  OXE d   1      -0.124   0.127  -0.512  0.00  0.00    -0.002 A 
ATOM      7  C5  OXE d   1      -1.307   0.536   0.111  0.00  0.00    -0.002 A 
ATOM      8  C6  OXE d   1      -1.752  -0.141   1.241  0.00  0.00     0.003 A 
ENDROOT
TORSDOF 0
ENDMDL
