MODEL 1
REMARK minimizedAffinity 0.956563294
REMARK minimizedRMSD -1
REMARK  0 active torsions:
REMARK  status: ('A' for Active; 'I' for Inactive)
ROOT
ATOM      1  N1  IND d   1      -1.405   5.612   3.724  0.00  0.00    -0.196 N 
ATOM      2  C2  IND d   1      -2.119   5.625   4.891  0.00  0.00     0.054 A 
ATOM      3  C3  IND d   1      -1.285   5.727   5.950  0.00  0.00    -0.031 A 
ATOM      4  C4  IND d   1       1.275   5.990   5.998  0.00  0.00     0.051 A 
ATOM      5  C5  IND d   1       2.373   5.995   5.184  0.00  0.00    -0.031 A 
ATOM      6  C6  IND d   1       2.265   5.874   3.814  0.00  0.00     0.015 A 
ATOM      7  C7  IND d   1       1.049   5.753   3.203  0.00  0.00    -0.016 A 
ATOM      8  C8  IND d   1      -0.068   5.740   4.027  0.00  0.00    -0.047 A 
ATOM      9  C9  IND d   1       0.039   5.820   5.422  0.00  0.00    -0.096 A 
ATOM     10  HN1 IND d   1      -1.737   5.537   2.935  0.00  0.00     0.298 HD
ENDROOT
TORSDOF 0
ENDMDL
