MODEL 1
REMARK minimizedAffinity 1.05787718
REMARK minimizedRMSD -1
REMARK  0 active torsions:
REMARK  status: ('A' for Active; 'I' for Inactive)
ROOT
ATOM      1  N1  IND d   1       5.900  -3.880   2.096  0.00  0.00    -0.196 N 
ATOM      2  C2  IND d   1       5.715  -5.230   1.982  0.00  0.00     0.054 A 
ATOM      3  C3  IND d   1       4.448  -5.501   1.598  0.00  0.00    -0.031 A 
ATOM      4  C4  IND d   1       2.537  -3.880   1.006  0.00  0.00     0.051 A 
ATOM      5  C5  IND d   1       2.215  -2.552   0.995  0.00  0.00    -0.031 A 
ATOM      6  C6  IND d   1       3.124  -1.579   1.355  0.00  0.00     0.015 A 
ATOM      7  C7  IND d   1       4.399  -1.898   1.730  0.00  0.00    -0.016 A 
ATOM      8  C8  IND d   1       4.726  -3.247   1.750  0.00  0.00    -0.047 A 
ATOM      9  C9  IND d   1       3.795  -4.242   1.426  0.00  0.00    -0.096 A 
ATOM     10  HN1 IND d   1       6.626  -3.492   2.344  0.00  0.00     0.298 HD
ENDROOT
TORSDOF 0
ENDMDL
