MODEL 1
REMARK minimizedAffinity 5.24827242
REMARK minimizedRMSD -1
REMARK  0 active torsions:
REMARK  status: ('A' for Active; 'I' for Inactive)
ROOT
ATOM      1  N1  IND d   1       0.401  -4.272   1.673  0.00  0.00    -0.196 N 
ATOM      2  C2  IND d   1      -0.759  -3.666   2.071  0.00  0.00     0.054 A 
ATOM      3  C3  IND d   1      -0.634  -2.322   2.005  0.00  0.00    -0.031 A 
ATOM      4  C4  IND d   1       1.347  -0.902   1.178  0.00  0.00     0.051 A 
ATOM      5  C5  IND d   1       2.641  -1.004   0.748  0.00  0.00    -0.031 A 
ATOM      6  C6  IND d   1       3.265  -2.225   0.599  0.00  0.00     0.015 A 
ATOM      7  C7  IND d   1       2.613  -3.396   0.865  0.00  0.00    -0.016 A 
ATOM      8  C8  IND d   1       1.302  -3.296   1.308  0.00  0.00    -0.047 A 
ATOM      9  C9  IND d   1       0.676  -2.057   1.502  0.00  0.00    -0.096 A 
ATOM     10  HN1 IND d   1       0.543  -5.119   1.654  0.00  0.00     0.298 HD
ENDROOT
TORSDOF 0
ENDMDL
