MODEL 1
REMARK minimizedAffinity -2.06317902
REMARK minimizedRMSD -1
REMARK  0 active torsions:
REMARK  status: ('A' for Active; 'I' for Inactive)
ROOT
ATOM      1  N1  IND d   1       2.918   5.216   3.901  0.00  0.00    -0.196 N 
ATOM      2  C2  IND d   1       3.611   5.601   5.015  0.00  0.00     0.054 A 
ATOM      3  C3  IND d   1       2.757   5.997   5.986  0.00  0.00    -0.031 A 
ATOM      4  C4  IND d   1       0.183   5.999   5.999  0.00  0.00     0.051 A 
ATOM      5  C5  IND d   1      -0.899   5.769   5.196  0.00  0.00    -0.031 A 
ATOM      6  C6  IND d   1      -0.761   5.331   3.895  0.00  0.00     0.015 A 
ATOM      7  C7  IND d   1       0.469   5.095   3.350  0.00  0.00    -0.016 A 
ATOM      8  C8  IND d   1       1.570   5.335   4.160  0.00  0.00    -0.047 A 
ATOM      9  C9  IND d   1       1.438   5.820   5.467  0.00  0.00    -0.096 A 
ATOM     10  HN1 IND d   1       3.266   4.945   3.163  0.00  0.00     0.298 HD
ENDROOT
TORSDOF 0
ENDMDL
