MODEL 1
REMARK minimizedAffinity 10.0123529
REMARK minimizedRMSD -1
REMARK  0 active torsions:
REMARK  status: ('A' for Active; 'I' for Inactive)
ROOT
ATOM      1  N1  IND d   1      -3.202   3.081   4.142  0.00  0.00    -0.196 N 
ATOM      2  C2  IND d   1      -4.154   3.224   5.113  0.00  0.00     0.054 A 
ATOM      3  C3  IND d   1      -3.783   4.174   6.000  0.00  0.00    -0.031 A 
ATOM      4  C4  IND d   1      -1.703   5.691   5.997  0.00  0.00     0.051 A 
ATOM      5  C5  IND d   1      -0.528   5.906   5.333  0.00  0.00    -0.031 A 
ATOM      6  C6  IND d   1      -0.178   5.178   4.214  0.00  0.00     0.015 A 
ATOM      7  C7  IND d   1      -1.000   4.211   3.709  0.00  0.00    -0.016 A 
ATOM      8  C8  IND d   1      -2.190   3.985   4.384  0.00  0.00    -0.047 A 
ATOM      9  C9  IND d   1      -2.531   4.691   5.545  0.00  0.00    -0.096 A 
ATOM     10  HN1 IND d   1      -3.230   2.521   3.491  0.00  0.00     0.298 HD
ENDROOT
TORSDOF 0
ENDMDL
