MODEL 1
REMARK minimizedAffinity 2.69404626
REMARK minimizedRMSD -1
REMARK  0 active torsions:
REMARK  status: ('A' for Active; 'I' for Inactive)
ROOT
ATOM      1  N1  IND d   1      -1.783   2.178   5.997  0.00  0.00    -0.196 N 
ATOM      2  C2  IND d   1      -3.129   2.415   5.994  0.00  0.00     0.054 A 
ATOM      3  C3  IND d   1      -3.373   3.745   6.000  0.00  0.00    -0.031 A 
ATOM      4  C4  IND d   1      -1.714   5.711   5.914  0.00  0.00     0.051 A 
ATOM      5  C5  IND d   1      -0.377   5.995   5.942  0.00  0.00    -0.031 A 
ATOM      6  C6  IND d   1       0.579   5.001   5.988  0.00  0.00     0.015 A 
ATOM      7  C7  IND d   1       0.232   3.679   5.997  0.00  0.00    -0.016 A 
ATOM      8  C8  IND d   1      -1.125   3.388   5.975  0.00  0.00    -0.047 A 
ATOM      9  C9  IND d   1      -2.100   4.393   5.971  0.00  0.00    -0.096 A 
ATOM     10  HN1 IND d   1      -1.410   1.403   6.011  0.00  0.00     0.298 HD
ENDROOT
TORSDOF 0
ENDMDL
