MODEL 1
REMARK minimizedAffinity 2.32547426
REMARK minimizedRMSD -1
REMARK  0 active torsions:
REMARK  status: ('A' for Active; 'I' for Inactive)
ROOT
ATOM      1  N1  IND d   1       0.628   5.990   3.836  0.00  0.00    -0.196 N 
ATOM      2  C2  IND d   1       1.480   5.715   4.869  0.00  0.00     0.054 A 
ATOM      3  C3  IND d   1       0.818   5.101   5.875  0.00  0.00    -0.031 A 
ATOM      4  C4  IND d   1      -1.644   4.359   5.999  0.00  0.00     0.051 A 
ATOM      5  C5  IND d   1      -2.825   4.424   5.313  0.00  0.00    -0.031 A 
ATOM      6  C6  IND d   1      -2.916   5.024   4.074  0.00  0.00     0.015 A 
ATOM      7  C7  IND d   1      -1.823   5.574   3.466  0.00  0.00    -0.016 A 
ATOM      8  C8  IND d   1      -0.624   5.516   4.163  0.00  0.00    -0.047 A 
ATOM      9  C9  IND d   1      -0.534   4.946   5.439  0.00  0.00    -0.096 A 
ATOM     10  HN1 IND d   1       0.838   6.391   3.106  0.00  0.00     0.298 HD
ENDROOT
TORSDOF 0
ENDMDL
