MODEL 1
REMARK minimizedAffinity -3.32480574
REMARK minimizedRMSD -1
REMARK  0 active torsions:
REMARK  status: ('A' for Active; 'I' for Inactive)
ROOT
ATOM      1  N1  IND d   1       2.164   4.024   4.588  0.00  0.00    -0.196 N 
ATOM      2  C2  IND d   1       1.499   5.147   4.997  0.00  0.00     0.054 A 
ATOM      3  C3  IND d   1       2.348   5.994   5.622  0.00  0.00    -0.031 A 
ATOM      4  C4  IND d   1       4.886   5.787   5.995  0.00  0.00     0.051 A 
ATOM      5  C5  IND d   1       5.932   4.922   5.830  0.00  0.00    -0.031 A 
ATOM      6  C6  IND d   1       5.773   3.691   5.229  0.00  0.00     0.015 A 
ATOM      7  C7  IND d   1       4.558   3.281   4.757  0.00  0.00    -0.016 A 
ATOM      8  C8  IND d   1       3.492   4.153   4.928  0.00  0.00    -0.047 A 
ATOM      9  C9  IND d   1       3.639   5.386   5.576  0.00  0.00    -0.096 A 
ATOM     10  HN1 IND d   1       1.811   3.351   4.185  0.00  0.00     0.298 HD
ENDROOT
TORSDOF 0
ENDMDL
