MODEL 1
REMARK minimizedAffinity -1.77845323
REMARK minimizedRMSD -1
REMARK  0 active torsions:
REMARK  status: ('A' for Active; 'I' for Inactive)
ROOT
ATOM      1  N1  IND d   1       2.322  -1.960   1.539  0.00  0.00    -0.196 N 
ATOM      2  C2  IND d   1       1.302  -2.869   1.505  0.00  0.00     0.054 A 
ATOM      3  C3  IND d   1       1.794  -4.126   1.450  0.00  0.00    -0.031 A 
ATOM      4  C4  IND d   1       4.240  -4.930   1.508  0.00  0.00     0.051 A 
ATOM      5  C5  IND d   1       5.526  -4.467   1.500  0.00  0.00    -0.031 A 
ATOM      6  C6  IND d   1       5.816  -3.118   1.507  0.00  0.00     0.015 A 
ATOM      7  C7  IND d   1       4.826  -2.177   1.535  0.00  0.00    -0.016 A 
ATOM      8  C8  IND d   1       3.519  -2.643   1.536  0.00  0.00    -0.047 A 
ATOM      9  C9  IND d   1       3.218  -4.010   1.485  0.00  0.00    -0.096 A 
ATOM     10  HN1 IND d   1       2.232  -1.105   1.559  0.00  0.00     0.298 HD
ENDROOT
TORSDOF 0
ENDMDL
