MODEL 1
REMARK minimizedAffinity -1.93181944
REMARK minimizedRMSD -1
REMARK  0 active torsions:
REMARK  status: ('A' for Active; 'I' for Inactive)
ROOT
ATOM      1  N1  IND d   1       0.650   5.127   3.956  0.00  0.00    -0.196 N 
ATOM      2  C2  IND d   1       1.311   5.607   5.052  0.00  0.00     0.054 A 
ATOM      3  C3  IND d   1       0.428   6.000   5.998  0.00  0.00    -0.031 A 
ATOM      4  C4  IND d   1      -2.142   5.851   6.000  0.00  0.00     0.051 A 
ATOM      5  C5  IND d   1      -3.202   5.517   5.205  0.00  0.00    -0.031 A 
ATOM      6  C6  IND d   1      -3.029   5.024   3.927  0.00  0.00     0.015 A 
ATOM      7  C7  IND d   1      -1.783   4.834   3.400  0.00  0.00    -0.016 A 
ATOM      8  C8  IND d   1      -0.704   5.179   4.202  0.00  0.00    -0.047 A 
ATOM      9  C9  IND d   1      -0.874   5.719   5.483  0.00  0.00    -0.096 A 
ATOM     10  HN1 IND d   1       1.019   4.840   3.234  0.00  0.00     0.298 HD
ENDROOT
TORSDOF 0
ENDMDL
