MODEL 1
REMARK minimizedAffinity 11.4026155
REMARK minimizedRMSD -1
REMARK  0 active torsions:
REMARK  status: ('A' for Active; 'I' for Inactive)
ROOT
ATOM      1  C   UNL d   1      -5.530   0.818  -0.474  0.00  0.00     0.020 A 
ATOM      2  C1  UNL d   1      -4.185   0.701  -0.125  0.00  0.00     0.020 A 
ATOM      3  C2  UNL d   1      -3.235   0.389  -1.100  0.00  0.00     0.034 A 
ATOM      4  C3  UNL d   1      -3.629   0.193  -2.429  0.00  0.00     0.017 A 
ATOM      5  C4  UNL d   1      -4.979   0.311  -2.778  0.00  0.00     0.017 A 
ATOM      6  C5  UNL d   1      -5.926   0.624  -1.798  0.00  0.00     0.034 A 
ATOM      7 Cl   UNL d   1      -5.540   0.084  -4.397  0.00  0.00    -0.070 Cl
ATOM      8 Cl1  UNL d   1      -2.400  -0.190  -3.582  0.00  0.00    -0.070 Cl
ENDROOT
TORSDOF 0
ENDMDL
