MODEL 1
REMARK minimizedAffinity 20.1273994
REMARK minimizedRMSD -1
REMARK  0 active torsions:
REMARK  status: ('A' for Active; 'I' for Inactive)
ROOT
ATOM      1  C   UNL d   1       2.623   0.873  -0.896  0.00  0.00     0.020 A 
ATOM      2  C1  UNL d   1       2.789   0.668   0.473  0.00  0.00     0.020 A 
ATOM      3  C2  UNL d   1       3.634   1.504   1.207  0.00  0.00     0.034 A 
ATOM      4  C3  UNL d   1       4.315   2.549   0.572  0.00  0.00     0.017 A 
ATOM      5  C4  UNL d   1       4.147   2.754  -0.802  0.00  0.00     0.017 A 
ATOM      6  C5  UNL d   1       3.301   1.914  -1.532  0.00  0.00     0.034 A 
ATOM      7 Cl   UNL d   1       4.954   4.022  -1.655  0.00  0.00    -0.070 Cl
ATOM      8 Cl1  UNL d   1       5.342   3.544   1.542  0.00  0.00    -0.070 Cl
ENDROOT
TORSDOF 0
ENDMDL
