MODEL 1
REMARK minimizedAffinity 12.9541225
REMARK minimizedRMSD -1
REMARK  0 active torsions:
REMARK  status: ('A' for Active; 'I' for Inactive)
ROOT
ATOM      1  C   UNL d   1      -2.476  -5.350   4.453  0.00  0.00     0.020 A 
ATOM      2  C1  UNL d   1      -1.870  -6.000   5.527  0.00  0.00     0.020 A 
ATOM      3  C2  UNL d   1      -0.613  -5.588   5.973  0.00  0.00     0.034 A 
ATOM      4  C3  UNL d   1       0.044  -4.523   5.345  0.00  0.00     0.017 A 
ATOM      5  C4  UNL d   1      -0.565  -3.872   4.266  0.00  0.00     0.017 A 
ATOM      6  C5  UNL d   1      -1.825  -4.288   3.824  0.00  0.00     0.034 A 
ATOM      7 Cl   UNL d   1       0.182  -2.550   3.440  0.00  0.00    -0.070 Cl
ATOM      8 Cl1  UNL d   1       1.597  -4.067   5.949  0.00  0.00    -0.070 Cl
ENDROOT
TORSDOF 0
ENDMDL
