MODEL 1
REMARK minimizedAffinity 7.43853951
REMARK minimizedRMSD -1
REMARK  0 active torsions:
REMARK  status: ('A' for Active; 'I' for Inactive)
ROOT
ATOM      1  C   UNL d   1      -4.495   1.293   0.366  0.00  0.00     0.020 A 
ATOM      2  C1  UNL d   1      -4.124  -0.003   0.008  0.00  0.00     0.020 A 
ATOM      3  C2  UNL d   1      -4.330  -0.453  -1.298  0.00  0.00     0.034 A 
ATOM      4  C3  UNL d   1      -4.909   0.393  -2.251  0.00  0.00     0.017 A 
ATOM      5  C4  UNL d   1      -5.281   1.694  -1.891  0.00  0.00     0.017 A 
ATOM      6  C5  UNL d   1      -5.072   2.139  -0.582  0.00  0.00     0.034 A 
ATOM      7 Cl   UNL d   1      -6.000   2.796  -3.011  0.00  0.00    -0.070 Cl
ATOM      8 Cl1  UNL d   1      -5.134  -0.229  -3.847  0.00  0.00    -0.070 Cl
ENDROOT
TORSDOF 0
ENDMDL
