MODEL 1
REMARK minimizedAffinity 13.2689705
REMARK minimizedRMSD -1
REMARK  0 active torsions:
REMARK  status: ('A' for Active; 'I' for Inactive)
ROOT
ATOM      1  C   UNL d   1       2.582   0.760  -1.126  0.00  0.00     0.020 A 
ATOM      2  C1  UNL d   1       3.185   1.126   0.077  0.00  0.00     0.020 A 
ATOM      3  C2  UNL d   1       3.199   0.233   1.150  0.00  0.00     0.034 A 
ATOM      4  C3  UNL d   1       2.608  -1.030   1.023  0.00  0.00     0.017 A 
ATOM      5  C4  UNL d   1       2.004  -1.396  -0.184  0.00  0.00     0.017 A 
ATOM      6  C5  UNL d   1       1.993  -0.498  -1.256  0.00  0.00     0.034 A 
ATOM      7 Cl   UNL d   1       1.255  -2.936  -0.417  0.00  0.00    -0.070 Cl
ATOM      8 Cl1  UNL d   1       2.662  -2.083   2.392  0.00  0.00    -0.070 Cl
ENDROOT
TORSDOF 0
ENDMDL
