MODEL 1
REMARK minimizedAffinity 7.76973963
REMARK minimizedRMSD -1
REMARK  0 active torsions:
REMARK  status: ('A' for Active; 'I' for Inactive)
ROOT
ATOM      1  C   UNL d   1       3.039   0.555  -0.216  0.00  0.00     0.020 A 
ATOM      2  C1  UNL d   1       3.218   0.798  -1.577  0.00  0.00     0.020 A 
ATOM      3  C2  UNL d   1       2.850  -0.170  -2.514  0.00  0.00     0.034 A 
ATOM      4  C3  UNL d   1       2.301  -1.386  -2.090  0.00  0.00     0.017 A 
ATOM      5  C4  UNL d   1       2.122  -1.629  -0.723  0.00  0.00     0.017 A 
ATOM      6  C5  UNL d   1       2.492  -0.656   0.210  0.00  0.00     0.034 A 
ATOM      7 Cl   UNL d   1       1.451  -3.105  -0.124  0.00  0.00    -0.070 Cl
ATOM      8 Cl1  UNL d   1       1.868  -2.538  -3.303  0.00  0.00    -0.070 Cl
ENDROOT
TORSDOF 0
ENDMDL
