MODEL 1
REMARK minimizedAffinity 6.65430832
REMARK minimizedRMSD -1
REMARK  0 active torsions:
REMARK  status: ('A' for Active; 'I' for Inactive)
ROOT
ATOM      1  C   UNL d   1      -4.954   0.450  -1.410  0.00  0.00     0.020 A 
ATOM      2  C1  UNL d   1      -5.903   0.240  -0.411  0.00  0.00     0.020 A 
ATOM      3  C2  UNL d   1      -5.999   1.131   0.660  0.00  0.00     0.034 A 
ATOM      4  C3  UNL d   1      -5.145   2.237   0.734  0.00  0.00     0.017 A 
ATOM      5  C4  UNL d   1      -4.192   2.448  -0.269  0.00  0.00     0.017 A 
ATOM      6  C5  UNL d   1      -4.101   1.552  -1.339  0.00  0.00     0.034 A 
ATOM      7 Cl   UNL d   1      -3.104   3.790  -0.247  0.00  0.00    -0.070 Cl
ATOM      8 Cl1  UNL d   1      -5.320   3.298   2.087  0.00  0.00    -0.070 Cl
ENDROOT
TORSDOF 0
ENDMDL
