MODEL 1
REMARK minimizedAffinity 10.2150173
REMARK minimizedRMSD -1
REMARK  0 active torsions:
REMARK  status: ('A' for Active; 'I' for Inactive)
ROOT
ATOM      1  C   UNL d   1      -5.832   0.659   0.068  0.00  0.00     0.020 A 
ATOM      2  C1  UNL d   1      -4.557   0.629   0.630  0.00  0.00     0.020 A 
ATOM      3  C2  UNL d   1      -3.445   0.369  -0.174  0.00  0.00     0.034 A 
ATOM      4  C3  UNL d   1      -3.607   0.139  -1.545  0.00  0.00     0.017 A 
ATOM      5  C4  UNL d   1      -4.888   0.169  -2.108  0.00  0.00     0.017 A 
ATOM      6  C5  UNL d   1      -5.998   0.429  -1.298  0.00  0.00     0.034 A 
ATOM      7 Cl   UNL d   1      -5.167  -0.106  -3.792  0.00  0.00    -0.070 Cl
ATOM      8 Cl1  UNL d   1      -2.189  -0.175  -2.480  0.00  0.00    -0.070 Cl
ENDROOT
TORSDOF 0
ENDMDL
