MODEL 1
REMARK minimizedAffinity 6.01705933
REMARK minimizedRMSD -1
REMARK  0 active torsions:
REMARK  status: ('A' for Active; 'I' for Inactive)
ROOT
ATOM      1  C   UNL d   1       2.769   1.444  -1.231  0.00  0.00     0.020 A 
ATOM      2  C1  UNL d   1       3.983   1.800  -0.644  0.00  0.00     0.020 A 
ATOM      3  C2  UNL d   1       4.622   0.917   0.229  0.00  0.00     0.034 A 
ATOM      4  C3  UNL d   1       4.047  -0.326   0.518  0.00  0.00     0.017 A 
ATOM      5  C4  UNL d   1       2.829  -0.682  -0.071  0.00  0.00     0.017 A 
ATOM      6  C5  UNL d   1       2.193   0.206  -0.945  0.00  0.00     0.034 A 
ATOM      7 Cl   UNL d   1       2.058  -2.198   0.237  0.00  0.00    -0.070 Cl
ATOM      8 Cl1  UNL d   1       4.892  -1.368   1.607  0.00  0.00    -0.070 Cl
ENDROOT
TORSDOF 0
ENDMDL
