MODEL 1
REMARK minimizedAffinity 9.84521961
REMARK minimizedRMSD -1
REMARK  1 active torsions:
REMARK  status: ('A' for Active; 'I' for Inactive)
REMARK    1  A    between atoms: N_2  and  C1_3 
ROOT
ATOM      1  C1  UNL d   1      -2.410   0.142  -2.712  0.00  0.00     0.143 A 
ATOM      2  C2  UNL d   1      -1.370  -0.737  -3.030  0.00  0.00    -0.057 A 
ATOM      3  C3  UNL d   1      -0.996  -1.766  -2.157  0.00  0.00     0.033 A 
ATOM      4  C4  UNL d   1      -1.640  -1.916  -0.933  0.00  0.00    -0.042 A 
ATOM      5  C5  UNL d   1      -2.660  -1.038  -0.585  0.00  0.00     0.033 A 
ATOM      6  C6  UNL d   1      -3.033  -0.017  -1.464  0.00  0.00    -0.057 A 
ENDROOT
BRANCH   1   7
ATOM      7  N   UNL d   1      -2.763   1.245  -3.493  0.00  0.00    -0.732 N 
ATOM      8  C   UNL d   1      -1.744   2.076  -4.098  0.00  0.00     0.284 C 
ATOM      9  H3  UNL d   1      -3.557   1.053  -4.100  0.00  0.00     0.395 HD
ENDBRANCH   1   7
TORSDOF 1
ENDMDL
