MODEL 1
REMARK minimizedAffinity 15.8571663
REMARK minimizedRMSD -1
REMARK  1 active torsions:
REMARK  status: ('A' for Active; 'I' for Inactive)
REMARK    1  A    between atoms: N_2  and  C1_3 
ROOT
ATOM      1  C1  UNL d   1      -1.996   1.234  -3.923  0.00  0.00     0.143 A 
ATOM      2  C2  UNL d   1      -2.532   2.460  -4.333  0.00  0.00    -0.057 A 
ATOM      3  C3  UNL d   1      -1.715   3.471  -4.854  0.00  0.00     0.033 A 
ATOM      4  C4  UNL d   1      -0.340   3.284  -4.948  0.00  0.00    -0.042 A 
ATOM      5  C5  UNL d   1       0.217   2.083  -4.523  0.00  0.00     0.033 A 
ATOM      6  C6  UNL d   1      -0.604   1.074  -4.010  0.00  0.00    -0.057 A 
ENDROOT
BRANCH   1   7
ATOM      7  N   UNL d   1      -2.742   0.227  -3.306  0.00  0.00    -0.732 N 
ATOM      8  C   UNL d   1      -2.109  -1.002  -2.877  0.00  0.00     0.284 C 
ATOM      9  H3  UNL d   1      -3.422   0.596  -2.646  0.00  0.00     0.395 HD
ENDBRANCH   1   7
TORSDOF 1
ENDMDL
