MODEL 1
REMARK minimizedAffinity 10.2103138
REMARK minimizedRMSD -1
REMARK  1 active torsions:
REMARK  status: ('A' for Active; 'I' for Inactive)
REMARK    1  A    between atoms: N_2  and  C1_3 
ROOT
ATOM      1  C1  UNL d   1       0.120   0.571  -3.822  0.00  0.00     0.143 A 
ATOM      2  C2  UNL d   1      -1.238   0.484  -3.498  0.00  0.00    -0.057 A 
ATOM      3  C3  UNL d   1      -2.106   1.561  -3.711  0.00  0.00     0.033 A 
ATOM      4  C4  UNL d   1      -1.623   2.760  -4.226  0.00  0.00    -0.042 A 
ATOM      5  C5  UNL d   1      -0.272   2.878  -4.531  0.00  0.00     0.033 A 
ATOM      6  C6  UNL d   1       0.589   1.796  -4.323  0.00  0.00    -0.057 A 
ENDROOT
BRANCH   1   7
ATOM      7  N   UNL d   1       1.053  -0.431  -3.542  0.00  0.00    -0.732 N 
ATOM      8  C   UNL d   1       2.321  -0.107  -2.925  0.00  0.00     0.284 C 
ATOM      9  H3  UNL d   1       0.617  -1.276  -3.179  0.00  0.00     0.395 HD
ENDBRANCH   1   7
TORSDOF 1
ENDMDL
