MODEL 1
REMARK minimizedAffinity 8.85623932
REMARK minimizedRMSD -1
REMARK  1 active torsions:
REMARK  status: ('A' for Active; 'I' for Inactive)
REMARK    1  A    between atoms: N_2  and  C1_3 
ROOT
ATOM      1  C1  UNL d   1      -1.100  -3.279  -0.391  0.00  0.00     0.143 A 
ATOM      2  C2  UNL d   1      -0.732  -3.786   0.859  0.00  0.00    -0.057 A 
ATOM      3  C3  UNL d   1      -0.373  -5.130   1.021  0.00  0.00     0.033 A 
ATOM      4  C4  UNL d   1      -0.405  -6.000  -0.064  0.00  0.00    -0.042 A 
ATOM      5  C5  UNL d   1      -0.792  -5.523  -1.312  0.00  0.00     0.033 A 
ATOM      6  C6  UNL d   1      -1.142  -4.178  -1.468  0.00  0.00    -0.057 A 
ENDROOT
BRANCH   1   7
ATOM      7  N   UNL d   1      -1.561  -1.976  -0.597  0.00  0.00    -0.732 N 
ATOM      8  C   UNL d   1      -1.819  -1.488  -1.935  0.00  0.00     0.284 C 
ATOM      9  H3  UNL d   1      -2.260  -1.699   0.088  0.00  0.00     0.395 HD
ENDBRANCH   1   7
TORSDOF 1
ENDMDL
