MODEL 1
REMARK minimizedAffinity 16.2367516
REMARK minimizedRMSD -1
REMARK  1 active torsions:
REMARK  status: ('A' for Active; 'I' for Inactive)
REMARK    1  A    between atoms: N_2  and  C1_3 
ROOT
ATOM      1  C1  UNL d   1      -1.003   2.438  -4.148  0.00  0.00     0.143 A 
ATOM      2  C2  UNL d   1      -2.341   2.304  -3.763  0.00  0.00    -0.057 A 
ATOM      3  C3  UNL d   1      -2.798   1.150  -3.114  0.00  0.00     0.033 A 
ATOM      4  C4  UNL d   1      -1.927   0.095  -2.864  0.00  0.00    -0.042 A 
ATOM      5  C5  UNL d   1      -0.598   0.196  -3.261  0.00  0.00     0.033 A 
ATOM      6  C6  UNL d   1      -0.147   1.353  -3.902  0.00  0.00    -0.057 A 
ENDROOT
BRANCH   1   7
ATOM      7  N   UNL d   1      -0.511   3.518  -4.885  0.00  0.00    -0.732 N 
ATOM      8  C   UNL d   1       0.390   3.303  -5.997  0.00  0.00     0.284 C 
ATOM      9  H3  UNL d   1      -1.220   4.228  -5.055  0.00  0.00     0.395 HD
ENDBRANCH   1   7
TORSDOF 1
ENDMDL
