MODEL 1
REMARK minimizedAffinity 13.2904873
REMARK minimizedRMSD -1
REMARK  1 active torsions:
REMARK  status: ('A' for Active; 'I' for Inactive)
REMARK    1  A    between atoms: N_2  and  C1_3 
ROOT
ATOM      1  C1  UNL d   1      -0.000   0.906  -3.784  0.00  0.00     0.143 A 
ATOM      2  C2  UNL d   1      -1.376   1.160  -3.751  0.00  0.00    -0.057 A 
ATOM      3  C3  UNL d   1      -1.895   2.402  -4.137  0.00  0.00     0.033 A 
ATOM      4  C4  UNL d   1      -1.041   3.426  -4.535  0.00  0.00    -0.042 A 
ATOM      5  C5  UNL d   1       0.332   3.204  -4.551  0.00  0.00     0.033 A 
ATOM      6  C6  UNL d   1       0.843   1.959  -4.172  0.00  0.00    -0.057 A 
ENDROOT
BRANCH   1   7
ATOM      7  N   UNL d   1       0.584  -0.275  -3.319  0.00  0.00    -0.732 N 
ATOM      8  C   UNL d   1       2.015  -0.362  -3.124  0.00  0.00     0.284 C 
ATOM      9  H3  UNL d   1       0.037  -0.716  -2.584  0.00  0.00     0.395 HD
ENDBRANCH   1   7
TORSDOF 1
ENDMDL
