MODEL 1
REMARK minimizedAffinity 2.42209721
REMARK minimizedRMSD -1
REMARK  1 active torsions:
REMARK  status: ('A' for Active; 'I' for Inactive)
REMARK    1  A    between atoms: N_2  and  C1_3 
ROOT
ATOM      1  C1  UNL d   1      -3.550   4.136  -5.082  0.00  0.00     0.143 A 
ATOM      2  C2  UNL d   1      -4.589   3.674  -5.897  0.00  0.00    -0.057 A 
ATOM      3  C3  UNL d   1      -5.797   4.373  -5.998  0.00  0.00     0.033 A 
ATOM      4  C4  UNL d   1      -6.000   5.535  -5.261  0.00  0.00    -0.042 A 
ATOM      5  C5  UNL d   1      -4.991   6.000  -4.425  0.00  0.00     0.033 A 
ATOM      6  C6  UNL d   1      -3.783   5.301  -4.333  0.00  0.00    -0.057 A 
ENDROOT
BRANCH   1   7
ATOM      7  N   UNL d   1      -2.362   3.434  -4.862  0.00  0.00    -0.732 N 
ATOM      8  C   UNL d   1      -2.243   2.515  -3.751  0.00  0.00     0.284 C 
ATOM      9  H3  UNL d   1      -1.945   3.096  -5.727  0.00  0.00     0.395 HD
ENDBRANCH   1   7
TORSDOF 1
ENDMDL
