MODEL 1
REMARK minimizedAffinity 2.41686797
REMARK minimizedRMSD -1
REMARK  1 active torsions:
REMARK  status: ('A' for Active; 'I' for Inactive)
REMARK    1  A    between atoms: N_2  and  C1_3 
ROOT
ATOM      1  C1  UNL d   1       0.191  -4.830   1.823  0.00  0.00     0.143 A 
ATOM      2  C2  UNL d   1      -0.799  -4.864   2.811  0.00  0.00    -0.057 A 
ATOM      3  C3  UNL d   1      -0.551  -5.430   4.067  0.00  0.00     0.033 A 
ATOM      4  C4  UNL d   1       0.686  -6.000   4.349  0.00  0.00    -0.042 A 
ATOM      5  C5  UNL d   1       1.677  -6.000   3.373  0.00  0.00     0.033 A 
ATOM      6  C6  UNL d   1       1.426  -5.427   2.123  0.00  0.00    -0.057 A 
ENDROOT
BRANCH   1   7
ATOM      7  N   UNL d   1      -0.024  -4.370   0.521  0.00  0.00    -0.732 N 
ATOM      8  C   UNL d   1      -0.361  -5.294  -0.540  0.00  0.00     0.284 C 
ATOM      9  H3  UNL d   1      -0.552  -3.500   0.499  0.00  0.00     0.395 HD
ENDBRANCH   1   7
TORSDOF 1
ENDMDL
