MODEL 1
REMARK minimizedAffinity 9.35126114
REMARK minimizedRMSD -1
REMARK  1 active torsions:
REMARK  status: ('A' for Active; 'I' for Inactive)
REMARK    1  A    between atoms: N_2  and  C1_3 
ROOT
ATOM      1  C1  UNL d   1      -1.123  -3.846   0.925  0.00  0.00     0.143 A 
ATOM      2  C2  UNL d   1      -1.193  -2.871  -0.075  0.00  0.00    -0.057 A 
ATOM      3  C3  UNL d   1      -2.113  -1.818   0.001  0.00  0.00     0.033 A 
ATOM      4  C4  UNL d   1      -3.002  -1.738   1.068  0.00  0.00    -0.042 A 
ATOM      5  C5  UNL d   1      -2.967  -2.711   2.061  0.00  0.00     0.033 A 
ATOM      6  C6  UNL d   1      -2.042  -3.756   1.983  0.00  0.00    -0.057 A 
ENDROOT
BRANCH   1   7
ATOM      7  N   UNL d   1      -0.298  -4.972   0.858  0.00  0.00    -0.732 N 
ATOM      8  C   UNL d   1      -0.370  -6.000   1.874  0.00  0.00     0.284 C 
ATOM      9  H3  UNL d   1      -0.206  -5.330  -0.090  0.00  0.00     0.395 HD
ENDBRANCH   1   7
TORSDOF 1
ENDMDL
