MODEL 1
REMARK minimizedAffinity 7.8177309
REMARK minimizedRMSD -1
REMARK  1 active torsions:
REMARK  status: ('A' for Active; 'I' for Inactive)
REMARK    1  A    between atoms: N_2  and  C1_3 
ROOT
ATOM      1  C1  UNL d   1      -2.150  -3.020   2.068  0.00  0.00     0.143 A 
ATOM      2  C2  UNL d   1      -1.199  -3.997   1.753  0.00  0.00    -0.057 A 
ATOM      3  C3  UNL d   1      -0.618  -4.061   0.481  0.00  0.00     0.033 A 
ATOM      4  C4  UNL d   1      -1.002  -3.165  -0.512  0.00  0.00    -0.042 A 
ATOM      5  C5  UNL d   1      -1.963  -2.201  -0.228  0.00  0.00     0.033 A 
ATOM      6  C6  UNL d   1      -2.534  -2.138   1.046  0.00  0.00    -0.057 A 
ENDROOT
BRANCH   1   7
ATOM      7  N   UNL d   1      -2.835  -2.966   3.284  0.00  0.00    -0.732 N 
ATOM      8  C   UNL d   1      -2.375  -2.104   4.352  0.00  0.00     0.284 C 
ATOM      9  H3  UNL d   1      -3.845  -2.972   3.161  0.00  0.00     0.395 HD
ENDBRANCH   1   7
TORSDOF 1
ENDMDL
