MODEL 1
REMARK minimizedAffinity 2.72046995
REMARK minimizedRMSD -1
REMARK  0 active torsions:
REMARK  status: ('A' for Active; 'I' for Inactive)
ROOT
ATOM      1  C1  BNZ d   1       2.184  -0.503   0.026  0.00  0.00     0.000 A 
ATOM      2  C2  BNZ d   1       2.610   0.675   0.579  0.00  0.00     0.000 A 
ATOM      3  C3  BNZ d   1       2.437   1.860  -0.080  0.00  0.00     0.000 A 
ATOM      4  C4  BNZ d   1       1.877   1.861  -1.306  0.00  0.00     0.000 A 
ATOM      5  C5  BNZ d   1       1.451   0.681  -1.882  0.00  0.00     0.000 A 
ATOM      6  C6  BNZ d   1       1.590  -0.506  -1.199  0.00  0.00     0.000 A 
ENDROOT
TORSDOF 0
ENDMDL
