MODEL 1
REMARK minimizedAffinity 4.38480234
REMARK minimizedRMSD -1
REMARK  0 active torsions:
REMARK  status: ('A' for Active; 'I' for Inactive)
ROOT
ATOM      1  C1  BNZ d   1       0.321  -1.971   1.932  0.00  0.00     0.000 A 
ATOM      2  C2  BNZ d   1      -0.959  -1.566   1.665  0.00  0.00     0.000 A 
ATOM      3  C3  BNZ d   1      -1.524  -0.530   2.354  0.00  0.00     0.000 A 
ATOM      4  C4  BNZ d   1      -0.823   0.073   3.336  0.00  0.00     0.000 A 
ATOM      5  C5  BNZ d   1       0.466  -0.330   3.624  0.00  0.00     0.000 A 
ATOM      6  C6  BNZ d   1       1.045  -1.348   2.902  0.00  0.00     0.000 A 
ENDROOT
TORSDOF 0
ENDMDL
