MODEL 1
REMARK minimizedAffinity -3.80629253
REMARK minimizedRMSD -1
REMARK  0 active torsions:
REMARK  status: ('A' for Active; 'I' for Inactive)
ROOT
ATOM      1  C1  BNZ d   1      -2.451   0.840  -3.813  0.00  0.00     0.000 A 
ATOM      2  C2  BNZ d   1      -3.188  -0.126  -4.445  0.00  0.00     0.000 A 
ATOM      3  C3  BNZ d   1      -3.150  -1.425  -4.021  0.00  0.00     0.000 A 
ATOM      4  C4  BNZ d   1      -2.346  -1.764  -2.993  0.00  0.00     0.000 A 
ATOM      5  C5  BNZ d   1      -1.590  -0.803  -2.351  0.00  0.00     0.000 A 
ATOM      6  C6  BNZ d   1      -1.660   0.510  -2.756  0.00  0.00     0.000 A 
ENDROOT
TORSDOF 0
ENDMDL
