MODEL 1
REMARK minimizedAffinity 3.42633057
REMARK minimizedRMSD -1
REMARK  0 active torsions:
REMARK  status: ('A' for Active; 'I' for Inactive)
ROOT
ATOM      1  C1  BNZ d   1       0.744  -0.115  -1.525  0.00  0.00     0.000 A 
ATOM      2  C2  BNZ d   1       0.463   1.124  -2.038  0.00  0.00     0.000 A 
ATOM      3  C3  BNZ d   1       1.206   2.214  -1.680  0.00  0.00     0.000 A 
ATOM      4  C4  BNZ d   1       2.201   2.072  -0.781  0.00  0.00     0.000 A 
ATOM      5  C5  BNZ d   1       2.490   0.832  -0.248  0.00  0.00     0.000 A 
ATOM      6  C6  BNZ d   1       1.766  -0.270  -0.640  0.00  0.00     0.000 A 
ENDROOT
TORSDOF 0
ENDMDL
