MODEL 1
REMARK minimizedAffinity 1.20493853
REMARK minimizedRMSD -1
REMARK  0 active torsions:
REMARK  status: ('A' for Active; 'I' for Inactive)
ROOT
ATOM      1  C1  BNZ d   1      -2.583   3.748   4.901  0.00  0.00     0.000 A 
ATOM      2  C2  BNZ d   1      -3.378   3.561   6.000  0.00  0.00     0.000 A 
ATOM      3  C3  BNZ d   1      -4.360   2.611   6.000  0.00  0.00     0.000 A 
ATOM      4  C4  BNZ d   1      -4.572   1.877   4.888  0.00  0.00     0.000 A 
ATOM      5  C5  BNZ d   1      -3.785   2.060   3.769  0.00  0.00     0.000 A 
ATOM      6  C6  BNZ d   1      -2.772   2.991   3.786  0.00  0.00     0.000 A 
ENDROOT
TORSDOF 0
ENDMDL
