MODEL 1
REMARK minimizedAffinity 0.738880157
REMARK minimizedRMSD -1
REMARK  0 active torsions:
REMARK  status: ('A' for Active; 'I' for Inactive)
ROOT
ATOM      1  C   UNL d   1       0.421  -0.825   4.178  0.00  0.00     0.078 C 
ATOM      2  C1  UNL d   1       0.100   0.459   3.472  0.00  0.00    -0.077 A 
ATOM      3  C2  UNL d   1      -1.216   0.931   3.397  0.00  0.00    -0.001 A 
ATOM      4  C3  UNL d   1      -1.502   2.122   2.729  0.00  0.00     0.003 A 
ATOM      5  C4  UNL d   1      -0.477   2.851   2.128  0.00  0.00    -0.005 A 
ATOM      6  C5  UNL d   1       0.836   2.388   2.195  0.00  0.00     0.003 A 
ATOM      7  C6  UNL d   1       1.123   1.196   2.863  0.00  0.00    -0.001 A 
ENDROOT
TORSDOF 0
ENDMDL
