MODEL 1
REMARK minimizedAffinity 1.40039766
REMARK minimizedRMSD -1
REMARK  0 active torsions:
REMARK  status: ('A' for Active; 'I' for Inactive)
ROOT
ATOM      1  C   UNL d   1      -4.130  -0.798   2.651  0.00  0.00     0.078 C 
ATOM      2  C1  UNL d   1      -4.423  -1.717   3.799  0.00  0.00    -0.077 A 
ATOM      3  C2  UNL d   1      -5.741  -2.048   4.139  0.00  0.00    -0.001 A 
ATOM      4  C3  UNL d   1      -6.000  -2.897   5.216  0.00  0.00     0.003 A 
ATOM      5  C4  UNL d   1      -4.946  -3.422   5.962  0.00  0.00    -0.005 A 
ATOM      6  C5  UNL d   1      -3.632  -3.097   5.632  0.00  0.00     0.003 A 
ATOM      7  C6  UNL d   1      -3.371  -2.248   4.555  0.00  0.00    -0.001 A 
ENDROOT
TORSDOF 0
ENDMDL
