MODEL 1
REMARK minimizedAffinity 7.97462654
REMARK minimizedRMSD -1
REMARK  0 active torsions:
REMARK  status: ('A' for Active; 'I' for Inactive)
ROOT
ATOM      1  C   UNL d   1      -0.222   2.523   0.425  0.00  0.00     0.078 C 
ATOM      2  C1  UNL d   1      -0.248   3.507  -0.706  0.00  0.00    -0.077 A 
ATOM      3  C2  UNL d   1       0.928   4.117  -1.159  0.00  0.00    -0.001 A 
ATOM      4  C3  UNL d   1       0.887   5.038  -2.207  0.00  0.00     0.003 A 
ATOM      5  C4  UNL d   1      -0.327   5.358  -2.810  0.00  0.00    -0.005 A 
ATOM      6  C5  UNL d   1      -1.503   4.758  -2.365  0.00  0.00     0.003 A 
ATOM      7  C6  UNL d   1      -1.465   3.836  -1.317  0.00  0.00    -0.001 A 
ENDROOT
TORSDOF 0
ENDMDL
