MODEL 1
REMARK minimizedAffinity 2.29900265
REMARK minimizedRMSD -1
REMARK  0 active torsions:
REMARK  status: ('A' for Active; 'I' for Inactive)
ROOT
ATOM      1  C   UNL d   1      -0.023   2.412   0.463  0.00  0.00     0.078 C 
ATOM      2  C1  UNL d   1      -0.048   3.660  -0.367  0.00  0.00    -0.077 A 
ATOM      3  C2  UNL d   1       1.053   4.525  -0.404  0.00  0.00    -0.001 A 
ATOM      4  C3  UNL d   1       1.011   5.688  -1.174  0.00  0.00     0.003 A 
ATOM      5  C4  UNL d   1      -0.129   5.999  -1.911  0.00  0.00    -0.005 A 
ATOM      6  C5  UNL d   1      -1.231   5.146  -1.879  0.00  0.00     0.003 A 
ATOM      7  C6  UNL d   1      -1.191   3.982  -1.110  0.00  0.00    -0.001 A 
ENDROOT
TORSDOF 0
ENDMDL
