MODEL 1
REMARK minimizedAffinity 3.52196908
REMARK minimizedRMSD -1
REMARK  0 active torsions:
REMARK  status: ('A' for Active; 'I' for Inactive)
ROOT
ATOM      1  C   UNL d   1       0.372   4.097  -1.127  0.00  0.00     0.078 C 
ATOM      2  C1  UNL d   1      -0.029   3.017  -0.167  0.00  0.00    -0.077 A 
ATOM      3  C2  UNL d   1      -0.674   1.858  -0.613  0.00  0.00    -0.001 A 
ATOM      4  C3  UNL d   1      -1.050   0.865   0.293  0.00  0.00     0.003 A 
ATOM      5  C4  UNL d   1      -0.787   1.023   1.652  0.00  0.00    -0.005 A 
ATOM      6  C5  UNL d   1      -0.148   2.175   2.107  0.00  0.00     0.003 A 
ATOM      7  C6  UNL d   1       0.229   3.168   1.202  0.00  0.00    -0.001 A 
ENDROOT
TORSDOF 0
ENDMDL
