MODEL 1
REMARK minimizedAffinity 3.74977088
REMARK minimizedRMSD -1
REMARK  0 active torsions:
REMARK  status: ('A' for Active; 'I' for Inactive)
ROOT
ATOM      1  C   UNL d   1       0.061   2.299   0.154  0.00  0.00     0.078 C 
ATOM      2  C1  UNL d   1      -0.012   3.476  -0.772  0.00  0.00    -0.077 A 
ATOM      3  C2  UNL d   1       1.152   4.093  -1.246  0.00  0.00    -0.001 A 
ATOM      4  C3  UNL d   1       1.070   5.195  -2.100  0.00  0.00     0.003 A 
ATOM      5  C4  UNL d   1      -0.175   5.689  -2.486  0.00  0.00    -0.005 A 
ATOM      6  C5  UNL d   1      -1.338   5.083  -2.017  0.00  0.00     0.003 A 
ATOM      7  C6  UNL d   1      -1.258   3.981  -1.164  0.00  0.00    -0.001 A 
ENDROOT
TORSDOF 0
ENDMDL
