MODEL 1
REMARK minimizedAffinity 1.90004003
REMARK minimizedRMSD -1
REMARK  0 active torsions:
REMARK  status: ('A' for Active; 'I' for Inactive)
ROOT
ATOM      1  C   UNL d   1      -0.374   2.425   1.223  0.00  0.00     0.078 C 
ATOM      2  C1  UNL d   1      -0.376   3.664   0.378  0.00  0.00    -0.077 A 
ATOM      3  C2  UNL d   1       0.375   3.734  -0.802  0.00  0.00    -0.001 A 
ATOM      4  C3  UNL d   1       0.371   4.897  -1.573  0.00  0.00     0.003 A 
ATOM      5  C4  UNL d   1      -0.380   6.000  -1.172  0.00  0.00    -0.005 A 
ATOM      6  C5  UNL d   1      -1.128   5.941   0.002  0.00  0.00     0.003 A 
ATOM      7  C6  UNL d   1      -1.126   4.778   0.774  0.00  0.00    -0.001 A 
ENDROOT
TORSDOF 0
ENDMDL
