MODEL 1
REMARK minimizedAffinity 6.39169407
REMARK minimizedRMSD -1
REMARK  0 active torsions:
REMARK  status: ('A' for Active; 'I' for Inactive)
ROOT
ATOM      1  C   UNL d   1       0.279   2.593   1.244  0.00  0.00     0.078 C 
ATOM      2  C1  UNL d   1      -0.025   3.568   0.146  0.00  0.00    -0.077 A 
ATOM      3  C2  UNL d   1      -0.675   4.778   0.416  0.00  0.00    -0.001 A 
ATOM      4  C3  UNL d   1      -0.960   5.672  -0.618  0.00  0.00     0.003 A 
ATOM      5  C4  UNL d   1      -0.600   5.365  -1.928  0.00  0.00    -0.005 A 
ATOM      6  C5  UNL d   1       0.045   4.162  -2.206  0.00  0.00     0.003 A 
ATOM      7  C6  UNL d   1       0.331   3.267  -1.174  0.00  0.00    -0.001 A 
ENDROOT
TORSDOF 0
ENDMDL
