MODEL 1
REMARK minimizedAffinity 4.97023869
REMARK minimizedRMSD -1
REMARK  0 active torsions:
REMARK  status: ('A' for Active; 'I' for Inactive)
ROOT
ATOM      1  C   UNL d   1      -5.026  -5.068  -5.973  0.00  0.00     0.078 C 
ATOM      2  C1  UNL d   1      -3.590  -5.024  -5.544  0.00  0.00    -0.077 A 
ATOM      3  C2  UNL d   1      -3.120  -4.011  -4.700  0.00  0.00    -0.001 A 
ATOM      4  C3  UNL d   1      -1.778  -3.977  -4.316  0.00  0.00     0.003 A 
ATOM      5  C4  UNL d   1      -0.895  -4.953  -4.773  0.00  0.00    -0.005 A 
ATOM      6  C5  UNL d   1      -1.353  -5.964  -5.615  0.00  0.00     0.003 A 
ATOM      7  C6  UNL d   1      -2.694  -6.000  -6.000  0.00  0.00    -0.001 A 
ENDROOT
TORSDOF 0
ENDMDL
