MODEL 1
REMARK minimizedAffinity 1.63961244
REMARK minimizedRMSD -1
REMARK  0 active torsions:
REMARK  status: ('A' for Active; 'I' for Inactive)
ROOT
ATOM      1  C   UNL d   1      -5.254   3.733   2.713  0.00  0.00     0.172 C 
ATOM      2  N   UNL d   1      -5.049   4.425   3.963  0.00  0.00    -0.070 N 
ATOM      3  C1  UNL d   1      -3.919   5.112   4.319  0.00  0.00    -0.004 A 
ATOM      4  C2  UNL d   1      -4.118   5.627   5.582  0.00  0.00    -0.047 A 
ATOM      5  C3  UNL d   1      -5.412   5.235   6.000  0.00  0.00    -0.047 A 
ATOM      6  C4  UNL d   1      -5.966   4.492   4.979  0.00  0.00    -0.004 A 
ENDROOT
TORSDOF 0
ENDMDL
