MODEL 1
REMARK minimizedAffinity 2.87139845
REMARK minimizedRMSD -1
REMARK  0 active torsions:
REMARK  status: ('A' for Active; 'I' for Inactive)
ROOT
ATOM      1  C   UNL d   1      -2.803   0.305  -3.558  0.00  0.00     0.172 C 
ATOM      2  N   UNL d   1      -3.136   0.392  -2.155  0.00  0.00    -0.070 N 
ATOM      3  C1  UNL d   1      -2.316   0.041  -1.117  0.00  0.00    -0.004 A 
ATOM      4  C2  UNL d   1      -2.999   0.273   0.058  0.00  0.00    -0.047 A 
ATOM      5  C3  UNL d   1      -4.274   0.781  -0.287  0.00  0.00    -0.047 A 
ATOM      6  C4  UNL d   1      -4.332   0.844  -1.664  0.00  0.00    -0.004 A 
ENDROOT
TORSDOF 0
ENDMDL
