MODEL 1
REMARK minimizedAffinity 7.64060307
REMARK minimizedRMSD -1
REMARK  0 active torsions:
REMARK  status: ('A' for Active; 'I' for Inactive)
ROOT
ATOM      1  C   UNL d   1       2.181   0.750  -0.948  0.00  0.00     0.172 C 
ATOM      2  N   UNL d   1       2.936  -0.004   0.025  0.00  0.00    -0.070 N 
ATOM      3  C1  UNL d   1       2.544  -1.183   0.602  0.00  0.00    -0.004 A 
ATOM      4  C2  UNL d   1       3.537  -1.579   1.471  0.00  0.00    -0.047 A 
ATOM      5  C3  UNL d   1       4.562  -0.604   1.415  0.00  0.00    -0.047 A 
ATOM      6  C4  UNL d   1       4.164   0.359   0.513  0.00  0.00    -0.004 A 
ENDROOT
TORSDOF 0
ENDMDL
