MODEL 1
REMARK minimizedAffinity 10.9475069
REMARK minimizedRMSD -1
REMARK  0 active torsions:
REMARK  status: ('A' for Active; 'I' for Inactive)
ROOT
ATOM      1  C   UNL d   1      -5.866   3.066  -2.056  0.00  0.00     0.172 C 
ATOM      2  N   UNL d   1      -5.344   2.033  -1.192  0.00  0.00    -0.070 N 
ATOM      3  C1  UNL d   1      -4.779   2.231   0.039  0.00  0.00    -0.004 A 
ATOM      4  C2  UNL d   1      -4.410   1.001   0.538  0.00  0.00    -0.047 A 
ATOM      5  C3  UNL d   1      -4.765   0.029  -0.428  0.00  0.00    -0.047 A 
ATOM      6  C4  UNL d   1      -5.341   0.695  -1.489  0.00  0.00    -0.004 A 
ENDROOT
TORSDOF 0
ENDMDL
