MODEL 1
REMARK minimizedAffinity 5.56698656
REMARK minimizedRMSD -1
REMARK  0 active torsions:
REMARK  status: ('A' for Active; 'I' for Inactive)
ROOT
ATOM      1  C   UNL d   1       2.166  -2.020  -0.208  0.00  0.00     0.172 C 
ATOM      2  N   UNL d   1       2.636  -0.659  -0.321  0.00  0.00    -0.070 N 
ATOM      3  C1  UNL d   1       3.744  -0.144   0.297  0.00  0.00    -0.004 A 
ATOM      4  C2  UNL d   1       3.850   1.182  -0.063  0.00  0.00    -0.047 A 
ATOM      5  C3  UNL d   1       2.767   1.474  -0.926  0.00  0.00    -0.047 A 
ATOM      6  C4  UNL d   1       2.031   0.316  -1.069  0.00  0.00    -0.004 A 
ENDROOT
TORSDOF 0
ENDMDL
