MODEL 1
REMARK minimizedAffinity 11.6932793
REMARK minimizedRMSD -1
REMARK  0 active torsions:
REMARK  status: ('A' for Active; 'I' for Inactive)
ROOT
ATOM      1  C   UNL d   1      -1.086  -6.000  -4.235  0.00  0.00     0.172 C 
ATOM      2  N   UNL d   1      -1.256  -5.781  -2.818  0.00  0.00    -0.070 N 
ATOM      3  C1  UNL d   1      -0.305  -5.997  -1.856  0.00  0.00    -0.004 A 
ATOM      4  C2  UNL d   1      -0.857  -5.671  -0.636  0.00  0.00    -0.047 A 
ATOM      5  C3  UNL d   1      -2.186  -5.245  -0.872  0.00  0.00    -0.047 A 
ATOM      6  C4  UNL d   1      -2.407  -5.324  -2.231  0.00  0.00    -0.004 A 
ENDROOT
TORSDOF 0
ENDMDL
