MODEL 1
REMARK minimizedAffinity -3.51407862
REMARK minimizedRMSD -1
REMARK  1 active torsions:
REMARK  status: ('A' for Active; 'I' for Inactive)
REMARK    1  A    between atoms: C3_4  and  O_7 
ROOT
ATOM      1  C   UNL d   1       0.713   1.463  -1.135  0.00  0.00    -0.033 A 
ATOM      2  C1  UNL d   1      -0.128   0.621  -0.404  0.00  0.00     0.039 A 
ATOM      3  C2  UNL d   1      -0.038  -0.763  -0.557  0.00  0.00    -0.080 A 
ATOM      4  C3  UNL d   1       0.896  -1.293  -1.443  0.00  0.00     0.150 A 
ATOM      5  C4  UNL d   1       1.740  -0.461  -2.171  0.00  0.00    -0.007 A 
ATOM      6  C5  UNL d   1       1.648   0.921  -2.017  0.00  0.00     0.039 A 
ENDROOT
BRANCH   4   7
ATOM      7  O   UNL d   1       1.018  -2.638  -1.629  0.00  0.00    -0.526 OA
ATOM      8  H5  UNL d   1       0.352  -3.087  -1.082  0.00  0.00     0.418 HD
ENDBRANCH   4   7
TORSDOF 1
ENDMDL
