MODEL 1
REMARK minimizedAffinity -3.94760656
REMARK minimizedRMSD -1
REMARK  1 active torsions:
REMARK  status: ('A' for Active; 'I' for Inactive)
REMARK    1  A    between atoms: C3_4  and  O_7 
ROOT
ATOM      1  C   UNL d   1       0.621   1.644  -0.965  0.00  0.00    -0.033 A 
ATOM      2  C1  UNL d   1       0.328   0.534  -0.170  0.00  0.00     0.039 A 
ATOM      3  C2  UNL d   1       0.980  -0.680  -0.396  0.00  0.00    -0.080 A 
ATOM      4  C3  UNL d   1       1.921  -0.771  -1.418  0.00  0.00     0.150 A 
ATOM      5  C4  UNL d   1       2.220   0.332  -2.211  0.00  0.00    -0.007 A 
ATOM      6  C5  UNL d   1       1.568   1.544  -1.984  0.00  0.00     0.039 A 
ENDROOT
BRANCH   4   7
ATOM      7  O   UNL d   1       2.579  -1.935  -1.680  0.00  0.00    -0.526 OA
ATOM      8  H5  UNL d   1       2.249  -2.618  -1.072  0.00  0.00     0.418 HD
ENDBRANCH   4   7
TORSDOF 1
ENDMDL
