MODEL 1
REMARK minimizedAffinity -3.12588239
REMARK minimizedRMSD -1
REMARK  1 active torsions:
REMARK  status: ('A' for Active; 'I' for Inactive)
REMARK    1  A    between atoms: C3_4  and  O_7 
ROOT
ATOM      1  C   UNL d   1      -0.113  -0.386   0.661  0.00  0.00    -0.033 A 
ATOM      2  C1  UNL d   1       0.458  -1.340  -0.183  0.00  0.00     0.039 A 
ATOM      3  C2  UNL d   1       1.023  -0.951  -1.399  0.00  0.00    -0.080 A 
ATOM      4  C3  UNL d   1       1.011   0.394  -1.759  0.00  0.00     0.150 A 
ATOM      5  C4  UNL d   1       0.446   1.351  -0.921  0.00  0.00    -0.007 A 
ATOM      6  C5  UNL d   1      -0.118   0.960   0.292  0.00  0.00     0.039 A 
ENDROOT
BRANCH   4   7
ATOM      7  O   UNL d   1       1.546   0.821  -2.938  0.00  0.00    -0.526 OA
ATOM      8  H5  UNL d   1       1.874   0.047  -3.425  0.00  0.00     0.418 HD
ENDBRANCH   4   7
TORSDOF 1
ENDMDL
