MODEL 1
REMARK minimizedAffinity -4.45765591
REMARK minimizedRMSD -1
REMARK  1 active torsions:
REMARK  status: ('A' for Active; 'I' for Inactive)
REMARK    1  A    between atoms: C3_4  and  O_7 
ROOT
ATOM      1  C   UNL d   1       0.092  -0.892   0.642  0.00  0.00    -0.033 A 
ATOM      2  C1  UNL d   1       0.594   0.368   0.308  0.00  0.00     0.039 A 
ATOM      3  C2  UNL d   1       1.210   0.570  -0.929  0.00  0.00    -0.080 A 
ATOM      4  C3  UNL d   1       1.318  -0.494  -1.821  0.00  0.00     0.150 A 
ATOM      5  C4  UNL d   1       0.817  -1.750  -1.495  0.00  0.00    -0.007 A 
ATOM      6  C5  UNL d   1       0.203  -1.950  -0.260  0.00  0.00     0.039 A 
ENDROOT
BRANCH   4   7
ATOM      7  O   UNL d   1       1.915  -0.346  -3.037  0.00  0.00    -0.526 OA
ATOM      8  H5  UNL d   1       2.239   0.567  -3.112  0.00  0.00     0.418 HD
ENDBRANCH   4   7
TORSDOF 1
ENDMDL
