MODEL 1
REMARK minimizedAffinity -4.80180216
REMARK minimizedRMSD -1
REMARK  1 active torsions:
REMARK  status: ('A' for Active; 'I' for Inactive)
REMARK    1  A    between atoms: C3_4  and  O_7 
ROOT
ATOM      1  C   UNL d   1       2.219  -0.862  -2.624  0.00  0.00    -0.033 A 
ATOM      2  C1  UNL d   1       2.046   0.407  -2.068  0.00  0.00     0.039 A 
ATOM      3  C2  UNL d   1       1.116   0.602  -1.045  0.00  0.00    -0.080 A 
ATOM      4  C3  UNL d   1       0.366  -0.478  -0.588  0.00  0.00     0.150 A 
ATOM      5  C4  UNL d   1       0.537  -1.746  -1.135  0.00  0.00    -0.007 A 
ATOM      6  C5  UNL d   1       1.466  -1.939  -2.157  0.00  0.00     0.039 A 
ENDROOT
BRANCH   4   7
ATOM      7  O   UNL d   1      -0.557  -0.336   0.404  0.00  0.00    -0.526 OA
ATOM      8  H5  UNL d   1      -0.586   0.599   0.666  0.00  0.00     0.418 HD
ENDBRANCH   4   7
TORSDOF 1
ENDMDL
