MODEL 1
REMARK minimizedAffinity -4.97206593
REMARK minimizedRMSD -1
REMARK  1 active torsions:
REMARK  status: ('A' for Active; 'I' for Inactive)
REMARK    1  A    between atoms: C3_4  and  O_7 
ROOT
ATOM      1  C   UNL d   1      -0.144   0.410   0.675  0.00  0.00    -0.033 A 
ATOM      2  C1  UNL d   1      -0.249  -0.763  -0.075  0.00  0.00     0.039 A 
ATOM      3  C2  UNL d   1       0.322  -0.834  -1.347  0.00  0.00    -0.080 A 
ATOM      4  C3  UNL d   1       0.997   0.273  -1.856  0.00  0.00     0.150 A 
ATOM      5  C4  UNL d   1       1.109   1.443  -1.112  0.00  0.00    -0.007 A 
ATOM      6  C5  UNL d   1       0.537   1.512   0.158  0.00  0.00     0.039 A 
ENDROOT
BRANCH   4   7
ATOM      7  O   UNL d   1       1.567   0.253  -3.094  0.00  0.00    -0.526 OA
ATOM      8  H5  UNL d   1       1.384  -0.610  -3.503  0.00  0.00     0.418 HD
ENDBRANCH   4   7
TORSDOF 1
ENDMDL
