MODEL 1
REMARK minimizedAffinity -4.65620184
REMARK minimizedRMSD -1
REMARK  1 active torsions:
REMARK  status: ('A' for Active; 'I' for Inactive)
REMARK    1  A    between atoms: C3_4  and  O_7 
ROOT
ATOM      1  C   UNL d   1       0.012   0.352   0.447  0.00  0.00    -0.033 A 
ATOM      2  C1  UNL d   1      -0.207  -0.751  -0.382  0.00  0.00     0.039 A 
ATOM      3  C2  UNL d   1       0.348  -0.784  -1.663  0.00  0.00    -0.080 A 
ATOM      4  C3  UNL d   1       1.119   0.289  -2.102  0.00  0.00     0.150 A 
ATOM      5  C4  UNL d   1       1.344   1.389  -1.280  0.00  0.00    -0.007 A 
ATOM      6  C5  UNL d   1       0.788   1.421  -0.002  0.00  0.00     0.039 A 
ENDROOT
BRANCH   4   7
ATOM      7  O   UNL d   1       1.677   0.304  -3.346  0.00  0.00    -0.526 OA
ATOM      8  H5  UNL d   1       1.414  -0.507  -3.811  0.00  0.00     0.418 HD
ENDBRANCH   4   7
TORSDOF 1
ENDMDL
