MODEL 1
REMARK minimizedAffinity -5.16323614
REMARK minimizedRMSD -1
REMARK  1 active torsions:
REMARK  status: ('A' for Active; 'I' for Inactive)
REMARK    1  A    between atoms: C3_4  and  O_7 
ROOT
ATOM      1  C   UNL d   1       2.308  -0.478  -2.599  0.00  0.00    -0.033 A 
ATOM      2  C1  UNL d   1       1.654  -1.670  -2.281  0.00  0.00     0.039 A 
ATOM      3  C2  UNL d   1       0.674  -1.687  -1.286  0.00  0.00    -0.080 A 
ATOM      4  C3  UNL d   1       0.358  -0.507  -0.619  0.00  0.00     0.150 A 
ATOM      5  C4  UNL d   1       1.003   0.685  -0.933  0.00  0.00    -0.007 A 
ATOM      6  C5  UNL d   1       1.981   0.699  -1.926  0.00  0.00     0.039 A 
ENDROOT
BRANCH   4   7
ATOM      7  O   UNL d   1      -0.588  -0.475   0.363  0.00  0.00    -0.526 OA
ATOM      8  H5  UNL d   1      -0.928  -1.376   0.492  0.00  0.00     0.418 HD
ENDBRANCH   4   7
TORSDOF 1
ENDMDL
