MODEL 1
REMARK minimizedAffinity -4.02005386
REMARK minimizedRMSD -1
REMARK  1 active torsions:
REMARK  status: ('A' for Active; 'I' for Inactive)
REMARK    1  A    between atoms: C3_4  and  O_7 
ROOT
ATOM      1  C   UNL d   1       1.072   1.111  -0.700  0.00  0.00    -0.033 A 
ATOM      2  C1  UNL d   1       1.936   0.500  -1.611  0.00  0.00     0.039 A 
ATOM      3  C2  UNL d   1       2.003  -0.893  -1.687  0.00  0.00    -0.080 A 
ATOM      4  C3  UNL d   1       1.201  -1.662  -0.848  0.00  0.00     0.150 A 
ATOM      5  C4  UNL d   1       0.335  -1.060   0.060  0.00  0.00    -0.007 A 
ATOM      6  C5  UNL d   1       0.271   0.331   0.134  0.00  0.00     0.039 A 
ENDROOT
BRANCH   4   7
ATOM      7  O   UNL d   1       1.234  -3.024  -0.881  0.00  0.00    -0.526 OA
ATOM      8  H5  UNL d   1       1.898  -3.300  -1.535  0.00  0.00     0.418 HD
ENDBRANCH   4   7
TORSDOF 1
ENDMDL
