MODEL 1
REMARK minimizedAffinity -1.41905272
REMARK minimizedRMSD -1
REMARK  1 active torsions:
REMARK  status: ('A' for Active; 'I' for Inactive)
REMARK    1  A    between atoms: C3_4  and  O_7 
ROOT
ATOM      1  C   UNL d   1      -0.064  -0.404   0.791  0.00  0.00    -0.033 A 
ATOM      2  C1  UNL d   1      -1.313  -0.667   1.357  0.00  0.00     0.039 A 
ATOM      3  C2  UNL d   1      -1.997   0.340   2.041  0.00  0.00    -0.080 A 
ATOM      4  C3  UNL d   1      -1.423   1.603   2.151  0.00  0.00     0.150 A 
ATOM      5  C4  UNL d   1      -0.181   1.873   1.587  0.00  0.00    -0.007 A 
ATOM      6  C5  UNL d   1       0.502   0.867   0.905  0.00  0.00     0.039 A 
ENDROOT
BRANCH   4   7
ATOM      7  O   UNL d   1      -2.051   2.616   2.813  0.00  0.00    -0.526 OA
ATOM      8  H5  UNL d   1      -2.886   2.276   3.176  0.00  0.00     0.418 HD
ENDBRANCH   4   7
TORSDOF 1
ENDMDL
