MODEL 1
REMARK minimizedAffinity -3.77324438
REMARK minimizedRMSD -1
REMARK  1 active torsions:
REMARK  status: ('A' for Active; 'I' for Inactive)
REMARK    1  A    between atoms: C3_4  and  O_7 
ROOT
ATOM      1  C   UNL d   1       0.230  -1.492   0.325  0.00  0.00    -0.033 A 
ATOM      2  C1  UNL d   1       0.249  -0.098   0.247  0.00  0.00     0.039 A 
ATOM      3  C2  UNL d   1       1.060   0.539  -0.695  0.00  0.00    -0.080 A 
ATOM      4  C3  UNL d   1       1.844  -0.228  -1.552  0.00  0.00     0.150 A 
ATOM      5  C4  UNL d   1       1.827  -1.617  -1.482  0.00  0.00    -0.007 A 
ATOM      6  C5  UNL d   1       1.018  -2.252  -0.540  0.00  0.00     0.039 A 
ENDROOT
BRANCH   4   7
ATOM      7  O   UNL d   1       2.655   0.349  -2.483  0.00  0.00    -0.526 OA
ATOM      8  H5  UNL d   1       2.585   1.314  -2.396  0.00  0.00     0.418 HD
ENDBRANCH   4   7
TORSDOF 1
ENDMDL
