MODEL 1
REMARK minimizedAffinity -4.81910896
REMARK minimizedRMSD -1
REMARK  1 active torsions:
REMARK  status: ('A' for Active; 'I' for Inactive)
REMARK    1  A    between atoms: C3_4  and  O_7 
ROOT
ATOM      1  C   UNL d   1       2.136  -0.587  -1.710  0.00  0.00    -0.033 A 
ATOM      2  C1  UNL d   1       1.585  -1.654  -0.997  0.00  0.00     0.039 A 
ATOM      3  C2  UNL d   1       0.655  -1.413   0.016  0.00  0.00    -0.080 A 
ATOM      4  C3  UNL d   1       0.285  -0.102   0.306  0.00  0.00     0.150 A 
ATOM      5  C4  UNL d   1       0.828   0.965  -0.402  0.00  0.00    -0.007 A 
ATOM      6  C5  UNL d   1       1.756   0.722  -1.414  0.00  0.00     0.039 A 
ENDROOT
BRANCH   4   7
ATOM      7  O   UNL d   1      -0.614   0.183   1.290  0.00  0.00    -0.526 OA
ATOM      8  H5  UNL d   1      -0.882  -0.650   1.713  0.00  0.00     0.418 HD
ENDBRANCH   4   7
TORSDOF 1
ENDMDL
