MODEL 1
REMARK minimizedAffinity -5.58005619
REMARK minimizedRMSD -1
REMARK  1 active torsions:
REMARK  status: ('A' for Active; 'I' for Inactive)
REMARK    1  A    between atoms: C3_4  and  O_7 
ROOT
ATOM      1  C   UNL d   1       1.393   0.075  -2.780  0.00  0.00    -0.033 A 
ATOM      2  C1  UNL d   1       2.053  -1.151  -2.886  0.00  0.00     0.039 A 
ATOM      3  C2  UNL d   1       1.754  -2.186  -1.998  0.00  0.00    -0.080 A 
ATOM      4  C3  UNL d   1       0.794  -1.983  -1.010  0.00  0.00     0.150 A 
ATOM      5  C4  UNL d   1       0.130  -0.765  -0.902  0.00  0.00    -0.007 A 
ATOM      6  C5  UNL d   1       0.430   0.267  -1.789  0.00  0.00     0.039 A 
ENDROOT
BRANCH   4   7
ATOM      7  O   UNL d   1       0.472  -2.961  -0.118  0.00  0.00    -0.526 OA
ATOM      8  H5  UNL d   1       1.031  -3.736  -0.296  0.00  0.00     0.418 HD
ENDBRANCH   4   7
TORSDOF 1
ENDMDL
