MODEL 1
REMARK minimizedAffinity -4.30679369
REMARK minimizedRMSD -1
REMARK  0 active torsions:
REMARK  status: ('A' for Active; 'I' for Inactive)
ROOT
ATOM      1  C   UNL d   1       1.541   1.501  -2.557  0.00  0.00     0.078 C 
ATOM      2  C1  UNL d   1       1.120   0.462  -1.562  0.00  0.00    -0.077 A 
ATOM      3  C2  UNL d   1       1.798  -0.759  -1.463  0.00  0.00    -0.001 A 
ATOM      4  C3  UNL d   1       1.388  -1.722  -0.539  0.00  0.00     0.003 A 
ATOM      5  C4  UNL d   1       0.298  -1.474   0.293  0.00  0.00    -0.005 A 
ATOM      6  C5  UNL d   1      -0.384  -0.262   0.201  0.00  0.00     0.003 A 
ATOM      7  C6  UNL d   1       0.024   0.701  -0.723  0.00  0.00    -0.001 A 
ENDROOT
TORSDOF 0
ENDMDL
