MODEL 1
REMARK minimizedAffinity -3.70862508
REMARK minimizedRMSD -1
REMARK  0 active torsions:
REMARK  status: ('A' for Active; 'I' for Inactive)
ROOT
ATOM      1  C   UNL d   1      -1.337   0.418   0.010  0.00  0.00     0.078 C 
ATOM      2  C1  UNL d   1      -0.057  -0.363  -0.018  0.00  0.00    -0.077 A 
ATOM      3  C2  UNL d   1       0.255  -1.197  -1.099  0.00  0.00    -0.001 A 
ATOM      4  C3  UNL d   1       1.445  -1.926  -1.107  0.00  0.00     0.003 A 
ATOM      5  C4  UNL d   1       2.332  -1.830  -0.036  0.00  0.00    -0.005 A 
ATOM      6  C5  UNL d   1       2.029  -1.005   1.045  0.00  0.00     0.003 A 
ATOM      7  C6  UNL d   1       0.839  -0.275   1.054  0.00  0.00    -0.001 A 
ENDROOT
TORSDOF 0
ENDMDL
