MODEL 1
REMARK minimizedAffinity 0.379226714
REMARK minimizedRMSD -1
REMARK  0 active torsions:
REMARK  status: ('A' for Active; 'I' for Inactive)
ROOT
ATOM      1  C   UNL d   1       1.045  -3.716   0.412  0.00  0.00     0.078 C 
ATOM      2  C1  UNL d   1       0.619  -2.280   0.495  0.00  0.00    -0.077 A 
ATOM      3  C2  UNL d   1      -0.128  -1.689  -0.531  0.00  0.00    -0.001 A 
ATOM      4  C3  UNL d   1      -0.509  -0.349  -0.444  0.00  0.00     0.003 A 
ATOM      5  C4  UNL d   1      -0.145   0.412   0.665  0.00  0.00    -0.005 A 
ATOM      6  C5  UNL d   1       0.601  -0.167   1.690  0.00  0.00     0.003 A 
ATOM      7  C6  UNL d   1       0.982  -1.507   1.605  0.00  0.00    -0.001 A 
ENDROOT
TORSDOF 0
ENDMDL
