MODEL 1
REMARK minimizedAffinity -3.58558822
REMARK minimizedRMSD -1
REMARK  0 active torsions:
REMARK  status: ('A' for Active; 'I' for Inactive)
ROOT
ATOM      1  C   UNL d   1      -0.685   0.316   0.492  0.00  0.00     0.078 C 
ATOM      2  C1  UNL d   1       0.396   0.156  -0.535  0.00  0.00    -0.077 A 
ATOM      3  C2  UNL d   1       1.224  -0.973  -0.541  0.00  0.00    -0.001 A 
ATOM      4  C3  UNL d   1       2.233  -1.103  -1.496  0.00  0.00     0.003 A 
ATOM      5  C4  UNL d   1       2.424  -0.107  -2.452  0.00  0.00    -0.005 A 
ATOM      6  C5  UNL d   1       1.607   1.021  -2.453  0.00  0.00     0.003 A 
ATOM      7  C6  UNL d   1       0.597   1.153  -1.498  0.00  0.00    -0.001 A 
ENDROOT
TORSDOF 0
ENDMDL
