MODEL 1
REMARK minimizedAffinity -4.03624535
REMARK minimizedRMSD -1
REMARK  0 active torsions:
REMARK  status: ('A' for Active; 'I' for Inactive)
ROOT
ATOM      1  C   UNL d   1      -1.884   1.694   3.020  0.00  0.00     0.078 C 
ATOM      2  C1  UNL d   1      -1.213   0.834   1.991  0.00  0.00    -0.077 A 
ATOM      3  C2  UNL d   1      -1.673   0.799   0.669  0.00  0.00    -0.001 A 
ATOM      4  C3  UNL d   1      -1.045  -0.013  -0.277  0.00  0.00     0.003 A 
ATOM      5  C4  UNL d   1       0.047  -0.797   0.090  0.00  0.00    -0.005 A 
ATOM      6  C5  UNL d   1       0.511  -0.771   1.403  0.00  0.00     0.003 A 
ATOM      7  C6  UNL d   1      -0.116   0.040   2.350  0.00  0.00    -0.001 A 
ENDROOT
TORSDOF 0
ENDMDL
