MODEL 1
REMARK minimizedAffinity -3.829561
REMARK minimizedRMSD -1
REMARK  0 active torsions:
REMARK  status: ('A' for Active; 'I' for Inactive)
ROOT
ATOM      1  C   UNL d   1       1.485   1.196  -3.202  0.00  0.00     0.078 C 
ATOM      2  C1  UNL d   1       1.113   0.367  -2.010  0.00  0.00    -0.077 A 
ATOM      3  C2  UNL d   1       0.130   0.797  -1.110  0.00  0.00    -0.001 A 
ATOM      4  C3  UNL d   1      -0.200   0.020   0.001  0.00  0.00     0.003 A 
ATOM      5  C4  UNL d   1       0.449  -1.193   0.223  0.00  0.00    -0.005 A 
ATOM      6  C5  UNL d   1       1.430  -1.629  -0.665  0.00  0.00     0.003 A 
ATOM      7  C6  UNL d   1       1.761  -0.853  -1.777  0.00  0.00    -0.001 A 
ENDROOT
TORSDOF 0
ENDMDL
