MODEL 1
REMARK minimizedAffinity -3.80089879
REMARK minimizedRMSD -1
REMARK  0 active torsions:
REMARK  status: ('A' for Active; 'I' for Inactive)
ROOT
ATOM      1  C   UNL d   1       1.502   1.497  -3.234  0.00  0.00     0.078 C 
ATOM      2  C1  UNL d   1       1.104   0.679  -2.041  0.00  0.00    -0.077 A 
ATOM      3  C2  UNL d   1       0.155   1.152  -1.127  0.00  0.00    -0.001 A 
ATOM      4  C3  UNL d   1      -0.199   0.384  -0.016  0.00  0.00     0.003 A 
ATOM      5  C4  UNL d   1       0.393  -0.860   0.191  0.00  0.00    -0.005 A 
ATOM      6  C5  UNL d   1       1.340  -1.338  -0.712  0.00  0.00     0.003 A 
ATOM      7  C6  UNL d   1       1.695  -0.572  -1.823  0.00  0.00    -0.001 A 
ENDROOT
TORSDOF 0
ENDMDL
