MODEL 1
REMARK minimizedAffinity -2.62953258
REMARK minimizedRMSD -1
REMARK  0 active torsions:
REMARK  status: ('A' for Active; 'I' for Inactive)
ROOT
ATOM      1  C   UNL d   1      -2.529   1.117   3.291  0.00  0.00     0.078 C 
ATOM      2  C1  UNL d   1      -1.777   0.675   2.071  0.00  0.00    -0.077 A 
ATOM      3  C2  UNL d   1      -0.422   0.331   2.144  0.00  0.00    -0.001 A 
ATOM      4  C3  UNL d   1       0.268  -0.069   0.998  0.00  0.00     0.003 A 
ATOM      5  C4  UNL d   1      -0.390  -0.128  -0.229  0.00  0.00    -0.005 A 
ATOM      6  C5  UNL d   1      -1.738   0.214  -0.312  0.00  0.00     0.003 A 
ATOM      7  C6  UNL d   1      -2.429   0.614   0.833  0.00  0.00    -0.001 A 
ENDROOT
TORSDOF 0
ENDMDL
