MODEL 1
REMARK minimizedAffinity -4.37071371
REMARK minimizedRMSD -1
REMARK  0 active torsions:
REMARK  status: ('A' for Active; 'I' for Inactive)
ROOT
ATOM      1  C   UNL d   1       1.192   1.518  -3.085  0.00  0.00     0.078 C 
ATOM      2  C1  UNL d   1       0.729   0.558  -2.031  0.00  0.00    -0.077 A 
ATOM      3  C2  UNL d   1       1.443  -0.617  -1.762  0.00  0.00    -0.001 A 
ATOM      4  C3  UNL d   1       0.994  -1.507  -0.785  0.00  0.00     0.003 A 
ATOM      5  C4  UNL d   1      -0.170  -1.233  -0.070  0.00  0.00    -0.005 A 
ATOM      6  C5  UNL d   1      -0.888  -0.068  -0.332  0.00  0.00     0.003 A 
ATOM      7  C6  UNL d   1      -0.441   0.824  -1.309  0.00  0.00    -0.001 A 
ENDROOT
TORSDOF 0
ENDMDL
