MODEL 1
REMARK minimizedAffinity 2.10063958
REMARK minimizedRMSD -1
REMARK  0 active torsions:
REMARK  status: ('A' for Active; 'I' for Inactive)
ROOT
ATOM      1  C   UNL d   1       3.458  -1.795  -0.431  0.00  0.00     0.172 C 
ATOM      2  N   UNL d   1       3.939  -0.443  -0.585  0.00  0.00    -0.070 N 
ATOM      3  C1  UNL d   1       3.217   0.694  -0.340  0.00  0.00    -0.004 A 
ATOM      4  C2  UNL d   1       4.029   1.776  -0.605  0.00  0.00    -0.047 A 
ATOM      5  C3  UNL d   1       5.282   1.271  -1.025  0.00  0.00    -0.047 A 
ATOM      6  C4  UNL d   1       5.199  -0.105  -1.003  0.00  0.00    -0.004 A 
ENDROOT
TORSDOF 0
ENDMDL
