MODEL 1
REMARK minimizedAffinity 7.93401575
REMARK minimizedRMSD -1
REMARK  0 active torsions:
REMARK  status: ('A' for Active; 'I' for Inactive)
ROOT
ATOM      1  C   UNL d   1       0.512  -0.546   2.965  0.00  0.00     0.172 C 
ATOM      2  N   UNL d   1       0.106   0.211   1.804  0.00  0.00    -0.070 N 
ATOM      3  C1  UNL d   1      -1.017   0.988   1.710  0.00  0.00    -0.004 A 
ATOM      4  C2  UNL d   1      -1.044   1.540   0.448  0.00  0.00    -0.047 A 
ATOM      5  C3  UNL d   1       0.102   1.077  -0.242  0.00  0.00    -0.047 A 
ATOM      6  C4  UNL d   1       0.796   0.256   0.621  0.00  0.00    -0.004 A 
ENDROOT
TORSDOF 0
ENDMDL
