MODEL 1
REMARK minimizedAffinity 6.65670347
REMARK minimizedRMSD -1
REMARK  0 active torsions:
REMARK  status: ('A' for Active; 'I' for Inactive)
ROOT
ATOM      1  C   UNL d   1      -5.043   0.059  -5.224  0.00  0.00     0.172 C 
ATOM      2  N   UNL d   1      -3.792   0.035  -4.503  0.00  0.00    -0.070 N 
ATOM      3  C1  UNL d   1      -2.946   1.099  -4.337  0.00  0.00    -0.004 A 
ATOM      4  C2  UNL d   1      -1.869   0.669  -3.593  0.00  0.00    -0.047 A 
ATOM      5  C3  UNL d   1      -2.073  -0.701  -3.303  0.00  0.00    -0.047 A 
ATOM      6  C4  UNL d   1      -3.271  -1.068  -3.879  0.00  0.00    -0.004 A 
ENDROOT
TORSDOF 0
ENDMDL
