MODEL 1
REMARK minimizedAffinity 0.767194569
REMARK minimizedRMSD -1
REMARK  0 active torsions:
REMARK  status: ('A' for Active; 'I' for Inactive)
ROOT
ATOM      1  C   UNL d   1      -5.419   2.146  -2.599  0.00  0.00     0.172 C 
ATOM      2  N   UNL d   1      -4.360   1.640  -3.440  0.00  0.00    -0.070 N 
ATOM      3  C1  UNL d   1      -4.387   1.580  -4.808  0.00  0.00    -0.004 A 
ATOM      4  C2  UNL d   1      -3.192   1.038  -5.231  0.00  0.00    -0.047 A 
ATOM      5  C3  UNL d   1      -2.421   0.762  -4.077  0.00  0.00    -0.047 A 
ATOM      6  C4  UNL d   1      -3.168   1.144  -2.982  0.00  0.00    -0.004 A 
ENDROOT
TORSDOF 0
ENDMDL
