MODEL 1
REMARK minimizedAffinity 6.39801741
REMARK minimizedRMSD -1
REMARK  0 active torsions:
REMARK  status: ('A' for Active; 'I' for Inactive)
ROOT
ATOM      1  C   UNL d   1      -6.000   3.415  -3.121  0.00  0.00     0.172 C 
ATOM      2  N   UNL d   1      -5.389   2.338  -3.863  0.00  0.00    -0.070 N 
ATOM      3  C1  UNL d   1      -4.120   2.343  -4.379  0.00  0.00    -0.004 A 
ATOM      4  C2  UNL d   1      -3.917   1.136  -5.013  0.00  0.00    -0.047 A 
ATOM      5  C3  UNL d   1      -5.106   0.380  -4.875  0.00  0.00    -0.047 A 
ATOM      6  C4  UNL d   1      -6.000   1.148  -4.159  0.00  0.00    -0.004 A 
ENDROOT
TORSDOF 0
ENDMDL
