MODEL 1
REMARK minimizedAffinity -3.77684855
REMARK minimizedRMSD -1
REMARK  1 active torsions:
REMARK  status: ('A' for Active; 'I' for Inactive)
REMARK    1  A    between atoms: C1_2  and  C2_3 
ROOT
ATOM      1  C2  UNL d   1      -0.830   1.171   0.264  0.00  0.00    -0.073 A 
ATOM      2  C3  UNL d   1      -0.258   2.128  -0.581  0.00  0.00    -0.002 A 
ATOM      3  C4  UNL d   1       0.721   1.758  -1.505  0.00  0.00     0.004 A 
ATOM      4  C5  UNL d   1       1.132   0.429  -1.598  0.00  0.00    -0.004 A 
ATOM      5  C6  UNL d   1       0.564  -0.545  -0.770  0.00  0.00    -0.075 A 
ATOM      6  C7  UNL d   1       0.996  -1.979  -0.856  0.00  0.00     0.076 C 
ATOM      7  C8  UNL d   1      -0.417  -0.165   0.157  0.00  0.00     0.001 A 
ENDROOT
BRANCH   1   8
ATOM      8  C1  UNL d   1      -1.891   1.564   1.259  0.00  0.00     0.053 C 
ATOM      9  C   UNL d   1      -1.349   1.622   2.678  0.00  0.00     0.018 C 
ENDBRANCH   1   8
TORSDOF 1
ENDMDL
