MODEL 1
REMARK minimizedAffinity -2.18470407
REMARK minimizedRMSD -1
REMARK  1 active torsions:
REMARK  status: ('A' for Active; 'I' for Inactive)
REMARK    1  A    between atoms: C1_2  and  C2_3 
ROOT
ATOM      1  C2  UNL d   1       0.739  -1.575  -0.571  0.00  0.00    -0.073 A 
ATOM      2  C3  UNL d   1       0.175  -1.582   0.710  0.00  0.00    -0.002 A 
ATOM      3  C4  UNL d   1      -0.198  -0.385   1.322  0.00  0.00     0.004 A 
ATOM      4  C5  UNL d   1      -0.018   0.829   0.658  0.00  0.00    -0.004 A 
ATOM      5  C6  UNL d   1       0.533   0.855  -0.627  0.00  0.00    -0.075 A 
ATOM      6  C7  UNL d   1       0.735   2.153  -1.353  0.00  0.00     0.076 C 
ATOM      7  C8  UNL d   1       0.908  -0.351  -1.234  0.00  0.00     0.001 A 
ENDROOT
BRANCH   1   8
ATOM      8  C1  UNL d   1       1.138  -2.866  -1.239  0.00  0.00     0.053 C 
ATOM      9  C   UNL d   1       0.443  -3.053  -2.578  0.00  0.00     0.018 C 
ENDBRANCH   1   8
TORSDOF 1
ENDMDL
