MODEL 1
REMARK minimizedAffinity -4.38514709
REMARK minimizedRMSD -1
REMARK  1 active torsions:
REMARK  status: ('A' for Active; 'I' for Inactive)
REMARK    1  A    between atoms: C1_2  and  C2_3 
ROOT
ATOM      1  C2  UNL d   1      -0.038  -0.241   0.296  0.00  0.00    -0.073 A 
ATOM      2  C3  UNL d   1      -0.868  -0.136   1.417  0.00  0.00    -0.002 A 
ATOM      3  C4  UNL d   1      -1.267   1.117   1.884  0.00  0.00     0.004 A 
ATOM      4  C5  UNL d   1      -0.847   2.276   1.231  0.00  0.00    -0.004 A 
ATOM      5  C6  UNL d   1      -0.027   2.191   0.102  0.00  0.00    -0.075 A 
ATOM      6  C7  UNL d   1       0.435   3.429  -0.611  0.00  0.00     0.076 C 
ATOM      7  C8  UNL d   1       0.372   0.930  -0.359  0.00  0.00     0.001 A 
ENDROOT
BRANCH   1   8
ATOM      8  C1  UNL d   1       0.391  -1.592  -0.216  0.00  0.00     0.053 C 
ATOM      9  C   UNL d   1      -0.644  -2.203  -1.147  0.00  0.00     0.018 C 
ENDBRANCH   1   8
TORSDOF 1
ENDMDL
