MODEL 1
REMARK minimizedAffinity -3.57123017
REMARK minimizedRMSD -1
REMARK  1 active torsions:
REMARK  status: ('A' for Active; 'I' for Inactive)
REMARK    1  A    between atoms: C1_2  and  C2_3 
ROOT
ATOM      1  C2  UNL d   1      -0.322  -0.234   0.501  0.00  0.00    -0.073 A 
ATOM      2  C3  UNL d   1       0.935   0.374   0.400  0.00  0.00    -0.002 A 
ATOM      3  C4  UNL d   1       1.854  -0.061  -0.556  0.00  0.00     0.004 A 
ATOM      4  C5  UNL d   1       1.524  -1.102  -1.424  0.00  0.00    -0.004 A 
ATOM      5  C6  UNL d   1       0.269  -1.714  -1.347  0.00  0.00    -0.075 A 
ATOM      6  C7  UNL d   1      -0.100  -2.837  -2.272  0.00  0.00     0.076 C 
ATOM      7  C8  UNL d   1      -0.647  -1.274  -0.383  0.00  0.00     0.001 A 
ENDROOT
BRANCH   1   8
ATOM      8  C1  UNL d   1      -1.320   0.236   1.527  0.00  0.00     0.053 C 
ATOM      9  C   UNL d   1      -1.070   1.676   1.946  0.00  0.00     0.018 C 
ENDBRANCH   1   8
TORSDOF 1
ENDMDL
