MODEL 1
REMARK minimizedAffinity -4.75305319
REMARK minimizedRMSD -1
REMARK  1 active torsions:
REMARK  status: ('A' for Active; 'I' for Inactive)
REMARK    1  A    between atoms: C1_2  and  C2_3 
ROOT
ATOM      1  C2  UNL d   1       0.321  -0.285   0.093  0.00  0.00    -0.073 A 
ATOM      2  C3  UNL d   1       0.606  -0.815   1.356  0.00  0.00    -0.002 A 
ATOM      3  C4  UNL d   1      -0.109  -0.391   2.477  0.00  0.00     0.004 A 
ATOM      4  C5  UNL d   1      -1.121   0.560   2.345  0.00  0.00    -0.004 A 
ATOM      5  C6  UNL d   1      -1.429   1.093   1.090  0.00  0.00    -0.075 A 
ATOM      6  C7  UNL d   1      -2.513   2.118   0.932  0.00  0.00     0.076 C 
ATOM      7  C8  UNL d   1      -0.704   0.664  -0.031  0.00  0.00     0.001 A 
ENDROOT
BRANCH   1   8
ATOM      8  C1  UNL d   1       1.086  -0.744  -1.121  0.00  0.00     0.053 C 
ATOM      9  C   UNL d   1       0.745  -2.176  -1.502  0.00  0.00     0.018 C 
ENDBRANCH   1   8
TORSDOF 1
ENDMDL
