MODEL 1
REMARK minimizedAffinity -5.05022192
REMARK minimizedRMSD -1
REMARK  1 active torsions:
REMARK  status: ('A' for Active; 'I' for Inactive)
REMARK    1  A    between atoms: C1_2  and  C2_3 
ROOT
ATOM      1  C2  UNL d   1      -0.470   0.716   0.582  0.00  0.00    -0.073 A 
ATOM      2  C3  UNL d   1      -1.521   1.168   1.388  0.00  0.00    -0.002 A 
ATOM      3  C4  UNL d   1      -1.938   2.499   1.322  0.00  0.00     0.004 A 
ATOM      4  C5  UNL d   1      -1.315   3.387   0.446  0.00  0.00    -0.004 A 
ATOM      5  C6  UNL d   1      -0.271   2.951  -0.377  0.00  0.00    -0.075 A 
ATOM      6  C7  UNL d   1       0.412   3.895  -1.323  0.00  0.00     0.076 C 
ATOM      7  C8  UNL d   1       0.144   1.614  -0.302  0.00  0.00     0.001 A 
ENDROOT
BRANCH   1   8
ATOM      8  C1  UNL d   1      -0.020  -0.721   0.645  0.00  0.00     0.053 C 
ATOM      9  C   UNL d   1       0.759  -1.129  -0.594  0.00  0.00     0.018 C 
ENDBRANCH   1   8
TORSDOF 1
ENDMDL
