MODEL 1
REMARK minimizedAffinity -4.91452026
REMARK minimizedRMSD -1
REMARK  1 active torsions:
REMARK  status: ('A' for Active; 'I' for Inactive)
REMARK    1  A    between atoms: C1_2  and  C2_3 
ROOT
ATOM      1  C2  UNL d   1       0.080  -0.478  -0.822  0.00  0.00    -0.073 A 
ATOM      2  C3  UNL d   1       0.941  -0.740   0.250  0.00  0.00    -0.002 A 
ATOM      3  C4  UNL d   1       0.667  -0.222   1.517  0.00  0.00     0.004 A 
ATOM      4  C5  UNL d   1      -0.471   0.557   1.726  0.00  0.00    -0.004 A 
ATOM      5  C6  UNL d   1      -1.349   0.820   0.670  0.00  0.00    -0.075 A 
ATOM      6  C7  UNL d   1      -2.576   1.658   0.877  0.00  0.00     0.076 C 
ATOM      7  C8  UNL d   1      -1.066   0.299  -0.600  0.00  0.00     0.001 A 
ENDROOT
BRANCH   1   8
ATOM      8  C1  UNL d   1       0.368  -1.040  -2.190  0.00  0.00     0.053 C 
ATOM      9  C   UNL d   1       0.466  -2.557  -2.173  0.00  0.00     0.018 C 
ENDBRANCH   1   8
TORSDOF 1
ENDMDL
