MODEL 1
REMARK minimizedAffinity -5.94989252
REMARK minimizedRMSD -1
REMARK  1 active torsions:
REMARK  status: ('A' for Active; 'I' for Inactive)
REMARK    1  A    between atoms: C1_2  and  C2_3 
ROOT
ATOM      1  C2  UNL d   1      -0.964   2.080   0.568  0.00  0.00    -0.073 A 
ATOM      2  C3  UNL d   1      -1.180   1.720   1.903  0.00  0.00    -0.002 A 
ATOM      3  C4  UNL d   1      -0.742   0.483   2.379  0.00  0.00     0.004 A 
ATOM      4  C5  UNL d   1      -0.080  -0.402   1.528  0.00  0.00    -0.004 A 
ATOM      5  C6  UNL d   1       0.155  -0.055   0.194  0.00  0.00    -0.075 A 
ATOM      6  C7  UNL d   1       0.864  -0.997  -0.735  0.00  0.00     0.076 C 
ATOM      7  C8  UNL d   1      -0.290   1.188  -0.277  0.00  0.00     0.001 A 
ENDROOT
BRANCH   1   8
ATOM      8  C1  UNL d   1      -1.429   3.417   0.052  0.00  0.00     0.053 C 
ATOM      9  C   UNL d   1      -0.623   3.874  -1.153  0.00  0.00     0.018 C 
ENDBRANCH   1   8
TORSDOF 1
ENDMDL
