MODEL 1
REMARK minimizedAffinity -5.33895493
REMARK minimizedRMSD -1
REMARK  1 active torsions:
REMARK  status: ('A' for Active; 'I' for Inactive)
REMARK    1  A    between atoms: C1_2  and  C2_3 
ROOT
ATOM      1  C2  UNL d   1      -0.941   1.829   0.657  0.00  0.00    -0.073 A 
ATOM      2  C3  UNL d   1      -0.891   1.508   2.018  0.00  0.00    -0.002 A 
ATOM      3  C4  UNL d   1      -0.436   0.256   2.432  0.00  0.00     0.004 A 
ATOM      4  C5  UNL d   1      -0.019  -0.685   1.491  0.00  0.00    -0.004 A 
ATOM      5  C6  UNL d   1      -0.050  -0.380   0.126  0.00  0.00    -0.075 A 
ATOM      6  C7  UNL d   1       0.393  -1.382  -0.899  0.00  0.00     0.076 C 
ATOM      7  C8  UNL d   1      -0.511   0.879  -0.281  0.00  0.00     0.001 A 
ENDROOT
BRANCH   1   8
ATOM      8  C1  UNL d   1      -1.426   3.182   0.206  0.00  0.00     0.053 C 
ATOM      9  C   UNL d   1      -0.784   3.610  -1.104  0.00  0.00     0.018 C 
ENDBRANCH   1   8
TORSDOF 1
ENDMDL
