MODEL 1
REMARK minimizedAffinity -3.01381421
REMARK minimizedRMSD -1
REMARK  1 active torsions:
REMARK  status: ('A' for Active; 'I' for Inactive)
REMARK    1  A    between atoms: C1_2  and  C2_3 
ROOT
ATOM      1  C2  UNL d   1      -0.013  -0.121   0.286  0.00  0.00    -0.073 A 
ATOM      2  C3  UNL d   1      -0.766   0.025   1.457  0.00  0.00    -0.002 A 
ATOM      3  C4  UNL d   1      -1.209   1.286   1.857  0.00  0.00     0.004 A 
ATOM      4  C5  UNL d   1      -0.912   2.411   1.088  0.00  0.00    -0.004 A 
ATOM      5  C6  UNL d   1      -0.171   2.284  -0.091  0.00  0.00    -0.075 A 
ATOM      6  C7  UNL d   1       0.160   3.485  -0.928  0.00  0.00     0.076 C 
ATOM      7  C8  UNL d   1       0.273   1.014  -0.485  0.00  0.00     0.001 A 
ENDROOT
BRANCH   1   8
ATOM      8  C1  UNL d   1       0.463  -1.482  -0.153  0.00  0.00     0.053 C 
ATOM      9  C   UNL d   1       0.217  -1.721  -1.634  0.00  0.00     0.018 C 
ENDBRANCH   1   8
TORSDOF 1
ENDMDL
