MODEL 1
REMARK minimizedAffinity -3.37964344
REMARK minimizedRMSD -1
REMARK  1 active torsions:
REMARK  status: ('A' for Active; 'I' for Inactive)
REMARK    1  A    between atoms: C1_2  and  C2_3 
ROOT
ATOM      1  C2  UNL d   1       0.100   0.190   0.476  0.00  0.00    -0.073 A 
ATOM      2  C3  UNL d   1      -0.865   0.324   1.481  0.00  0.00    -0.002 A 
ATOM      3  C4  UNL d   1      -1.441   1.568   1.743  0.00  0.00     0.004 A 
ATOM      4  C5  UNL d   1      -1.065   2.686   1.000  0.00  0.00    -0.004 A 
ATOM      5  C6  UNL d   1      -0.112   2.570  -0.017  0.00  0.00    -0.075 A 
ATOM      6  C7  UNL d   1       0.305   3.765  -0.824  0.00  0.00     0.076 C 
ATOM      7  C8  UNL d   1       0.465   1.319  -0.272  0.00  0.00     0.001 A 
ENDROOT
BRANCH   1   8
ATOM      8  C1  UNL d   1       0.721  -1.152   0.185  0.00  0.00     0.053 C 
ATOM      9  C   UNL d   1       1.682  -1.092  -0.991  0.00  0.00     0.018 C 
ENDBRANCH   1   8
TORSDOF 1
ENDMDL
