MODEL 1
REMARK minimizedAffinity -4.06778383
REMARK minimizedRMSD -1
REMARK  1 active torsions:
REMARK  status: ('A' for Active; 'I' for Inactive)
REMARK    1  A    between atoms: C1_2  and  C2_3 
ROOT
ATOM      1  C2  UNL d   1       0.356  -1.282  -1.313  0.00  0.00    -0.073 A 
ATOM      2  C3  UNL d   1      -0.288  -1.691  -2.487  0.00  0.00    -0.002 A 
ATOM      3  C4  UNL d   1      -0.026  -2.948  -3.034  0.00  0.00     0.004 A 
ATOM      4  C5  UNL d   1       0.877  -3.810  -2.411  0.00  0.00    -0.004 A 
ATOM      5  C6  UNL d   1       1.522  -3.424  -1.231  0.00  0.00    -0.075 A 
ATOM      6  C7  UNL d   1       2.497  -4.339  -0.551  0.00  0.00     0.076 C 
ATOM      7  C8  UNL d   1       1.255  -2.160  -0.690  0.00  0.00     0.001 A 
ENDROOT
BRANCH   1   8
ATOM      8  C1  UNL d   1       0.071   0.071  -0.715  0.00  0.00     0.053 C 
ATOM      9  C   UNL d   1      -0.363  -0.028   0.738  0.00  0.00     0.018 C 
ENDBRANCH   1   8
TORSDOF 1
ENDMDL
