MODEL 1
REMARK minimizedAffinity -3.39008427
REMARK minimizedRMSD -1
REMARK  1 active torsions:
REMARK  status: ('A' for Active; 'I' for Inactive)
REMARK    1  A    between atoms: C3_4  and  O_7 
ROOT
ATOM      1  C   UNL d   1       0.124   0.287  -5.971  0.00  0.00    -0.033 A 
ATOM      2  C1  UNL d   1       1.069   1.159  -5.426  0.00  0.00     0.039 A 
ATOM      3  C2  UNL d   1       1.299   1.170  -4.049  0.00  0.00    -0.080 A 
ATOM      4  C3  UNL d   1       0.579   0.305  -3.229  0.00  0.00     0.150 A 
ATOM      5  C4  UNL d   1      -0.361  -0.569  -3.766  0.00  0.00    -0.007 A 
ATOM      6  C5  UNL d   1      -0.590  -0.577  -5.141  0.00  0.00     0.039 A 
ENDROOT
BRANCH   4   7
ATOM      7  O   UNL d   1       0.765   0.283  -1.879  0.00  0.00    -0.526 OA
ATOM      8  H5  UNL d   1       1.424   0.960  -1.648  0.00  0.00     0.418 HD
ENDBRANCH   4   7
TORSDOF 1
ENDMDL
