MODEL 1
REMARK minimizedAffinity -1.05454922
REMARK minimizedRMSD -1
REMARK  1 active torsions:
REMARK  status: ('A' for Active; 'I' for Inactive)
REMARK    1  A    between atoms: C3_4  and  O_7 
ROOT
ATOM      1  C   UNL d   1      -1.422  -0.045   0.503  0.00  0.00    -0.033 A 
ATOM      2  C1  UNL d   1      -2.197  -0.415   1.604  0.00  0.00     0.039 A 
ATOM      3  C2  UNL d   1      -2.071   0.274   2.812  0.00  0.00    -0.080 A 
ATOM      4  C3  UNL d   1      -1.169   1.331   2.905  0.00  0.00     0.150 A 
ATOM      5  C4  UNL d   1      -0.396   1.707   1.811  0.00  0.00    -0.007 A 
ATOM      6  C5  UNL d   1      -0.523   1.017   0.606  0.00  0.00     0.039 A 
ENDROOT
BRANCH   4   7
ATOM      7  O   UNL d   1      -1.008   2.030   4.064  0.00  0.00    -0.526 OA
ATOM      8  H5  UNL d   1      -1.585   1.640   4.741  0.00  0.00     0.418 HD
ENDBRANCH   4   7
TORSDOF 1
ENDMDL
