MODEL 1
REMARK minimizedAffinity -3.02484655
REMARK minimizedRMSD -1
REMARK  1 active torsions:
REMARK  status: ('A' for Active; 'I' for Inactive)
REMARK    1  A    between atoms: C3_4  and  O_7 
ROOT
ATOM      1  C   UNL d   1      -0.045   0.952   0.978  0.00  0.00    -0.033 A 
ATOM      2  C1  UNL d   1       0.846   0.967   2.052  0.00  0.00     0.039 A 
ATOM      3  C2  UNL d   1       1.959   0.124   2.050  0.00  0.00    -0.080 A 
ATOM      4  C3  UNL d   1       2.170  -0.727   0.969  0.00  0.00     0.150 A 
ATOM      5  C4  UNL d   1       1.288  -0.745  -0.107  0.00  0.00    -0.007 A 
ATOM      6  C5  UNL d   1       0.176   0.097  -0.103  0.00  0.00     0.039 A 
ENDROOT
BRANCH   4   7
ATOM      7  O   UNL d   1       3.239  -1.571   0.924  0.00  0.00    -0.526 OA
ATOM      8  H5  UNL d   1       3.745  -1.471   1.747  0.00  0.00     0.418 HD
ENDBRANCH   4   7
TORSDOF 1
ENDMDL
