MODEL 1
REMARK minimizedAffinity -4.43812561
REMARK minimizedRMSD -1
REMARK  1 active torsions:
REMARK  status: ('A' for Active; 'I' for Inactive)
REMARK    1  A    between atoms: C3_4  and  O_7 
ROOT
ATOM      1  C   UNL d   1      -0.793   1.506   2.760  0.00  0.00    -0.033 A 
ATOM      2  C1  UNL d   1       0.291   0.985   3.470  0.00  0.00     0.039 A 
ATOM      3  C2  UNL d   1       1.179   0.107   2.847  0.00  0.00    -0.080 A 
ATOM      4  C3  UNL d   1       0.974  -0.241   1.515  0.00  0.00     0.150 A 
ATOM      5  C4  UNL d   1      -0.101   0.277   0.800  0.00  0.00    -0.007 A 
ATOM      6  C5  UNL d   1      -0.988   1.153   1.424  0.00  0.00     0.039 A 
ENDROOT
BRANCH   4   7
ATOM      7  O   UNL d   1       1.811  -1.099   0.865  0.00  0.00    -0.526 OA
ATOM      8  H5  UNL d   1       2.491  -1.399   1.492  0.00  0.00     0.418 HD
ENDBRANCH   4   7
TORSDOF 1
ENDMDL
