MODEL 1
REMARK minimizedAffinity -2.66691804
REMARK minimizedRMSD -1
REMARK  1 active torsions:
REMARK  status: ('A' for Active; 'I' for Inactive)
REMARK    1  A    between atoms: C3_4  and  O_7 
ROOT
ATOM      1  C   UNL d   1      -0.210  -0.264  -0.166  0.00  0.00    -0.033 A 
ATOM      2  C1  UNL d   1      -1.501   0.095   0.226  0.00  0.00     0.039 A 
ATOM      3  C2  UNL d   1      -1.699   0.819   1.403  0.00  0.00    -0.080 A 
ATOM      4  C3  UNL d   1      -0.600   1.178   2.178  0.00  0.00     0.150 A 
ATOM      5  C4  UNL d   1       0.690   0.827   1.791  0.00  0.00    -0.007 A 
ATOM      6  C5  UNL d   1       0.885   0.103   0.616  0.00  0.00     0.039 A 
ENDROOT
BRANCH   4   7
ATOM      7  O   UNL d   1      -0.743   1.880   3.337  0.00  0.00    -0.526 OA
ATOM      8  H5  UNL d   1      -1.691   2.027   3.492  0.00  0.00     0.418 HD
ENDBRANCH   4   7
TORSDOF 1
ENDMDL
