MODEL 1
REMARK minimizedAffinity -4.22849751
REMARK minimizedRMSD -1
REMARK  1 active torsions:
REMARK  status: ('A' for Active; 'I' for Inactive)
REMARK    1  A    between atoms: C3_4  and  O_7 
ROOT
ATOM      1  C   UNL d   1      -0.394   1.420   2.978  0.00  0.00    -0.033 A 
ATOM      2  C1  UNL d   1      -1.547   1.105   2.256  0.00  0.00     0.039 A 
ATOM      3  C2  UNL d   1      -1.452   0.373   1.071  0.00  0.00    -0.080 A 
ATOM      4  C3  UNL d   1      -0.201  -0.039   0.620  0.00  0.00     0.150 A 
ATOM      5  C4  UNL d   1       0.951   0.269   1.336  0.00  0.00    -0.007 A 
ATOM      6  C5  UNL d   1       0.855   1.001   2.518  0.00  0.00     0.039 A 
ENDROOT
BRANCH   4   7
ATOM      7  O   UNL d   1      -0.058  -0.751  -0.534  0.00  0.00    -0.526 OA
ATOM      8  H5  UNL d   1      -0.936  -0.864  -0.936  0.00  0.00     0.418 HD
ENDBRANCH   4   7
TORSDOF 1
ENDMDL
