MODEL 1
REMARK minimizedAffinity -2.41909933
REMARK minimizedRMSD -1
REMARK  1 active torsions:
REMARK  status: ('A' for Active; 'I' for Inactive)
REMARK    1  A    between atoms: C3_4  and  O_7 
ROOT
ATOM      1  C   UNL d   1       0.814  -0.459   0.538  0.00  0.00    -0.033 A 
ATOM      2  C1  UNL d   1       1.655   0.417   1.228  0.00  0.00     0.039 A 
ATOM      3  C2  UNL d   1       1.143   1.216   2.253  0.00  0.00    -0.080 A 
ATOM      4  C3  UNL d   1      -0.207   1.129   2.578  0.00  0.00     0.150 A 
ATOM      5  C4  UNL d   1      -1.049   0.255   1.897  0.00  0.00    -0.007 A 
ATOM      6  C5  UNL d   1      -0.538  -0.541   0.873  0.00  0.00     0.039 A 
ENDROOT
BRANCH   4   7
ATOM      7  O   UNL d   1      -0.753   1.891   3.568  0.00  0.00    -0.526 OA
ATOM      8  H5  UNL d   1      -0.059   2.467   3.930  0.00  0.00     0.418 HD
ENDBRANCH   4   7
TORSDOF 1
ENDMDL
