MODEL 1
REMARK minimizedAffinity -0.180692717
REMARK minimizedRMSD -1
REMARK  1 active torsions:
REMARK  status: ('A' for Active; 'I' for Inactive)
REMARK    1  A    between atoms: C3_4  and  O_7 
ROOT
ATOM      1  C   UNL d   1       0.105  -0.340  -0.036  0.00  0.00    -0.033 A 
ATOM      2  C1  UNL d   1       1.105   0.147   0.808  0.00  0.00     0.039 A 
ATOM      3  C2  UNL d   1       0.765   0.891   1.940  0.00  0.00    -0.080 A 
ATOM      4  C3  UNL d   1      -0.577   1.140   2.216  0.00  0.00     0.150 A 
ATOM      5  C4  UNL d   1      -1.578   0.655   1.381  0.00  0.00    -0.007 A 
ATOM      6  C5  UNL d   1      -1.236  -0.087   0.251  0.00  0.00     0.039 A 
ENDROOT
BRANCH   4   7
ATOM      7  O   UNL d   1      -0.958   1.865   3.305  0.00  0.00    -0.526 OA
ATOM      8  H5  UNL d   1      -0.159   2.159   3.774  0.00  0.00     0.418 HD
ENDBRANCH   4   7
TORSDOF 1
ENDMDL
