MODEL 1
REMARK minimizedAffinity 9.36760902
REMARK minimizedRMSD -1
REMARK  0 active torsions:
REMARK  status: ('A' for Active; 'I' for Inactive)
ROOT
ATOM      1  C   UNL d   1      -1.437   1.932   3.884  0.00  0.00     0.020 A 
ATOM      2  C1  UNL d   1      -1.682   0.640   4.349  0.00  0.00     0.020 A 
ATOM      3  C2  UNL d   1      -2.058  -0.364   3.454  0.00  0.00     0.034 A 
ATOM      4  C3  UNL d   1      -2.192  -0.078   2.090  0.00  0.00     0.017 A 
ATOM      5  C4  UNL d   1      -1.946   1.219   1.625  0.00  0.00     0.017 A 
ATOM      6  C5  UNL d   1      -1.569   2.221   2.526  0.00  0.00     0.034 A 
ATOM      7 Cl   UNL d   1      -2.090   1.649  -0.043  0.00  0.00    -0.070 Cl
ATOM      8 Cl1  UNL d   1      -2.661  -1.367   1.040  0.00  0.00    -0.070 Cl
ENDROOT
TORSDOF 0
ENDMDL
