MODEL 1
REMARK minimizedAffinity 5.29368353
REMARK minimizedRMSD -1
REMARK  0 active torsions:
REMARK  status: ('A' for Active; 'I' for Inactive)
ROOT
ATOM      1  C   UNL d   1      -2.525  -4.917   0.312  0.00  0.00     0.020 A 
ATOM      2  C1  UNL d   1      -3.388  -3.821   0.323  0.00  0.00     0.020 A 
ATOM      3  C2  UNL d   1      -3.494  -3.005  -0.805  0.00  0.00     0.034 A 
ATOM      4  C3  UNL d   1      -2.735  -3.282  -1.948  0.00  0.00     0.017 A 
ATOM      5  C4  UNL d   1      -1.870  -4.381  -1.958  0.00  0.00     0.017 A 
ATOM      6  C5  UNL d   1      -1.768  -5.196  -0.826  0.00  0.00     0.034 A 
ATOM      7 Cl   UNL d   1      -0.902  -4.787  -3.332  0.00  0.00    -0.070 Cl
ATOM      8 Cl1  UNL d   1      -2.916  -2.229  -3.306  0.00  0.00    -0.070 Cl
ENDROOT
TORSDOF 0
ENDMDL
