MODEL 1
REMARK minimizedAffinity 0.717574537
REMARK minimizedRMSD -1
REMARK  0 active torsions:
REMARK  status: ('A' for Active; 'I' for Inactive)
ROOT
ATOM      1  C   UNL d   1      -2.346   1.663   0.028  0.00  0.00     0.020 A 
ATOM      2  C1  UNL d   1      -2.034   0.382   0.482  0.00  0.00     0.020 A 
ATOM      3  C2  UNL d   1      -2.951  -0.325   1.262  0.00  0.00     0.034 A 
ATOM      4  C3  UNL d   1      -4.185   0.248   1.590  0.00  0.00     0.017 A 
ATOM      5  C4  UNL d   1      -4.497   1.534   1.134  0.00  0.00     0.017 A 
ATOM      6  C5  UNL d   1      -3.575   2.238   0.354  0.00  0.00     0.034 A 
ATOM      7 Cl   UNL d   1      -6.000   2.307   1.499  0.00  0.00    -0.070 Cl
ATOM      8 Cl1  UNL d   1      -5.272  -0.684   2.558  0.00  0.00    -0.070 Cl
ENDROOT
TORSDOF 0
ENDMDL
