MODEL 1
REMARK minimizedAffinity 2.13988304
REMARK minimizedRMSD -1
REMARK  0 active torsions:
REMARK  status: ('A' for Active; 'I' for Inactive)
ROOT
ATOM      1  C   UNL d   1       4.778   6.000   3.748  0.00  0.00     0.020 A 
ATOM      2  C1  UNL d   1       4.449   5.270   4.889  0.00  0.00     0.020 A 
ATOM      3  C2  UNL d   1       4.596   3.881   4.896  0.00  0.00     0.034 A 
ATOM      4  C3  UNL d   1       5.074   3.218   3.760  0.00  0.00     0.017 A 
ATOM      5  C4  UNL d   1       5.404   3.952   2.615  0.00  0.00     0.017 A 
ATOM      6  C5  UNL d   1       5.255   5.342   2.613  0.00  0.00     0.034 A 
ATOM      7 Cl   UNL d   1       6.000   3.204   1.175  0.00  0.00    -0.070 Cl
ATOM      8 Cl1  UNL d   1       5.231   1.499   3.840  0.00  0.00    -0.070 Cl
ENDROOT
TORSDOF 0
ENDMDL
