MODEL 1
REMARK minimizedAffinity 0.765247345
REMARK minimizedRMSD -1
REMARK  0 active torsions:
REMARK  status: ('A' for Active; 'I' for Inactive)
ROOT
ATOM      1  C   UNL d   1      -1.060  -0.106   0.596  0.00  0.00     0.020 A 
ATOM      2  C1  UNL d   1      -2.129  -0.531   1.383  0.00  0.00     0.020 A 
ATOM      3  C2  UNL d   1      -3.368   0.105   1.281  0.00  0.00     0.034 A 
ATOM      4  C3  UNL d   1      -3.540   1.171   0.389  0.00  0.00     0.017 A 
ATOM      5  C4  UNL d   1      -2.466   1.597  -0.400  0.00  0.00     0.017 A 
ATOM      6  C5  UNL d   1      -1.228   0.955  -0.294  0.00  0.00     0.034 A 
ATOM      7 Cl   UNL d   1      -2.602   2.904  -1.523  0.00  0.00    -0.070 Cl
ATOM      8 Cl1  UNL d   1      -5.099   1.911   0.314  0.00  0.00    -0.070 Cl
ENDROOT
TORSDOF 0
ENDMDL
