MODEL 1
REMARK minimizedAffinity 7.09499788
REMARK minimizedRMSD -1
REMARK  0 active torsions:
REMARK  status: ('A' for Active; 'I' for Inactive)
ROOT
ATOM      1  C   UNL d   1      -4.155   1.406   1.257  0.00  0.00     0.020 A 
ATOM      2  C1  UNL d   1      -5.245   1.701   0.440  0.00  0.00     0.020 A 
ATOM      3  C2  UNL d   1      -5.040   2.065  -0.893  0.00  0.00     0.034 A 
ATOM      4  C3  UNL d   1      -3.742   2.136  -1.412  0.00  0.00     0.017 A 
ATOM      5  C4  UNL d   1      -2.649   1.840  -0.590  0.00  0.00     0.017 A 
ATOM      6  C5  UNL d   1      -2.859   1.475   0.743  0.00  0.00     0.034 A 
ATOM      7 Cl   UNL d   1      -1.018   1.904  -1.159  0.00  0.00    -0.070 Cl
ATOM      8 Cl1  UNL d   1      -3.563   2.593  -3.068  0.00  0.00    -0.070 Cl
ENDROOT
TORSDOF 0
ENDMDL
