MODEL 1
REMARK minimizedAffinity 3.62599564
REMARK minimizedRMSD -1
REMARK  0 active torsions:
REMARK  status: ('A' for Active; 'I' for Inactive)
ROOT
ATOM      1  C   UNL d   1      -2.061   1.736  -0.044  0.00  0.00     0.020 A 
ATOM      2  C1  UNL d   1      -1.730   0.530   0.572  0.00  0.00     0.020 A 
ATOM      3  C2  UNL d   1      -2.723  -0.234   1.188  0.00  0.00     0.034 A 
ATOM      4  C3  UNL d   1      -4.052   0.207   1.190  0.00  0.00     0.017 A 
ATOM      5  C4  UNL d   1      -4.383   1.418   0.571  0.00  0.00     0.017 A 
ATOM      6  C5  UNL d   1      -3.384   2.179  -0.045  0.00  0.00     0.034 A 
ATOM      7 Cl   UNL d   1      -5.999   2.027   0.532  0.00  0.00    -0.070 Cl
ATOM      8 Cl1  UNL d   1      -5.228  -0.789   1.970  0.00  0.00    -0.070 Cl
ENDROOT
TORSDOF 0
ENDMDL
