MODEL 1
REMARK minimizedAffinity -1.20123112
REMARK minimizedRMSD -1
REMARK  0 active torsions:
REMARK  status: ('A' for Active; 'I' for Inactive)
ROOT
ATOM      1  C   UNL d   1      -2.253   1.688   0.173  0.00  0.00     0.020 A 
ATOM      2  C1  UNL d   1      -1.977   0.374   0.547  0.00  0.00     0.020 A 
ATOM      3  C2  UNL d   1      -2.948  -0.383   1.206  0.00  0.00     0.034 A 
ATOM      4  C3  UNL d   1      -4.200   0.174   1.493  0.00  0.00     0.017 A 
ATOM      5  C4  UNL d   1      -4.476   1.493   1.117  0.00  0.00     0.017 A 
ATOM      6  C5  UNL d   1      -3.500   2.247   0.457  0.00  0.00     0.034 A 
ATOM      7 Cl   UNL d   1      -5.997   2.249   1.436  0.00  0.00    -0.070 Cl
ATOM      8 Cl1  UNL d   1      -5.353  -0.820   2.310  0.00  0.00    -0.070 Cl
ENDROOT
TORSDOF 0
ENDMDL
