MODEL 1
REMARK minimizedAffinity 11.4589977
REMARK minimizedRMSD -1
REMARK  0 active torsions:
REMARK  status: ('A' for Active; 'I' for Inactive)
ROOT
ATOM      1  C   UNL d   1       3.493   1.813  -1.127  0.00  0.00     0.020 A 
ATOM      2  C1  UNL d   1       3.309   0.579  -0.506  0.00  0.00     0.020 A 
ATOM      3  C2  UNL d   1       3.727   0.392   0.814  0.00  0.00     0.034 A 
ATOM      4  C3  UNL d   1       4.331   1.441   1.516  0.00  0.00     0.017 A 
ATOM      5  C4  UNL d   1       4.515   2.680   0.891  0.00  0.00     0.017 A 
ATOM      6  C5  UNL d   1       4.095   2.861  -0.431  0.00  0.00     0.034 A 
ATOM      7 Cl   UNL d   1       5.253   4.022   1.692  0.00  0.00    -0.070 Cl
ATOM      8 Cl1  UNL d   1       4.823   1.140   3.144  0.00  0.00    -0.070 Cl
ENDROOT
TORSDOF 0
ENDMDL
