MODEL 1
REMARK minimizedAffinity 1.81743991
REMARK minimizedRMSD -1
REMARK  0 active torsions:
REMARK  status: ('A' for Active; 'I' for Inactive)
ROOT
ATOM      1  C   UNL d   1      -0.897  -5.762  -3.893  0.00  0.00     0.020 A 
ATOM      2  C1  UNL d   1      -0.933  -5.200  -2.617  0.00  0.00     0.020 A 
ATOM      3  C2  UNL d   1       0.258  -4.876  -1.963  0.00  0.00     0.034 A 
ATOM      4  C3  UNL d   1       1.489  -5.114  -2.585  0.00  0.00     0.017 A 
ATOM      5  C4  UNL d   1       1.524  -5.678  -3.865  0.00  0.00     0.017 A 
ATOM      6  C5  UNL d   1       0.329  -6.000  -4.515  0.00  0.00     0.034 A 
ATOM      7 Cl   UNL d   1       3.005  -6.000  -4.696  0.00  0.00    -0.070 Cl
ATOM      8 Cl1  UNL d   1       2.922  -4.688  -1.718  0.00  0.00    -0.070 Cl
ENDROOT
TORSDOF 0
ENDMDL
