MODEL 1
REMARK minimizedAffinity 18.453846
REMARK minimizedRMSD -1
REMARK  0 active torsions:
REMARK  status: ('A' for Active; 'I' for Inactive)
ROOT
ATOM      1  C   UNL d   1      -2.811   0.859   1.085  0.00  0.00     0.020 A 
ATOM      2  C1  UNL d   1      -3.827   1.790   0.876  0.00  0.00     0.020 A 
ATOM      3  C2  UNL d   1      -3.789   2.627  -0.242  0.00  0.00     0.034 A 
ATOM      4  C3  UNL d   1      -2.733   2.533  -1.155  0.00  0.00     0.017 A 
ATOM      5  C4  UNL d   1      -1.714   1.597  -0.945  0.00  0.00     0.017 A 
ATOM      6  C5  UNL d   1      -1.757   0.763   0.176  0.00  0.00     0.034 A 
ATOM      7 Cl   UNL d   1      -0.378   1.423  -2.028  0.00  0.00    -0.070 Cl
ATOM      8 Cl1  UNL d   1      -2.750   3.598  -2.515  0.00  0.00    -0.070 Cl
ENDROOT
TORSDOF 0
ENDMDL
