MODEL 1
REMARK minimizedAffinity 5.17107964
REMARK minimizedRMSD -1
REMARK  0 active torsions:
REMARK  status: ('A' for Active; 'I' for Inactive)
ROOT
ATOM      1  C   UNL d   1      -1.881   4.557  -5.997  0.00  0.00     0.020 A 
ATOM      2  C1  UNL d   1      -3.180   4.156  -5.689  0.00  0.00     0.020 A 
ATOM      3  C2  UNL d   1      -3.410   2.894  -5.137  0.00  0.00     0.034 A 
ATOM      4  C3  UNL d   1      -2.338   2.028  -4.891  0.00  0.00     0.017 A 
ATOM      5  C4  UNL d   1      -1.034   2.431  -5.200  0.00  0.00     0.017 A 
ATOM      6  C5  UNL d   1      -0.810   3.696  -5.752  0.00  0.00     0.034 A 
ATOM      7 Cl   UNL d   1       0.339   1.418  -4.924  0.00  0.00    -0.070 Cl
ATOM      8 Cl1  UNL d   1      -2.695   0.483  -4.206  0.00  0.00    -0.070 Cl
ENDROOT
TORSDOF 0
ENDMDL
