MODEL 1
REMARK minimizedAffinity 10.7038126
REMARK minimizedRMSD -1
REMARK  0 active torsions:
REMARK  status: ('A' for Active; 'I' for Inactive)
ROOT
ATOM      1  C   UNL d   1       1.988   0.771  -1.838  0.00  0.00     0.020 A 
ATOM      2  C1  UNL d   1       3.343   0.910  -1.540  0.00  0.00     0.020 A 
ATOM      3  C2  UNL d   1       3.737   1.389  -0.289  0.00  0.00     0.034 A 
ATOM      4  C3  UNL d   1       2.775   1.732   0.669  0.00  0.00     0.017 A 
ATOM      5  C4  UNL d   1       1.415   1.592   0.369  0.00  0.00     0.017 A 
ATOM      6  C5  UNL d   1       1.026   1.112  -0.885  0.00  0.00     0.034 A 
ATOM      7 Cl   UNL d   1       0.171   1.994   1.499  0.00  0.00    -0.070 Cl
ATOM      8 Cl1  UNL d   1       3.334   2.318   2.195  0.00  0.00    -0.070 Cl
ENDROOT
TORSDOF 0
ENDMDL
