MODEL 1
REMARK minimizedAffinity 8.40561581
REMARK minimizedRMSD -1
REMARK  0 active torsions:
REMARK  status: ('A' for Active; 'I' for Inactive)
ROOT
ATOM      1  C   UNL d   1      -0.230   1.721   0.771  0.00  0.00     0.020 A 
ATOM      2  C1  UNL d   1       0.895   1.232   1.434  0.00  0.00     0.020 A 
ATOM      3  C2  UNL d   1       2.009   0.814   0.703  0.00  0.00     0.034 A 
ATOM      4  C3  UNL d   1       2.000   0.884  -0.694  0.00  0.00     0.017 A 
ATOM      5  C4  UNL d   1       0.871   1.375  -1.359  0.00  0.00     0.017 A 
ATOM      6  C5  UNL d   1      -0.242   1.792  -0.622  0.00  0.00     0.034 A 
ATOM      7 Cl   UNL d   1       0.786   1.491  -3.081  0.00  0.00    -0.070 Cl
ATOM      8 Cl1  UNL d   1       3.413   0.350  -1.534  0.00  0.00    -0.070 Cl
ENDROOT
TORSDOF 0
ENDMDL
