MODEL 1
REMARK minimizedAffinity 10.1141577
REMARK minimizedRMSD -1
REMARK  0 active torsions:
REMARK  status: ('A' for Active; 'I' for Inactive)
ROOT
ATOM      1  C   UNL d   1       2.926   0.430   0.234  0.00  0.00     0.020 A 
ATOM      2  C1  UNL d   1       3.114   1.583   0.995  0.00  0.00     0.020 A 
ATOM      3  C2  UNL d   1       2.027   2.179   1.639  0.00  0.00     0.034 A 
ATOM      4  C3  UNL d   1       0.748   1.621   1.523  0.00  0.00     0.017 A 
ATOM      5  C4  UNL d   1       0.562   0.464   0.759  0.00  0.00     0.017 A 
ATOM      6  C5  UNL d   1       1.653  -0.129   0.117  0.00  0.00     0.034 A 
ATOM      7 Cl   UNL d   1      -0.986  -0.282   0.570  0.00  0.00    -0.070 Cl
ATOM      8 Cl1  UNL d   1      -0.549   2.411   2.347  0.00  0.00    -0.070 Cl
ENDROOT
TORSDOF 0
ENDMDL
