MODEL 1
REMARK minimizedAffinity 2.94885182
REMARK minimizedRMSD -1
REMARK  0 active torsions:
REMARK  status: ('A' for Active; 'I' for Inactive)
ROOT
ATOM      1  C   UNL d   1      -0.243   2.158   1.186  0.00  0.00     0.020 A 
ATOM      2  C1  UNL d   1       0.408   3.113   1.965  0.00  0.00     0.020 A 
ATOM      3  C2  UNL d   1       1.791   3.043   2.144  0.00  0.00     0.034 A 
ATOM      4  C3  UNL d   1       2.528   2.015   1.544  0.00  0.00     0.017 A 
ATOM      5  C4  UNL d   1       1.873   1.056   0.763  0.00  0.00     0.017 A 
ATOM      6  C5  UNL d   1       0.488   1.131   0.586  0.00  0.00     0.034 A 
ATOM      7 Cl   UNL d   1       2.714  -0.241  -0.010  0.00  0.00    -0.070 Cl
ATOM      8 Cl1  UNL d   1       4.235   1.990   1.808  0.00  0.00    -0.070 Cl
ENDROOT
TORSDOF 0
ENDMDL
