MODEL 1
REMARK minimizedAffinity 1.1101824
REMARK minimizedRMSD -1
REMARK  0 active torsions:
REMARK  status: ('A' for Active; 'I' for Inactive)
ROOT
ATOM      1  C   UNL d   1      -1.001   2.933   2.862  0.00  0.00     0.020 A 
ATOM      2  C1  UNL d   1       0.299   3.069   3.349  0.00  0.00     0.020 A 
ATOM      3  C2  UNL d   1       1.370   2.519   2.642  0.00  0.00     0.034 A 
ATOM      4  C3  UNL d   1       1.144   1.830   1.445  0.00  0.00     0.017 A 
ATOM      5  C4  UNL d   1      -0.161   1.694   0.957  0.00  0.00     0.017 A 
ATOM      6  C5  UNL d   1      -1.230   2.247   1.669  0.00  0.00     0.034 A 
ATOM      7 Cl   UNL d   1      -0.518   0.858  -0.513  0.00  0.00    -0.070 Cl
ATOM      8 Cl1  UNL d   1       2.516   1.175   0.623  0.00  0.00    -0.070 Cl
ENDROOT
TORSDOF 0
ENDMDL
