MODEL 1
REMARK minimizedAffinity 1.41787267
REMARK minimizedRMSD -1
REMARK  1 active torsions:
REMARK  status: ('A' for Active; 'I' for Inactive)
REMARK    1  A    between atoms: C3_4  and  O_7 
ROOT
ATOM      1  C   UNL d   1      -0.840   0.509  -1.285  0.00  0.00    -0.033 A 
ATOM      2  C1  UNL d   1      -0.091  -0.665  -1.377  0.00  0.00     0.039 A 
ATOM      3  C2  UNL d   1       0.528  -1.191  -0.241  0.00  0.00    -0.080 A 
ATOM      4  C3  UNL d   1       0.389  -0.534   0.979  0.00  0.00     0.150 A 
ATOM      5  C4  UNL d   1      -0.360   0.634   1.078  0.00  0.00    -0.007 A 
ATOM      6  C5  UNL d   1      -0.976   1.158  -0.057  0.00  0.00     0.039 A 
ENDROOT
BRANCH   4   7
ATOM      7  O   UNL d   1       0.978  -1.007   2.114  0.00  0.00    -0.526 OA
ATOM      8  H5  UNL d   1       1.486  -1.804   1.888  0.00  0.00     0.418 HD
ENDBRANCH   4   7
TORSDOF 1
ENDMDL
