MODEL 1
REMARK minimizedAffinity -2.37452555
REMARK minimizedRMSD -1
REMARK  1 active torsions:
REMARK  status: ('A' for Active; 'I' for Inactive)
REMARK    1  A    between atoms: C3_4  and  O_7 
ROOT
ATOM      1  C   UNL d   1       2.264   3.038   3.393  0.00  0.00    -0.033 A 
ATOM      2  C1  UNL d   1       1.274   2.596   2.513  0.00  0.00     0.039 A 
ATOM      3  C2  UNL d   1       0.885   3.397   1.437  0.00  0.00    -0.080 A 
ATOM      4  C3  UNL d   1       1.494   4.635   1.252  0.00  0.00     0.150 A 
ATOM      5  C4  UNL d   1       2.484   5.080   2.122  0.00  0.00    -0.007 A 
ATOM      6  C5  UNL d   1       2.870   4.280   3.196  0.00  0.00     0.039 A 
ENDROOT
BRANCH   4   7
ATOM      7  O   UNL d   1       1.144   5.453   0.219  0.00  0.00    -0.526 OA
ATOM      8  H5  UNL d   1       0.429   5.028  -0.282  0.00  0.00     0.418 HD
ENDBRANCH   4   7
TORSDOF 1
ENDMDL
