MODEL 1
REMARK minimizedAffinity -0.877886593
REMARK minimizedRMSD -1
REMARK  1 active torsions:
REMARK  status: ('A' for Active; 'I' for Inactive)
REMARK    1  A    between atoms: C3_4  and  O_7 
ROOT
ATOM      1  C   UNL d   1       0.410   3.838  -0.180  0.00  0.00    -0.033 A 
ATOM      2  C1  UNL d   1       1.104   4.948   0.306  0.00  0.00     0.039 A 
ATOM      3  C2  UNL d   1       1.776   4.873   1.528  0.00  0.00    -0.080 A 
ATOM      4  C3  UNL d   1       1.747   3.684   2.252  0.00  0.00     0.150 A 
ATOM      5  C4  UNL d   1       1.061   2.574   1.771  0.00  0.00    -0.007 A 
ATOM      6  C5  UNL d   1       0.390   2.651   0.552  0.00  0.00     0.039 A 
ENDROOT
BRANCH   4   7
ATOM      7  O   UNL d   1       2.385   3.565   3.451  0.00  0.00    -0.526 OA
ATOM      8  H5  UNL d   1       2.792   4.420   3.670  0.00  0.00     0.418 HD
ENDBRANCH   4   7
TORSDOF 1
ENDMDL
