MODEL 1
REMARK minimizedAffinity -0.872848868
REMARK minimizedRMSD -1
REMARK  1 active torsions:
REMARK  status: ('A' for Active; 'I' for Inactive)
REMARK    1  A    between atoms: C3_4  and  O_7 
ROOT
ATOM      1  C   UNL d   1       1.514  -0.663  -0.275  0.00  0.00    -0.033 A 
ATOM      2  C1  UNL d   1       0.590   0.347  -0.553  0.00  0.00     0.039 A 
ATOM      3  C2  UNL d   1       0.341   1.346   0.390  0.00  0.00    -0.080 A 
ATOM      4  C3  UNL d   1       1.021   1.325   1.604  0.00  0.00     0.150 A 
ATOM      5  C4  UNL d   1       1.945   0.324   1.886  0.00  0.00    -0.007 A 
ATOM      6  C5  UNL d   1       2.192  -0.673   0.944  0.00  0.00     0.039 A 
ENDROOT
BRANCH   4   7
ATOM      7  O   UNL d   1       0.807   2.276   2.558  0.00  0.00    -0.526 OA
ATOM      8  H5  UNL d   1       0.122   2.885   2.236  0.00  0.00     0.418 HD
ENDBRANCH   4   7
TORSDOF 1
ENDMDL
