MODEL 1
REMARK minimizedAffinity -2.06864905
REMARK minimizedRMSD -1
REMARK  1 active torsions:
REMARK  status: ('A' for Active; 'I' for Inactive)
REMARK    1  A    between atoms: C3_4  and  O_7 
ROOT
ATOM      1  C   UNL d   1       2.122  -0.608   0.502  0.00  0.00    -0.033 A 
ATOM      2  C1  UNL d   1       2.424  -0.683   1.863  0.00  0.00     0.039 A 
ATOM      3  C2  UNL d   1       1.659   0.029   2.790  0.00  0.00    -0.080 A 
ATOM      4  C3  UNL d   1       0.598   0.811   2.343  0.00  0.00     0.150 A 
ATOM      5  C4  UNL d   1       0.289   0.887   0.988  0.00  0.00    -0.007 A 
ATOM      6  C5  UNL d   1       1.054   0.175   0.065  0.00  0.00     0.039 A 
ENDROOT
BRANCH   4   7
ATOM      7  O   UNL d   1      -0.174   1.527   3.208  0.00  0.00    -0.526 OA
ATOM      8  H5  UNL d   1       0.174   1.401   4.107  0.00  0.00     0.418 HD
ENDBRANCH   4   7
TORSDOF 1
ENDMDL
