MODEL 1
REMARK minimizedAffinity -3.8721714
REMARK minimizedRMSD -1
REMARK  1 active torsions:
REMARK  status: ('A' for Active; 'I' for Inactive)
REMARK    1  A    between atoms: C3_4  and  O_7 
ROOT
ATOM      1  C   UNL d   1       0.079   1.423   2.082  0.00  0.00    -0.033 A 
ATOM      2  C1  UNL d   1       1.193   2.094   2.592  0.00  0.00     0.039 A 
ATOM      3  C2  UNL d   1       1.807   3.100   1.844  0.00  0.00    -0.080 A 
ATOM      4  C3  UNL d   1       1.298   3.427   0.590  0.00  0.00     0.150 A 
ATOM      5  C4  UNL d   1       0.186   2.766   0.078  0.00  0.00    -0.007 A 
ATOM      6  C5  UNL d   1      -0.425   1.761   0.826  0.00  0.00     0.039 A 
ENDROOT
BRANCH   4   7
ATOM      7  O   UNL d   1       1.867   4.398  -0.178  0.00  0.00    -0.526 OA
ATOM      8  H5  UNL d   1       2.642   4.747   0.291  0.00  0.00     0.418 HD
ENDBRANCH   4   7
TORSDOF 1
ENDMDL
