MODEL 1
REMARK minimizedAffinity -1.04105914
REMARK minimizedRMSD -1
REMARK  1 active torsions:
REMARK  status: ('A' for Active; 'I' for Inactive)
REMARK    1  A    between atoms: C3_4  and  O_7 
ROOT
ATOM      1  C   UNL d   1       1.085  -0.037   2.290  0.00  0.00    -0.033 A 
ATOM      2  C1  UNL d   1       0.619   1.272   2.422  0.00  0.00     0.039 A 
ATOM      3  C2  UNL d   1       0.402   2.056   1.287  0.00  0.00    -0.080 A 
ATOM      4  C3  UNL d   1       0.653   1.519   0.028  0.00  0.00     0.150 A 
ATOM      5  C4  UNL d   1       1.114   0.214  -0.112  0.00  0.00    -0.007 A 
ATOM      6  C5  UNL d   1       1.331  -0.567   1.023  0.00  0.00     0.039 A 
ENDROOT
BRANCH   4   7
ATOM      7  O   UNL d   1       0.461   2.246  -1.109  0.00  0.00    -0.526 OA
ATOM      8  H5  UNL d   1       0.169   3.138  -0.857  0.00  0.00     0.418 HD
ENDBRANCH   4   7
TORSDOF 1
ENDMDL
