MODEL 1
REMARK minimizedAffinity 8.03959942
REMARK minimizedRMSD -1
REMARK  1 active torsions:
REMARK  status: ('A' for Active; 'I' for Inactive)
REMARK    1  A    between atoms: N_2  and  C1_3 
ROOT
ATOM      1  C1  UNL d   1       0.533   2.903  -0.071  0.00  0.00     0.143 A 
ATOM      2  C2  UNL d   1       1.180   2.220   0.964  0.00  0.00    -0.057 A 
ATOM      3  C3  UNL d   1       0.500   1.866   2.136  0.00  0.00     0.033 A 
ATOM      4  C4  UNL d   1      -0.835   2.216   2.306  0.00  0.00    -0.042 A 
ATOM      5  C5  UNL d   1      -1.491   2.917   1.301  0.00  0.00     0.033 A 
ATOM      6  C6  UNL d   1      -0.809   3.262   0.130  0.00  0.00    -0.057 A 
ENDROOT
BRANCH   1   7
ATOM      7  N   UNL d   1       1.179   3.369  -1.219  0.00  0.00    -0.732 N 
ATOM      8  C   UNL d   1       2.114   4.471  -1.142  0.00  0.00     0.284 C 
ATOM      9  H3  UNL d   1       1.477   2.613  -1.831  0.00  0.00     0.395 HD
ENDBRANCH   1   7
TORSDOF 1
ENDMDL
