MODEL 1
REMARK minimizedAffinity 9.26733017
REMARK minimizedRMSD -1
REMARK  1 active torsions:
REMARK  status: ('A' for Active; 'I' for Inactive)
REMARK    1  A    between atoms: N_2  and  C1_3 
ROOT
ATOM      1  C1  UNL d   1      -1.306   3.082   1.149  0.00  0.00     0.143 A 
ATOM      2  C2  UNL d   1      -0.206   2.297   1.511  0.00  0.00    -0.057 A 
ATOM      3  C3  UNL d   1       0.577   1.654   0.545  0.00  0.00     0.033 A 
ATOM      4  C4  UNL d   1       0.255   1.760  -0.804  0.00  0.00    -0.042 A 
ATOM      5  C5  UNL d   1      -0.849   2.514  -1.186  0.00  0.00     0.033 A 
ATOM      6  C6  UNL d   1      -1.623   3.160  -0.217  0.00  0.00    -0.057 A 
ENDROOT
BRANCH   1   7
ATOM      7  N   UNL d   1      -2.181   3.666   2.067  0.00  0.00    -0.732 N 
ATOM      8  C   UNL d   1      -2.462   5.085   2.018  0.00  0.00     0.284 C 
ATOM      9  H3  UNL d   1      -2.997   3.087   2.249  0.00  0.00     0.395 HD
ENDBRANCH   1   7
TORSDOF 1
ENDMDL
