MODEL 1
REMARK minimizedAffinity 3.38554049
REMARK minimizedRMSD -1
REMARK  1 active torsions:
REMARK  status: ('A' for Active; 'I' for Inactive)
REMARK    1  A    between atoms: N_2  and  C1_3 
ROOT
ATOM      1  C1  UNL d   1       0.371   2.000  -1.457  0.00  0.00     0.143 A 
ATOM      2  C2  UNL d   1      -0.993   1.951  -1.147  0.00  0.00    -0.057 A 
ATOM      3  C3  UNL d   1      -1.629   0.738  -0.860  0.00  0.00     0.033 A 
ATOM      4  C4  UNL d   1      -0.917  -0.456  -0.906  0.00  0.00    -0.042 A 
ATOM      5  C5  UNL d   1       0.434  -0.434  -1.236  0.00  0.00     0.033 A 
ATOM      6  C6  UNL d   1       1.065   0.782  -1.515  0.00  0.00    -0.057 A 
ENDROOT
BRANCH   1   7
ATOM      7  N   UNL d   1       1.039   3.163  -1.847  0.00  0.00    -0.732 N 
ATOM      8  C   UNL d   1       1.748   3.968  -0.876  0.00  0.00     0.284 C 
ATOM      9  H3  UNL d   1       1.529   3.051  -2.732  0.00  0.00     0.395 HD
ENDBRANCH   1   7
TORSDOF 1
ENDMDL
