MODEL 1
REMARK minimizedAffinity 4.74702883
REMARK minimizedRMSD -1
REMARK  1 active torsions:
REMARK  status: ('A' for Active; 'I' for Inactive)
REMARK    1  A    between atoms: N_2  and  C1_3 
ROOT
ATOM      1  C1  UNL d   1       0.511   2.130   0.016  0.00  0.00     0.143 A 
ATOM      2  C2  UNL d   1      -0.791   2.420   0.435  0.00  0.00    -0.057 A 
ATOM      3  C3  UNL d   1      -1.157   2.331   1.784  0.00  0.00     0.033 A 
ATOM      4  C4  UNL d   1      -0.231   1.919   2.736  0.00  0.00    -0.042 A 
ATOM      5  C5  UNL d   1       1.063   1.601   2.339  0.00  0.00     0.033 A 
ATOM      6  C6  UNL d   1       1.424   1.699   0.992  0.00  0.00    -0.057 A 
ENDROOT
BRANCH   1   7
ATOM      7  N   UNL d   1       0.910   2.105  -1.323  0.00  0.00    -0.732 N 
ATOM      8  C   UNL d   1       0.188   2.863  -2.321  0.00  0.00     0.284 C 
ATOM      9  H3  UNL d   1       1.922   2.138  -1.427  0.00  0.00     0.395 HD
ENDBRANCH   1   7
TORSDOF 1
ENDMDL
