MODEL 1
REMARK minimizedAffinity 9.36557293
REMARK minimizedRMSD -1
REMARK  1 active torsions:
REMARK  status: ('A' for Active; 'I' for Inactive)
REMARK    1  A    between atoms: N_2  and  C1_3 
ROOT
ATOM      1  C1  UNL d   1       1.535   2.539   0.979  0.00  0.00     0.143 A 
ATOM      2  C2  UNL d   1       0.229   2.220   1.367  0.00  0.00    -0.057 A 
ATOM      3  C3  UNL d   1      -0.868   2.539   0.558  0.00  0.00     0.033 A 
ATOM      4  C4  UNL d   1      -0.680   3.211  -0.645  0.00  0.00    -0.042 A 
ATOM      5  C5  UNL d   1       0.607   3.560  -1.040  0.00  0.00     0.033 A 
ATOM      6  C6  UNL d   1       1.699   3.233  -0.230  0.00  0.00    -0.057 A 
ENDROOT
BRANCH   1   7
ATOM      7  N   UNL d   1       2.658   2.337   1.785  0.00  0.00    -0.732 N 
ATOM      8  C   UNL d   1       2.877   3.150   2.962  0.00  0.00     0.284 C 
ATOM      9  H3  UNL d   1       2.869   1.350   1.916  0.00  0.00     0.395 HD
ENDBRANCH   1   7
TORSDOF 1
ENDMDL
