MODEL 1
REMARK minimizedAffinity 9.83079243
REMARK minimizedRMSD -1
REMARK  1 active torsions:
REMARK  status: ('A' for Active; 'I' for Inactive)
REMARK    1  A    between atoms: N_2  and  C1_3 
ROOT
ATOM      1  C1  UNL d   1       2.277  -5.156  -2.050  0.00  0.00     0.143 A 
ATOM      2  C2  UNL d   1       1.489  -4.817  -0.945  0.00  0.00    -0.057 A 
ATOM      3  C3  UNL d   1       0.321  -4.059  -1.092  0.00  0.00     0.033 A 
ATOM      4  C4  UNL d   1      -0.065  -3.602  -2.347  0.00  0.00    -0.042 A 
ATOM      5  C5  UNL d   1       0.716  -3.906  -3.456  0.00  0.00     0.033 A 
ATOM      6  C6  UNL d   1       1.878  -4.668  -3.304  0.00  0.00    -0.057 A 
ENDROOT
BRANCH   1   7
ATOM      7  N   UNL d   1       3.502  -5.823  -1.956  0.00  0.00    -0.732 N 
ATOM      8  C   UNL d   1       4.409  -5.859  -3.083  0.00  0.00     0.284 C 
ATOM      9  H3  UNL d   1       3.959  -5.672  -1.060  0.00  0.00     0.395 HD
ENDBRANCH   1   7
TORSDOF 1
ENDMDL
