MODEL 1
REMARK minimizedAffinity 7.45729542
REMARK minimizedRMSD -1
REMARK  0 active torsions:
REMARK  status: ('A' for Active; 'I' for Inactive)
ROOT
ATOM      1  O1  BZF d   1      -5.915  -5.926  -3.885  0.00  0.00    -0.204 OA
ATOM      2  C2  BZF d   1      -5.806  -5.877  -2.508  0.00  0.00     0.174 A 
ATOM      3  C3  BZF d   1      -4.540  -5.593  -2.139  0.00  0.00    -0.012 A 
ATOM      4  C3A BZF d   1      -3.833  -5.365  -3.362  0.00  0.00    -0.107 A 
ATOM      5  C4  BZF d   1      -2.542  -5.028  -3.652  0.00  0.00     0.055 A 
ATOM      6  C5  BZF d   1      -2.154  -4.955  -4.952  0.00  0.00    -0.016 A 
ATOM      7  C6  BZF d   1      -3.029  -5.217  -5.987  0.00  0.00     0.022 A 
ATOM      8  C7  BZF d   1      -4.321  -5.550  -5.749  0.00  0.00     0.029 A 
ATOM      9  C7A BZF d   1      -4.724  -5.593  -4.437  0.00  0.00     0.058 A 
ENDROOT
TORSDOF 0
ENDMDL
