MODEL 1
REMARK minimizedAffinity 8.04615498
REMARK minimizedRMSD -1
REMARK  0 active torsions:
REMARK  status: ('A' for Active; 'I' for Inactive)
ROOT
ATOM      1  O1  BZF d   1       0.895  -0.156  -1.098  0.00  0.00    -0.204 OA
ATOM      2  C2  BZF d   1       0.975  -1.532  -1.196  0.00  0.00     0.174 A 
ATOM      3  C3  BZF d   1      -0.255  -2.080  -1.253  0.00  0.00    -0.012 A 
ATOM      4  C3A BZF d   1      -1.160  -0.972  -1.280  0.00  0.00    -0.107 A 
ATOM      5  C4  BZF d   1      -2.520  -0.872  -1.351  0.00  0.00     0.055 A 
ATOM      6  C5  BZF d   1      -3.096   0.357  -1.284  0.00  0.00    -0.016 A 
ATOM      7  C6  BZF d   1      -2.344   1.504  -1.140  0.00  0.00     0.022 A 
ATOM      8  C7  BZF d   1      -0.992   1.456  -1.071  0.00  0.00     0.029 A 
ATOM      9  C7A BZF d   1      -0.405   0.218  -1.171  0.00  0.00     0.058 A 
ENDROOT
TORSDOF 0
ENDMDL
