MODEL 1
REMARK minimizedAffinity 8.00745869
REMARK minimizedRMSD -1
REMARK  0 active torsions:
REMARK  status: ('A' for Active; 'I' for Inactive)
ROOT
ATOM      1  O1  BZF d   1      -0.262   1.082   1.916  0.00  0.00    -0.204 OA
ATOM      2  C2  BZF d   1       0.234   1.809   2.981  0.00  0.00     0.174 A 
ATOM      3  C3  BZF d   1       0.550   3.063   2.598  0.00  0.00    -0.012 A 
ATOM      4  C3A BZF d   1       0.147   3.151   1.228  0.00  0.00    -0.107 A 
ATOM      5  C4  BZF d   1       0.186   4.152   0.300  0.00  0.00     0.055 A 
ATOM      6  C5  BZF d   1      -0.220   3.892  -0.971  0.00  0.00    -0.016 A 
ATOM      7  C6  BZF d   1      -0.665   2.642  -1.349  0.00  0.00     0.022 A 
ATOM      8  C7  BZF d   1      -0.727   1.619  -0.462  0.00  0.00     0.029 A 
ATOM      9  C7A BZF d   1      -0.349   1.888   0.831  0.00  0.00     0.058 A 
ENDROOT
TORSDOF 0
ENDMDL
