MODEL 1
REMARK minimizedAffinity 5.42755938
REMARK minimizedRMSD -1
REMARK  0 active torsions:
REMARK  status: ('A' for Active; 'I' for Inactive)
ROOT
ATOM      1  O1  BZF d   1       0.970   4.264   0.460  0.00  0.00    -0.204 OA
ATOM      2  C2  BZF d   1      -0.082   3.884  -0.351  0.00  0.00     0.174 A 
ATOM      3  C3  BZF d   1      -0.759   2.853   0.196  0.00  0.00    -0.012 A 
ATOM      4  C3A BZF d   1      -0.144   2.632   1.469  0.00  0.00    -0.107 A 
ATOM      5  C4  BZF d   1      -0.382   1.753   2.486  0.00  0.00     0.055 A 
ATOM      6  C5  BZF d   1       0.447   1.749   3.563  0.00  0.00    -0.016 A 
ATOM      7  C6  BZF d   1       1.525   2.606   3.653  0.00  0.00     0.022 A 
ATOM      8  C7  BZF d   1       1.798   3.499   2.671  0.00  0.00     0.029 A 
ATOM      9  C7A BZF d   1       0.943   3.528   1.596  0.00  0.00     0.058 A 
ENDROOT
TORSDOF 0
ENDMDL
