MODEL 1
REMARK minimizedAffinity 4.57517004
REMARK minimizedRMSD -1
REMARK  0 active torsions:
REMARK  status: ('A' for Active; 'I' for Inactive)
ROOT
ATOM      1  O1  BZF d   1       0.996  -0.192  -1.361  0.00  0.00    -0.204 OA
ATOM      2  C2  BZF d   1       1.205  -1.520  -1.681  0.00  0.00     0.174 A 
ATOM      3  C3  BZF d   1       0.032  -2.175  -1.796  0.00  0.00    -0.012 A 
ATOM      4  C3A BZF d   1      -0.976  -1.174  -1.622  0.00  0.00    -0.107 A 
ATOM      5  C4  BZF d   1      -2.341  -1.203  -1.644  0.00  0.00     0.055 A 
ATOM      6  C5  BZF d   1      -3.031  -0.066  -1.365  0.00  0.00    -0.016 A 
ATOM      7  C6  BZF d   1      -2.388   1.115  -1.056  0.00  0.00     0.022 A 
ATOM      8  C7  BZF d   1      -1.035   1.194  -1.027  0.00  0.00     0.029 A 
ATOM      9  C7A BZF d   1      -0.336   0.055  -1.341  0.00  0.00     0.058 A 
ENDROOT
TORSDOF 0
ENDMDL
