MODEL 1
REMARK minimizedAffinity 13.7467012
REMARK minimizedRMSD -1
REMARK  0 active torsions:
REMARK  status: ('A' for Active; 'I' for Inactive)
ROOT
ATOM      1  O1  BZF d   1       0.915   4.582   0.361  0.00  0.00    -0.204 OA
ATOM      2  C2  BZF d   1       0.005   4.326  -0.646  0.00  0.00     0.174 A 
ATOM      3  C3  BZF d   1      -0.727   3.229  -0.363  0.00  0.00    -0.012 A 
ATOM      4  C3A BZF d   1      -0.307   2.825   0.944  0.00  0.00    -0.107 A 
ATOM      5  C4  BZF d   1      -0.679   1.808   1.776  0.00  0.00     0.055 A 
ATOM      6  C5  BZF d   1      -0.023   1.646   2.955  0.00  0.00    -0.016 A 
ATOM      7  C6  BZF d   1       1.012   2.478   3.330  0.00  0.00     0.022 A 
ATOM      8  C7  BZF d   1       1.413   3.503   2.540  0.00  0.00     0.029 A 
ATOM      9  C7A BZF d   1       0.730   3.689   1.363  0.00  0.00     0.058 A 
ENDROOT
TORSDOF 0
ENDMDL
