MODEL 1
REMARK minimizedAffinity -0.614097238
REMARK minimizedRMSD -1
REMARK  0 active torsions:
REMARK  status: ('A' for Active; 'I' for Inactive)
ROOT
ATOM      1  O1  BZF d   1      -5.973  -3.881   3.694  0.00  0.00    -0.204 OA
ATOM      2  C2  BZF d   1      -5.992  -4.623   4.859  0.00  0.00     0.174 A 
ATOM      3  C3  BZF d   1      -5.951  -3.817   5.940  0.00  0.00    -0.012 A 
ATOM      4  C3A BZF d   1      -5.996  -2.485   5.419  0.00  0.00    -0.107 A 
ATOM      5  C4  BZF d   1      -6.000  -1.250   6.000  0.00  0.00     0.055 A 
ATOM      6  C5  BZF d   1      -5.975  -0.147   5.206  0.00  0.00    -0.016 A 
ATOM      7  C6  BZF d   1      -5.941  -0.243   3.831  0.00  0.00     0.022 A 
ATOM      8  C7  BZF d   1      -5.941  -1.447   3.209  0.00  0.00     0.029 A 
ATOM      9  C7A BZF d   1      -5.999  -2.563   4.007  0.00  0.00     0.058 A 
ENDROOT
TORSDOF 0
ENDMDL
