MODEL 1
REMARK minimizedAffinity 6.22078657
REMARK minimizedRMSD -1
REMARK  0 active torsions:
REMARK  status: ('A' for Active; 'I' for Inactive)
ROOT
ATOM      1  O1  BZF d   1      -5.160  -3.813   4.055  0.00  0.00    -0.204 OA
ATOM      2  C2  BZF d   1      -5.645  -4.160   5.301  0.00  0.00     0.174 A 
ATOM      3  C3  BZF d   1      -6.000  -3.063   6.000  0.00  0.00    -0.012 A 
ATOM      4  C3A BZF d   1      -5.805  -1.966   5.101  0.00  0.00    -0.107 A 
ATOM      5  C4  BZF d   1      -5.999  -0.618   5.209  0.00  0.00     0.055 A 
ATOM      6  C5  BZF d   1      -5.642   0.185   4.173  0.00  0.00    -0.016 A 
ATOM      7  C6  BZF d   1      -5.085  -0.324   3.018  0.00  0.00     0.022 A 
ATOM      8  C7  BZF d   1      -4.878  -1.654   2.863  0.00  0.00     0.029 A 
ATOM      9  C7A BZF d   1      -5.268  -2.472   3.895  0.00  0.00     0.058 A 
ENDROOT
TORSDOF 0
ENDMDL
