MODEL 1
REMARK minimizedAffinity 12.7449789
REMARK minimizedRMSD -1
REMARK  0 active torsions:
REMARK  status: ('A' for Active; 'I' for Inactive)
ROOT
ATOM      1  O1  BZF d   1       1.544  -4.508   0.022  0.00  0.00    -0.204 OA
ATOM      2  C2  BZF d   1       1.298  -5.672  -0.679  0.00  0.00     0.174 A 
ATOM      3  C3  BZF d   1       2.354  -5.996  -1.454  0.00  0.00    -0.012 A 
ATOM      4  C3A BZF d   1       3.356  -5.021  -1.151  0.00  0.00    -0.107 A 
ATOM      5  C4  BZF d   1       4.634  -4.821  -1.589  0.00  0.00     0.055 A 
ATOM      6  C5  BZF d   1       5.319  -3.732  -1.151  0.00  0.00    -0.016 A 
ATOM      7  C6  BZF d   1       4.757  -2.822  -0.281  0.00  0.00     0.022 A 
ATOM      8  C7  BZF d   1       3.494  -2.981   0.185  0.00  0.00     0.029 A 
ATOM      9  C7A BZF d   1       2.811  -4.097  -0.230  0.00  0.00     0.058 A 
ENDROOT
TORSDOF 0
ENDMDL
