MODEL 1
REMARK minimizedAffinity 3.79102588
REMARK minimizedRMSD -1
REMARK  1 active torsions:
REMARK  status: ('A' for Active; 'I' for Inactive)
REMARK    1  A    between atoms: C1_2  and  C2_3 
ROOT
ATOM      1  C2  UNL d   1       0.509  -1.558   1.169  0.00  0.00    -0.073 A 
ATOM      2  C3  UNL d   1       0.934  -1.074   2.411  0.00  0.00    -0.002 A 
ATOM      3  C4  UNL d   1       0.024  -0.470   3.281  0.00  0.00     0.004 A 
ATOM      4  C5  UNL d   1      -1.318  -0.350   2.921  0.00  0.00    -0.004 A 
ATOM      5  C6  UNL d   1      -1.764  -0.838   1.688  0.00  0.00    -0.075 A 
ATOM      6  C7  UNL d   1      -3.204  -0.715   1.285  0.00  0.00     0.076 C 
ATOM      7  C8  UNL d   1      -0.844  -1.441   0.820  0.00  0.00     0.001 A 
ENDROOT
BRANCH   1   8
ATOM      8  C1  UNL d   1       1.485  -2.217   0.229  0.00  0.00     0.053 C 
ATOM      9  C   UNL d   1       1.831  -3.632   0.667  0.00  0.00     0.018 C 
ENDBRANCH   1   8
TORSDOF 1
ENDMDL
