MODEL 1
REMARK minimizedAffinity 2.63680649
REMARK minimizedRMSD -1
REMARK  1 active torsions:
REMARK  status: ('A' for Active; 'I' for Inactive)
REMARK    1  A    between atoms: C1_2  and  C2_3 
ROOT
ATOM      1  C2  UNL d   1       2.320   4.532   4.077  0.00  0.00    -0.073 A 
ATOM      2  C3  UNL d   1       1.712   5.272   5.098  0.00  0.00    -0.002 A 
ATOM      3  C4  UNL d   1       2.489   5.999   6.000  0.00  0.00     0.004 A 
ATOM      4  C5  UNL d   1       3.880   6.000   5.887  0.00  0.00    -0.004 A 
ATOM      5  C6  UNL d   1       4.505   5.277   4.867  0.00  0.00    -0.075 A 
ATOM      6  C7  UNL d   1       6.000   5.266   4.733  0.00  0.00     0.076 C 
ATOM      7  C8  UNL d   1       3.718   4.546   3.966  0.00  0.00     0.001 A 
ENDROOT
BRANCH   1   8
ATOM      8  C1  UNL d   1       1.485   3.750   3.096  0.00  0.00     0.053 C 
ATOM      9  C   UNL d   1       0.134   3.364   3.679  0.00  0.00     0.018 C 
ENDBRANCH   1   8
TORSDOF 1
ENDMDL
