MODEL 1
REMARK minimizedAffinity 7.83999825
REMARK minimizedRMSD -1
REMARK  1 active torsions:
REMARK  status: ('A' for Active; 'I' for Inactive)
REMARK    1  A    between atoms: C1_2  and  C2_3 
ROOT
ATOM      1  C2  UNL d   1       3.261  -4.162  -0.040  0.00  0.00    -0.073 A 
ATOM      2  C3  UNL d   1       3.888  -2.937   0.216  0.00  0.00    -0.002 A 
ATOM      3  C4  UNL d   1       5.193  -2.708  -0.221  0.00  0.00     0.004 A 
ATOM      4  C5  UNL d   1       5.882  -3.697  -0.923  0.00  0.00    -0.004 A 
ATOM      5  C6  UNL d   1       5.269  -4.923  -1.199  0.00  0.00    -0.075 A 
ATOM      6  C7  UNL d   1       5.997  -5.998  -1.952  0.00  0.00     0.076 C 
ATOM      7  C8  UNL d   1       3.959  -5.146  -0.755  0.00  0.00     0.001 A 
ENDROOT
BRANCH   1   8
ATOM      8  C1  UNL d   1       1.850  -4.411   0.425  0.00  0.00     0.053 C 
ATOM      9  C   UNL d   1       1.149  -3.126   0.834  0.00  0.00     0.018 C 
ENDBRANCH   1   8
TORSDOF 1
ENDMDL
