MODEL 1
REMARK minimizedAffinity 6.35956907
REMARK minimizedRMSD -1
REMARK  1 active torsions:
REMARK  status: ('A' for Active; 'I' for Inactive)
REMARK    1  A    between atoms: C1_2  and  C2_3 
ROOT
ATOM      1  C2  UNL d   1       3.669   5.572   4.386  0.00  0.00    -0.073 A 
ATOM      2  C3  UNL d   1       3.033   5.975   5.566  0.00  0.00    -0.002 A 
ATOM      3  C4  UNL d   1       1.713   5.599   5.818  0.00  0.00     0.004 A 
ATOM      4  C5  UNL d   1       1.018   4.814   4.898  0.00  0.00    -0.004 A 
ATOM      5  C6  UNL d   1       1.641   4.392   3.719  0.00  0.00    -0.075 A 
ATOM      6  C7  UNL d   1       0.907   3.548   2.718  0.00  0.00     0.076 C 
ATOM      7  C8  UNL d   1       2.966   4.775   3.472  0.00  0.00     0.001 A 
ENDROOT
BRANCH   1   8
ATOM      8  C1  UNL d   1       5.097   5.969   4.113  0.00  0.00     0.053 C 
ATOM      9  C   UNL d   1       5.972   5.839   5.349  0.00  0.00     0.018 C 
ENDBRANCH   1   8
TORSDOF 1
ENDMDL
