MODEL 1
REMARK minimizedAffinity -4.40888548
REMARK minimizedRMSD -1
REMARK  1 active torsions:
REMARK  status: ('A' for Active; 'I' for Inactive)
REMARK    1  A    between atoms: C1_2  and  C2_3 
ROOT
ATOM      1  C2  UNL d   1       2.539   5.567   4.628  0.00  0.00    -0.073 A 
ATOM      2  C3  UNL d   1       2.356   4.803   3.469  0.00  0.00    -0.002 A 
ATOM      3  C4  UNL d   1       1.076   4.409   3.079  0.00  0.00     0.004 A 
ATOM      4  C5  UNL d   1      -0.035   4.779   3.837  0.00  0.00    -0.004 A 
ATOM      5  C6  UNL d   1       0.126   5.552   4.992  0.00  0.00    -0.075 A 
ATOM      6  C7  UNL d   1      -1.058   5.956   5.821  0.00  0.00     0.076 C 
ATOM      7  C8  UNL d   1       1.416   5.942   5.379  0.00  0.00     0.001 A 
ENDROOT
BRANCH   1   8
ATOM      8  C1  UNL d   1       3.919   6.000   5.049  0.00  0.00     0.053 C 
ATOM      9  C   UNL d   1       4.942   4.889   4.877  0.00  0.00     0.018 C 
ENDBRANCH   1   8
TORSDOF 1
ENDMDL
