MODEL 1
REMARK minimizedAffinity -1.12296963
REMARK minimizedRMSD -1
REMARK  1 active torsions:
REMARK  status: ('A' for Active; 'I' for Inactive)
REMARK    1  A    between atoms: C1_2  and  C2_3 
ROOT
ATOM      1  C2  UNL d   1       2.009   4.645   4.003  0.00  0.00    -0.073 A 
ATOM      2  C3  UNL d   1       1.491   5.361   5.088  0.00  0.00    -0.002 A 
ATOM      3  C4  UNL d   1       2.348   5.977   6.000  0.00  0.00     0.004 A 
ATOM      4  C5  UNL d   1       3.730   5.889   5.834  0.00  0.00    -0.004 A 
ATOM      5  C6  UNL d   1       4.267   5.187   4.750  0.00  0.00    -0.075 A 
ATOM      6  C7  UNL d   1       5.752   5.081   4.558  0.00  0.00     0.076 C 
ATOM      7  C8  UNL d   1       3.399   4.569   3.839  0.00  0.00     0.001 A 
ENDROOT
BRANCH   1   8
ATOM      8  C1  UNL d   1       1.086   3.983   3.012  0.00  0.00     0.053 C 
ATOM      9  C   UNL d   1       1.850   3.330   1.871  0.00  0.00     0.018 C 
ENDBRANCH   1   8
TORSDOF 1
ENDMDL
