MODEL 1
REMARK minimizedAffinity 8.51026917
REMARK minimizedRMSD -1
REMARK  1 active torsions:
REMARK  status: ('A' for Active; 'I' for Inactive)
REMARK    1  A    between atoms: C1_2  and  C2_3 
ROOT
ATOM      1  C2  UNL d   1      -0.434   2.591  -4.472  0.00  0.00    -0.073 A 
ATOM      2  C3  UNL d   1      -0.692   1.696  -3.428  0.00  0.00    -0.002 A 
ATOM      3  C4  UNL d   1      -1.838   1.839  -2.644  0.00  0.00     0.004 A 
ATOM      4  C5  UNL d   1      -2.739   2.872  -2.900  0.00  0.00    -0.004 A 
ATOM      5  C6  UNL d   1      -2.504   3.770  -3.946  0.00  0.00    -0.075 A 
ATOM      6  C7  UNL d   1      -3.462   4.889  -4.233  0.00  0.00     0.076 C 
ATOM      7  C8  UNL d   1      -1.350   3.621  -4.727  0.00  0.00     0.001 A 
ENDROOT
BRANCH   1   8
ATOM      8  C1  UNL d   1       0.799   2.436  -5.325  0.00  0.00     0.053 C 
ATOM      9  C   UNL d   1       1.666   3.685  -5.305  0.00  0.00     0.018 C 
ENDBRANCH   1   8
TORSDOF 1
ENDMDL
