MODEL 1
REMARK minimizedAffinity -2.84258723
REMARK minimizedRMSD -1
REMARK  1 active torsions:
REMARK  status: ('A' for Active; 'I' for Inactive)
REMARK    1  A    between atoms: C1_2  and  C2_3 
ROOT
ATOM      1  C2  UNL d   1       1.394   1.021   0.410  0.00  0.00    -0.081 A 
ATOM      2  C3  UNL d   1       1.324  -0.326   0.036  0.00  0.00     0.006 A 
ATOM      3  C4  UNL d   1       0.092  -0.921  -0.244  0.00  0.00     0.002 A 
ATOM      4  C5  UNL d   1      -1.090  -0.177  -0.161  0.00  0.00    -0.080 A 
ATOM      5  C6  UNL d   1      -2.417  -0.795  -0.488  0.00  0.00     0.076 C 
ATOM      6  C7  UNL d   1      -1.023   1.164   0.230  0.00  0.00     0.002 A 
ATOM      7  C8  UNL d   1       0.210   1.759   0.510  0.00  0.00     0.006 A 
ENDROOT
BRANCH   1   8
ATOM      8  C1  UNL d   1       2.727   1.682   0.649  0.00  0.00     0.054 C 
ATOM      9  C   UNL d   1       2.662   2.652   1.820  0.00  0.00     0.018 C 
ENDBRANCH   1   8
TORSDOF 1
ENDMDL
