MODEL 1
REMARK minimizedAffinity -4.28663206
REMARK minimizedRMSD -1
REMARK  1 active torsions:
REMARK  status: ('A' for Active; 'I' for Inactive)
REMARK    1  A    between atoms: C1_2  and  C2_3 
ROOT
ATOM      1  C2  UNL d   1       1.568   1.471   0.339  0.00  0.00    -0.081 A 
ATOM      2  C3  UNL d   1       1.623   0.099   0.067  0.00  0.00     0.006 A 
ATOM      3  C4  UNL d   1       0.490  -0.578  -0.392  0.00  0.00     0.002 A 
ATOM      4  C5  UNL d   1      -0.713   0.108  -0.595  0.00  0.00    -0.080 A 
ATOM      5  C6  UNL d   1      -1.928  -0.600  -1.116  0.00  0.00     0.076 C 
ATOM      6  C7  UNL d   1      -0.772   1.476  -0.306  0.00  0.00     0.002 A 
ATOM      7  C8  UNL d   1       0.360   2.152   0.154  0.00  0.00     0.006 A 
ENDROOT
BRANCH   1   8
ATOM      8  C1  UNL d   1       2.805   2.216   0.773  0.00  0.00     0.054 C 
ATOM      9  C   UNL d   1       2.661   2.749   2.191  0.00  0.00     0.018 C 
ENDBRANCH   1   8
TORSDOF 1
ENDMDL
