MODEL 1
REMARK minimizedAffinity -4.72165775
REMARK minimizedRMSD -1
REMARK  1 active torsions:
REMARK  status: ('A' for Active; 'I' for Inactive)
REMARK    1  A    between atoms: C1_2  and  C2_3 
ROOT
ATOM      1  C2  UNL d   1       1.523   1.206   0.961  0.00  0.00    -0.081 A 
ATOM      2  C3  UNL d   1       1.733   0.042   0.211  0.00  0.00     0.006 A 
ATOM      3  C4  UNL d   1       0.717  -0.472  -0.598  0.00  0.00     0.002 A 
ATOM      4  C5  UNL d   1      -0.522   0.173  -0.678  0.00  0.00    -0.080 A 
ATOM      5  C6  UNL d   1      -1.610  -0.352  -1.567  0.00  0.00     0.076 C 
ATOM      6  C7  UNL d   1      -0.738   1.326   0.084  0.00  0.00     0.002 A 
ATOM      7  C8  UNL d   1       0.277   1.840   0.894  0.00  0.00     0.006 A 
ENDROOT
BRANCH   1   8
ATOM      8  C1  UNL d   1       2.637   1.799   1.784  0.00  0.00     0.054 C 
ATOM      9  C   UNL d   1       2.708   3.310   1.613  0.00  0.00     0.018 C 
ENDBRANCH   1   8
TORSDOF 1
ENDMDL
