MODEL 1
REMARK minimizedAffinity -3.28769755
REMARK minimizedRMSD -1
REMARK  1 active torsions:
REMARK  status: ('A' for Active; 'I' for Inactive)
REMARK    1  A    between atoms: C1_2  and  C2_3 
ROOT
ATOM      1  C2  UNL d   1      -0.958   0.300  -1.282  0.00  0.00    -0.081 A 
ATOM      2  C3  UNL d   1      -0.713   1.678  -1.237  0.00  0.00     0.006 A 
ATOM      3  C4  UNL d   1       0.434   2.173  -0.611  0.00  0.00     0.002 A 
ATOM      4  C5  UNL d   1       1.358   1.299  -0.028  0.00  0.00    -0.080 A 
ATOM      5  C6  UNL d   1       2.607   1.816   0.620  0.00  0.00     0.076 C 
ATOM      6  C7  UNL d   1       1.104  -0.076  -0.058  0.00  0.00     0.002 A 
ATOM      7  C8  UNL d   1      -0.042  -0.572  -0.683  0.00  0.00     0.006 A 
ENDROOT
BRANCH   1   8
ATOM      8  C1  UNL d   1      -2.160  -0.241  -2.013  0.00  0.00     0.054 C 
ATOM      9  C   UNL d   1      -1.873  -1.609  -2.614  0.00  0.00     0.018 C 
ENDBRANCH   1   8
TORSDOF 1
ENDMDL
