MODEL 1
REMARK minimizedAffinity -3.13116741
REMARK minimizedRMSD -1
REMARK  1 active torsions:
REMARK  status: ('A' for Active; 'I' for Inactive)
REMARK    1  A    between atoms: C1_2  and  C2_3 
ROOT
ATOM      1  C2  UNL d   1       1.298   1.562   0.378  0.00  0.00    -0.081 A 
ATOM      2  C3  UNL d   1       0.502   2.202  -0.580  0.00  0.00     0.006 A 
ATOM      3  C4  UNL d   1      -0.488   1.495  -1.265  0.00  0.00     0.002 A 
ATOM      4  C5  UNL d   1      -0.705   0.139  -0.999  0.00  0.00    -0.080 A 
ATOM      5  C6  UNL d   1      -1.785  -0.625  -1.705  0.00  0.00     0.076 C 
ATOM      6  C7  UNL d   1       0.102  -0.505  -0.054  0.00  0.00     0.002 A 
ATOM      7  C8  UNL d   1       1.093   0.201   0.631  0.00  0.00     0.006 A 
ENDROOT
BRANCH   1   8
ATOM      8  C1  UNL d   1       2.323   2.338   1.165  0.00  0.00     0.054 C 
ATOM      9  C   UNL d   1       3.229   3.146   0.247  0.00  0.00     0.018 C 
ENDBRANCH   1   8
TORSDOF 1
ENDMDL
