MODEL 1
REMARK minimizedAffinity -1.56750309
REMARK minimizedRMSD -1
REMARK  1 active torsions:
REMARK  status: ('A' for Active; 'I' for Inactive)
REMARK    1  A    between atoms: C1_2  and  C2_3 
ROOT
ATOM      1  C2  UNL d   1      -1.194  -2.264   0.275  0.00  0.00    -0.081 A 
ATOM      2  C3  UNL d   1      -2.239  -1.834  -0.553  0.00  0.00     0.006 A 
ATOM      3  C4  UNL d   1      -2.123  -0.649  -1.283  0.00  0.00     0.002 A 
ATOM      4  C5  UNL d   1      -0.959   0.122  -1.203  0.00  0.00    -0.080 A 
ATOM      5  C6  UNL d   1      -0.809   1.381  -2.005  0.00  0.00     0.076 C 
ATOM      6  C7  UNL d   1       0.078  -0.297  -0.363  0.00  0.00     0.002 A 
ATOM      7  C8  UNL d   1      -0.038  -1.482   0.367  0.00  0.00     0.006 A 
ENDROOT
BRANCH   1   8
ATOM      8  C1  UNL d   1      -1.290  -3.574   1.013  0.00  0.00     0.054 C 
ATOM      9  C   UNL d   1      -0.808  -3.437   2.450  0.00  0.00     0.018 C 
ENDBRANCH   1   8
TORSDOF 1
ENDMDL
