MODEL 1
REMARK minimizedAffinity -4.61762953
REMARK minimizedRMSD -1
REMARK  1 active torsions:
REMARK  status: ('A' for Active; 'I' for Inactive)
REMARK    1  A    between atoms: C1_2  and  C2_3 
ROOT
ATOM      1  C2  UNL d   1       1.264   1.282   0.166  0.00  0.00    -0.081 A 
ATOM      2  C3  UNL d   1      -0.015   1.819   0.355  0.00  0.00     0.006 A 
ATOM      3  C4  UNL d   1      -1.134   1.197  -0.204  0.00  0.00     0.002 A 
ATOM      4  C5  UNL d   1      -0.993   0.025  -0.956  0.00  0.00    -0.080 A 
ATOM      5  C6  UNL d   1      -2.189  -0.669  -1.537  0.00  0.00     0.076 C 
ATOM      6  C7  UNL d   1       0.287  -0.501  -1.160  0.00  0.00     0.002 A 
ATOM      7  C8  UNL d   1       1.406   0.120  -0.601  0.00  0.00     0.006 A 
ENDROOT
BRANCH   1   8
ATOM      8  C1  UNL d   1       2.465   1.914   0.822  0.00  0.00     0.054 C 
ATOM      9  C   UNL d   1       2.642   3.359   0.378  0.00  0.00     0.018 C 
ENDBRANCH   1   8
TORSDOF 1
ENDMDL
