MODEL 1
REMARK minimizedAffinity -0.377935231
REMARK minimizedRMSD -1
REMARK  1 active torsions:
REMARK  status: ('A' for Active; 'I' for Inactive)
REMARK    1  A    between atoms: C1_2  and  C2_3 
ROOT
ATOM      1  C2  UNL d   1       1.248   0.839  -0.031  0.00  0.00    -0.081 A 
ATOM      2  C3  UNL d   1       0.771  -0.282   0.659  0.00  0.00     0.006 A 
ATOM      3  C4  UNL d   1      -0.458  -0.853   0.318  0.00  0.00     0.002 A 
ATOM      4  C5  UNL d   1      -1.224  -0.318  -0.723  0.00  0.00    -0.080 A 
ATOM      5  C6  UNL d   1      -2.530  -0.940  -1.120  0.00  0.00     0.076 C 
ATOM      6  C7  UNL d   1      -0.755   0.812  -1.401  0.00  0.00     0.002 A 
ATOM      7  C8  UNL d   1       0.472   1.384  -1.060  0.00  0.00     0.006 A 
ENDROOT
BRANCH   1   8
ATOM      8  C1  UNL d   1       2.602   1.418   0.292  0.00  0.00     0.054 C 
ATOM      9  C   UNL d   1       2.525   2.924   0.497  0.00  0.00     0.018 C 
ENDBRANCH   1   8
TORSDOF 1
ENDMDL
