MODEL 1
REMARK minimizedAffinity -2.24238563
REMARK minimizedRMSD -1
REMARK  1 active torsions:
REMARK  status: ('A' for Active; 'I' for Inactive)
REMARK    1  A    between atoms: C1_2  and  C2_3 
ROOT
ATOM      1  C2  UNL d   1       1.430   1.157  -0.083  0.00  0.00    -0.081 A 
ATOM      2  C3  UNL d   1       0.480   1.801  -0.885  0.00  0.00     0.006 A 
ATOM      3  C4  UNL d   1      -0.723   1.166  -1.206  0.00  0.00     0.002 A 
ATOM      4  C5  UNL d   1      -0.998  -0.118  -0.724  0.00  0.00    -0.080 A 
ATOM      5  C6  UNL d   1      -2.298  -0.798  -1.037  0.00  0.00     0.076 C 
ATOM      6  C7  UNL d   1      -0.042  -0.768   0.063  0.00  0.00     0.002 A 
ATOM      7  C8  UNL d   1       1.160  -0.134   0.384  0.00  0.00     0.006 A 
ENDROOT
BRANCH   1   8
ATOM      8  C1  UNL d   1       2.699   1.864   0.319  0.00  0.00     0.054 C 
ATOM      9  C   UNL d   1       2.654   2.297   1.777  0.00  0.00     0.018 C 
ENDBRANCH   1   8
TORSDOF 1
ENDMDL
