MODEL 1
REMARK minimizedAffinity -2.70580316
REMARK minimizedRMSD -1
REMARK  1 active torsions:
REMARK  status: ('A' for Active; 'I' for Inactive)
REMARK    1  A    between atoms: C1_2  and  C2_3 
ROOT
ATOM      1  C2  UNL d   1       1.288   1.662   0.973  0.00  0.00    -0.081 A 
ATOM      2  C3  UNL d   1       1.523   0.332   0.600  0.00  0.00     0.006 A 
ATOM      3  C4  UNL d   1       0.564  -0.380  -0.123  0.00  0.00     0.002 A 
ATOM      4  C5  UNL d   1      -0.641   0.226  -0.493  0.00  0.00    -0.080 A 
ATOM      5  C6  UNL d   1      -1.667  -0.519  -1.295  0.00  0.00     0.076 C 
ATOM      6  C7  UNL d   1      -0.883   1.548  -0.106  0.00  0.00     0.002 A 
ATOM      7  C8  UNL d   1       0.075   2.261   0.618  0.00  0.00     0.006 A 
ENDROOT
BRANCH   1   8
ATOM      8  C1  UNL d   1       2.347   2.453   1.697  0.00  0.00     0.054 C 
ATOM      9  C   UNL d   1       3.428   2.936   0.740  0.00  0.00     0.018 C 
ENDBRANCH   1   8
TORSDOF 1
ENDMDL
