MODEL 1
REMARK minimizedAffinity -4.3227582
REMARK minimizedRMSD -1
REMARK  1 active torsions:
REMARK  status: ('A' for Active; 'I' for Inactive)
REMARK    1  A    between atoms: C1_2  and  C2_3 
ROOT
ATOM      1  C2  UNL d   1      -0.543   0.506  -0.794  0.00  0.00    -0.081 A 
ATOM      2  C3  UNL d   1      -0.665   1.837  -0.377  0.00  0.00     0.006 A 
ATOM      3  C4  UNL d   1       0.334   2.430   0.398  0.00  0.00     0.002 A 
ATOM      4  C5  UNL d   1       1.475   1.706   0.762  0.00  0.00    -0.080 A 
ATOM      5  C6  UNL d   1       2.569   2.341   1.568  0.00  0.00     0.076 C 
ATOM      6  C7  UNL d   1       1.589   0.371   0.360  0.00  0.00     0.002 A 
ATOM      7  C8  UNL d   1       0.590  -0.223  -0.415  0.00  0.00     0.006 A 
ENDROOT
BRANCH   1   8
ATOM      8  C1  UNL d   1      -1.588  -0.118  -1.684  0.00  0.00     0.054 C 
ATOM      9  C   UNL d   1      -2.380  -1.186  -0.943  0.00  0.00     0.018 C 
ENDBRANCH   1   8
TORSDOF 1
ENDMDL
