MODEL 1
REMARK minimizedAffinity -2.88561654
REMARK minimizedRMSD -1
REMARK  1 active torsions:
REMARK  status: ('A' for Active; 'I' for Inactive)
REMARK    1  A    between atoms: C1_2  and  C2_3 
ROOT
ATOM      1  C2  UNL d   1       1.449   1.355   0.333  0.00  0.00    -0.081 A 
ATOM      2  C3  UNL d   1       0.164   1.912   0.365  0.00  0.00     0.006 A 
ATOM      3  C4  UNL d   1      -0.926   1.207  -0.150  0.00  0.00     0.002 A 
ATOM      4  C5  UNL d   1      -0.752  -0.068  -0.699  0.00  0.00    -0.080 A 
ATOM      5  C6  UNL d   1      -1.919  -0.847  -1.228  0.00  0.00     0.076 C 
ATOM      6  C7  UNL d   1       0.534  -0.617  -0.747  0.00  0.00     0.002 A 
ATOM      7  C8  UNL d   1       1.625   0.088  -0.233  0.00  0.00     0.006 A 
ENDROOT
BRANCH   1   8
ATOM      8  C1  UNL d   1       2.616   2.085   0.946  0.00  0.00     0.054 C 
ATOM      9  C   UNL d   1       2.298   3.558   1.159  0.00  0.00     0.018 C 
ENDBRANCH   1   8
TORSDOF 1
ENDMDL
