MODEL 1
REMARK minimizedAffinity -0.769655943
REMARK minimizedRMSD -1
REMARK  1 active torsions:
REMARK  status: ('A' for Active; 'I' for Inactive)
REMARK    1  A    between atoms: C1_2  and  C2_3 
ROOT
ATOM      1  C2  UNL d   1      -0.876  -0.206  -0.622  0.00  0.00    -0.081 A 
ATOM      2  C3  UNL d   1      -0.462  -0.872   0.539  0.00  0.00     0.006 A 
ATOM      3  C4  UNL d   1      -1.073  -2.067   0.926  0.00  0.00     0.002 A 
ATOM      4  C5  UNL d   1      -2.101  -2.621   0.155  0.00  0.00    -0.080 A 
ATOM      5  C6  UNL d   1      -2.744  -3.919   0.543  0.00  0.00     0.076 C 
ATOM      6  C7  UNL d   1      -2.526  -1.947  -0.995  0.00  0.00     0.002 A 
ATOM      7  C8  UNL d   1      -1.917  -0.752  -1.382  0.00  0.00     0.006 A 
ENDROOT
BRANCH   1   8
ATOM      8  C1  UNL d   1      -0.176   1.049  -1.077  0.00  0.00     0.054 C 
ATOM      9  C   UNL d   1       1.078   1.311  -0.256  0.00  0.00     0.018 C 
ENDBRANCH   1   8
TORSDOF 1
ENDMDL
