MODEL 1
REMARK minimizedAffinity 9.60612106
REMARK minimizedRMSD -1
REMARK  1 active torsions:
REMARK  status: ('A' for Active; 'I' for Inactive)
REMARK    1  A    between atoms: C1_2  and  C2_3 
ROOT
ATOM      1  C2  UNL d   1      -1.343   3.249  -1.895  0.00  0.00    -0.077 A 
ATOM      2  C3  UNL d   1      -2.403   2.443  -2.334  0.00  0.00     0.002 A 
ATOM      3  C4  UNL d   1      -3.472   3.003  -3.036  0.00  0.00     0.002 A 
ATOM      4  C5  UNL d   1      -3.489   4.368  -3.310  0.00  0.00    -0.004 A 
ATOM      5  C6  UNL d   1      -2.440   5.179  -2.877  0.00  0.00     0.002 A 
ATOM      6  C7  UNL d   1      -1.372   4.621  -2.173  0.00  0.00     0.002 A 
ENDROOT
BRANCH   1   7
ATOM      7  C1  UNL d   1      -0.166   2.639  -1.180  0.00  0.00     0.055 C 
ATOM      8  C   UNL d   1      -0.353   2.679   0.329  0.00  0.00     0.019 C 
ENDBRANCH   1   7
TORSDOF 1
ENDMDL
