MODEL 1
REMARK minimizedAffinity 0.169715986
REMARK minimizedRMSD -1
REMARK  1 active torsions:
REMARK  status: ('A' for Active; 'I' for Inactive)
REMARK    1  A    between atoms: C1_2  and  C2_3 
ROOT
ATOM      1  C2  UNL d   1      -4.121  -3.560  -5.968  0.00  0.00    -0.077 A 
ATOM      2  C3  UNL d   1      -4.682  -4.844  -5.930  0.00  0.00     0.002 A 
ATOM      3  C4  UNL d   1      -3.862  -5.972  -5.855  0.00  0.00     0.002 A 
ATOM      4  C5  UNL d   1      -2.477  -5.827  -5.812  0.00  0.00    -0.004 A 
ATOM      5  C6  UNL d   1      -1.909  -4.554  -5.851  0.00  0.00     0.002 A 
ATOM      6  C7  UNL d   1      -2.727  -3.426  -5.927  0.00  0.00     0.002 A 
ENDROOT
BRANCH   1   7
ATOM      7  C1  UNL d   1      -5.004  -2.341  -6.000  0.00  0.00     0.055 C 
ATOM      8  C   UNL d   1      -4.182  -1.061  -5.999  0.00  0.00     0.019 C 
ENDBRANCH   1   7
TORSDOF 1
ENDMDL
