MODEL 1
REMARK minimizedAffinity 5.03178883
REMARK minimizedRMSD -1
REMARK  1 active torsions:
REMARK  status: ('A' for Active; 'I' for Inactive)
REMARK    1  A    between atoms: C1_2  and  C2_3 
ROOT
ATOM      1  C2  UNL d   1      -0.242   3.718  -0.712  0.00  0.00    -0.077 A 
ATOM      2  C3  UNL d   1      -0.199   3.752  -2.113  0.00  0.00     0.002 A 
ATOM      3  C4  UNL d   1      -0.622   4.888  -2.805  0.00  0.00     0.002 A 
ATOM      4  C5  UNL d   1      -1.087   6.000  -2.105  0.00  0.00    -0.004 A 
ATOM      5  C6  UNL d   1      -1.136   5.975  -0.712  0.00  0.00     0.002 A 
ATOM      6  C7  UNL d   1      -0.715   4.840  -0.018  0.00  0.00     0.002 A 
ENDROOT
BRANCH   1   7
ATOM      7  C1  UNL d   1       0.259   2.512   0.038  0.00  0.00     0.055 C 
ATOM      8  C   UNL d   1      -0.692   2.124   1.161  0.00  0.00     0.019 C 
ENDBRANCH   1   7
TORSDOF 1
ENDMDL
