MODEL 1
REMARK minimizedAffinity -2.60392547
REMARK minimizedRMSD -1
REMARK  1 active torsions:
REMARK  status: ('A' for Active; 'I' for Inactive)
REMARK    1  A    between atoms: C1_2  and  C2_3 
ROOT
ATOM      1  C2  UNL d   1      -4.305  -3.760  -5.950  0.00  0.00    -0.077 A 
ATOM      2  C3  UNL d   1      -4.428  -5.154  -5.863  0.00  0.00     0.002 A 
ATOM      3  C4  UNL d   1      -3.290  -5.962  -5.828  0.00  0.00     0.002 A 
ATOM      4  C5  UNL d   1      -2.022  -5.386  -5.875  0.00  0.00    -0.004 A 
ATOM      5  C6  UNL d   1      -1.890  -4.001  -5.964  0.00  0.00     0.002 A 
ATOM      6  C7  UNL d   1      -3.026  -3.191  -6.000  0.00  0.00     0.002 A 
ENDROOT
BRANCH   1   7
ATOM      7  C1  UNL d   1      -5.530  -2.883  -5.938  0.00  0.00     0.055 C 
ATOM      8  C   UNL d   1      -5.157  -1.409  -5.999  0.00  0.00     0.019 C 
ENDBRANCH   1   7
TORSDOF 1
ENDMDL
