MODEL 1
REMARK minimizedAffinity 5.28986549
REMARK minimizedRMSD -1
REMARK  1 active torsions:
REMARK  status: ('A' for Active; 'I' for Inactive)
REMARK    1  A    between atoms: C1_2  and  C2_3 
ROOT
ATOM      1  C2  UNL d   1      -1.584   4.964  -0.738  0.00  0.00    -0.077 A 
ATOM      2  C3  UNL d   1      -0.816   5.182  -1.890  0.00  0.00     0.002 A 
ATOM      3  C4  UNL d   1       0.083   4.210  -2.335  0.00  0.00     0.002 A 
ATOM      4  C5  UNL d   1       0.218   3.013  -1.636  0.00  0.00    -0.004 A 
ATOM      5  C6  UNL d   1      -0.540   2.787  -0.487  0.00  0.00     0.002 A 
ATOM      6  C7  UNL d   1      -1.437   3.757  -0.041  0.00  0.00     0.002 A 
ENDROOT
BRANCH   1   7
ATOM      7  C1  UNL d   1      -2.589   5.990  -0.285  0.00  0.00     0.055 C 
ATOM      8  C   UNL d   1      -2.911   5.834   1.195  0.00  0.00     0.019 C 
ENDBRANCH   1   7
TORSDOF 1
ENDMDL
