MODEL 1
REMARK minimizedAffinity 0.15930967
REMARK minimizedRMSD -1
REMARK  1 active torsions:
REMARK  status: ('A' for Active; 'I' for Inactive)
REMARK    1  A    between atoms: C1_2  and  C2_3 
ROOT
ATOM      1  C2  UNL d   1      -4.781   4.594  -4.944  0.00  0.00    -0.081 A 
ATOM      2  C3  UNL d   1      -4.272   3.296  -5.076  0.00  0.00     0.006 A 
ATOM      3  C4  UNL d   1      -4.628   2.300  -4.164  0.00  0.00     0.002 A 
ATOM      4  C5  UNL d   1      -5.505   2.582  -3.111  0.00  0.00    -0.080 A 
ATOM      5  C6  UNL d   1      -5.920   1.514  -2.143  0.00  0.00     0.076 C 
ATOM      6  C7  UNL d   1      -6.000   3.883  -2.969  0.00  0.00     0.002 A 
ATOM      7  C8  UNL d   1      -5.643   4.880  -3.880  0.00  0.00     0.006 A 
ENDROOT
BRANCH   1   8
ATOM      8  C1  UNL d   1      -4.449   5.654  -5.963  0.00  0.00     0.054 C 
ATOM      9  C   UNL d   1      -2.954   5.938  -6.000  0.00  0.00     0.018 C 
ENDBRANCH   1   8
TORSDOF 1
ENDMDL
