MODEL 1
REMARK minimizedAffinity 4.9515543
REMARK minimizedRMSD -1
REMARK  1 active torsions:
REMARK  status: ('A' for Active; 'I' for Inactive)
REMARK    1  A    between atoms: C1_2  and  C2_3 
ROOT
ATOM      1  C2  UNL d   1       4.616  -2.675  -3.554  0.00  0.00    -0.081 A 
ATOM      2  C3  UNL d   1       4.152  -3.990  -3.427  0.00  0.00     0.006 A 
ATOM      3  C4  UNL d   1       2.972  -4.260  -2.730  0.00  0.00     0.002 A 
ATOM      4  C5  UNL d   1       2.232  -3.220  -2.156  0.00  0.00    -0.080 A 
ATOM      5  C6  UNL d   1       0.948  -3.493  -1.431  0.00  0.00     0.076 C 
ATOM      6  C7  UNL d   1       2.705  -1.908  -2.268  0.00  0.00     0.002 A 
ATOM      7  C8  UNL d   1       3.885  -1.638  -2.964  0.00  0.00     0.006 A 
ENDROOT
BRANCH   1   8
ATOM      8  C1  UNL d   1       5.853  -2.374  -4.360  0.00  0.00     0.054 C 
ATOM      9  C   UNL d   1       5.810  -3.059  -5.718  0.00  0.00     0.018 C 
ENDBRANCH   1   8
TORSDOF 1
ENDMDL
