MODEL 1
REMARK minimizedAffinity 7.38706303
REMARK minimizedRMSD -1
REMARK  1 active torsions:
REMARK  status: ('A' for Active; 'I' for Inactive)
REMARK    1  A    between atoms: C1_2  and  C2_3 
ROOT
ATOM      1  C2  UNL d   1      -0.987   2.269  -2.641  0.00  0.00    -0.081 A 
ATOM      2  C3  UNL d   1      -2.343   2.204  -2.985  0.00  0.00     0.006 A 
ATOM      3  C4  UNL d   1      -2.761   1.435  -4.073  0.00  0.00     0.002 A 
ATOM      4  C5  UNL d   1      -1.833   0.713  -4.831  0.00  0.00    -0.080 A 
ATOM      5  C6  UNL d   1      -2.272  -0.140  -5.983  0.00  0.00     0.076 C 
ATOM      6  C7  UNL d   1      -0.476   0.792  -4.498  0.00  0.00     0.002 A 
ATOM      7  C8  UNL d   1      -0.058   1.561  -3.410  0.00  0.00     0.006 A 
ENDROOT
BRANCH   1   8
ATOM      8  C1  UNL d   1      -0.541   3.046  -1.428  0.00  0.00     0.054 C 
ATOM      9  C   UNL d   1      -0.070   2.116  -0.319  0.00  0.00     0.018 C 
ENDBRANCH   1   8
TORSDOF 1
ENDMDL
