MODEL 1
REMARK minimizedAffinity 3.71182489
REMARK minimizedRMSD -1
REMARK  1 active torsions:
REMARK  status: ('A' for Active; 'I' for Inactive)
REMARK    1  A    between atoms: C1_2  and  C2_3 
ROOT
ATOM      1  C2  UNL d   1       0.029  -1.333  -1.040  0.00  0.00    -0.081 A 
ATOM      2  C3  UNL d   1      -0.749  -0.258  -0.592  0.00  0.00     0.006 A 
ATOM      3  C4  UNL d   1      -0.838   0.915  -1.346  0.00  0.00     0.002 A 
ATOM      4  C5  UNL d   1      -0.156   1.030  -2.562  0.00  0.00    -0.080 A 
ATOM      5  C6  UNL d   1      -0.267   2.272  -3.396  0.00  0.00     0.076 C 
ATOM      6  C7  UNL d   1       0.635  -0.037  -3.001  0.00  0.00     0.002 A 
ATOM      7  C8  UNL d   1       0.724  -1.210  -2.248  0.00  0.00     0.006 A 
ENDROOT
BRANCH   1   8
ATOM      8  C1  UNL d   1       0.074  -2.623  -0.261  0.00  0.00     0.054 C 
ATOM      9  C   UNL d   1      -0.018  -3.830  -1.184  0.00  0.00     0.018 C 
ENDBRANCH   1   8
TORSDOF 1
ENDMDL
