MODEL 1
REMARK minimizedAffinity 19.4272194
REMARK minimizedRMSD -1
REMARK  1 active torsions:
REMARK  status: ('A' for Active; 'I' for Inactive)
REMARK    1  A    between atoms: C1_2  and  C2_3 
ROOT
ATOM      1  C2  UNL d   1      -0.239   2.019   0.580  0.00  0.00    -0.081 A 
ATOM      2  C3  UNL d   1       1.006   1.794   1.180  0.00  0.00     0.006 A 
ATOM      3  C4  UNL d   1       1.085   1.347   2.501  0.00  0.00     0.002 A 
ATOM      4  C5  UNL d   1      -0.078   1.109   3.240  0.00  0.00    -0.080 A 
ATOM      5  C6  UNL d   1      -0.008   0.600   4.649  0.00  0.00     0.076 C 
ATOM      6  C7  UNL d   1      -1.322   1.350   2.647  0.00  0.00     0.002 A 
ATOM      7  C8  UNL d   1      -1.402   1.798   1.326  0.00  0.00     0.006 A 
ENDROOT
BRANCH   1   8
ATOM      8  C1  UNL d   1      -0.329   2.439  -0.865  0.00  0.00     0.054 C 
ATOM      9  C   UNL d   1      -0.258   3.953  -1.006  0.00  0.00     0.018 C 
ENDBRANCH   1   8
TORSDOF 1
ENDMDL
