MODEL 1
REMARK minimizedAffinity 16.7272816
REMARK minimizedRMSD -1
REMARK  1 active torsions:
REMARK  status: ('A' for Active; 'I' for Inactive)
REMARK    1  A    between atoms: C1_2  and  C2_3 
ROOT
ATOM      1  C2  UNL d   1       0.819  -1.082   4.943  0.00  0.00    -0.081 A 
ATOM      2  C3  UNL d   1       1.666  -1.448   5.996  0.00  0.00     0.006 A 
ATOM      3  C4  UNL d   1       2.975  -1.862   5.741  0.00  0.00     0.002 A 
ATOM      4  C5  UNL d   1       3.462  -1.910   4.431  0.00  0.00    -0.080 A 
ATOM      5  C6  UNL d   1       4.876  -2.323   4.146  0.00  0.00     0.076 C 
ATOM      6  C7  UNL d   1       2.611  -1.561   3.377  0.00  0.00     0.002 A 
ATOM      7  C8  UNL d   1       1.301  -1.147   3.631  0.00  0.00     0.006 A 
ENDROOT
BRANCH   1   8
ATOM      8  C1  UNL d   1      -0.573  -0.573   5.219  0.00  0.00     0.054 C 
ATOM      9  C   UNL d   1      -0.902   0.635   4.354  0.00  0.00     0.018 C 
ENDBRANCH   1   8
TORSDOF 1
ENDMDL
