MODEL 1
REMARK minimizedAffinity 1.16441524
REMARK minimizedRMSD -1
REMARK  1 active torsions:
REMARK  status: ('A' for Active; 'I' for Inactive)
REMARK    1  A    between atoms: C1_2  and  C2_3 
ROOT
ATOM      1  C2  UNL d   1      -0.539   5.189  -2.998  0.00  0.00    -0.081 A 
ATOM      2  C3  UNL d   1       0.843   5.340  -2.831  0.00  0.00     0.006 A 
ATOM      3  C4  UNL d   1       1.536   4.545  -1.915  0.00  0.00     0.002 A 
ATOM      4  C5  UNL d   1       0.862   3.581  -1.158  0.00  0.00    -0.080 A 
ATOM      5  C6  UNL d   1       1.599   2.701  -0.193  0.00  0.00     0.076 C 
ATOM      6  C7  UNL d   1      -0.522   3.442  -1.312  0.00  0.00     0.002 A 
ATOM      7  C8  UNL d   1      -1.216   4.237  -2.227  0.00  0.00     0.006 A 
ENDROOT
BRANCH   1   8
ATOM      8  C1  UNL d   1      -1.279   5.999  -4.031  0.00  0.00     0.054 C 
ATOM      9  C   UNL d   1      -2.743   5.589  -4.112  0.00  0.00     0.018 C 
ENDBRANCH   1   8
TORSDOF 1
ENDMDL
