MODEL 1
REMARK minimizedAffinity -2.66403699
REMARK minimizedRMSD -1
REMARK  1 active torsions:
REMARK  status: ('A' for Active; 'I' for Inactive)
REMARK    1  A    between atoms: C1_2  and  C2_3 
ROOT
ATOM      1  C2  UNL d   1      -0.306   2.550   1.053  0.00  0.00    -0.081 A 
ATOM      2  C3  UNL d   1       1.002   2.233   1.440  0.00  0.00     0.006 A 
ATOM      3  C4  UNL d   1       1.234   1.379   2.521  0.00  0.00     0.002 A 
ATOM      4  C5  UNL d   1       0.162   0.822   3.228  0.00  0.00    -0.080 A 
ATOM      5  C6  UNL d   1       0.397  -0.121   4.371  0.00  0.00     0.076 C 
ATOM      6  C7  UNL d   1      -1.144   1.152   2.852  0.00  0.00     0.002 A 
ATOM      7  C8  UNL d   1      -1.376   2.006   1.772  0.00  0.00     0.006 A 
ENDROOT
BRANCH   1   8
ATOM      8  C1  UNL d   1      -0.559   3.419  -0.152  0.00  0.00     0.054 C 
ATOM      9  C   UNL d   1       0.733   3.720  -0.898  0.00  0.00     0.018 C 
ENDBRANCH   1   8
TORSDOF 1
ENDMDL
