MODEL 1
REMARK minimizedAffinity 2.04189634
REMARK minimizedRMSD -1
REMARK  1 active torsions:
REMARK  status: ('A' for Active; 'I' for Inactive)
REMARK    1  A    between atoms: C1_2  and  C2_3 
ROOT
ATOM      1  C2  UNL d   1       0.235  -5.926  -1.793  0.00  0.00    -0.081 A 
ATOM      2  C3  UNL d   1      -0.689  -5.908  -0.740  0.00  0.00     0.006 A 
ATOM      3  C4  UNL d   1      -0.254  -5.787   0.582  0.00  0.00     0.002 A 
ATOM      4  C5  UNL d   1       1.109  -5.673   0.873  0.00  0.00    -0.080 A 
ATOM      5  C6  UNL d   1       1.588  -5.512   2.285  0.00  0.00     0.076 C 
ATOM      6  C7  UNL d   1       2.033  -5.708  -0.177  0.00  0.00     0.002 A 
ATOM      7  C8  UNL d   1       1.599  -5.830  -1.499  0.00  0.00     0.006 A 
ENDROOT
BRANCH   1   8
ATOM      8  C1  UNL d   1      -0.235  -5.992  -3.223  0.00  0.00     0.054 C 
ATOM      9  C   UNL d   1      -1.755  -5.999  -3.307  0.00  0.00     0.018 C 
ENDBRANCH   1   8
TORSDOF 1
ENDMDL
