MODEL 1
REMARK minimizedAffinity -3.84174156
REMARK minimizedRMSD -1
REMARK  0 active torsions:
REMARK  status: ('A' for Active; 'I' for Inactive)
ROOT
ATOM      1  C4' PXY d   1       2.302   1.026  -1.784  0.00  0.00     0.077 C 
ATOM      2  C1' PXY d   1      -2.434   0.322   1.456  0.00  0.00     0.077 C 
ATOM      3  C1  PXY d   1      -1.185   0.500   0.615  0.00  0.00    -0.082 A 
ATOM      4  C2  PXY d   1      -1.109   1.509  -0.238  0.00  0.00     0.003 A 
ATOM      5  C3  PXY d   1       0.000   1.666  -1.029  0.00  0.00     0.003 A 
ATOM      6  C4  PXY d   1       1.064   0.813  -0.908  0.00  0.00    -0.082 A 
ATOM      7  C5  PXY d   1       0.998  -0.213  -0.033  0.00  0.00     0.003 A 
ATOM      8  C6  PXY d   1      -0.153  -0.379   0.732  0.00  0.00     0.003 A 
ENDROOT
TORSDOF 0
ENDMDL
