MODEL 1
REMARK minimizedAffinity -3.49205279
REMARK minimizedRMSD -1
REMARK  0 active torsions:
REMARK  status: ('A' for Active; 'I' for Inactive)
ROOT
ATOM      1  C4' PXY d   1      -3.672   5.437  -5.859  0.00  0.00     0.077 C 
ATOM      2  C1' PXY d   1      -5.578  -0.019  -5.731  0.00  0.00     0.077 C 
ATOM      3  C1  PXY d   1      -5.088   1.415  -5.771  0.00  0.00    -0.082 A 
ATOM      4  C2  PXY d   1      -3.799   1.671  -5.620  0.00  0.00     0.003 A 
ATOM      5  C3  PXY d   1      -3.344   2.964  -5.622  0.00  0.00     0.003 A 
ATOM      6  C4  PXY d   1      -4.210   4.003  -5.834  0.00  0.00    -0.082 A 
ATOM      7  C5  PXY d   1      -5.525   3.750  -6.000  0.00  0.00     0.003 A 
ATOM      8  C6  PXY d   1      -5.973   2.433  -5.953  0.00  0.00     0.003 A 
ENDROOT
TORSDOF 0
ENDMDL
