MODEL 1
REMARK minimizedAffinity -4.47735548
REMARK minimizedRMSD -1
REMARK  0 active torsions:
REMARK  status: ('A' for Active; 'I' for Inactive)
ROOT
ATOM      1  C4' PXY d   1      -0.713   0.521   1.599  0.00  0.00     0.077 C 
ATOM      2  C1' PXY d   1       1.924  -0.382  -3.465  0.00  0.00     0.077 C 
ATOM      3  C1  PXY d   1       1.243  -0.139  -2.133  0.00  0.00    -0.082 A 
ATOM      4  C2  PXY d   1       0.233  -0.911  -1.764  0.00  0.00     0.003 A 
ATOM      5  C3  PXY d   1      -0.415  -0.685  -0.577  0.00  0.00     0.003 A 
ATOM      6  C4  PXY d   1       0.010   0.307   0.266  0.00  0.00    -0.082 A 
ATOM      7  C5  PXY d   1       1.047   1.091  -0.098  0.00  0.00     0.003 A 
ATOM      8  C6  PXY d   1       1.664   0.872  -1.326  0.00  0.00     0.003 A 
ENDROOT
TORSDOF 0
ENDMDL
