MODEL 1
REMARK minimizedAffinity -2.6744554
REMARK minimizedRMSD -1
REMARK  0 active torsions:
REMARK  status: ('A' for Active; 'I' for Inactive)
ROOT
ATOM      1  C4' PXY d   1       3.422   1.036  -1.493  0.00  0.00     0.077 C 
ATOM      2  C1' PXY d   1      -1.343  -0.144   1.560  0.00  0.00     0.077 C 
ATOM      3  C1  PXY d   1      -0.095   0.155   0.753  0.00  0.00    -0.082 A 
ATOM      4  C2  PXY d   1       0.824   0.969   1.246  0.00  0.00     0.003 A 
ATOM      5  C3  PXY d   1       1.943   1.275   0.516  0.00  0.00     0.003 A 
ATOM      6  C4  PXY d   1       2.150   0.699  -0.709  0.00  0.00    -0.082 A 
ATOM      7  C5  PXY d   1       1.223  -0.142  -1.214  0.00  0.00     0.003 A 
ATOM      8  C6  PXY d   1       0.073  -0.407  -0.475  0.00  0.00     0.003 A 
ENDROOT
TORSDOF 0
ENDMDL
