MODEL 1
REMARK minimizedAffinity -1.42022979
REMARK minimizedRMSD -1
REMARK  0 active torsions:
REMARK  status: ('A' for Active; 'I' for Inactive)
ROOT
ATOM      1  C4' PXY d   1      -0.629  -2.216  -1.803  0.00  0.00     0.077 C 
ATOM      2  C1' PXY d   1       1.613   2.115   1.301  0.00  0.00     0.077 C 
ATOM      3  C1  PXY d   1       1.025   0.971   0.498  0.00  0.00    -0.082 A 
ATOM      4  C2  PXY d   1       1.204   0.933  -0.813  0.00  0.00     0.003 A 
ATOM      5  C3  PXY d   1       0.652  -0.077  -1.559  0.00  0.00     0.003 A 
ATOM      6  C4  PXY d   1      -0.045  -1.086  -0.950  0.00  0.00    -0.082 A 
ATOM      7  C5  PXY d   1      -0.223  -1.060   0.388  0.00  0.00     0.003 A 
ATOM      8  C6  PXY d   1       0.310  -0.004   1.122  0.00  0.00     0.003 A 
ENDROOT
TORSDOF 0
ENDMDL
