MODEL 1
REMARK minimizedAffinity -2.39580488
REMARK minimizedRMSD -1
REMARK  0 active torsions:
REMARK  status: ('A' for Active; 'I' for Inactive)
ROOT
ATOM      1  C4' PXY d   1      -4.378   5.881  -5.999  0.00  0.00     0.077 C 
ATOM      2  C1' PXY d   1      -5.087   0.153  -5.679  0.00  0.00     0.077 C 
ATOM      3  C1  PXY d   1      -4.912   1.656  -5.769  0.00  0.00    -0.082 A 
ATOM      4  C2  PXY d   1      -3.698   2.178  -5.705  0.00  0.00     0.003 A 
ATOM      5  C3  PXY d   1      -3.525   3.538  -5.753  0.00  0.00     0.003 A 
ATOM      6  C4  PXY d   1      -4.601   4.368  -5.922  0.00  0.00    -0.082 A 
ATOM      7  C5  PXY d   1      -5.841   3.842  -5.999  0.00  0.00     0.003 A 
ATOM      8  C6  PXY d   1      -6.000   2.462  -5.907  0.00  0.00     0.003 A 
ENDROOT
TORSDOF 0
ENDMDL
