MODEL 1
REMARK minimizedAffinity -2.89614797
REMARK minimizedRMSD -1
REMARK  0 active torsions:
REMARK  status: ('A' for Active; 'I' for Inactive)
ROOT
ATOM      1  C4' PXY d   1      -3.871  -0.036   1.700  0.00  0.00     0.077 C 
ATOM      2  C1' PXY d   1       1.230   0.045  -1.019  0.00  0.00     0.077 C 
ATOM      3  C1  PXY d   1      -0.103   0.015  -0.297  0.00  0.00    -0.082 A 
ATOM      4  C2  PXY d   1      -1.212   0.304  -0.959  0.00  0.00     0.003 A 
ATOM      5  C3  PXY d   1      -2.422   0.314  -0.314  0.00  0.00     0.003 A 
ATOM      6  C4  PXY d   1      -2.504  -0.028   1.010  0.00  0.00    -0.082 A 
ATOM      7  C5  PXY d   1      -1.379  -0.334   1.689  0.00  0.00     0.003 A 
ATOM      8  C6  PXY d   1      -0.156  -0.298   1.026  0.00  0.00     0.003 A 
ENDROOT
TORSDOF 0
ENDMDL
