MODEL 1
REMARK minimizedAffinity -4.69668913
REMARK minimizedRMSD -1
REMARK  0 active torsions:
REMARK  status: ('A' for Active; 'I' for Inactive)
ROOT
ATOM      1  C4' PXY d   1       2.254  -0.372  -3.357  0.00  0.00     0.077 C 
ATOM      2  C1' PXY d   1      -0.693   0.519   1.535  0.00  0.00     0.077 C 
ATOM      3  C1  PXY d   1       0.079   0.299   0.250  0.00  0.00    -0.082 A 
ATOM      4  C2  PXY d   1       0.060  -0.891  -0.329  0.00  0.00     0.003 A 
ATOM      5  C3  PXY d   1       0.779  -1.117  -1.474  0.00  0.00     0.003 A 
ATOM      6  C4  PXY d   1       1.482  -0.101  -2.063  0.00  0.00    -0.082 A 
ATOM      7  C5  PXY d   1       1.497   1.119  -1.485  0.00  0.00     0.003 A 
ATOM      8  C6  PXY d   1       0.795   1.317  -0.300  0.00  0.00     0.003 A 
ENDROOT
TORSDOF 0
ENDMDL
