MODEL 1
REMARK minimizedAffinity -4.36246824
REMARK minimizedRMSD -1
REMARK  0 active torsions:
REMARK  status: ('A' for Active; 'I' for Inactive)
ROOT
ATOM      1  C4' PXY d   1       2.045   0.067  -2.899  0.00  0.00     0.077 C 
ATOM      2  C1' PXY d   1      -1.306   0.041   1.812  0.00  0.00     0.077 C 
ATOM      3  C1  PXY d   1      -0.429   0.060   0.575  0.00  0.00    -0.082 A 
ATOM      4  C2  PXY d   1      -0.292  -1.039  -0.148  0.00  0.00     0.003 A 
ATOM      5  C3  PXY d   1       0.522  -1.048  -1.250  0.00  0.00     0.003 A 
ATOM      6  C4  PXY d   1       1.162   0.095  -1.648  0.00  0.00    -0.082 A 
ATOM      7  C5  PXY d   1       1.020   1.224  -0.922  0.00  0.00     0.003 A 
ATOM      8  C6  PXY d   1       0.221   1.201   0.218  0.00  0.00     0.003 A 
ENDROOT
TORSDOF 0
ENDMDL
