MODEL 1
REMARK minimizedAffinity -4.34994125
REMARK minimizedRMSD -1
REMARK  0 active torsions:
REMARK  status: ('A' for Active; 'I' for Inactive)
ROOT
ATOM      1  C4' PXY d   1       1.520   2.917   0.030  0.00  0.00     0.077 C 
ATOM      2  C1' PXY d   1       0.454  -2.558  -1.489  0.00  0.00     0.077 C 
ATOM      3  C1  PXY d   1       0.722  -1.121  -1.085  0.00  0.00    -0.082 A 
ATOM      4  C2  PXY d   1       1.563  -0.388  -1.796  0.00  0.00     0.003 A 
ATOM      5  C3  PXY d   1       1.841   0.903  -1.425  0.00  0.00     0.003 A 
ATOM      6  C4  PXY d   1       1.212   1.465  -0.347  0.00  0.00    -0.082 A 
ATOM      7  C5  PXY d   1       0.345   0.726   0.377  0.00  0.00     0.003 A 
ATOM      8  C6  PXY d   1       0.107  -0.595   0.009  0.00  0.00     0.003 A 
ENDROOT
TORSDOF 0
ENDMDL
