MODEL 1
REMARK minimizedAffinity -4.39749479
REMARK minimizedRMSD -1
REMARK  0 active torsions:
REMARK  status: ('A' for Active; 'I' for Inactive)
ROOT
ATOM      1  C4' PXY d   1       2.465  -1.315  -2.958  0.00  0.00     0.077 C 
ATOM      2  C1' PXY d   1      -1.018   0.195   1.401  0.00  0.00     0.077 C 
ATOM      3  C1  PXY d   1      -0.103  -0.213   0.263  0.00  0.00    -0.082 A 
ATOM      4  C2  PXY d   1       0.525   0.718  -0.437  0.00  0.00     0.003 A 
ATOM      5  C3  PXY d   1       1.331   0.368  -1.489  0.00  0.00     0.003 A 
ATOM      6  C4  PXY d   1       1.539  -0.950  -1.795  0.00  0.00    -0.082 A 
ATOM      7  C5  PXY d   1       0.910  -1.906  -1.078  0.00  0.00     0.003 A 
ATOM      8  C6  PXY d   1       0.064  -1.529  -0.040  0.00  0.00     0.003 A 
ENDROOT
TORSDOF 0
ENDMDL
