MODEL 1
REMARK minimizedAffinity -3.49058557
REMARK minimizedRMSD -1
REMARK  0 active torsions:
REMARK  status: ('A' for Active; 'I' for Inactive)
ROOT
ATOM      1  C4' PXY d   1      -0.715   0.019   2.134  0.00  0.00     0.077 C 
ATOM      2  C1' PXY d   1       1.149  -0.530  -3.310  0.00  0.00     0.077 C 
ATOM      3  C1  PXY d   1       0.651  -0.394  -1.885  0.00  0.00    -0.082 A 
ATOM      4  C2  PXY d   1       0.948   0.690  -1.188  0.00  0.00     0.003 A 
ATOM      5  C3  PXY d   1       0.532   0.815   0.112  0.00  0.00     0.003 A 
ATOM      6  C4  PXY d   1      -0.241  -0.157   0.689  0.00  0.00    -0.082 A 
ATOM      7  C5  PXY d   1      -0.558  -1.262  -0.019  0.00  0.00     0.003 A 
ATOM      8  C6  PXY d   1      -0.091  -1.388  -1.324  0.00  0.00     0.003 A 
ENDROOT
TORSDOF 0
ENDMDL
