MODEL 1
REMARK minimizedAffinity -5.33884144
REMARK minimizedRMSD -1
REMARK  0 active torsions:
REMARK  status: ('A' for Active; 'I' for Inactive)
ROOT
ATOM      1  C4' PXY d   1       1.964  -0.094  -2.854  0.00  0.00     0.077 C 
ATOM      2  C1' PXY d   1      -1.420   0.001   1.831  0.00  0.00     0.077 C 
ATOM      3  C1  PXY d   1      -0.531  -0.037   0.604  0.00  0.00    -0.082 A 
ATOM      4  C2  PXY d   1       0.120   1.054   0.234  0.00  0.00     0.003 A 
ATOM      5  C3  PXY d   1       0.903   1.046  -0.891  0.00  0.00     0.003 A 
ATOM      6  C4  PXY d   1       1.063  -0.104  -1.616  0.00  0.00    -0.082 A 
ATOM      7  C5  PXY d   1       0.410  -1.224  -1.239  0.00  0.00     0.003 A 
ATOM      8  C6  PXY d   1      -0.413  -1.184  -0.117  0.00  0.00     0.003 A 
ENDROOT
TORSDOF 0
ENDMDL
