MODEL 1
REMARK minimizedAffinity -3.42978907
REMARK minimizedRMSD -1
REMARK  0 active torsions:
REMARK  status: ('A' for Active; 'I' for Inactive)
ROOT
ATOM      1  C4' PXY d   1      -1.526  -0.197   1.608  0.00  0.00     0.077 C 
ATOM      2  C1' PXY d   1       2.732   0.146  -2.287  0.00  0.00     0.077 C 
ATOM      3  C1  PXY d   1       1.611   0.045  -1.271  0.00  0.00    -0.082 A 
ATOM      4  C2  PXY d   1       1.204   1.132  -0.636  0.00  0.00     0.003 A 
ATOM      5  C3  PXY d   1       0.214   1.054   0.309  0.00  0.00     0.003 A 
ATOM      6  C4  PXY d   1      -0.403  -0.140   0.568  0.00  0.00    -0.082 A 
ATOM      7  C5  PXY d   1      -0.001  -1.252  -0.084  0.00  0.00     0.003 A 
ATOM      8  C6  PXY d   1       1.034  -1.159  -1.009  0.00  0.00     0.003 A 
ENDROOT
TORSDOF 0
ENDMDL
