MODEL 1
REMARK minimizedAffinity -0.917910039
REMARK minimizedRMSD -1
REMARK  0 active torsions:
REMARK  status: ('A' for Active; 'I' for Inactive)
ROOT
ATOM      1  C4' PXY d   1      -4.060   1.794   2.037  0.00  0.00     0.077 C 
ATOM      2  C1' PXY d   1      -0.123  -2.105   0.390  0.00  0.00     0.077 C 
ATOM      3  C1  PXY d   1      -1.164  -1.089   0.815  0.00  0.00    -0.082 A 
ATOM      4  C2  PXY d   1      -0.781   0.113   1.213  0.00  0.00     0.003 A 
ATOM      5  C3  PXY d   1      -1.707   1.034   1.631  0.00  0.00     0.003 A 
ATOM      6  C4  PXY d   1      -3.044   0.739   1.590  0.00  0.00    -0.082 A 
ATOM      7  C5  PXY d   1      -3.444  -0.482   1.175  0.00  0.00     0.003 A 
ATOM      8  C6  PXY d   1      -2.485  -1.416   0.794  0.00  0.00     0.003 A 
ENDROOT
TORSDOF 0
ENDMDL
