MODEL 1
REMARK minimizedAffinity -1.48744357
REMARK minimizedRMSD -1
REMARK  0 active torsions:
REMARK  status: ('A' for Active; 'I' for Inactive)
ROOT
ATOM      1  C4' PXY d   1       3.053  -2.638  -1.762  0.00  0.00     0.077 C 
ATOM      2  C1' PXY d   1       0.655   2.406  -0.271  0.00  0.00     0.077 C 
ATOM      3  C1  PXY d   1       1.277   1.077  -0.652  0.00  0.00    -0.082 A 
ATOM      4  C2  PXY d   1       2.420   1.057  -1.320  0.00  0.00     0.003 A 
ATOM      5  C3  PXY d   1       2.980  -0.135  -1.701  0.00  0.00     0.003 A 
ATOM      6  C4  PXY d   1       2.393  -1.320  -1.348  0.00  0.00    -0.082 A 
ATOM      7  C5  PXY d   1       1.233  -1.309  -0.658  0.00  0.00     0.003 A 
ATOM      8  C6  PXY d   1       0.659  -0.087  -0.317  0.00  0.00     0.003 A 
ENDROOT
TORSDOF 0
ENDMDL
