MODEL 1
REMARK minimizedAffinity -1.48007786
REMARK minimizedRMSD -1
REMARK  0 active torsions:
REMARK  status: ('A' for Active; 'I' for Inactive)
ROOT
ATOM      1  C4' PXY d   1       1.108  -3.603  -1.705  0.00  0.00     0.077 C 
ATOM      2  C1' PXY d   1       1.016   2.086  -0.687  0.00  0.00     0.077 C 
ATOM      3  C1  PXY d   1       1.045   0.596  -0.966  0.00  0.00    -0.082 A 
ATOM      4  C2  PXY d   1       0.266  -0.215  -0.269  0.00  0.00     0.003 A 
ATOM      5  C3  PXY d   1       0.302  -1.568  -0.486  0.00  0.00     0.003 A 
ATOM      6  C4  PXY d   1       1.106  -2.091  -1.464  0.00  0.00    -0.082 A 
ATOM      7  C5  PXY d   1       1.895  -1.269  -2.187  0.00  0.00     0.003 A 
ATOM      8  C6  PXY d   1       1.874   0.097  -1.922  0.00  0.00     0.003 A 
ENDROOT
TORSDOF 0
ENDMDL
