MODEL 1
REMARK minimizedAffinity -3.75539637
REMARK minimizedRMSD -1
REMARK  0 active torsions:
REMARK  status: ('A' for Active; 'I' for Inactive)
ROOT
ATOM      1  C4' PXY d   1       1.217  -3.526  -1.272  0.00  0.00     0.077 C 
ATOM      2  C1' PXY d   1       1.103   2.239  -1.685  0.00  0.00     0.077 C 
ATOM      3  C1  PXY d   1       1.130   0.728  -1.564  0.00  0.00    -0.082 A 
ATOM      4  C2  PXY d   1       1.843   0.016  -2.421  0.00  0.00     0.003 A 
ATOM      5  C3  PXY d   1       1.853  -1.354  -2.346  0.00  0.00     0.003 A 
ATOM      6  C4  PXY d   1       1.168  -1.998  -1.351  0.00  0.00    -0.082 A 
ATOM      7  C5  PXY d   1       0.446  -1.278  -0.466  0.00  0.00     0.003 A 
ATOM      8  C6  PXY d   1       0.416   0.109  -0.584  0.00  0.00     0.003 A 
ENDROOT
TORSDOF 0
ENDMDL
