MODEL 1
REMARK minimizedAffinity -4.03868246
REMARK minimizedRMSD -1
REMARK  0 active torsions:
REMARK  status: ('A' for Active; 'I' for Inactive)
ROOT
ATOM      1  C4' PXY d   1       1.809   0.372  -3.299  0.00  0.00     0.077 C 
ATOM      2  C1' PXY d   1      -0.886  -0.962   1.638  0.00  0.00     0.077 C 
ATOM      3  C1  PXY d   1      -0.181  -0.600   0.345  0.00  0.00    -0.082 A 
ATOM      4  C2  PXY d   1      -0.095  -1.494  -0.626  0.00  0.00     0.003 A 
ATOM      5  C3  PXY d   1       0.567  -1.194  -1.789  0.00  0.00     0.003 A 
ATOM      6  C4  PXY d   1       1.099   0.053  -1.981  0.00  0.00    -0.082 A 
ATOM      7  C5  PXY d   1       1.006   0.974  -0.999  0.00  0.00     0.003 A 
ATOM      8  C6  PXY d   1       0.366   0.636   0.190  0.00  0.00     0.003 A 
ENDROOT
TORSDOF 0
ENDMDL
