MODEL 1
REMARK minimizedAffinity 8.54374886
REMARK minimizedRMSD -1
REMARK  2 active torsions:
REMARK  status: ('A' for Active; 'I' for Inactive)
REMARK    1  A    between atoms: C1_2  and  C2_3 
REMARK    2  A    between atoms: C2_3  and  C3_4 
ROOT
ATOM      1  C3  UNL d   1      -4.584   4.623  -3.505  0.00  0.00    -0.075 A 
ATOM      2  C4  UNL d   1      -4.675   5.866  -4.147  0.00  0.00     0.002 A 
ATOM      3  C5  UNL d   1      -5.382   5.997  -5.342  0.00  0.00     0.002 A 
ATOM      4  C6  UNL d   1      -5.998   4.886  -5.915  0.00  0.00    -0.004 A 
ATOM      5  C7  UNL d   1      -5.900   3.642  -5.295  0.00  0.00     0.002 A 
ATOM      6  C8  UNL d   1      -5.197   3.510  -4.097  0.00  0.00     0.002 A 
ENDROOT
BRANCH   1   7
ATOM      7  C2  UNL d   1      -3.844   4.481  -2.196  0.00  0.00     0.056 C 
BRANCH   7   8
ATOM      8  C1  UNL d   1      -2.630   3.549  -2.264  0.00  0.00     0.007 C 
ATOM      9  C   UNL d   1      -2.970   2.096  -1.957  0.00  0.00     0.009 C 
ENDBRANCH   7   8
ENDBRANCH   1   7
TORSDOF 2
ENDMDL
