MODEL 1
REMARK minimizedAffinity 9.32254791
REMARK minimizedRMSD -1
REMARK  2 active torsions:
REMARK  status: ('A' for Active; 'I' for Inactive)
REMARK    1  A    between atoms: C1_2  and  C2_3 
REMARK    2  A    between atoms: C2_3  and  C3_4 
ROOT
ATOM      1  C3  UNL d   1      -1.293   2.289  -0.183  0.00  0.00    -0.075 A 
ATOM      2  C4  UNL d   1      -0.053   2.233   0.469  0.00  0.00     0.002 A 
ATOM      3  C5  UNL d   1       0.040   2.491   1.837  0.00  0.00     0.002 A 
ATOM      4  C6  UNL d   1      -1.101   2.819   2.566  0.00  0.00    -0.004 A 
ATOM      5  C7  UNL d   1      -2.335   2.894   1.926  0.00  0.00     0.002 A 
ATOM      6  C8  UNL d   1      -2.432   2.631   0.558  0.00  0.00     0.002 A 
ENDROOT
BRANCH   1   7
ATOM      7  C2  UNL d   1      -1.406   1.982  -1.657  0.00  0.00     0.056 C 
BRANCH   7   8
ATOM      8  C1  UNL d   1      -0.073   1.626  -2.324  0.00  0.00     0.007 C 
ATOM      9  C   UNL d   1       0.547   0.345  -1.780  0.00  0.00     0.009 C 
ENDBRANCH   7   8
ENDBRANCH   1   7
TORSDOF 2
ENDMDL
