MODEL 1
REMARK minimizedAffinity 2.95603228
REMARK minimizedRMSD -1
REMARK  2 active torsions:
REMARK  status: ('A' for Active; 'I' for Inactive)
REMARK    1  A    between atoms: C1_2  and  C2_3 
REMARK    2  A    between atoms: C2_3  and  C3_4 
ROOT
ATOM      1  C3  UNL d   1       1.158   0.889   1.083  0.00  0.00    -0.075 A 
ATOM      2  C4  UNL d   1       0.243   1.913   0.799  0.00  0.00     0.002 A 
ATOM      3  C5  UNL d   1      -0.153   2.165  -0.515  0.00  0.00     0.002 A 
ATOM      4  C6  UNL d   1       0.369   1.406  -1.560  0.00  0.00    -0.004 A 
ATOM      5  C7  UNL d   1       1.291   0.398  -1.291  0.00  0.00     0.002 A 
ATOM      6  C8  UNL d   1       1.686   0.140   0.023  0.00  0.00     0.002 A 
ENDROOT
BRANCH   1   7
ATOM      7  C2  UNL d   1       1.568   0.591   2.506  0.00  0.00     0.056 C 
BRANCH   7   8
ATOM      8  C1  UNL d   1       0.425   0.082   3.390  0.00  0.00     0.007 C 
ATOM      9  C   UNL d   1       0.861  -0.995   4.375  0.00  0.00     0.009 C 
ENDBRANCH   7   8
ENDBRANCH   1   7
TORSDOF 2
ENDMDL
