MODEL 1
REMARK minimizedAffinity 2.76605034
REMARK minimizedRMSD -1
REMARK  2 active torsions:
REMARK  status: ('A' for Active; 'I' for Inactive)
REMARK    1  A    between atoms: C1_2  and  C2_3 
REMARK    2  A    between atoms: C2_3  and  C3_4 
ROOT
ATOM      1  C3  UNL d   1       1.213  -1.260  -1.643  0.00  0.00    -0.075 A 
ATOM      2  C4  UNL d   1      -0.050  -1.841  -1.828  0.00  0.00     0.002 A 
ATOM      3  C5  UNL d   1      -1.160  -1.047  -2.117  0.00  0.00     0.002 A 
ATOM      4  C6  UNL d   1      -1.024   0.336  -2.215  0.00  0.00    -0.004 A 
ATOM      5  C7  UNL d   1       0.222   0.926  -2.017  0.00  0.00     0.002 A 
ATOM      6  C8  UNL d   1       1.336   0.133  -1.732  0.00  0.00     0.002 A 
ENDROOT
BRANCH   1   7
ATOM      7  C2  UNL d   1       2.423  -2.116  -1.358  0.00  0.00     0.056 C 
BRANCH   7   8
ATOM      8  C1  UNL d   1       2.165  -3.622  -1.483  0.00  0.00     0.007 C 
ATOM      9  C   UNL d   1       2.454  -4.167  -2.875  0.00  0.00     0.009 C 
ENDBRANCH   7   8
ENDBRANCH   1   7
TORSDOF 2
ENDMDL
