MODEL 1
REMARK minimizedAffinity 12.8801785
REMARK minimizedRMSD -1
REMARK  2 active torsions:
REMARK  status: ('A' for Active; 'I' for Inactive)
REMARK    1  A    between atoms: C1_2  and  C2_3 
REMARK    2  A    between atoms: C2_3  and  C3_4 
ROOT
ATOM      1  C3  UNL d   1       0.306   1.832   0.455  0.00  0.00    -0.075 A 
ATOM      2  C4  UNL d   1      -0.675   2.474   1.225  0.00  0.00     0.002 A 
ATOM      3  C5  UNL d   1      -1.959   2.671   0.716  0.00  0.00     0.002 A 
ATOM      4  C6  UNL d   1      -2.275   2.239  -0.571  0.00  0.00    -0.004 A 
ATOM      5  C7  UNL d   1      -1.303   1.615  -1.351  0.00  0.00     0.002 A 
ATOM      6  C8  UNL d   1      -0.019   1.413  -0.842  0.00  0.00     0.002 A 
ENDROOT
BRANCH   1   7
ATOM      7  C2  UNL d   1       1.689   1.589   1.011  0.00  0.00     0.056 C 
BRANCH   7   8
ATOM      8  C1  UNL d   1       1.846   1.981   2.484  0.00  0.00     0.007 C 
ATOM      9  C   UNL d   1       2.847   3.109   2.702  0.00  0.00     0.009 C 
ENDBRANCH   7   8
ENDBRANCH   1   7
TORSDOF 2
ENDMDL
