MODEL 1
REMARK minimizedAffinity 5.32772684
REMARK minimizedRMSD -1
REMARK  2 active torsions:
REMARK  status: ('A' for Active; 'I' for Inactive)
REMARK    1  A    between atoms: C1_2  and  C2_3 
REMARK    2  A    between atoms: C2_3  and  C3_4 
ROOT
ATOM      1  C3  UNL d   1      -1.141   2.503  -0.257  0.00  0.00    -0.075 A 
ATOM      2  C4  UNL d   1       0.189   2.369   0.166  0.00  0.00     0.002 A 
ATOM      3  C5  UNL d   1       0.503   2.361   1.526  0.00  0.00     0.002 A 
ATOM      4  C6  UNL d   1      -0.505   2.496   2.477  0.00  0.00    -0.004 A 
ATOM      5  C7  UNL d   1      -1.829   2.646   2.068  0.00  0.00     0.002 A 
ATOM      6  C8  UNL d   1      -2.146   2.651   0.709  0.00  0.00     0.002 A 
ENDROOT
BRANCH   1   7
ATOM      7  C2  UNL d   1      -1.491   2.484  -1.725  0.00  0.00     0.056 C 
BRANCH   7   8
ATOM      8  C1  UNL d   1      -0.304   2.178  -2.645  0.00  0.00     0.007 C 
ATOM      9  C   UNL d   1       0.112   0.714  -2.623  0.00  0.00     0.009 C 
ENDBRANCH   7   8
ENDBRANCH   1   7
TORSDOF 2
ENDMDL
