MODEL 1
REMARK minimizedAffinity -3.83711052
REMARK minimizedRMSD -1
REMARK  2 active torsions:
REMARK  status: ('A' for Active; 'I' for Inactive)
REMARK    1  A    between atoms: C1_2  and  C2_3 
REMARK    2  A    between atoms: C2_3  and  C3_4 
ROOT
ATOM      1  C3  UNL d   1       0.229   1.158   0.200  0.00  0.00    -0.075 A 
ATOM      2  C4  UNL d   1       0.392   1.687   1.488  0.00  0.00     0.002 A 
ATOM      3  C5  UNL d   1       0.146   3.038   1.736  0.00  0.00     0.002 A 
ATOM      4  C6  UNL d   1      -0.256   3.877   0.699  0.00  0.00    -0.004 A 
ATOM      5  C7  UNL d   1      -0.406   3.366  -0.588  0.00  0.00     0.002 A 
ATOM      6  C8  UNL d   1      -0.164   2.014  -0.838  0.00  0.00     0.002 A 
ENDROOT
BRANCH   1   7
ATOM      7  C2  UNL d   1       0.466  -0.309  -0.069  0.00  0.00     0.056 C 
BRANCH   7   8
ATOM      8  C1  UNL d   1      -0.811  -1.104  -0.358  0.00  0.00     0.007 C 
ATOM      9  C   UNL d   1      -0.540  -2.533  -0.811  0.00  0.00     0.009 C 
ENDBRANCH   7   8
ENDBRANCH   1   7
TORSDOF 2
ENDMDL
