MODEL 1
REMARK minimizedAffinity 8.36489391
REMARK minimizedRMSD -1
REMARK  0 active torsions:
REMARK  status: ('A' for Active; 'I' for Inactive)
ROOT
ATOM      1  C4' PXY d   1       3.457  -2.281  -4.296  0.00  0.00     0.077 C 
ATOM      2  C1' PXY d   1       5.289   1.443  -0.273  0.00  0.00     0.077 C 
ATOM      3  C1  PXY d   1       4.817   0.472  -1.336  0.00  0.00    -0.082 A 
ATOM      4  C2  PXY d   1       3.618  -0.078  -1.234  0.00  0.00     0.003 A 
ATOM      5  C3  PXY d   1       3.187  -0.983  -2.170  0.00  0.00     0.003 A 
ATOM      6  C4  PXY d   1       3.971  -1.288  -3.251  0.00  0.00    -0.082 A 
ATOM      7  C5  PXY d   1       5.191  -0.722  -3.368  0.00  0.00     0.003 A 
ATOM      8  C6  PXY d   1       5.626   0.162  -2.385  0.00  0.00     0.003 A 
ENDROOT
TORSDOF 0
ENDMDL
