MODEL 1
REMARK minimizedAffinity 3.28990412
REMARK minimizedRMSD -1
REMARK  0 active torsions:
REMARK  status: ('A' for Active; 'I' for Inactive)
ROOT
ATOM      1  C4' PXY d   1      -6.000   2.411  -1.477  0.00  0.00     0.077 C 
ATOM      2  C1' PXY d   1      -0.732   1.438   0.694  0.00  0.00     0.077 C 
ATOM      3  C1  PXY d   1      -2.113   1.705   0.130  0.00  0.00    -0.082 A 
ATOM      4  C2  PXY d   1      -2.924   0.691  -0.122  0.00  0.00     0.003 A 
ATOM      5  C3  PXY d   1      -4.165   0.912  -0.663  0.00  0.00     0.003 A 
ATOM      6  C4  PXY d   1      -4.600   2.189  -0.898  0.00  0.00    -0.082 A 
ATOM      7  C5  PXY d   1      -3.782   3.230  -0.634  0.00  0.00     0.003 A 
ATOM      8  C6  PXY d   1      -2.511   2.981  -0.124  0.00  0.00     0.003 A 
ENDROOT
TORSDOF 0
ENDMDL
