MODEL 1
REMARK minimizedAffinity 9.59066772
REMARK minimizedRMSD -1
REMARK  0 active torsions:
REMARK  status: ('A' for Active; 'I' for Inactive)
ROOT
ATOM      1  C4' PXY d   1       2.394  -2.595  -1.367  0.00  0.00     0.077 C 
ATOM      2  C1' PXY d   1       4.911   2.411   0.052  0.00  0.00     0.077 C 
ATOM      3  C1  PXY d   1       4.255   1.100  -0.332  0.00  0.00    -0.082 A 
ATOM      4  C2  PXY d   1       3.222   0.656   0.364  0.00  0.00     0.003 A 
ATOM      5  C3  PXY d   1       2.637  -0.544   0.050  0.00  0.00     0.003 A 
ATOM      6  C4  PXY d   1       3.081  -1.271  -1.021  0.00  0.00    -0.082 A 
ATOM      7  C5  PXY d   1       4.128  -0.820  -1.743  0.00  0.00     0.003 A 
ATOM      8  C6  PXY d   1       4.734   0.380  -1.383  0.00  0.00     0.003 A 
ENDROOT
TORSDOF 0
ENDMDL
