MODEL 1
REMARK minimizedAffinity 14.6360312
REMARK minimizedRMSD -1
REMARK  0 active torsions:
REMARK  status: ('A' for Active; 'I' for Inactive)
ROOT
ATOM      1  C4' PXY d   1       2.710  -0.154  -0.597  0.00  0.00     0.077 C 
ATOM      2  C1' PXY d   1      -2.159   2.241   1.397  0.00  0.00     0.077 C 
ATOM      3  C1  PXY d   1      -0.876   1.615   0.886  0.00  0.00    -0.082 A 
ATOM      4  C2  PXY d   1      -0.658   1.543  -0.417  0.00  0.00     0.003 A 
ATOM      5  C3  PXY d   1       0.482   0.952  -0.898  0.00  0.00     0.003 A 
ATOM      6  C4  PXY d   1       1.433   0.477  -0.035  0.00  0.00    -0.082 A 
ATOM      7  C5  PXY d   1       1.223   0.557   1.296  0.00  0.00     0.003 A 
ATOM      8  C6  PXY d   1       0.040   1.123   1.763  0.00  0.00     0.003 A 
ENDROOT
TORSDOF 0
ENDMDL
