MODEL 1
REMARK minimizedAffinity 5.31900835
REMARK minimizedRMSD -1
REMARK  0 active torsions:
REMARK  status: ('A' for Active; 'I' for Inactive)
ROOT
ATOM      1  C4' PXY d   1       3.867   0.199   0.016  0.00  0.00     0.077 C 
ATOM      2  C1' PXY d   1       0.843  -4.342  -1.895  0.00  0.00     0.077 C 
ATOM      3  C1  PXY d   1       1.629  -3.151  -1.383  0.00  0.00    -0.082 A 
ATOM      4  C2  PXY d   1       2.275  -2.377  -2.239  0.00  0.00     0.003 A 
ATOM      5  C3  PXY d   1       3.017  -1.314  -1.791  0.00  0.00     0.003 A 
ATOM      6  C4  PXY d   1       3.053  -1.009  -0.457  0.00  0.00    -0.082 A 
ATOM      7  C5  PXY d   1       2.388  -1.788   0.423  0.00  0.00     0.003 A 
ATOM      8  C6  PXY d   1       1.674  -2.886  -0.049  0.00  0.00     0.003 A 
ENDROOT
TORSDOF 0
ENDMDL
