MODEL 1
REMARK minimizedAffinity 4.30398226
REMARK minimizedRMSD -1
REMARK  0 active torsions:
REMARK  status: ('A' for Active; 'I' for Inactive)
ROOT
ATOM      1  C4' PXY d   1      -1.904  -6.000  -2.247  0.00  0.00     0.077 C 
ATOM      2  C1' PXY d   1       2.206  -2.655   0.061  0.00  0.00     0.077 C 
ATOM      3  C1  PXY d   1       1.130  -3.541  -0.535  0.00  0.00    -0.082 A 
ATOM      4  C2  PXY d   1       0.805  -3.407  -1.810  0.00  0.00     0.003 A 
ATOM      5  C3  PXY d   1      -0.188  -4.178  -2.358  0.00  0.00     0.003 A 
ATOM      6  C4  PXY d   1      -0.818  -5.133  -1.605  0.00  0.00    -0.082 A 
ATOM      7  C5  PXY d   1      -0.484  -5.284  -0.306  0.00  0.00     0.003 A 
ATOM      8  C6  PXY d   1       0.498  -4.463   0.241  0.00  0.00     0.003 A 
ENDROOT
TORSDOF 0
ENDMDL
