MODEL 1
REMARK minimizedAffinity 18.2336483
REMARK minimizedRMSD -1
REMARK  0 active torsions:
REMARK  status: ('A' for Active; 'I' for Inactive)
ROOT
ATOM      1  C4' PXY d   1       2.019  -2.061  -2.381  0.00  0.00     0.077 C 
ATOM      2  C1' PXY d   1       5.338   1.693   0.501  0.00  0.00     0.077 C 
ATOM      3  C1  PXY d   1       4.472   0.714  -0.266  0.00  0.00    -0.082 A 
ATOM      4  C2  PXY d   1       3.397   0.201   0.310  0.00  0.00     0.003 A 
ATOM      5  C3  PXY d   1       2.620  -0.711  -0.358  0.00  0.00     0.003 A 
ATOM      6  C4  PXY d   1       2.917  -1.061  -1.648  0.00  0.00    -0.082 A 
ATOM      7  C5  PXY d   1       4.006  -0.534  -2.247  0.00  0.00     0.003 A 
ATOM      8  C6  PXY d   1       4.805   0.359  -1.537  0.00  0.00     0.003 A 
ENDROOT
TORSDOF 0
ENDMDL
