MODEL 1
REMARK minimizedAffinity 13.7736015
REMARK minimizedRMSD -1
REMARK  0 active torsions:
REMARK  status: ('A' for Active; 'I' for Inactive)
ROOT
ATOM      1  C4' PXY d   1       5.999   0.676  -1.642  0.00  0.00     0.077 C 
ATOM      2  C1' PXY d   1       3.205  -3.826  -3.952  0.00  0.00     0.077 C 
ATOM      3  C1  PXY d   1       3.948  -2.653  -3.344  0.00  0.00    -0.082 A 
ATOM      4  C2  PXY d   1       3.268  -1.668  -2.781  0.00  0.00     0.003 A 
ATOM      5  C3  PXY d   1       3.923  -0.584  -2.256  0.00  0.00     0.003 A 
ATOM      6  C4  PXY d   1       5.291  -0.533  -2.259  0.00  0.00    -0.082 A 
ATOM      7  C5  PXY d   1       5.993  -1.539  -2.822  0.00  0.00     0.003 A 
ATOM      8  C6  PXY d   1       5.308  -2.611  -3.387  0.00  0.00     0.003 A 
ENDROOT
TORSDOF 0
ENDMDL
