MODEL 1
REMARK minimizedAffinity 12.4438477
REMARK minimizedRMSD -1
REMARK  1 active torsions:
REMARK  status: ('A' for Active; 'I' for Inactive)
REMARK    1  A    between atoms: C1_2  and  C2_3 
ROOT
ATOM      1  C2  UNL d   1      -1.119  -5.957  -3.115  0.00  0.00    -0.076 A 
ATOM      2  C3  UNL d   1      -2.315  -5.972  -3.853  0.00  0.00     0.004 A 
ATOM      3  C4  UNL d   1      -2.299  -5.914  -5.246  0.00  0.00    -0.003 A 
ATOM      4  C5  UNL d   1      -1.087  -5.842  -5.923  0.00  0.00     0.000 A 
ATOM      5  C6  UNL d   1       0.110  -5.844  -5.208  0.00  0.00     0.000 A 
ATOM      6  C7  UNL d   1       0.113  -5.918  -3.804  0.00  0.00    -0.073 A 
ATOM      7  C8  UNL d   1       1.433  -5.911  -3.083  0.00  0.00     0.078 C 
ENDROOT
BRANCH   1   8
ATOM      8  C1  UNL d   1      -1.198  -5.994  -1.606  0.00  0.00     0.053 C 
ATOM      9  C   UNL d   1      -1.204  -4.604  -0.988  0.00  0.00     0.018 C 
ENDBRANCH   1   8
TORSDOF 1
ENDMDL
