MODEL 1
REMARK minimizedAffinity 2.11871672
REMARK minimizedRMSD -1
REMARK  1 active torsions:
REMARK  status: ('A' for Active; 'I' for Inactive)
REMARK    1  A    between atoms: C1_2  and  C2_3 
ROOT
ATOM      1  C2  UNL d   1      -1.640   2.592  -3.379  0.00  0.00    -0.076 A 
ATOM      2  C3  UNL d   1      -2.045   3.559  -4.316  0.00  0.00     0.004 A 
ATOM      3  C4  UNL d   1      -1.127   4.453  -4.866  0.00  0.00    -0.003 A 
ATOM      4  C5  UNL d   1       0.210   4.394  -4.488  0.00  0.00     0.000 A 
ATOM      5  C6  UNL d   1       0.631   3.430  -3.573  0.00  0.00     0.000 A 
ATOM      6  C7  UNL d   1      -0.278   2.511  -3.022  0.00  0.00    -0.073 A 
ATOM      7  C8  UNL d   1       0.231   1.496  -2.035  0.00  0.00     0.078 C 
ENDROOT
BRANCH   1   8
ATOM      8  C1  UNL d   1      -2.685   1.667  -2.796  0.00  0.00     0.053 C 
ATOM      9  C   UNL d   1      -3.884   1.490  -3.715  0.00  0.00     0.018 C 
ENDBRANCH   1   8
TORSDOF 1
ENDMDL
