MODEL 1
REMARK minimizedAffinity -2.76190448
REMARK minimizedRMSD -1
REMARK  1 active torsions:
REMARK  status: ('A' for Active; 'I' for Inactive)
REMARK    1  A    between atoms: C1_2  and  C2_3 
ROOT
ATOM      1  C2  UNL d   1      -1.235  -5.075  -4.107  0.00  0.00    -0.076 A 
ATOM      2  C3  UNL d   1      -2.598  -4.782  -4.292  0.00  0.00     0.004 A 
ATOM      3  C4  UNL d   1      -3.539  -5.100  -3.315  0.00  0.00    -0.003 A 
ATOM      4  C5  UNL d   1      -3.133  -5.716  -2.136  0.00  0.00     0.000 A 
ATOM      5  C6  UNL d   1      -1.784  -5.997  -1.928  0.00  0.00     0.000 A 
ATOM      6  C7  UNL d   1      -0.819  -5.668  -2.896  0.00  0.00    -0.073 A 
ATOM      7  C8  UNL d   1       0.622  -6.000  -2.621  0.00  0.00     0.078 C 
ENDROOT
BRANCH   1   8
ATOM      8  C1  UNL d   1      -0.264  -4.731  -5.213  0.00  0.00     0.053 C 
ATOM      9  C   UNL d   1       0.186  -5.956  -5.995  0.00  0.00     0.018 C 
ENDBRANCH   1   8
TORSDOF 1
ENDMDL
