MODEL 1
REMARK minimizedAffinity 6.04049158
REMARK minimizedRMSD -1
REMARK  1 active torsions:
REMARK  status: ('A' for Active; 'I' for Inactive)
REMARK    1  A    between atoms: C1_2  and  C2_3 
ROOT
ATOM      1  C2  UNL d   1       0.286  -2.465   2.149  0.00  0.00    -0.076 A 
ATOM      2  C3  UNL d   1       1.252  -1.566   2.635  0.00  0.00     0.004 A 
ATOM      3  C4  UNL d   1       1.552  -0.393   1.944  0.00  0.00    -0.003 A 
ATOM      4  C5  UNL d   1       0.891  -0.099   0.757  0.00  0.00     0.000 A 
ATOM      5  C6  UNL d   1      -0.083  -0.971   0.269  0.00  0.00     0.000 A 
ATOM      6  C7  UNL d   1      -0.409  -2.150   0.961  0.00  0.00    -0.073 A 
ATOM      7  C8  UNL d   1      -1.462  -3.056   0.387  0.00  0.00     0.078 C 
ENDROOT
BRANCH   1   8
ATOM      8  C1  UNL d   1       0.022  -3.734   2.926  0.00  0.00     0.053 C 
ATOM      9  C   UNL d   1       1.115  -4.774   2.733  0.00  0.00     0.018 C 
ENDBRANCH   1   8
TORSDOF 1
ENDMDL
