MODEL 1
REMARK minimizedAffinity 0.62847805
REMARK minimizedRMSD -1
REMARK  1 active torsions:
REMARK  status: ('A' for Active; 'I' for Inactive)
REMARK    1  A    between atoms: C1_2  and  C2_3 
ROOT
ATOM      1  C2  UNL d   1       0.581   1.927  -1.153  0.00  0.00    -0.076 A 
ATOM      2  C3  UNL d   1       0.293   1.424  -2.433  0.00  0.00     0.004 A 
ATOM      3  C4  UNL d   1      -0.421   2.184  -3.359  0.00  0.00    -0.003 A 
ATOM      4  C5  UNL d   1      -0.858   3.459  -3.019  0.00  0.00     0.000 A 
ATOM      5  C6  UNL d   1      -0.566   3.981  -1.759  0.00  0.00     0.000 A 
ATOM      6  C7  UNL d   1       0.166   3.235  -0.820  0.00  0.00    -0.073 A 
ATOM      7  C8  UNL d   1       0.447   3.845   0.526  0.00  0.00     0.078 C 
ENDROOT
BRANCH   1   8
ATOM      8  C1  UNL d   1       1.335   1.047  -0.181  0.00  0.00     0.053 C 
ATOM      9  C   UNL d   1       0.415   0.360   0.816  0.00  0.00     0.018 C 
ENDBRANCH   1   8
TORSDOF 1
ENDMDL
