MODEL 1
REMARK minimizedAffinity 4.91315413
REMARK minimizedRMSD -1
REMARK  1 active torsions:
REMARK  status: ('A' for Active; 'I' for Inactive)
REMARK    1  A    between atoms: C1_2  and  C2_3 
ROOT
ATOM      1  C2  UNL d   1      -1.533  -5.956  -3.155  0.00  0.00    -0.076 A 
ATOM      2  C3  UNL d   1      -2.263  -5.975  -4.356  0.00  0.00     0.004 A 
ATOM      3  C4  UNL d   1      -1.615  -5.996  -5.590  0.00  0.00    -0.003 A 
ATOM      4  C5  UNL d   1      -0.226  -5.999  -5.643  0.00  0.00     0.000 A 
ATOM      5  C6  UNL d   1       0.515  -5.999  -4.461  0.00  0.00     0.000 A 
ATOM      6  C7  UNL d   1      -0.123  -5.994  -3.209  0.00  0.00    -0.073 A 
ATOM      7  C8  UNL d   1       0.725  -5.988  -1.967  0.00  0.00     0.078 C 
ENDROOT
BRANCH   1   8
ATOM      8  C1  UNL d   1      -2.291  -5.906  -1.848  0.00  0.00     0.053 C 
ATOM      9  C   UNL d   1      -3.798  -5.928  -2.047  0.00  0.00     0.018 C 
ENDBRANCH   1   8
TORSDOF 1
ENDMDL
