MODEL 1
REMARK minimizedAffinity -2.00622344
REMARK minimizedRMSD -1
REMARK  1 active torsions:
REMARK  status: ('A' for Active; 'I' for Inactive)
REMARK    1  A    between atoms: C1_2  and  C2_3 
ROOT
ATOM      1  C2  UNL d   1      -0.696  -5.982  -4.751  0.00  0.00    -0.076 A 
ATOM      2  C3  UNL d   1      -1.992  -5.963  -5.297  0.00  0.00     0.004 A 
ATOM      3  C4  UNL d   1      -3.117  -5.972  -4.474  0.00  0.00    -0.003 A 
ATOM      4  C5  UNL d   1      -2.964  -5.999  -3.092  0.00  0.00     0.000 A 
ATOM      5  C6  UNL d   1      -1.687  -6.000  -2.533  0.00  0.00     0.000 A 
ATOM      6  C7  UNL d   1      -0.542  -5.975  -3.348  0.00  0.00    -0.073 A 
ATOM      7  C8  UNL d   1       0.811  -5.983  -2.692  0.00  0.00     0.078 C 
ENDROOT
BRANCH   1   8
ATOM      8  C1  UNL d   1       0.486  -5.999  -5.693  0.00  0.00     0.053 C 
ATOM      9  C   UNL d   1       1.464  -4.866  -5.422  0.00  0.00     0.018 C 
ENDBRANCH   1   8
TORSDOF 1
ENDMDL
