MODEL 1
REMARK minimizedAffinity 3.36011171
REMARK minimizedRMSD -1
REMARK  1 active torsions:
REMARK  status: ('A' for Active; 'I' for Inactive)
REMARK    1  A    between atoms: C1_2  and  C2_3 
ROOT
ATOM      1  C2  UNL d   1      -0.422  -5.983  -3.949  0.00  0.00    -0.076 A 
ATOM      2  C3  UNL d   1      -1.468  -5.967  -4.888  0.00  0.00     0.004 A 
ATOM      3  C4  UNL d   1      -2.800  -5.976  -4.478  0.00  0.00    -0.003 A 
ATOM      4  C5  UNL d   1      -3.107  -6.000  -3.122  0.00  0.00     0.000 A 
ATOM      5  C6  UNL d   1      -2.082  -5.998  -2.177  0.00  0.00     0.000 A 
ATOM      6  C7  UNL d   1      -0.734  -5.972  -2.573  0.00  0.00    -0.073 A 
ATOM      7  C8  UNL d   1       0.331  -5.977  -1.511  0.00  0.00     0.078 C 
ENDROOT
BRANCH   1   8
ATOM      8  C1  UNL d   1       1.004  -6.000  -4.454  0.00  0.00     0.053 C 
ATOM      9  C   UNL d   1       1.085  -5.950  -5.972  0.00  0.00     0.018 C 
ENDBRANCH   1   8
TORSDOF 1
ENDMDL
