MODEL 1
REMARK minimizedAffinity 3.69734836
REMARK minimizedRMSD -1
REMARK  1 active torsions:
REMARK  status: ('A' for Active; 'I' for Inactive)
REMARK    1  A    between atoms: C1_2  and  C2_3 
ROOT
ATOM      1  C2  UNL d   1      -1.496   2.513  -3.206  0.00  0.00    -0.076 A 
ATOM      2  C3  UNL d   1      -1.807   3.604  -4.036  0.00  0.00     0.004 A 
ATOM      3  C4  UNL d   1      -0.810   4.463  -4.496  0.00  0.00    -0.003 A 
ATOM      4  C5  UNL d   1       0.514   4.245  -4.132  0.00  0.00     0.000 A 
ATOM      5  C6  UNL d   1       0.843   3.158  -3.323  0.00  0.00     0.000 A 
ATOM      6  C7  UNL d   1      -0.148   2.273  -2.865  0.00  0.00    -0.073 A 
ATOM      7  C8  UNL d   1       0.263   1.120  -1.990  0.00  0.00     0.078 C 
ENDROOT
BRANCH   1   8
ATOM      8  C1  UNL d   1      -2.622   1.631  -2.716  0.00  0.00     0.053 C 
ATOM      9  C   UNL d   1      -3.828   1.658  -3.643  0.00  0.00     0.018 C 
ENDBRANCH   1   8
TORSDOF 1
ENDMDL
