MODEL 1
REMARK minimizedAffinity -2.4844811
REMARK minimizedRMSD -1
REMARK  1 active torsions:
REMARK  status: ('A' for Active; 'I' for Inactive)
REMARK    1  A    between atoms: C1_2  and  C2_3 
ROOT
ATOM      1  C2  UNL d   1      -1.719  -5.976  -3.310  0.00  0.00    -0.076 A 
ATOM      2  C3  UNL d   1      -3.088  -5.993  -3.629  0.00  0.00     0.004 A 
ATOM      3  C4  UNL d   1      -3.515  -5.998  -4.956  0.00  0.00    -0.003 A 
ATOM      4  C5  UNL d   1      -2.580  -5.987  -5.985  0.00  0.00     0.000 A 
ATOM      5  C6  UNL d   1      -1.218  -5.988  -5.687  0.00  0.00     0.000 A 
ATOM      6  C7  UNL d   1      -0.770  -6.000  -4.355  0.00  0.00    -0.073 A 
ATOM      7  C8  UNL d   1       0.711  -5.995  -4.090  0.00  0.00     0.078 C 
ENDROOT
BRANCH   1   8
ATOM      8  C1  UNL d   1      -1.315  -5.944  -1.853  0.00  0.00     0.053 C 
ATOM      9  C   UNL d   1      -2.069  -4.886  -1.063  0.00  0.00     0.018 C 
ENDBRANCH   1   8
TORSDOF 1
ENDMDL
