MODEL 1
REMARK minimizedAffinity -4.63934183
REMARK minimizedRMSD -1
REMARK  1 active torsions:
REMARK  status: ('A' for Active; 'I' for Inactive)
REMARK    1  A    between atoms: C3_4  and  O_7 
ROOT
ATOM      1  C   UNL d   1      -0.429  -1.061   0.352  0.00  0.00    -0.033 A 
ATOM      2  C1  UNL d   1       0.736  -0.426  -0.084  0.00  0.00     0.039 A 
ATOM      3  C2  UNL d   1       0.815   0.968  -0.084  0.00  0.00    -0.080 A 
ATOM      4  C3  UNL d   1      -0.276   1.714   0.355  0.00  0.00     0.150 A 
ATOM      5  C4  UNL d   1      -1.437   1.088   0.795  0.00  0.00    -0.007 A 
ATOM      6  C5  UNL d   1      -1.515  -0.304   0.793  0.00  0.00     0.039 A 
ENDROOT
BRANCH   4   7
ATOM      7  O   UNL d   1      -0.247   3.077   0.369  0.00  0.00    -0.526 OA
ATOM      8  H5  UNL d   1       0.608   3.371   0.011  0.00  0.00     0.418 HD
ENDBRANCH   4   7
TORSDOF 1
ENDMDL
