MODEL 1
REMARK minimizedAffinity -4.15707493
REMARK minimizedRMSD -1
REMARK  1 active torsions:
REMARK  status: ('A' for Active; 'I' for Inactive)
REMARK    1  A    between atoms: C3_4  and  O_7 
ROOT
ATOM      1  C   UNL d   1       0.041  -0.966   0.160  0.00  0.00    -0.033 A 
ATOM      2  C1  UNL d   1      -1.290  -0.563   0.030  0.00  0.00     0.039 A 
ATOM      3  C2  UNL d   1      -1.624   0.789   0.127  0.00  0.00    -0.080 A 
ATOM      4  C3  UNL d   1      -0.619   1.727   0.353  0.00  0.00     0.150 A 
ATOM      5  C4  UNL d   1       0.709   1.332   0.479  0.00  0.00    -0.007 A 
ATOM      6  C5  UNL d   1       1.040  -0.019   0.383  0.00  0.00     0.039 A 
ENDROOT
BRANCH   4   7
ATOM      7  O   UNL d   1      -0.897   3.057   0.460  0.00  0.00    -0.526 OA
ATOM      8  H5  UNL d   1      -1.858   3.178   0.380  0.00  0.00     0.418 HD
ENDBRANCH   4   7
TORSDOF 1
ENDMDL
