MODEL 1
REMARK minimizedAffinity -5.2682848
REMARK minimizedRMSD -1
REMARK  1 active torsions:
REMARK  status: ('A' for Active; 'I' for Inactive)
REMARK    1  A    between atoms: C3_4  and  O_7 
ROOT
ATOM      1  C   UNL d   1       1.507   3.233   0.706  0.00  0.00    -0.033 A 
ATOM      2  C1  UNL d   1       2.446   2.200   0.710  0.00  0.00     0.039 A 
ATOM      3  C2  UNL d   1       2.034   0.879   0.530  0.00  0.00    -0.080 A 
ATOM      4  C3  UNL d   1       0.681   0.604   0.347  0.00  0.00     0.150 A 
ATOM      5  C4  UNL d   1      -0.260   1.628   0.338  0.00  0.00    -0.007 A 
ATOM      6  C5  UNL d   1       0.154   2.947   0.519  0.00  0.00     0.039 A 
ENDROOT
BRANCH   4   7
ATOM      7  O   UNL d   1       0.230  -0.671   0.172  0.00  0.00    -0.526 OA
ATOM      8  H5  UNL d   1       0.988  -1.276   0.230  0.00  0.00     0.418 HD
ENDBRANCH   4   7
TORSDOF 1
ENDMDL
