MODEL 1
REMARK minimizedAffinity -2.00081229
REMARK minimizedRMSD -1
REMARK  1 active torsions:
REMARK  status: ('A' for Active; 'I' for Inactive)
REMARK    1  A    between atoms: C3_4  and  O_7 
ROOT
ATOM      1  C   UNL d   1      -0.485   0.271   0.307  0.00  0.00    -0.033 A 
ATOM      2  C1  UNL d   1       0.566   1.180   0.174  0.00  0.00     0.039 A 
ATOM      3  C2  UNL d   1       1.884   0.759   0.359  0.00  0.00    -0.080 A 
ATOM      4  C3  UNL d   1       2.137  -0.573   0.676  0.00  0.00     0.150 A 
ATOM      5  C4  UNL d   1       1.096  -1.486   0.806  0.00  0.00    -0.007 A 
ATOM      6  C5  UNL d   1      -0.220  -1.063   0.621  0.00  0.00     0.039 A 
ENDROOT
BRANCH   4   7
ATOM      7  O   UNL d   1       3.407  -1.030   0.871  0.00  0.00    -0.526 OA
ATOM      8  H5  UNL d   1       4.021  -0.283   0.777  0.00  0.00     0.418 HD
ENDBRANCH   4   7
TORSDOF 1
ENDMDL
