MODEL 1
REMARK minimizedAffinity -3.27279544
REMARK minimizedRMSD -1
REMARK  1 active torsions:
REMARK  status: ('A' for Active; 'I' for Inactive)
REMARK    1  A    between atoms: C3_4  and  O_7 
ROOT
ATOM      1  C   UNL d   1       2.524   3.217   3.625  0.00  0.00    -0.033 A 
ATOM      2  C1  UNL d   1       1.256   3.248   4.210  0.00  0.00     0.039 A 
ATOM      3  C2  UNL d   1       0.115   3.134   3.413  0.00  0.00    -0.080 A 
ATOM      4  C3  UNL d   1       0.255   2.989   2.036  0.00  0.00     0.150 A 
ATOM      5  C4  UNL d   1       1.515   2.955   1.447  0.00  0.00    -0.007 A 
ATOM      6  C5  UNL d   1       2.653   3.069   2.244  0.00  0.00     0.039 A 
ENDROOT
BRANCH   4   7
ATOM      7  O   UNL d   1      -0.829   2.880   1.217  0.00  0.00    -0.526 OA
ATOM      8  H5  UNL d   1      -1.633   2.949   1.759  0.00  0.00     0.418 HD
ENDBRANCH   4   7
TORSDOF 1
ENDMDL
