MODEL 1
REMARK minimizedAffinity -5.04460144
REMARK minimizedRMSD -1
REMARK  1 active torsions:
REMARK  status: ('A' for Active; 'I' for Inactive)
REMARK    1  A    between atoms: C3_4  and  O_7 
ROOT
ATOM      1  C   UNL d   1       0.183   2.917  -0.482  0.00  0.00    -0.033 A 
ATOM      2  C1  UNL d   1       1.167   1.973  -0.781  0.00  0.00     0.039 A 
ATOM      3  C2  UNL d   1       0.980   0.633  -0.434  0.00  0.00    -0.080 A 
ATOM      4  C3  UNL d   1      -0.194   0.251   0.210  0.00  0.00     0.150 A 
ATOM      5  C4  UNL d   1      -1.180   1.186   0.507  0.00  0.00    -0.007 A 
ATOM      6  C5  UNL d   1      -0.991   2.523   0.161  0.00  0.00     0.039 A 
ENDROOT
BRANCH   4   7
ATOM      7  O   UNL d   1      -0.419  -1.043   0.572  0.00  0.00    -0.526 OA
ATOM      8  H5  UNL d   1       0.360  -1.571   0.329  0.00  0.00     0.418 HD
ENDBRANCH   4   7
TORSDOF 1
ENDMDL
