MODEL 1
REMARK minimizedAffinity -4.39866686
REMARK minimizedRMSD -1
REMARK  1 active torsions:
REMARK  status: ('A' for Active; 'I' for Inactive)
REMARK    1  A    between atoms: C3_4  and  O_7 
ROOT
ATOM      1  C   UNL d   1       2.224  -1.067   0.729  0.00  0.00    -0.033 A 
ATOM      2  C1  UNL d   1       0.928  -1.584   0.783  0.00  0.00     0.039 A 
ATOM      3  C2  UNL d   1      -0.161  -0.780   0.441  0.00  0.00    -0.080 A 
ATOM      4  C3  UNL d   1       0.060   0.537   0.046  0.00  0.00     0.150 A 
ATOM      5  C4  UNL d   1       1.348   1.057  -0.014  0.00  0.00    -0.007 A 
ATOM      6  C5  UNL d   1       2.434   0.253   0.329  0.00  0.00     0.039 A 
ENDROOT
BRANCH   4   7
ATOM      7  O   UNL d   1      -0.972   1.361  -0.292  0.00  0.00    -0.526 OA
ATOM      8  H5  UNL d   1      -1.805   0.875  -0.176  0.00  0.00     0.418 HD
ENDBRANCH   4   7
TORSDOF 1
ENDMDL
