MODEL 1
REMARK minimizedAffinity -4.52499485
REMARK minimizedRMSD -1
REMARK  1 active torsions:
REMARK  status: ('A' for Active; 'I' for Inactive)
REMARK    1  A    between atoms: C3_4  and  O_7 
ROOT
ATOM      1  C   UNL d   1      -0.476  -0.254   0.157  0.00  0.00    -0.033 A 
ATOM      2  C1  UNL d   1       0.735   0.193  -0.376  0.00  0.00     0.039 A 
ATOM      3  C2  UNL d   1       0.973   1.561  -0.522  0.00  0.00    -0.080 A 
ATOM      4  C3  UNL d   1      -0.005   2.471  -0.131  0.00  0.00     0.150 A 
ATOM      5  C4  UNL d   1      -1.212   2.033   0.405  0.00  0.00    -0.007 A 
ATOM      6  C5  UNL d   1      -1.449   0.667   0.549  0.00  0.00     0.039 A 
ENDROOT
BRANCH   4   7
ATOM      7  O   UNL d   1       0.180   3.815  -0.258  0.00  0.00    -0.526 OA
ATOM      8  H5  UNL d   1       1.047   3.969  -0.669  0.00  0.00     0.418 HD
ENDBRANCH   4   7
TORSDOF 1
ENDMDL
