MODEL 1
REMARK minimizedAffinity -3.44235373
REMARK minimizedRMSD -1
REMARK  1 active torsions:
REMARK  status: ('A' for Active; 'I' for Inactive)
REMARK    1  A    between atoms: C3_4  and  O_7 
ROOT
ATOM      1  C   UNL d   1      -0.408  -0.481   0.374  0.00  0.00    -0.033 A 
ATOM      2  C1  UNL d   1       0.828   0.034  -0.022  0.00  0.00     0.039 A 
ATOM      3  C2  UNL d   1       1.000   1.412  -0.161  0.00  0.00    -0.080 A 
ATOM      4  C3  UNL d   1      -0.069   2.264   0.100  0.00  0.00     0.150 A 
ATOM      5  C4  UNL d   1      -1.302   1.759   0.499  0.00  0.00    -0.007 A 
ATOM      6  C5  UNL d   1      -1.472   0.382   0.637  0.00  0.00     0.039 A 
ENDROOT
BRANCH   4   7
ATOM      7  O   UNL d   1       0.049   3.616  -0.027  0.00  0.00    -0.526 OA
ATOM      8  H5  UNL d   1       0.948   3.819  -0.337  0.00  0.00     0.418 HD
ENDBRANCH   4   7
TORSDOF 1
ENDMDL
