MODEL 1
REMARK minimizedAffinity -5.30325127
REMARK minimizedRMSD -1
REMARK  1 active torsions:
REMARK  status: ('A' for Active; 'I' for Inactive)
REMARK    1  A    between atoms: C3_4  and  O_7 
ROOT
ATOM      1  C   UNL d   1      -0.399   2.497   0.011  0.00  0.00    -0.033 A 
ATOM      2  C1  UNL d   1      -1.534   1.752   0.339  0.00  0.00     0.039 A 
ATOM      3  C2  UNL d   1      -1.514   0.361   0.228  0.00  0.00    -0.080 A 
ATOM      4  C3  UNL d   1      -0.355  -0.273  -0.212  0.00  0.00     0.150 A 
ATOM      5  C4  UNL d   1       0.780   0.462  -0.537  0.00  0.00    -0.007 A 
ATOM      6  C5  UNL d   1       0.758   1.852  -0.426  0.00  0.00     0.039 A 
ENDROOT
BRANCH   4   7
ATOM      7  O   UNL d   1      -0.290  -1.629  -0.341  0.00  0.00    -0.526 OA
ATOM      8  H5  UNL d   1      -1.156  -2.002  -0.109  0.00  0.00     0.418 HD
ENDBRANCH   4   7
TORSDOF 1
ENDMDL
