MODEL 1
REMARK minimizedAffinity -3.92574191
REMARK minimizedRMSD -1
REMARK  1 active torsions:
REMARK  status: ('A' for Active; 'I' for Inactive)
REMARK    1  A    between atoms: C3_4  and  O_7 
ROOT
ATOM      1  C   UNL d   1      -0.271  -0.376   0.440  0.00  0.00    -0.033 A 
ATOM      2  C1  UNL d   1       0.841   0.076  -0.272  0.00  0.00     0.039 A 
ATOM      3  C2  UNL d   1       0.910   1.406  -0.692  0.00  0.00    -0.080 A 
ATOM      4  C3  UNL d   1      -0.137   2.273  -0.392  0.00  0.00     0.150 A 
ATOM      5  C4  UNL d   1      -1.246   1.830   0.321  0.00  0.00    -0.007 A 
ATOM      6  C5  UNL d   1      -1.314   0.501   0.738  0.00  0.00     0.039 A 
ENDROOT
BRANCH   4   7
ATOM      7  O   UNL d   1      -0.117   3.578  -0.784  0.00  0.00    -0.526 OA
ATOM      8  H5  UNL d   1       0.697   3.734  -1.292  0.00  0.00     0.418 HD
ENDBRANCH   4   7
TORSDOF 1
ENDMDL
