MODEL 1
REMARK minimizedAffinity -3.35218
REMARK minimizedRMSD -1
REMARK  1 active torsions:
REMARK  status: ('A' for Active; 'I' for Inactive)
REMARK    1  A    between atoms: C3_4  and  O_7 
ROOT
ATOM      1  C   UNL d   1       0.757   2.982   0.346  0.00  0.00    -0.033 A 
ATOM      2  C1  UNL d   1      -0.154   2.244   1.105  0.00  0.00     0.039 A 
ATOM      3  C2  UNL d   1      -0.379   0.898   0.814  0.00  0.00    -0.080 A 
ATOM      4  C3  UNL d   1       0.313   0.301  -0.237  0.00  0.00     0.150 A 
ATOM      5  C4  UNL d   1       1.225   1.028  -0.994  0.00  0.00    -0.007 A 
ATOM      6  C5  UNL d   1       1.448   2.373  -0.702  0.00  0.00     0.039 A 
ENDROOT
BRANCH   4   7
ATOM      7  O   UNL d   1       0.123  -1.009  -0.562  0.00  0.00    -0.526 OA
ATOM      8  H5  UNL d   1      -0.556  -1.378   0.028  0.00  0.00     0.418 HD
ENDBRANCH   4   7
TORSDOF 1
ENDMDL
