MODEL 1
REMARK minimizedAffinity -5.56397724
REMARK minimizedRMSD -1
REMARK  1 active torsions:
REMARK  status: ('A' for Active; 'I' for Inactive)
REMARK    1  A    between atoms: C3_4  and  O_7 
ROOT
ATOM      1  C   UNL d   1      -0.824  -0.294   0.569  0.00  0.00    -0.033 A 
ATOM      2  C1  UNL d   1       0.442   0.157   0.194  0.00  0.00     0.039 A 
ATOM      3  C2  UNL d   1       0.625   1.486  -0.194  0.00  0.00    -0.080 A 
ATOM      4  C3  UNL d   1      -0.465   2.352  -0.201  0.00  0.00     0.150 A 
ATOM      5  C4  UNL d   1      -1.729   1.910   0.175  0.00  0.00    -0.007 A 
ATOM      6  C5  UNL d   1      -1.910   0.582   0.561  0.00  0.00     0.039 A 
ENDROOT
BRANCH   4   7
ATOM      7  O   UNL d   1      -0.337   3.656  -0.577  0.00  0.00    -0.526 OA
ATOM      8  H5  UNL d   1       0.586   3.812  -0.838  0.00  0.00     0.418 HD
ENDBRANCH   4   7
TORSDOF 1
ENDMDL
