MODEL 1
REMARK minimizedAffinity -4.38033915
REMARK minimizedRMSD -1
REMARK  1 active torsions:
REMARK  status: ('A' for Active; 'I' for Inactive)
REMARK    1  A    between atoms: C3_4  and  O_7 
ROOT
ATOM      1  C   UNL d   1      -1.537   1.086   0.533  0.00  0.00    -0.033 A 
ATOM      2  C1  UNL d   1      -0.879   2.306   0.698  0.00  0.00     0.039 A 
ATOM      3  C2  UNL d   1       0.516   2.351   0.735  0.00  0.00    -0.080 A 
ATOM      4  C3  UNL d   1       1.241   1.169   0.604  0.00  0.00     0.150 A 
ATOM      5  C4  UNL d   1       0.592  -0.050   0.436  0.00  0.00    -0.007 A 
ATOM      6  C5  UNL d   1      -0.801  -0.092   0.400  0.00  0.00     0.039 A 
ENDROOT
BRANCH   4   7
ATOM      7  O   UNL d   1       2.603   1.162   0.639  0.00  0.00    -0.526 OA
ATOM      8  H5  UNL d   1       2.912   2.071   0.790  0.00  0.00     0.418 HD
ENDBRANCH   4   7
TORSDOF 1
ENDMDL
