MODEL 1
REMARK minimizedAffinity -4.60820198
REMARK minimizedRMSD -1
REMARK  0 active torsions:
REMARK  status: ('A' for Active; 'I' for Inactive)
ROOT
ATOM      1  C   UNL d   1       3.008   2.647   0.382  0.00  0.00    -0.002 A 
ATOM      2  C1  UNL d   1       3.252   1.571  -0.460  0.00  0.00     0.010 A 
ATOM      3  C2  UNL d   1       2.366   0.493  -0.510  0.00  0.00     0.041 A 
ATOM      4  C3  UNL d   1       1.219   0.515   0.306  0.00  0.00    -0.075 A 
ATOM      5  S   UNL d   1      -0.006  -0.693   0.411  0.00  0.00     0.015 SA
ATOM      6  C4  UNL d   1      -0.883   0.190   1.576  0.00  0.00     0.022 A 
ATOM      7  C5  UNL d   1      -0.270   1.381   1.889  0.00  0.00     0.026 A 
ATOM      8  C6  UNL d   1       0.951   1.588   1.162  0.00  0.00    -0.082 A 
ATOM      9  C7  UNL d   1       1.869   2.665   1.190  0.00  0.00     0.045 A 
ENDROOT
TORSDOF 0
ENDMDL
