MODEL 1
REMARK minimizedAffinity -4.14533043
REMARK minimizedRMSD -1
REMARK  0 active torsions:
REMARK  status: ('A' for Active; 'I' for Inactive)
ROOT
ATOM      1  C   UNL d   1       1.777   2.927   1.374  0.00  0.00    -0.002 A 
ATOM      2  C1  UNL d   1       2.901   2.244   0.932  0.00  0.00     0.010 A 
ATOM      3  C2  UNL d   1       2.779   0.984   0.343  0.00  0.00     0.041 A 
ATOM      4  C3  UNL d   1       1.497   0.417   0.203  0.00  0.00    -0.075 A 
ATOM      5  S   UNL d   1       1.107  -1.113  -0.488  0.00  0.00     0.015 SA
ATOM      6  C4  UNL d   1      -0.561  -0.895  -0.213  0.00  0.00     0.022 A 
ATOM      7  C5  UNL d   1      -0.831   0.310   0.391  0.00  0.00     0.026 A 
ATOM      8  C6  UNL d   1       0.350   1.086   0.640  0.00  0.00    -0.082 A 
ATOM      9  C7  UNL d   1       0.507   2.362   1.234  0.00  0.00     0.045 A 
ENDROOT
TORSDOF 0
ENDMDL
