MODEL 1
REMARK minimizedAffinity -2.05012918
REMARK minimizedRMSD -1
REMARK  0 active torsions:
REMARK  status: ('A' for Active; 'I' for Inactive)
ROOT
ATOM      1  C   UNL d   1       1.763   2.311   2.050  0.00  0.00    -0.002 A 
ATOM      2  C1  UNL d   1       1.945   2.449   0.681  0.00  0.00     0.010 A 
ATOM      3  C2  UNL d   1       1.137   1.747  -0.216  0.00  0.00     0.041 A 
ATOM      4  C3  UNL d   1       0.133   0.899   0.290  0.00  0.00    -0.075 A 
ATOM      5  S   UNL d   1      -0.976  -0.057  -0.620  0.00  0.00     0.015 SA
ATOM      6  C4  UNL d   1      -1.718  -0.670   0.787  0.00  0.00     0.022 A 
ATOM      7  C5  UNL d   1      -1.146  -0.168   1.932  0.00  0.00     0.026 A 
ATOM      8  C6  UNL d   1      -0.070   0.745   1.664  0.00  0.00    -0.082 A 
ATOM      9  C7  UNL d   1       0.766   1.469   2.549  0.00  0.00     0.045 A 
ENDROOT
TORSDOF 0
ENDMDL
