MODEL 1
REMARK minimizedAffinity -3.59653616
REMARK minimizedRMSD -1
REMARK  0 active torsions:
REMARK  status: ('A' for Active; 'I' for Inactive)
ROOT
ATOM      1  C   UNL d   1       2.005   2.630   1.541  0.00  0.00    -0.002 A 
ATOM      2  C1  UNL d   1       2.867   1.924   0.713  0.00  0.00     0.010 A 
ATOM      3  C2  UNL d   1       2.434   0.773   0.053  0.00  0.00     0.041 A 
ATOM      4  C3  UNL d   1       1.106   0.339   0.238  0.00  0.00    -0.075 A 
ATOM      5  S   UNL d   1       0.355  -1.042  -0.469  0.00  0.00     0.015 SA
ATOM      6  C4  UNL d   1      -1.128  -0.727   0.310  0.00  0.00     0.022 A 
ATOM      7  C5  UNL d   1      -1.069   0.400   1.095  0.00  0.00     0.026 A 
ATOM      8  C6  UNL d   1       0.219   1.034   1.066  0.00  0.00    -0.082 A 
ATOM      9  C7  UNL d   1       0.689   2.197   1.722  0.00  0.00     0.045 A 
ENDROOT
TORSDOF 0
ENDMDL
