MODEL 1
REMARK minimizedAffinity -3.3745358
REMARK minimizedRMSD -1
REMARK  0 active torsions:
REMARK  status: ('A' for Active; 'I' for Inactive)
ROOT
ATOM      1  C   UNL d   1       1.850   2.698   1.108  0.00  0.00    -0.002 A 
ATOM      2  C1  UNL d   1       2.923   2.013   0.555  0.00  0.00     0.010 A 
ATOM      3  C2  UNL d   1       2.730   0.787  -0.085  0.00  0.00     0.041 A 
ATOM      4  C3  UNL d   1       1.427   0.257  -0.162  0.00  0.00    -0.075 A 
ATOM      5  S   UNL d   1       0.952  -1.228  -0.898  0.00  0.00     0.015 SA
ATOM      6  C4  UNL d   1      -0.687  -0.989  -0.497  0.00  0.00     0.022 A 
ATOM      7  C5  UNL d   1      -0.885   0.190   0.183  0.00  0.00     0.026 A 
ATOM      8  C6  UNL d   1       0.331   0.927   0.387  0.00  0.00    -0.082 A 
ATOM      9  C7  UNL d   1       0.559   2.168   1.029  0.00  0.00     0.045 A 
ENDROOT
TORSDOF 0
ENDMDL
