MODEL 1
REMARK minimizedAffinity -2.84111118
REMARK minimizedRMSD -1
REMARK  0 active torsions:
REMARK  status: ('A' for Active; 'I' for Inactive)
ROOT
ATOM      1  C   UNL d   1      -1.344  -0.486   1.150  0.00  0.00    -0.002 A 
ATOM      2  C1  UNL d   1      -0.661  -1.130   0.129  0.00  0.00     0.010 A 
ATOM      3  C2  UNL d   1       0.454  -0.536  -0.466  0.00  0.00     0.041 A 
ATOM      4  C3  UNL d   1       0.877   0.728  -0.010  0.00  0.00    -0.075 A 
ATOM      5  S   UNL d   1       2.217   1.646  -0.588  0.00  0.00     0.015 SA
ATOM      6  C4  UNL d   1       1.915   2.916   0.508  0.00  0.00     0.022 A 
ATOM      7  C5  UNL d   1       0.823   2.662   1.303  0.00  0.00     0.026 A 
ATOM      8  C6  UNL d   1       0.207   1.396   1.018  0.00  0.00    -0.082 A 
ATOM      9  C7  UNL d   1      -0.921   0.768   1.600  0.00  0.00     0.045 A 
ENDROOT
TORSDOF 0
ENDMDL
