MODEL 1
REMARK minimizedAffinity -6.27718925
REMARK minimizedRMSD -1
REMARK  0 active torsions:
REMARK  status: ('A' for Active; 'I' for Inactive)
ROOT
ATOM      1  C   UNL d   1       3.143   2.700   0.938  0.00  0.00    -0.002 A 
ATOM      2  C1  UNL d   1       3.458   1.609   0.140  0.00  0.00     0.010 A 
ATOM      3  C2  UNL d   1       2.486   0.659  -0.180  0.00  0.00     0.041 A 
ATOM      4  C3  UNL d   1       1.179   0.827   0.318  0.00  0.00    -0.075 A 
ATOM      5  S   UNL d   1      -0.174  -0.208   0.055  0.00  0.00     0.015 SA
ATOM      6  C4  UNL d   1      -1.203   0.774   0.994  0.00  0.00     0.022 A 
ATOM      7  C5  UNL d   1      -0.546   1.869   1.504  0.00  0.00     0.026 A 
ATOM      8  C6  UNL d   1       0.837   1.918   1.122  0.00  0.00    -0.082 A 
ATOM      9  C7  UNL d   1       1.845   2.863   1.430  0.00  0.00     0.045 A 
ENDROOT
TORSDOF 0
ENDMDL
