MODEL 1
REMARK minimizedAffinity -3.81178403
REMARK minimizedRMSD -1
REMARK  0 active torsions:
REMARK  status: ('A' for Active; 'I' for Inactive)
ROOT
ATOM      1  C   UNL d   1       1.419   2.526   1.636  0.00  0.00    -0.002 A 
ATOM      2  C1  UNL d   1       2.352   1.974   0.769  0.00  0.00     0.010 A 
ATOM      3  C2  UNL d   1       2.029   0.855  -0.002  0.00  0.00     0.041 A 
ATOM      4  C3  UNL d   1       0.741   0.296   0.113  0.00  0.00    -0.075 A 
ATOM      5  S   UNL d   1       0.122  -1.073  -0.732  0.00  0.00     0.015 SA
ATOM      6  C4  UNL d   1      -1.394  -0.956   0.038  0.00  0.00     0.022 A 
ATOM      7  C5  UNL d   1      -1.445   0.096   0.921  0.00  0.00     0.026 A 
ATOM      8  C6  UNL d   1      -0.215   0.836   0.979  0.00  0.00    -0.082 A 
ATOM      9  C7  UNL d   1       0.143   1.969   1.747  0.00  0.00     0.045 A 
ENDROOT
TORSDOF 0
ENDMDL
