MODEL 1
REMARK minimizedAffinity -1.89164627
REMARK minimizedRMSD -1
REMARK  0 active torsions:
REMARK  status: ('A' for Active; 'I' for Inactive)
ROOT
ATOM      1  C   UNL d   1       2.503   2.513   0.587  0.00  0.00    -0.002 A 
ATOM      2  C1  UNL d   1       1.559   2.845   1.548  0.00  0.00     0.010 A 
ATOM      3  C2  UNL d   1       0.404   2.075   1.704  0.00  0.00     0.041 A 
ATOM      4  C3  UNL d   1       0.215   0.954   0.872  0.00  0.00    -0.075 A 
ATOM      5  S   UNL d   1      -1.121  -0.136   0.884  0.00  0.00     0.015 SA
ATOM      6  C4  UNL d   1      -0.469  -1.067  -0.385  0.00  0.00     0.022 A 
ATOM      7  C5  UNL d   1       0.738  -0.573  -0.820  0.00  0.00     0.026 A 
ATOM      8  C6  UNL d   1       1.152   0.599  -0.102  0.00  0.00    -0.082 A 
ATOM      9  C7  UNL d   1       2.312   1.401  -0.237  0.00  0.00     0.045 A 
ENDROOT
TORSDOF 0
ENDMDL
