MODEL 1
REMARK minimizedAffinity -5.38373137
REMARK minimizedRMSD -1
REMARK  0 active torsions:
REMARK  status: ('A' for Active; 'I' for Inactive)
ROOT
ATOM      1  C   UNL d   1       2.285   2.906   1.194  0.00  0.00    -0.002 A 
ATOM      2  C1  UNL d   1       3.018   2.104   0.332  0.00  0.00     0.010 A 
ATOM      3  C2  UNL d   1       2.529   0.858  -0.068  0.00  0.00     0.041 A 
ATOM      4  C3  UNL d   1       1.277   0.430   0.418  0.00  0.00    -0.075 A 
ATOM      5  S   UNL d   1       0.479  -1.056   0.063  0.00  0.00     0.015 SA
ATOM      6  C4  UNL d   1      -0.855  -0.660   1.048  0.00  0.00     0.022 A 
ATOM      7  C5  UNL d   1      -0.711   0.572   1.640  0.00  0.00     0.026 A 
ATOM      8  C6  UNL d   1       0.520   1.221   1.286  0.00  0.00    -0.082 A 
ATOM      9  C7  UNL d   1       1.044   2.478   1.674  0.00  0.00     0.045 A 
ENDROOT
TORSDOF 0
ENDMDL
