MODEL 1
REMARK minimizedAffinity 5.95797634
REMARK minimizedRMSD -1
REMARK  0 active torsions:
REMARK  status: ('A' for Active; 'I' for Inactive)
ROOT
ATOM      1  C1  DEN d   1       0.021  -0.276  -0.324  0.00  0.00     0.130 A 
ATOM      2  C2  DEN d   1      -1.153   0.475   0.110  0.00  0.00    -0.031 A 
ATOM      3  C3  DEN d   1      -1.555  -0.033   1.437  0.00  0.00     0.027 A 
ATOM      4  C4  DEN d   1      -0.476  -1.897   2.856  0.00  0.00     0.027 A 
ATOM      5  C5  DEN d   1       0.535  -2.832   2.899  0.00  0.00    -0.003 A 
ATOM      6  C6  DEN d   1       1.417  -3.002   1.866  0.00  0.00     0.001 A 
ATOM      7  C7  DEN d   1       1.333  -2.195   0.762  0.00  0.00     0.017 A 
ATOM      8  C8  DEN d   1       0.313  -1.255   0.708  0.00  0.00    -0.094 A 
ATOM      9  C9  DEN d   1      -0.562  -1.090   1.768  0.00  0.00    -0.072 A 
ENDROOT
TORSDOF 0
ENDMDL
