MODEL 1
REMARK minimizedAffinity 9.22490501
REMARK minimizedRMSD -1
REMARK  0 active torsions:
REMARK  status: ('A' for Active; 'I' for Inactive)
ROOT
ATOM      1  C1  DEN d   1       3.682  -3.000  -0.247  0.00  0.00     0.130 A 
ATOM      2  C2  DEN d   1       4.875  -3.810  -0.021  0.00  0.00    -0.031 A 
ATOM      3  C3  DEN d   1       5.997  -2.898   0.279  0.00  0.00     0.027 A 
ATOM      4  C4  DEN d   1       6.000  -0.322   0.422  0.00  0.00     0.027 A 
ATOM      5  C5  DEN d   1       5.225   0.810   0.296  0.00  0.00    -0.003 A 
ATOM      6  C6  DEN d   1       3.901   0.754  -0.050  0.00  0.00     0.001 A 
ATOM      7  C7  DEN d   1       3.300  -0.462  -0.238  0.00  0.00     0.017 A 
ATOM      8  C8  DEN d   1       4.076  -1.608  -0.120  0.00  0.00    -0.094 A 
ATOM      9  C9  DEN d   1       5.410  -1.531   0.242  0.00  0.00    -0.072 A 
ENDROOT
TORSDOF 0
ENDMDL
