MODEL 1
REMARK minimizedAffinity 6.64478445
REMARK minimizedRMSD -1
REMARK  0 active torsions:
REMARK  status: ('A' for Active; 'I' for Inactive)
ROOT
ATOM      1  C1  DEN d   1       0.713   0.302   3.202  0.00  0.00     0.130 A 
ATOM      2  C2  DEN d   1       1.418  -0.885   2.727  0.00  0.00    -0.031 A 
ATOM      3  C3  DEN d   1       0.421  -1.801   2.136  0.00  0.00     0.027 A 
ATOM      4  C4  DEN d   1      -2.129  -1.494   1.907  0.00  0.00     0.027 A 
ATOM      5  C5  DEN d   1      -3.187  -0.654   2.174  0.00  0.00    -0.003 A 
ATOM      6  C6  DEN d   1      -3.025   0.539   2.828  0.00  0.00     0.001 A 
ATOM      7  C7  DEN d   1      -1.770   0.946   3.197  0.00  0.00     0.017 A 
ATOM      8  C8  DEN d   1      -0.700   0.101   2.937  0.00  0.00    -0.094 A 
ATOM      9  C9  DEN d   1      -0.882  -1.096   2.265  0.00  0.00    -0.072 A 
ENDROOT
TORSDOF 0
ENDMDL
