MODEL 1
REMARK minimizedAffinity 5.05456352
REMARK minimizedRMSD -1
REMARK  0 active torsions:
REMARK  status: ('A' for Active; 'I' for Inactive)
ROOT
ATOM      1  C1  DEN d   1       0.678  -0.582   0.150  0.00  0.00     0.130 A 
ATOM      2  C2  DEN d   1      -0.445   0.348   0.208  0.00  0.00    -0.031 A 
ATOM      3  C3  DEN d   1      -1.344  -0.088   1.295  0.00  0.00     0.027 A 
ATOM      4  C4  DEN d   1      -1.104  -2.102   2.889  0.00  0.00     0.027 A 
ATOM      5  C5  DEN d   1      -0.321  -3.187   3.216  0.00  0.00    -0.003 A 
ATOM      6  C6  DEN d   1       0.822  -3.497   2.529  0.00  0.00     0.001 A 
ATOM      7  C7  DEN d   1       1.240  -2.687   1.506  0.00  0.00     0.017 A 
ATOM      8  C8  DEN d   1       0.452  -1.595   1.165  0.00  0.00    -0.094 A 
ATOM      9  C9  DEN d   1      -0.694  -1.292   1.880  0.00  0.00    -0.072 A 
ENDROOT
TORSDOF 0
ENDMDL
