MODEL 1
REMARK minimizedAffinity 6.92373657
REMARK minimizedRMSD -1
REMARK  0 active torsions:
REMARK  status: ('A' for Active; 'I' for Inactive)
ROOT
ATOM      1  C1  DEN d   1       1.160  -0.549   0.770  0.00  0.00     0.130 A 
ATOM      2  C2  DEN d   1       2.233  -1.152  -0.015  0.00  0.00    -0.031 A 
ATOM      3  C3  DEN d   1       2.370  -2.561   0.406  0.00  0.00     0.027 A 
ATOM      4  C4  DEN d   1       1.030  -3.860   2.186  0.00  0.00     0.027 A 
ATOM      5  C5  DEN d   1       0.024  -3.767   3.123  0.00  0.00    -0.003 A 
ATOM      6  C6  DEN d   1      -0.645  -2.597   3.363  0.00  0.00     0.001 A 
ATOM      7  C7  DEN d   1      -0.347  -1.481   2.626  0.00  0.00     0.017 A 
ATOM      8  C8  DEN d   1       0.671  -1.565   1.684  0.00  0.00    -0.094 A 
ATOM      9  C9  DEN d   1       1.327  -2.761   1.448  0.00  0.00    -0.072 A 
ENDROOT
TORSDOF 0
ENDMDL
