MODEL 1
REMARK minimizedAffinity 6.50722551
REMARK minimizedRMSD -1
REMARK  0 active torsions:
REMARK  status: ('A' for Active; 'I' for Inactive)
ROOT
ATOM      1  C1  DEN d   1      -4.993  -1.115   0.731  0.00  0.00     0.130 A 
ATOM      2  C2  DEN d   1      -5.997  -0.516   1.605  0.00  0.00    -0.031 A 
ATOM      3  C3  DEN d   1      -5.309   0.419   2.517  0.00  0.00     0.027 A 
ATOM      4  C4  DEN d   1      -2.800   0.999   2.656  0.00  0.00     0.027 A 
ATOM      5  C5  DEN d   1      -1.556   0.735   2.127  0.00  0.00    -0.003 A 
ATOM      6  C6  DEN d   1      -1.367  -0.181   1.127  0.00  0.00     0.001 A 
ATOM      7  C7  DEN d   1      -2.446  -0.835   0.593  0.00  0.00     0.017 A 
ATOM      8  C8  DEN d   1      -3.703  -0.580   1.126  0.00  0.00    -0.094 A 
ATOM      9  C9  DEN d   1      -3.874   0.359   2.129  0.00  0.00    -0.072 A 
ENDROOT
TORSDOF 0
ENDMDL
