MODEL 1
REMARK minimizedAffinity 1.02057862
REMARK minimizedRMSD -1
REMARK  0 active torsions:
REMARK  status: ('A' for Active; 'I' for Inactive)
ROOT
ATOM      1  C1  DEN d   1       2.022  -3.643   1.105  0.00  0.00     0.130 A 
ATOM      2  C2  DEN d   1       2.549  -2.654   0.169  0.00  0.00    -0.031 A 
ATOM      3  C3  DEN d   1       1.789  -1.401   0.352  0.00  0.00     0.027 A 
ATOM      4  C4  DEN d   1      -0.140  -0.898   1.989  0.00  0.00     0.027 A 
ATOM      5  C5  DEN d   1      -0.943  -1.429   2.975  0.00  0.00    -0.003 A 
ATOM      6  C6  DEN d   1      -0.837  -2.733   3.379  0.00  0.00     0.001 A 
ATOM      7  C7  DEN d   1       0.122  -3.540   2.827  0.00  0.00     0.017 A 
ATOM      8  C8  DEN d   1       0.931  -3.014   1.827  0.00  0.00    -0.094 A 
ATOM      9  C9  DEN d   1       0.817  -1.690   1.441  0.00  0.00    -0.072 A 
ENDROOT
TORSDOF 0
ENDMDL
