MODEL 1
REMARK minimizedAffinity -2.43719053
REMARK minimizedRMSD -1
REMARK  1 active torsions:
REMARK  status: ('A' for Active; 'I' for Inactive)
REMARK    1  A    between atoms: C3_4  and  O_7 
ROOT
ATOM      1  C   UNL d   1       4.435   6.000   2.155  0.00  0.00    -0.033 A 
ATOM      2  C1  UNL d   1       5.132   5.993   3.365  0.00  0.00     0.039 A 
ATOM      3  C2  UNL d   1       4.434   5.989   4.574  0.00  0.00    -0.080 A 
ATOM      4  C3  UNL d   1       3.042   5.992   4.560  0.00  0.00     0.150 A 
ATOM      5  C4  UNL d   1       2.341   5.996   3.358  0.00  0.00    -0.007 A 
ATOM      6  C5  UNL d   1       3.040   6.000   2.152  0.00  0.00     0.039 A 
ENDROOT
BRANCH   4   7
ATOM      7  O   UNL d   1       2.317   5.994   5.715  0.00  0.00    -0.526 OA
ATOM      8  H5  UNL d   1       2.934   6.021   6.465  0.00  0.00     0.418 HD
ENDBRANCH   4   7
TORSDOF 1
ENDMDL
