MODEL 1
REMARK minimizedAffinity 1.04246044
REMARK minimizedRMSD -1
REMARK  1 active torsions:
REMARK  status: ('A' for Active; 'I' for Inactive)
REMARK    1  A    between atoms: C3_4  and  O_7 
ROOT
ATOM      1  C   UNL d   1       3.823   4.014   2.518  0.00  0.00    -0.033 A 
ATOM      2  C1  UNL d   1       2.971   3.334   3.391  0.00  0.00     0.039 A 
ATOM      3  C2  UNL d   1       1.867   3.987   3.943  0.00  0.00    -0.080 A 
ATOM      4  C3  UNL d   1       1.626   5.318   3.613  0.00  0.00     0.150 A 
ATOM      5  C4  UNL d   1       2.468   6.000   2.741  0.00  0.00    -0.007 A 
ATOM      6  C5  UNL d   1       3.570   5.346   2.192  0.00  0.00     0.039 A 
ENDROOT
BRANCH   4   7
ATOM      7  O   UNL d   1       0.564   5.999   4.130  0.00  0.00    -0.526 OA
ATOM      8  H5  UNL d   1       0.087   5.409   4.738  0.00  0.00     0.418 HD
ENDBRANCH   4   7
TORSDOF 1
ENDMDL
