MODEL 1
REMARK minimizedAffinity 6.69259882
REMARK minimizedRMSD -1
REMARK  1 active torsions:
REMARK  status: ('A' for Active; 'I' for Inactive)
REMARK    1  A    between atoms: C3_4  and  O_7 
ROOT
ATOM      1  C   UNL d   1      -2.980   0.470   0.820  0.00  0.00    -0.033 A 
ATOM      2  C1  UNL d   1      -2.863  -0.872   0.452  0.00  0.00     0.039 A 
ATOM      3  C2  UNL d   1      -1.612  -1.404   0.135  0.00  0.00    -0.080 A 
ATOM      4  C3  UNL d   1      -0.487  -0.586   0.189  0.00  0.00     0.150 A 
ATOM      5  C4  UNL d   1      -0.595   0.751   0.558  0.00  0.00    -0.007 A 
ATOM      6  C5  UNL d   1      -1.846   1.281   0.874  0.00  0.00     0.039 A 
ENDROOT
BRANCH   4   7
ATOM      7  O   UNL d   1       0.755  -1.059  -0.116  0.00  0.00    -0.526 OA
ATOM      8  H5  UNL d   1       0.672  -1.990  -0.381  0.00  0.00     0.418 HD
ENDBRANCH   4   7
TORSDOF 1
ENDMDL
