MODEL 1
REMARK minimizedAffinity -2.78071594
REMARK minimizedRMSD -1
REMARK  1 active torsions:
REMARK  status: ('A' for Active; 'I' for Inactive)
REMARK    1  A    between atoms: C3_4  and  O_7 
ROOT
ATOM      1  C   UNL d   1       4.259   5.986   3.707  0.00  0.00    -0.033 A 
ATOM      2  C1  UNL d   1       3.372   5.973   2.629  0.00  0.00     0.039 A 
ATOM      3  C2  UNL d   1       1.995   5.963   2.855  0.00  0.00    -0.080 A 
ATOM      4  C3  UNL d   1       1.517   5.968   4.163  0.00  0.00     0.150 A 
ATOM      5  C4  UNL d   1       2.395   5.985   5.242  0.00  0.00    -0.007 A 
ATOM      6  C5  UNL d   1       3.770   5.994   5.014  0.00  0.00     0.039 A 
ENDROOT
BRANCH   4   7
ATOM      7  O   UNL d   1       0.181   5.954   4.434  0.00  0.00    -0.526 OA
ATOM      8  H5  UNL d   1      -0.303   5.914   3.592  0.00  0.00     0.418 HD
ENDBRANCH   4   7
TORSDOF 1
ENDMDL
