MODEL 1
REMARK minimizedAffinity -3.13432431
REMARK minimizedRMSD -1
REMARK  1 active torsions:
REMARK  status: ('A' for Active; 'I' for Inactive)
REMARK    1  A    between atoms: C3_4  and  O_7 
ROOT
ATOM      1  C   UNL d   1       4.059   5.977   3.815  0.00  0.00    -0.033 A 
ATOM      2  C1  UNL d   1       3.714   5.987   5.168  0.00  0.00     0.039 A 
ATOM      3  C2  UNL d   1       2.371   5.993   5.549  0.00  0.00    -0.080 A 
ATOM      4  C3  UNL d   1       1.383   5.987   4.568  0.00  0.00     0.150 A 
ATOM      5  C4  UNL d   1       1.719   5.973   3.218  0.00  0.00    -0.007 A 
ATOM      6  C5  UNL d   1       3.061   5.969   2.840  0.00  0.00     0.039 A 
ENDROOT
BRANCH   4   7
ATOM      7  O   UNL d   1       0.059   5.997   4.890  0.00  0.00    -0.526 OA
ATOM      8  H5  UNL d   1      -0.022   6.036   5.858  0.00  0.00     0.418 HD
ENDBRANCH   4   7
TORSDOF 1
ENDMDL
