MODEL 1
REMARK minimizedAffinity -0.652800143
REMARK minimizedRMSD -1
REMARK  0 active torsions:
REMARK  status: ('A' for Active; 'I' for Inactive)
ROOT
ATOM      1  C   UNL d   1      -4.374  -2.422  -5.919  0.00  0.00     0.078 C 
ATOM      2  C1  UNL d   1      -4.930  -3.632  -5.229  0.00  0.00    -0.077 A 
ATOM      3  C2  UNL d   1      -4.929  -4.884  -5.857  0.00  0.00    -0.001 A 
ATOM      4  C3  UNL d   1      -5.457  -6.000  -5.207  0.00  0.00     0.003 A 
ATOM      5  C4  UNL d   1      -5.992  -5.875  -3.926  0.00  0.00    -0.005 A 
ATOM      6  C5  UNL d   1      -6.000  -4.633  -3.295  0.00  0.00     0.003 A 
ATOM      7  C6  UNL d   1      -5.471  -3.516  -3.943  0.00  0.00    -0.001 A 
ENDROOT
TORSDOF 0
ENDMDL
