MODEL 1
REMARK minimizedAffinity -1.31367934
REMARK minimizedRMSD -1
REMARK  0 active torsions:
REMARK  status: ('A' for Active; 'I' for Inactive)
ROOT
ATOM      1  C   UNL d   1      -5.987  -5.798  -2.094  0.00  0.00     0.078 C 
ATOM      2  C1  UNL d   1      -5.613  -5.293  -3.456  0.00  0.00    -0.077 A 
ATOM      3  C2  UNL d   1      -5.990  -5.988  -4.612  0.00  0.00    -0.001 A 
ATOM      4  C3  UNL d   1      -5.626  -5.512  -5.872  0.00  0.00     0.003 A 
ATOM      5  C4  UNL d   1      -4.882  -4.339  -5.989  0.00  0.00    -0.005 A 
ATOM      6  C5  UNL d   1      -4.500  -3.643  -4.844  0.00  0.00     0.003 A 
ATOM      7  C6  UNL d   1      -4.863  -4.117  -3.583  0.00  0.00    -0.001 A 
ENDROOT
TORSDOF 0
ENDMDL
