MODEL 1
REMARK minimizedAffinity -2.48953605
REMARK minimizedRMSD -1
REMARK  0 active torsions:
REMARK  status: ('A' for Active; 'I' for Inactive)
ROOT
ATOM      1  C   UNL d   1      -5.285  -3.301  -2.319  0.00  0.00     0.078 C 
ATOM      2  C1  UNL d   1      -5.260  -4.075  -3.603  0.00  0.00    -0.077 A 
ATOM      3  C2  UNL d   1      -4.515  -3.627  -4.701  0.00  0.00    -0.001 A 
ATOM      4  C3  UNL d   1      -4.508  -4.352  -5.893  0.00  0.00     0.003 A 
ATOM      5  C4  UNL d   1      -5.246  -5.529  -6.000  0.00  0.00    -0.005 A 
ATOM      6  C5  UNL d   1      -5.992  -5.982  -4.913  0.00  0.00     0.003 A 
ATOM      7  C6  UNL d   1      -6.000  -5.258  -3.720  0.00  0.00    -0.001 A 
ENDROOT
TORSDOF 0
ENDMDL
