MODEL 1
REMARK minimizedAffinity 7.43087006
REMARK minimizedRMSD -1
REMARK  0 active torsions:
REMARK  status: ('A' for Active; 'I' for Inactive)
ROOT
ATOM      1  C   UNL d   1      -2.490  -5.406  -2.868  0.00  0.00     0.078 C 
ATOM      2  C1  UNL d   1      -3.679  -5.216  -3.762  0.00  0.00    -0.077 A 
ATOM      3  C2  UNL d   1      -4.899  -4.756  -3.251  0.00  0.00    -0.001 A 
ATOM      4  C3  UNL d   1      -6.000  -4.593  -4.093  0.00  0.00     0.003 A 
ATOM      5  C4  UNL d   1      -5.893  -4.888  -5.451  0.00  0.00    -0.005 A 
ATOM      6  C5  UNL d   1      -4.683  -5.348  -5.968  0.00  0.00     0.003 A 
ATOM      7  C6  UNL d   1      -3.581  -5.512  -5.127  0.00  0.00    -0.001 A 
ENDROOT
TORSDOF 0
ENDMDL
