MODEL 1
REMARK minimizedAffinity -3.46902227
REMARK minimizedRMSD -1
REMARK  0 active torsions:
REMARK  status: ('A' for Active; 'I' for Inactive)
ROOT
ATOM      1  C   UNL d   1      -5.260  -3.773  -2.330  0.00  0.00     0.078 C 
ATOM      2  C1  UNL d   1      -5.014  -4.528  -3.602  0.00  0.00    -0.077 A 
ATOM      3  C2  UNL d   1      -3.864  -5.311  -3.766  0.00  0.00    -0.001 A 
ATOM      4  C3  UNL d   1      -3.644  -6.000  -4.959  0.00  0.00     0.003 A 
ATOM      5  C4  UNL d   1      -4.567  -5.913  -5.999  0.00  0.00    -0.005 A 
ATOM      6  C5  UNL d   1      -5.713  -5.135  -5.846  0.00  0.00     0.003 A 
ATOM      7  C6  UNL d   1      -5.935  -4.445  -4.654  0.00  0.00    -0.001 A 
ENDROOT
TORSDOF 0
ENDMDL
