MODEL 1
REMARK minimizedAffinity 0.523443937
REMARK minimizedRMSD -1
REMARK  0 active torsions:
REMARK  status: ('A' for Active; 'I' for Inactive)
ROOT
ATOM      1  C   UNL d   1       1.631  -0.330   1.166  0.00  0.00     0.078 C 
ATOM      2  C1  UNL d   1       1.654  -1.487   2.119  0.00  0.00    -0.077 A 
ATOM      3  C2  UNL d   1       2.007  -2.771   1.687  0.00  0.00    -0.001 A 
ATOM      4  C3  UNL d   1       2.014  -3.841   2.584  0.00  0.00     0.003 A 
ATOM      5  C4  UNL d   1       1.668  -3.637   3.918  0.00  0.00    -0.005 A 
ATOM      6  C5  UNL d   1       1.313  -2.363   4.357  0.00  0.00     0.003 A 
ATOM      7  C6  UNL d   1       1.305  -1.293   3.462  0.00  0.00    -0.001 A 
ENDROOT
TORSDOF 0
ENDMDL
