MODEL 1
REMARK minimizedAffinity -2.33486629
REMARK minimizedRMSD -1
REMARK  0 active torsions:
REMARK  status: ('A' for Active; 'I' for Inactive)
ROOT
ATOM      1  C   UNL d   1      -5.210  -3.785  -1.851  0.00  0.00     0.078 C 
ATOM      2  C1  UNL d   1      -5.224  -4.352  -3.239  0.00  0.00    -0.077 A 
ATOM      3  C2  UNL d   1      -4.473  -5.489  -3.562  0.00  0.00    -0.001 A 
ATOM      4  C3  UNL d   1      -4.488  -5.999  -4.861  0.00  0.00     0.003 A 
ATOM      5  C4  UNL d   1      -5.250  -5.378  -5.848  0.00  0.00    -0.005 A 
ATOM      6  C5  UNL d   1      -5.998  -4.245  -5.537  0.00  0.00     0.003 A 
ATOM      7  C6  UNL d   1      -5.985  -3.733  -4.239  0.00  0.00    -0.001 A 
ENDROOT
TORSDOF 0
ENDMDL
