MODEL 1
REMARK minimizedAffinity -2.03466225
REMARK minimizedRMSD -1
REMARK  0 active torsions:
REMARK  status: ('A' for Active; 'I' for Inactive)
ROOT
ATOM      1  C   UNL d   1      -0.296   1.999  -1.014  0.00  0.00     0.020 A 
ATOM      2  C1  UNL d   1      -0.248   2.422   0.313  0.00  0.00     0.020 A 
ATOM      3  C2  UNL d   1       0.153   1.535   1.315  0.00  0.00     0.034 A 
ATOM      4  C3  UNL d   1       0.507   0.220   0.990  0.00  0.00     0.017 A 
ATOM      5  C4  UNL d   1       0.458  -0.204  -0.343  0.00  0.00     0.017 A 
ATOM      6  C5  UNL d   1       0.057   0.689  -1.341  0.00  0.00     0.034 A 
ATOM      7 Cl   UNL d   1       0.881  -1.810  -0.820  0.00  0.00    -0.070 Cl
ATOM      8 Cl1  UNL d   1       0.993  -0.822   2.280  0.00  0.00    -0.070 Cl
ENDROOT
TORSDOF 0
ENDMDL
