MODEL 1
REMARK minimizedAffinity -3.03177953
REMARK minimizedRMSD -1
REMARK  0 active torsions:
REMARK  status: ('A' for Active; 'I' for Inactive)
ROOT
ATOM      1  C   UNL d   1       0.063  -0.570   0.765  0.00  0.00     0.020 A 
ATOM      2  C1  UNL d   1      -0.352  -0.065   1.997  0.00  0.00     0.020 A 
ATOM      3  C2  UNL d   1      -0.728   1.275   2.111  0.00  0.00     0.034 A 
ATOM      4  C3  UNL d   1      -0.690   2.115   0.992  0.00  0.00     0.017 A 
ATOM      5  C4  UNL d   1      -0.274   1.607  -0.244  0.00  0.00     0.017 A 
ATOM      6  C5  UNL d   1       0.102   0.264  -0.353  0.00  0.00     0.034 A 
ATOM      7 Cl   UNL d   1      -0.201   2.582  -1.670  0.00  0.00    -0.070 Cl
ATOM      8 Cl1  UNL d   1      -1.169   3.761   1.206  0.00  0.00    -0.070 Cl
ENDROOT
TORSDOF 0
ENDMDL
