MODEL 1
REMARK minimizedAffinity -0.450106353
REMARK minimizedRMSD -1
REMARK  0 active torsions:
REMARK  status: ('A' for Active; 'I' for Inactive)
ROOT
ATOM      1  C   UNL d   1       0.151   1.687   1.786  0.00  0.00     0.020 A 
ATOM      2  C1  UNL d   1      -0.191   0.464   2.361  0.00  0.00     0.020 A 
ATOM      3  C2  UNL d   1      -0.339  -0.668   1.558  0.00  0.00     0.034 A 
ATOM      4  C3  UNL d   1      -0.146  -0.580   0.174  0.00  0.00     0.017 A 
ATOM      5  C4  UNL d   1       0.198   0.648  -0.402  0.00  0.00     0.017 A 
ATOM      6  C5  UNL d   1       0.345   1.779   0.407  0.00  0.00     0.034 A 
ATOM      7 Cl   UNL d   1       0.453   0.835  -2.101  0.00  0.00    -0.070 Cl
ATOM      8 Cl1  UNL d   1      -0.346  -2.020  -0.758  0.00  0.00    -0.070 Cl
ENDROOT
TORSDOF 0
ENDMDL
