MODEL 1
REMARK minimizedAffinity -1.17760181
REMARK minimizedRMSD -1
REMARK  0 active torsions:
REMARK  status: ('A' for Active; 'I' for Inactive)
ROOT
ATOM      1  C   UNL d   1       0.210   1.588   2.284  0.00  0.00     0.020 A 
ATOM      2  C1  UNL d   1       0.378   0.204   2.251  0.00  0.00     0.020 A 
ATOM      3  C2  UNL d   1       0.288  -0.481   1.038  0.00  0.00     0.034 A 
ATOM      4  C3  UNL d   1       0.029   0.216  -0.147  0.00  0.00     0.017 A 
ATOM      5  C4  UNL d   1      -0.140   1.605  -0.114  0.00  0.00     0.017 A 
ATOM      6  C5  UNL d   1      -0.049   2.287   1.104  0.00  0.00     0.034 A 
ATOM      7 Cl   UNL d   1      -0.463   2.534  -1.535  0.00  0.00    -0.070 Cl
ATOM      8 Cl1  UNL d   1      -0.069  -0.696  -1.612  0.00  0.00    -0.070 Cl
ENDROOT
TORSDOF 0
ENDMDL
