MODEL 1
REMARK minimizedAffinity -0.372617513
REMARK minimizedRMSD -1
REMARK  0 active torsions:
REMARK  status: ('A' for Active; 'I' for Inactive)
ROOT
ATOM      1  C   UNL d   1      -0.325   1.489   2.593  0.00  0.00     0.020 A 
ATOM      2  C1  UNL d   1       0.071   0.160   2.739  0.00  0.00     0.020 A 
ATOM      3  C2  UNL d   1       0.311  -0.625   1.608  0.00  0.00     0.034 A 
ATOM      4  C3  UNL d   1       0.155  -0.081   0.328  0.00  0.00     0.017 A 
ATOM      5  C4  UNL d   1      -0.243   1.253   0.183  0.00  0.00     0.017 A 
ATOM      6  C5  UNL d   1      -0.481   2.034   1.318  0.00  0.00     0.034 A 
ATOM      7 Cl   UNL d   1      -0.456   1.994  -1.364  0.00  0.00    -0.070 Cl
ATOM      8 Cl1  UNL d   1       0.468  -1.109  -1.025  0.00  0.00    -0.070 Cl
ENDROOT
TORSDOF 0
ENDMDL
