MODEL 1
REMARK minimizedAffinity -3.61612368
REMARK minimizedRMSD -1
REMARK  0 active torsions:
REMARK  status: ('A' for Active; 'I' for Inactive)
ROOT
ATOM      1  C   UNL d   1       0.255  -0.242   1.583  0.00  0.00     0.020 A 
ATOM      2  C1  UNL d   1      -0.200   0.951   2.143  0.00  0.00     0.020 A 
ATOM      3  C2  UNL d   1      -0.242   2.113   1.369  0.00  0.00     0.034 A 
ATOM      4  C3  UNL d   1       0.172   2.085   0.033  0.00  0.00     0.017 A 
ATOM      5  C4  UNL d   1       0.629   0.886  -0.528  0.00  0.00     0.017 A 
ATOM      6  C5  UNL d   1       0.669  -0.274   0.251  0.00  0.00     0.034 A 
ATOM      7 Cl   UNL d   1       1.156   0.773  -2.170  0.00  0.00    -0.070 Cl
ATOM      8 Cl1  UNL d   1       0.093   3.559  -0.865  0.00  0.00    -0.070 Cl
ENDROOT
TORSDOF 0
ENDMDL
