MODEL 1
REMARK minimizedAffinity -3.68368483
REMARK minimizedRMSD -1
REMARK  0 active torsions:
REMARK  status: ('A' for Active; 'I' for Inactive)
ROOT
ATOM      1  C   UNL d   1       0.866  -0.903  -1.374  0.00  0.00     0.020 A 
ATOM      2  C1  UNL d   1       1.090  -1.326  -0.064  0.00  0.00     0.020 A 
ATOM      3  C2  UNL d   1       0.845  -0.457   1.001  0.00  0.00     0.034 A 
ATOM      4  C3  UNL d   1       0.374   0.839   0.759  0.00  0.00     0.017 A 
ATOM      5  C4  UNL d   1       0.150   1.262  -0.556  0.00  0.00     0.017 A 
ATOM      6  C5  UNL d   1       0.397   0.388  -1.619  0.00  0.00     0.034 A 
ATOM      7 Cl   UNL d   1      -0.430   2.846  -0.934  0.00  0.00    -0.070 Cl
ATOM      8 Cl1  UNL d   1       0.092   1.860   2.124  0.00  0.00    -0.070 Cl
ENDROOT
TORSDOF 0
ENDMDL
