MODEL 1
REMARK minimizedAffinity -4.75795794
REMARK minimizedRMSD -1
REMARK  0 active torsions:
REMARK  status: ('A' for Active; 'I' for Inactive)
ROOT
ATOM      1  N1  IND d   1       1.412  -0.970  -1.088  0.00  0.00    -0.196 N 
ATOM      2  C2  IND d   1       0.322  -0.549  -1.798  0.00  0.00     0.054 A 
ATOM      3  C3  IND d   1      -0.681  -0.205  -0.959  0.00  0.00    -0.031 A 
ATOM      4  C4  IND d   1      -0.717  -0.156   1.615  0.00  0.00     0.051 A 
ATOM      5  C5  IND d   1       0.033  -0.487   2.709  0.00  0.00    -0.031 A 
ATOM      6  C6  IND d   1       1.307  -1.003   2.591  0.00  0.00     0.015 A 
ATOM      7  C7  IND d   1       1.886  -1.198   1.369  0.00  0.00    -0.016 A 
ATOM      8  C8  IND d   1       1.126  -0.870   0.256  0.00  0.00    -0.047 A 
ATOM      9  C9  IND d   1      -0.184  -0.386   0.368  0.00  0.00    -0.096 A 
ATOM     10  HN1 IND d   1       2.152  -1.249  -1.425  0.00  0.00     0.298 HD
ENDROOT
TORSDOF 0
ENDMDL
