MODEL 1
REMARK minimizedAffinity -3.09386325
REMARK minimizedRMSD -1
REMARK  0 active torsions:
REMARK  status: ('A' for Active; 'I' for Inactive)
ROOT
ATOM      1  N1  IND d   1       1.900  -0.818   1.838  0.00  0.00    -0.196 N 
ATOM      2  C2  IND d   1       1.341  -1.046   3.064  0.00  0.00     0.054 A 
ATOM      3  C3  IND d   1       0.024  -0.744   3.045  0.00  0.00    -0.031 A 
ATOM      4  C4  IND d   1      -1.444   0.045   1.082  0.00  0.00     0.051 A 
ATOM      5  C5  IND d   1      -1.376   0.431  -0.227  0.00  0.00    -0.031 A 
ATOM      6  C6  IND d   1      -0.189   0.417  -0.930  0.00  0.00     0.015 A 
ATOM      7  C7  IND d   1       0.978   0.005  -0.350  0.00  0.00    -0.016 A 
ATOM      8  C8  IND d   1       0.914  -0.381   0.981  0.00  0.00    -0.047 A 
ATOM      9  C9  IND d   1      -0.280  -0.329   1.712  0.00  0.00    -0.096 A 
ATOM     10  HN1 IND d   1       2.728  -0.929   1.635  0.00  0.00     0.298 HD
ENDROOT
TORSDOF 0
ENDMDL
