MODEL 1
REMARK minimizedAffinity -0.851402581
REMARK minimizedRMSD -1
REMARK  0 active torsions:
REMARK  status: ('A' for Active; 'I' for Inactive)
ROOT
ATOM      1  N1  IND d   1       1.268   2.912  -1.808  0.00  0.00    -0.196 N 
ATOM      2  C2  IND d   1       0.013   3.436  -1.946  0.00  0.00     0.054 A 
ATOM      3  C3  IND d   1      -0.920   2.512  -1.626  0.00  0.00    -0.031 A 
ATOM      4  C4  IND d   1      -0.612   0.110  -0.754  0.00  0.00     0.051 A 
ATOM      5  C5  IND d   1       0.348  -0.829  -0.499  0.00  0.00    -0.031 A 
ATOM      6  C6  IND d   1       1.692  -0.562  -0.668  0.00  0.00     0.015 A 
ATOM      7  C7  IND d   1       2.127   0.663  -1.089  0.00  0.00    -0.016 A 
ATOM      8  C8  IND d   1       1.155   1.616  -1.356  0.00  0.00    -0.047 A 
ATOM      9  C9  IND d   1      -0.212   1.337  -1.227  0.00  0.00    -0.096 A 
ATOM     10  HN1 IND d   1       2.005   3.323  -1.975  0.00  0.00     0.298 HD
ENDROOT
TORSDOF 0
ENDMDL
