MODEL 1
REMARK minimizedAffinity -4.30454493
REMARK minimizedRMSD -1
REMARK  0 active torsions:
REMARK  status: ('A' for Active; 'I' for Inactive)
ROOT
ATOM      1  N1  IND d   1      -0.232  -1.161   2.742  0.00  0.00    -0.196 N 
ATOM      2  C2  IND d   1       1.081  -1.461   2.508  0.00  0.00     0.054 A 
ATOM      3  C3  IND d   1       1.417  -1.142   1.238  0.00  0.00    -0.031 A 
ATOM      4  C4  IND d   1       0.000  -0.024  -0.597  0.00  0.00     0.051 A 
ATOM      5  C5  IND d   1      -1.269   0.404  -0.867  0.00  0.00    -0.031 A 
ATOM      6  C6  IND d   1      -2.278   0.333   0.072  0.00  0.00     0.015 A 
ATOM      7  C7  IND d   1      -2.050  -0.161   1.325  0.00  0.00    -0.016 A 
ATOM      8  C8  IND d   1      -0.764  -0.602   1.601  0.00  0.00    -0.047 A 
ATOM      9  C9  IND d   1       0.253  -0.572   0.638  0.00  0.00    -0.096 A 
ATOM     10  HN1 IND d   1      -0.655  -1.299   3.478  0.00  0.00     0.298 HD
ENDROOT
TORSDOF 0
ENDMDL
