MODEL 1
REMARK minimizedAffinity 0.891563475
REMARK minimizedRMSD -1
REMARK  0 active torsions:
REMARK  status: ('A' for Active; 'I' for Inactive)
ROOT
ATOM      1  N1  IND d   1       0.184   3.391  -2.278  0.00  0.00    -0.196 N 
ATOM      2  C2  IND d   1      -1.153   3.642  -2.417  0.00  0.00     0.054 A 
ATOM      3  C3  IND d   1      -1.879   2.663  -1.831  0.00  0.00    -0.031 A 
ATOM      4  C4  IND d   1      -1.081   0.609  -0.501  0.00  0.00     0.051 A 
ATOM      5  C5  IND d   1       0.051  -0.065  -0.135  0.00  0.00    -0.031 A 
ATOM      6  C6  IND d   1       1.310   0.390  -0.470  0.00  0.00     0.015 A 
ATOM      7  C7  IND d   1       1.486   1.546  -1.176  0.00  0.00    -0.016 A 
ATOM      8  C8  IND d   1       0.339   2.229  -1.555  0.00  0.00    -0.047 A 
ATOM      9  C9  IND d   1      -0.943   1.750  -1.254  0.00  0.00    -0.096 A 
ATOM     10  HN1 IND d   1       0.820   3.877  -2.590  0.00  0.00     0.298 HD
ENDROOT
TORSDOF 0
ENDMDL
