MODEL 1
REMARK minimizedAffinity -3.61749959
REMARK minimizedRMSD -1
REMARK  0 active torsions:
REMARK  status: ('A' for Active; 'I' for Inactive)
ROOT
ATOM      1  N1  IND d   1       1.056  -0.344  -0.826  0.00  0.00    -0.196 N 
ATOM      2  C2  IND d   1      -0.157   0.069  -1.305  0.00  0.00     0.054 A 
ATOM      3  C3  IND d   1      -1.049   0.179  -0.295  0.00  0.00    -0.031 A 
ATOM      4  C4  IND d   1      -0.708  -0.170   2.233  0.00  0.00     0.051 A 
ATOM      5  C5  IND d   1       0.218  -0.586   3.148  0.00  0.00    -0.031 A 
ATOM      6  C6  IND d   1       1.497  -0.947   2.778  0.00  0.00     0.015 A 
ATOM      7  C7  IND d   1       1.903  -0.895   1.474  0.00  0.00    -0.016 A 
ATOM      8  C8  IND d   1       0.964  -0.479   0.541  0.00  0.00    -0.047 A 
ATOM      9  C9  IND d   1      -0.349  -0.152   0.906  0.00  0.00    -0.096 A 
ATOM     10  HN1 IND d   1       1.758  -0.493  -1.300  0.00  0.00     0.298 HD
ENDROOT
TORSDOF 0
ENDMDL
