MODEL 1
REMARK minimizedAffinity -5.19096279
REMARK minimizedRMSD -1
REMARK  0 active torsions:
REMARK  status: ('A' for Active; 'I' for Inactive)
ROOT
ATOM      1  N1  IND d   1      -0.143   0.991  -0.469  0.00  0.00    -0.196 N 
ATOM      2  C2  IND d   1      -1.448   0.594  -0.557  0.00  0.00     0.054 A 
ATOM      3  C3  IND d   1      -1.737  -0.291   0.423  0.00  0.00    -0.031 A 
ATOM      4  C4  IND d   1      -0.251  -1.152   2.341  0.00  0.00     0.051 A 
ATOM      5  C5  IND d   1       1.030  -1.102   2.817  0.00  0.00    -0.031 A 
ATOM      6  C6  IND d   1       2.003  -0.335   2.211  0.00  0.00     0.015 A 
ATOM      7  C7  IND d   1       1.729   0.424   1.109  0.00  0.00    -0.016 A 
ATOM      8  C8  IND d   1       0.432   0.371   0.618  0.00  0.00    -0.047 A 
ATOM      9  C9  IND d   1      -0.550  -0.439   1.203  0.00  0.00    -0.096 A 
ATOM     10  HN1 IND d   1       0.253   1.537  -1.003  0.00  0.00     0.298 HD
ENDROOT
TORSDOF 0
ENDMDL
