MODEL 1
REMARK minimizedAffinity -0.799475968
REMARK minimizedRMSD -1
REMARK  0 active torsions:
REMARK  status: ('A' for Active; 'I' for Inactive)
ROOT
ATOM      1  N1  IND d   1      -0.360  -0.023  -1.045  0.00  0.00    -0.196 N 
ATOM      2  C2  IND d   1      -0.334   1.279  -1.461  0.00  0.00     0.054 A 
ATOM      3  C3  IND d   1      -0.245   2.110  -0.398  0.00  0.00    -0.031 A 
ATOM      4  C4  IND d   1      -0.026   1.548   2.104  0.00  0.00     0.051 A 
ATOM      5  C5  IND d   1      -0.040   0.496   2.977  0.00  0.00    -0.031 A 
ATOM      6  C6  IND d   1      -0.161  -0.809   2.545  0.00  0.00     0.015 A 
ATOM      7  C7  IND d   1      -0.261  -1.113   1.217  0.00  0.00    -0.016 A 
ATOM      8  C8  IND d   1      -0.255  -0.047   0.328  0.00  0.00    -0.047 A 
ATOM      9  C9  IND d   1      -0.175   1.282   0.764  0.00  0.00    -0.096 A 
ATOM     10  HN1 IND d   1      -0.430  -0.711  -1.556  0.00  0.00     0.298 HD
ENDROOT
TORSDOF 0
ENDMDL
