MODEL 1
REMARK minimizedAffinity -2.11710596
REMARK minimizedRMSD -1
REMARK  0 active torsions:
REMARK  status: ('A' for Active; 'I' for Inactive)
ROOT
ATOM      1  N1  IND d   1       0.140   1.440  -0.268  0.00  0.00    -0.196 N 
ATOM      2  C2  IND d   1      -0.581   0.618  -1.088  0.00  0.00     0.054 A 
ATOM      3  C3  IND d   1      -0.800  -0.572  -0.486  0.00  0.00    -0.031 A 
ATOM      4  C4  IND d   1      -0.152  -1.352   1.880  0.00  0.00     0.051 A 
ATOM      5  C5  IND d   1       0.548  -0.964   2.988  0.00  0.00    -0.031 A 
ATOM      6  C6  IND d   1       1.158   0.271   3.070  0.00  0.00     0.015 A 
ATOM      7  C7  IND d   1       1.080   1.173   2.047  0.00  0.00    -0.016 A 
ATOM      8  C8  IND d   1       0.377   0.780   0.917  0.00  0.00    -0.047 A 
ATOM      9  C9  IND d   1      -0.208  -0.489   0.812  0.00  0.00    -0.096 A 
ATOM     10  HN1 IND d   1       0.403   2.236  -0.461  0.00  0.00     0.298 HD
ENDROOT
TORSDOF 0
ENDMDL
