MODEL 1
REMARK minimizedAffinity 0.696366727
REMARK minimizedRMSD -1
REMARK  0 active torsions:
REMARK  status: ('A' for Active; 'I' for Inactive)
ROOT
ATOM      1  N1  IND d   1      -1.021  -0.826   0.670  0.00  0.00    -0.196 N 
ATOM      2  C2  IND d   1      -1.860  -0.596   1.725  0.00  0.00     0.054 A 
ATOM      3  C3  IND d   1      -1.151  -0.447   2.866  0.00  0.00    -0.031 A 
ATOM      4  C4  IND d   1       1.399  -0.441   3.218  0.00  0.00     0.051 A 
ATOM      5  C5  IND d   1       2.578  -0.648   2.558  0.00  0.00    -0.031 A 
ATOM      6  C6  IND d   1       2.619  -0.928   1.208  0.00  0.00     0.015 A 
ATOM      7  C7  IND d   1       1.477  -1.000   0.461  0.00  0.00    -0.016 A 
ATOM      8  C8  IND d   1       0.278  -0.798   1.129  0.00  0.00    -0.047 A 
ATOM      9  C9  IND d   1       0.228  -0.555   2.508  0.00  0.00    -0.096 A 
ATOM     10  HN1 IND d   1      -1.264  -0.965  -0.143  0.00  0.00     0.298 HD
ENDROOT
TORSDOF 0
ENDMDL
