MODEL 1
REMARK minimizedAffinity 2.40301585
REMARK minimizedRMSD -1
REMARK  1 active torsions:
REMARK  status: ('A' for Active; 'I' for Inactive)
REMARK    1  A    between atoms: N_2  and  C1_3 
ROOT
ATOM      1  C1  UNL d   1       3.402  -2.201   4.123  0.00  0.00     0.143 A 
ATOM      2  C2  UNL d   1       4.488  -2.380   3.258  0.00  0.00    -0.057 A 
ATOM      3  C3  UNL d   1       5.771  -2.649   3.750  0.00  0.00     0.033 A 
ATOM      4  C4  UNL d   1       5.997  -2.717   5.120  0.00  0.00    -0.042 A 
ATOM      5  C5  UNL d   1       4.938  -2.518   5.999  0.00  0.00     0.033 A 
ATOM      6  C6  UNL d   1       3.658  -2.255   5.502  0.00  0.00    -0.057 A 
ENDROOT
BRANCH   1   7
ATOM      7  N   UNL d   1       2.123  -1.833   3.700  0.00  0.00    -0.732 N 
ATOM      8  C   UNL d   1       1.930  -0.669   2.863  0.00  0.00     0.284 C 
ATOM      9  H3  UNL d   1       1.556  -2.635   3.433  0.00  0.00     0.395 HD
ENDBRANCH   1   7
TORSDOF 1
ENDMDL
