MODEL 1
REMARK minimizedAffinity 2.79790688
REMARK minimizedRMSD -1
REMARK  1 active torsions:
REMARK  status: ('A' for Active; 'I' for Inactive)
REMARK    1  A    between atoms: N_2  and  C1_3 
ROOT
ATOM      1  C1  UNL d   1       2.319  -1.639   3.700  0.00  0.00     0.143 A 
ATOM      2  C2  UNL d   1       3.712  -1.562   3.607  0.00  0.00    -0.057 A 
ATOM      3  C3  UNL d   1       4.533  -1.936   4.678  0.00  0.00     0.033 A 
ATOM      4  C4  UNL d   1       3.971  -2.368   5.875  0.00  0.00    -0.042 A 
ATOM      5  C5  UNL d   1       2.588  -2.429   5.998  0.00  0.00     0.033 A 
ATOM      6  C6  UNL d   1       1.774  -2.061   4.923  0.00  0.00    -0.057 A 
ENDROOT
BRANCH   1   7
ATOM      7  N   UNL d   1       1.447  -1.189   2.706  0.00  0.00    -0.732 N 
ATOM      8  C   UNL d   1       1.741   0.015   1.957  0.00  0.00     0.284 C 
ATOM      9  H3  UNL d   1       1.076  -1.949   2.141  0.00  0.00     0.395 HD
ENDBRANCH   1   7
TORSDOF 1
ENDMDL
