MODEL 1
REMARK minimizedAffinity -2.13136292
REMARK minimizedRMSD -1
REMARK  1 active torsions:
REMARK  status: ('A' for Active; 'I' for Inactive)
REMARK    1  A    between atoms: N_2  and  C1_3 
ROOT
ATOM      1  C1  UNL d   1       4.362  -2.080   3.872  0.00  0.00     0.143 A 
ATOM      2  C2  UNL d   1       3.250  -2.879   4.157  0.00  0.00    -0.057 A 
ATOM      3  C3  UNL d   1       2.022  -2.671   3.517  0.00  0.00     0.033 A 
ATOM      4  C4  UNL d   1       1.877  -1.636   2.598  0.00  0.00    -0.042 A 
ATOM      5  C5  UNL d   1       2.962  -0.813   2.318  0.00  0.00     0.033 A 
ATOM      6  C6  UNL d   1       4.187  -1.031   2.956  0.00  0.00    -0.057 A 
ENDROOT
BRANCH   1   7
ATOM      7  N   UNL d   1       5.581  -2.174   4.548  0.00  0.00    -0.732 N 
ATOM      8  C   UNL d   1       5.630  -2.112   5.993  0.00  0.00     0.284 C 
ATOM      9  H3  UNL d   1       6.197  -2.873   4.140  0.00  0.00     0.395 HD
ENDBRANCH   1   7
TORSDOF 1
ENDMDL
