MODEL 1
REMARK minimizedAffinity 1.39426363
REMARK minimizedRMSD -1
REMARK  1 active torsions:
REMARK  status: ('A' for Active; 'I' for Inactive)
REMARK    1  A    between atoms: N_2  and  C1_3 
ROOT
ATOM      1  C1  UNL d   1       2.627  -1.787   3.710  0.00  0.00     0.143 A 
ATOM      2  C2  UNL d   1       4.025  -1.828   3.730  0.00  0.00    -0.057 A 
ATOM      3  C3  UNL d   1       4.721  -2.297   4.851  0.00  0.00     0.033 A 
ATOM      4  C4  UNL d   1       4.029  -2.706   5.986  0.00  0.00    -0.042 A 
ATOM      5  C5  UNL d   1       2.640  -2.650   5.998  0.00  0.00     0.033 A 
ATOM      6  C6  UNL d   1       1.950  -2.187   4.873  0.00  0.00    -0.057 A 
ENDROOT
BRANCH   1   7
ATOM      7  N   UNL d   1       1.880  -1.240   2.663  0.00  0.00    -0.732 N 
ATOM      8  C   UNL d   1       2.265   0.019   2.063  0.00  0.00     0.284 C 
ATOM      9  H3  UNL d   1       1.575  -1.943   1.995  0.00  0.00     0.395 HD
ENDBRANCH   1   7
TORSDOF 1
ENDMDL
