MODEL 1
REMARK minimizedAffinity 7.60482264
REMARK minimizedRMSD -1
REMARK  1 active torsions:
REMARK  status: ('A' for Active; 'I' for Inactive)
REMARK    1  A    between atoms: N_2  and  C1_3 
ROOT
ATOM      1  C1  UNL d   1       3.824  -2.331   3.684  0.00  0.00     0.143 A 
ATOM      2  C2  UNL d   1       4.291  -1.823   4.901  0.00  0.00    -0.057 A 
ATOM      3  C3  UNL d   1       4.530  -2.663   5.995  0.00  0.00     0.033 A 
ATOM      4  C4  UNL d   1       4.278  -4.027   5.900  0.00  0.00    -0.042 A 
ATOM      5  C5  UNL d   1       3.790  -4.551   4.708  0.00  0.00     0.033 A 
ATOM      6  C6  UNL d   1       3.559  -3.708   3.617  0.00  0.00    -0.057 A 
ENDROOT
BRANCH   1   7
ATOM      7  N   UNL d   1       3.474  -1.534   2.591  0.00  0.00    -0.732 N 
ATOM      8  C   UNL d   1       2.234  -0.788   2.591  0.00  0.00     0.284 C 
ATOM      9  H3  UNL d   1       4.267  -1.022   2.214  0.00  0.00     0.395 HD
ENDBRANCH   1   7
TORSDOF 1
ENDMDL
