MODEL 1
REMARK minimizedAffinity 2.90743279
REMARK minimizedRMSD -1
REMARK  1 active torsions:
REMARK  status: ('A' for Active; 'I' for Inactive)
REMARK    1  A    between atoms: N_2  and  C1_3 
ROOT
ATOM      1  C1  UNL d   1       2.893  -3.402   2.631  0.00  0.00     0.143 A 
ATOM      2  C2  UNL d   1       2.721  -2.393   1.677  0.00  0.00    -0.057 A 
ATOM      3  C3  UNL d   1       2.252  -1.124   2.038  0.00  0.00     0.033 A 
ATOM      4  C4  UNL d   1       1.919  -0.850   3.361  0.00  0.00    -0.042 A 
ATOM      5  C5  UNL d   1       2.058  -1.845   4.322  0.00  0.00     0.033 A 
ATOM      6  C6  UNL d   1       2.533  -3.108   3.955  0.00  0.00    -0.057 A 
ENDROOT
BRANCH   1   7
ATOM      7  N   UNL d   1       3.261  -4.713   2.319  0.00  0.00    -0.732 N 
ATOM      8  C   UNL d   1       3.227  -5.182   0.950  0.00  0.00     0.284 C 
ATOM      9  H3  UNL d   1       4.075  -5.023   2.844  0.00  0.00     0.395 HD
ENDBRANCH   1   7
TORSDOF 1
ENDMDL
