MODEL 1
REMARK minimizedAffinity 7.8916378
REMARK minimizedRMSD -1
REMARK  1 active torsions:
REMARK  status: ('A' for Active; 'I' for Inactive)
REMARK    1  A    between atoms: N_2  and  C1_3 
ROOT
ATOM      1  C1  UNL d   1       3.479  -5.920  -1.465  0.00  0.00     0.143 A 
ATOM      2  C2  UNL d   1       4.624  -5.962  -2.268  0.00  0.00    -0.057 A 
ATOM      3  C3  UNL d   1       4.532  -5.985  -3.664  0.00  0.00     0.033 A 
ATOM      4  C4  UNL d   1       3.287  -5.995  -4.285  0.00  0.00    -0.042 A 
ATOM      5  C5  UNL d   1       2.135  -5.978  -3.507  0.00  0.00     0.033 A 
ATOM      6  C6  UNL d   1       2.234  -5.949  -2.113  0.00  0.00    -0.057 A 
ENDROOT
BRANCH   1   7
ATOM      7  N   UNL d   1       3.503  -5.995  -0.071  0.00  0.00    -0.732 N 
ATOM      8  C   UNL d   1       2.366  -5.558   0.711  0.00  0.00     0.284 C 
ATOM      9  H3  UNL d   1       3.933  -6.854   0.265  0.00  0.00     0.395 HD
ENDBRANCH   1   7
TORSDOF 1
ENDMDL
