MODEL 1
REMARK minimizedAffinity -4.4719615
REMARK minimizedRMSD -1
REMARK  0 active torsions:
REMARK  status: ('A' for Active; 'I' for Inactive)
ROOT
ATOM      1  C   UNL d   1       1.130  -2.352   1.565  0.00  0.00     0.124 A 
ATOM      2  C1  UNL d   1      -0.001  -1.851   2.196  0.00  0.00     0.062 A 
ATOM      3  C2  UNL d   1      -0.659  -0.742   1.675  0.00  0.00     0.162 A 
ATOM      4  C3  UNL d   1      -0.190  -0.125   0.515  0.00  0.00    -0.034 A 
ATOM      5  C4  UNL d   1       0.948  -0.634  -0.113  0.00  0.00     0.162 A 
ATOM      6  C5  UNL d   1       1.603  -1.743   0.412  0.00  0.00     0.062 A 
ATOM      7  F   UNL d   1       2.695  -2.226  -0.199  0.00  0.00    -0.097 F 
ATOM      8  F1  UNL d   1       1.427  -0.065  -1.230  0.00  0.00    -0.096 F 
ATOM      9  I   UNL d   1      -1.172   1.535  -0.267  0.00  0.00    -0.060 I 
ATOM     10  F2  UNL d   1      -1.749  -0.279   2.305  0.00  0.00    -0.096 F 
ATOM     11  F3  UNL d   1      -0.460  -2.438   3.311  0.00  0.00    -0.097 F 
ATOM     12  F4  UNL d   1       1.762  -3.420   2.070  0.00  0.00    -0.092 F 
ENDROOT
TORSDOF 0
ENDMDL
