MODEL 1
REMARK minimizedAffinity 2.89622307
REMARK minimizedRMSD -1
REMARK  0 active torsions:
REMARK  status: ('A' for Active; 'I' for Inactive)
ROOT
ATOM      1  C   UNL d   1       1.201  -1.494   1.729  0.00  0.00     0.124 A 
ATOM      2  C1  UNL d   1       1.755  -1.227   0.485  0.00  0.00     0.062 A 
ATOM      3  C2  UNL d   1       1.094  -0.394  -0.412  0.00  0.00     0.162 A 
ATOM      4  C3  UNL d   1      -0.130   0.180  -0.069  0.00  0.00    -0.034 A 
ATOM      5  C4  UNL d   1      -0.683  -0.094   1.184  0.00  0.00     0.162 A 
ATOM      6  C5  UNL d   1      -0.017  -0.928   2.077  0.00  0.00     0.062 A 
ATOM      7  F   UNL d   1      -0.555  -1.185   3.278  0.00  0.00    -0.097 F 
ATOM      8  F1  UNL d   1      -1.858   0.440   1.547  0.00  0.00    -0.096 F 
ATOM      9  I   UNL d   1      -1.123   1.426  -1.407  0.00  0.00    -0.060 I 
ATOM     10  F2  UNL d   1       1.653  -0.153  -1.607  0.00  0.00    -0.096 F 
ATOM     11  F3  UNL d   1       2.932  -1.774   0.146  0.00  0.00    -0.097 F 
ATOM     12  F4  UNL d   1       1.839  -2.297   2.590  0.00  0.00    -0.092 F 
ENDROOT
TORSDOF 0
ENDMDL
