MODEL 1
REMARK minimizedAffinity 1.66234839
REMARK minimizedRMSD -1
REMARK  0 active torsions:
REMARK  status: ('A' for Active; 'I' for Inactive)
ROOT
ATOM      1  C   UNL d   1       1.799  -1.127   0.185  0.00  0.00     0.124 A 
ATOM      2  C1  UNL d   1       1.506  -0.247  -0.848  0.00  0.00     0.062 A 
ATOM      3  C2  UNL d   1       0.321   0.482  -0.832  0.00  0.00     0.162 A 
ATOM      4  C3  UNL d   1      -0.581   0.337   0.221  0.00  0.00    -0.034 A 
ATOM      5  C4  UNL d   1      -0.280  -0.550   1.257  0.00  0.00     0.162 A 
ATOM      6  C5  UNL d   1       0.905  -1.277   1.236  0.00  0.00     0.062 A 
ATOM      7  F   UNL d   1       1.186  -2.126   2.236  0.00  0.00    -0.097 F 
ATOM      8  F1  UNL d   1      -1.125  -0.714   2.285  0.00  0.00    -0.096 F 
ATOM      9  I   UNL d   1      -2.354   1.427   0.249  0.00  0.00    -0.060 I 
ATOM     10  F2  UNL d   1       0.065   1.325  -1.844  0.00  0.00    -0.096 F 
ATOM     11  F3  UNL d   1       2.367  -0.101  -1.866  0.00  0.00    -0.097 F 
ATOM     12  F4  UNL d   1       2.939  -1.829   0.167  0.00  0.00    -0.092 F 
ENDROOT
TORSDOF 0
ENDMDL
