MODEL 1
REMARK minimizedAffinity -3.78415823
REMARK minimizedRMSD -1
REMARK  0 active torsions:
REMARK  status: ('A' for Active; 'I' for Inactive)
ROOT
ATOM      1  C   UNL d   1       0.177  -1.161   2.266  0.00  0.00     0.124 A 
ATOM      2  C1  UNL d   1       0.983  -0.910   1.164  0.00  0.00     0.062 A 
ATOM      3  C2  UNL d   1       0.589   0.021   0.206  0.00  0.00     0.162 A 
ATOM      4  C3  UNL d   1      -0.617   0.708   0.347  0.00  0.00    -0.034 A 
ATOM      5  C4  UNL d   1      -1.422   0.449   1.457  0.00  0.00     0.162 A 
ATOM      6  C5  UNL d   1      -1.024  -0.482   2.411  0.00  0.00     0.062 A 
ATOM      7  F   UNL d   1      -1.804  -0.724   3.475  0.00  0.00    -0.097 F 
ATOM      8  F1  UNL d   1      -2.588   1.092   1.624  0.00  0.00    -0.096 F 
ATOM      9  I   UNL d   1      -1.209   2.100  -1.082  0.00  0.00    -0.060 I 
ATOM     10  F2  UNL d   1       1.387   0.244  -0.848  0.00  0.00    -0.096 F 
ATOM     11  F3  UNL d   1       2.143  -1.565   1.020  0.00  0.00    -0.097 F 
ATOM     12  F4  UNL d   1       0.558  -2.058   3.185  0.00  0.00    -0.092 F 
ENDROOT
TORSDOF 0
ENDMDL
