MODEL 1
REMARK minimizedAffinity -2.02404404
REMARK minimizedRMSD -1
REMARK  0 active torsions:
REMARK  status: ('A' for Active; 'I' for Inactive)
ROOT
ATOM      1  C   UNL d   1       1.480   0.082  -0.361  0.00  0.00     0.124 A 
ATOM      2  C1  UNL d   1       1.863  -1.050   0.343  0.00  0.00     0.062 A 
ATOM      3  C2  UNL d   1       1.019  -1.595   1.307  0.00  0.00     0.162 A 
ATOM      4  C3  UNL d   1      -0.218  -1.008   1.572  0.00  0.00    -0.034 A 
ATOM      5  C4  UNL d   1      -0.596   0.132   0.860  0.00  0.00     0.162 A 
ATOM      6  C5  UNL d   1       0.251   0.673  -0.102  0.00  0.00     0.062 A 
ATOM      7  F   UNL d   1      -0.121   1.767  -0.781  0.00  0.00    -0.097 F 
ATOM      8  F1  UNL d   1      -1.779   0.722   1.090  0.00  0.00    -0.096 F 
ATOM      9  I   UNL d   1      -1.483  -1.819   3.012  0.00  0.00    -0.060 I 
ATOM     10  F2  UNL d   1       1.416  -2.690   1.972  0.00  0.00    -0.096 F 
ATOM     11  F3  UNL d   1       3.051  -1.622   0.096  0.00  0.00    -0.097 F 
ATOM     12  F4  UNL d   1       2.294   0.605  -1.287  0.00  0.00    -0.092 F 
ENDROOT
TORSDOF 0
ENDMDL
