MODEL 1
REMARK minimizedAffinity 1.51133835
REMARK minimizedRMSD -1
REMARK  0 active torsions:
REMARK  status: ('A' for Active; 'I' for Inactive)
ROOT
ATOM      1  C   UNL d   1       0.466  -1.191   1.867  0.00  0.00     0.124 A 
ATOM      2  C1  UNL d   1      -0.758  -0.550   1.994  0.00  0.00     0.062 A 
ATOM      3  C2  UNL d   1      -1.196   0.327   1.006  0.00  0.00     0.162 A 
ATOM      4  C3  UNL d   1      -0.408   0.569  -0.119  0.00  0.00    -0.034 A 
ATOM      5  C4  UNL d   1       0.823  -0.078  -0.240  0.00  0.00     0.162 A 
ATOM      6  C5  UNL d   1       1.256  -0.955   0.750  0.00  0.00     0.062 A 
ATOM      7  F   UNL d   1       2.439  -1.573   0.625  0.00  0.00    -0.097 F 
ATOM      8  F1  UNL d   1       1.605   0.131  -1.309  0.00  0.00    -0.096 F 
ATOM      9  I   UNL d   1      -1.058   1.881  -1.598  0.00  0.00    -0.060 I 
ATOM     10  F2  UNL d   1      -2.383   0.932   1.156  0.00  0.00    -0.096 F 
ATOM     11  F3  UNL d   1      -1.522  -0.776   3.073  0.00  0.00    -0.097 F 
ATOM     12  F4  UNL d   1       0.885  -2.034   2.819  0.00  0.00    -0.092 F 
ENDROOT
TORSDOF 0
ENDMDL
