MODEL 1
REMARK minimizedAffinity -0.676868916
REMARK minimizedRMSD -1
REMARK  0 active torsions:
REMARK  status: ('A' for Active; 'I' for Inactive)
ROOT
ATOM      1  C   UNL d   1       0.856  -1.373   1.794  0.00  0.00     0.124 A 
ATOM      2  C1  UNL d   1       1.602  -0.974   0.694  0.00  0.00     0.062 A 
ATOM      3  C2  UNL d   1       1.084  -0.045  -0.204  0.00  0.00     0.162 A 
ATOM      4  C3  UNL d   1      -0.188   0.491  -0.005  0.00  0.00    -0.034 A 
ATOM      5  C4  UNL d   1      -0.934   0.084   1.103  0.00  0.00     0.162 A 
ATOM      6  C5  UNL d   1      -0.411  -0.845   1.997  0.00  0.00     0.062 A 
ATOM      7  F   UNL d   1      -1.134  -1.230   3.059  0.00  0.00    -0.097 F 
ATOM      8  F1  UNL d   1      -2.160   0.579   1.324  0.00  0.00    -0.096 F 
ATOM      9  I   UNL d   1      -0.967   1.880  -1.345  0.00  0.00    -0.060 I 
ATOM     10  F2  UNL d   1       1.827   0.323  -1.258  0.00  0.00    -0.096 F 
ATOM     11  F3  UNL d   1       2.826  -1.484   0.495  0.00  0.00    -0.097 F 
ATOM     12  F4  UNL d   1       1.357  -2.268   2.656  0.00  0.00    -0.092 F 
ENDROOT
TORSDOF 0
ENDMDL
