MODEL 1
REMARK minimizedAffinity -0.888522327
REMARK minimizedRMSD -1
REMARK  0 active torsions:
REMARK  status: ('A' for Active; 'I' for Inactive)
ROOT
ATOM      1  C   UNL d   1       0.789  -1.254   2.023  0.00  0.00     0.124 A 
ATOM      2  C1  UNL d   1       1.493  -1.042   0.846  0.00  0.00     0.062 A 
ATOM      3  C2  UNL d   1       1.046  -0.102  -0.079  0.00  0.00     0.162 A 
ATOM      4  C3  UNL d   1      -0.111   0.635   0.171  0.00  0.00    -0.034 A 
ATOM      5  C4  UNL d   1      -0.815   0.416   1.356  0.00  0.00     0.162 A 
ATOM      6  C5  UNL d   1      -0.365  -0.525   2.277  0.00  0.00     0.062 A 
ATOM      7  F   UNL d   1      -1.047  -0.728   3.413  0.00  0.00    -0.097 F 
ATOM      8  F1  UNL d   1      -1.932   1.107   1.628  0.00  0.00    -0.096 F 
ATOM      9  I   UNL d   1      -0.783   2.041  -1.208  0.00  0.00    -0.060 I 
ATOM     10  F2  UNL d   1       1.747   0.081  -1.207  0.00  0.00    -0.096 F 
ATOM     11  F3  UNL d   1       2.607  -1.746   0.597  0.00  0.00    -0.097 F 
ATOM     12  F4  UNL d   1       1.220  -2.160   2.910  0.00  0.00    -0.092 F 
ENDROOT
TORSDOF 0
ENDMDL
