MODEL 1
REMARK minimizedAffinity -0.526801288
REMARK minimizedRMSD -1
REMARK  0 active torsions:
REMARK  status: ('A' for Active; 'I' for Inactive)
ROOT
ATOM      1  C   UNL d   1      -0.704  -1.148   2.597  0.00  0.00     0.124 A 
ATOM      2  C1  UNL d   1       0.598  -1.539   2.321  0.00  0.00     0.062 A 
ATOM      3  C2  UNL d   1       1.302  -0.944   1.278  0.00  0.00     0.162 A 
ATOM      4  C3  UNL d   1       0.704   0.050   0.503  0.00  0.00    -0.034 A 
ATOM      5  C4  UNL d   1      -0.607   0.438   0.786  0.00  0.00     0.162 A 
ATOM      6  C5  UNL d   1      -1.306  -0.160   1.830  0.00  0.00     0.062 A 
ATOM      7  F   UNL d   1      -2.565   0.219   2.095  0.00  0.00    -0.097 F 
ATOM      8  F1  UNL d   1      -1.213   1.390   0.061  0.00  0.00    -0.096 F 
ATOM      9  I   UNL d   1       1.752   0.943  -1.058  0.00  0.00    -0.060 I 
ATOM     10  F2  UNL d   1       2.559  -1.341   1.034  0.00  0.00    -0.096 F 
ATOM     11  F3  UNL d   1       1.181  -2.493   3.061  0.00  0.00    -0.097 F 
ATOM     12  F4  UNL d   1      -1.379  -1.723   3.601  0.00  0.00    -0.092 F 
ENDROOT
TORSDOF 0
ENDMDL
