MODEL 1
REMARK minimizedAffinity -2.27994323
REMARK minimizedRMSD -1
REMARK  0 active torsions:
REMARK  status: ('A' for Active; 'I' for Inactive)
ROOT
ATOM      1  C   UNL d   1       1.428   0.571  -0.357  0.00  0.00     0.124 A 
ATOM      2  C1  UNL d   1       1.888  -0.554   0.312  0.00  0.00     0.062 A 
ATOM      3  C2  UNL d   1       1.113  -1.141   1.309  0.00  0.00     0.162 A 
ATOM      4  C3  UNL d   1      -0.130  -0.604   1.641  0.00  0.00    -0.034 A 
ATOM      5  C4  UNL d   1      -0.586   0.528   0.964  0.00  0.00     0.162 A 
ATOM      6  C5  UNL d   1       0.192   1.111  -0.031  0.00  0.00     0.062 A 
ATOM      7  F   UNL d   1      -0.254   2.199  -0.676  0.00  0.00    -0.097 F 
ATOM      8  F1  UNL d   1      -1.777   1.070   1.259  0.00  0.00    -0.096 F 
ATOM      9  I   UNL d   1      -1.292  -1.479   3.130  0.00  0.00    -0.060 I 
ATOM     10  F2  UNL d   1       1.583  -2.228   1.939  0.00  0.00    -0.096 F 
ATOM     11  F3  UNL d   1       3.082  -1.077  -0.001  0.00  0.00    -0.097 F 
ATOM     12  F4  UNL d   1       2.176   1.135  -1.314  0.00  0.00    -0.092 F 
ENDROOT
TORSDOF 0
ENDMDL
