MODEL 1
REMARK minimizedAffinity -4.51755428
REMARK minimizedRMSD -1
REMARK  0 active torsions:
REMARK  status: ('A' for Active; 'I' for Inactive)
ROOT
ATOM      1  C   UNL d   1       0.687  -1.424   2.047  0.00  0.00     0.124 A 
ATOM      2  C1  UNL d   1      -0.575  -0.983   2.421  0.00  0.00     0.062 A 
ATOM      3  C2  UNL d   1      -1.299  -0.141   1.583  0.00  0.00     0.162 A 
ATOM      4  C3  UNL d   1      -0.764   0.265   0.360  0.00  0.00    -0.034 A 
ATOM      5  C4  UNL d   1       0.506  -0.182  -0.009  0.00  0.00     0.162 A 
ATOM      6  C5  UNL d   1       1.226  -1.023   0.833  0.00  0.00     0.062 A 
ATOM      7  F   UNL d   1       2.445  -1.448   0.470  0.00  0.00    -0.097 F 
ATOM      8  F1  UNL d   1       1.050   0.190  -1.177  0.00  0.00    -0.096 F 
ATOM      9  I   UNL d   1      -1.844   1.524  -0.897  0.00  0.00    -0.060 I 
ATOM     10  F2  UNL d   1      -2.516   0.269   1.970  0.00  0.00    -0.096 F 
ATOM     11  F3  UNL d   1      -1.098  -1.368   3.595  0.00  0.00    -0.097 F 
ATOM     12  F4  UNL d   1       1.382  -2.233   2.857  0.00  0.00    -0.092 F 
ENDROOT
TORSDOF 0
ENDMDL
