MODEL 1
REMARK minimizedAffinity 0.48649472
REMARK minimizedRMSD -1
REMARK  0 active torsions:
REMARK  status: ('A' for Active; 'I' for Inactive)
ROOT
ATOM      1  C   UNL d   1       0.317   1.006  -0.895  0.00  0.00     0.124 A 
ATOM      2  C1  UNL d   1       1.619   0.616  -0.617  0.00  0.00     0.062 A 
ATOM      3  C2  UNL d   1       1.894  -0.157   0.507  0.00  0.00     0.162 A 
ATOM      4  C3  UNL d   1       0.863  -0.545   1.363  0.00  0.00    -0.034 A 
ATOM      5  C4  UNL d   1      -0.445  -0.148   1.078  0.00  0.00     0.162 A 
ATOM      6  C5  UNL d   1      -0.714   0.625  -0.048  0.00  0.00     0.062 A 
ATOM      7  F   UNL d   1      -1.973   1.001  -0.315  0.00  0.00    -0.097 F 
ATOM      8  F1  UNL d   1      -1.459  -0.503   1.879  0.00  0.00    -0.096 F 
ATOM      9  I   UNL d   1       1.269  -1.700   3.046  0.00  0.00    -0.060 I 
ATOM     10  F2  UNL d   1       3.162  -0.520   0.751  0.00  0.00    -0.096 F 
ATOM     11  F3  UNL d   1       2.617   0.984  -1.434  0.00  0.00    -0.097 F 
ATOM     12  F4  UNL d   1       0.056   1.751  -1.978  0.00  0.00    -0.092 F 
ENDROOT
TORSDOF 0
ENDMDL
