MODEL 1
REMARK minimizedAffinity 3.88739419
REMARK minimizedRMSD -1
REMARK  0 active torsions:
REMARK  status: ('A' for Active; 'I' for Inactive)
ROOT
ATOM      1  C   UNL d   1      -0.418  -0.834   2.298  0.00  0.00     0.124 A 
ATOM      2  C1  UNL d   1       0.744  -1.545   2.035  0.00  0.00     0.062 A 
ATOM      3  C2  UNL d   1       1.518  -1.235   0.920  0.00  0.00     0.162 A 
ATOM      4  C3  UNL d   1       1.133  -0.206   0.060  0.00  0.00    -0.034 A 
ATOM      5  C4  UNL d   1      -0.038   0.505   0.331  0.00  0.00     0.162 A 
ATOM      6  C5  UNL d   1      -0.808   0.190   1.446  0.00  0.00     0.062 A 
ATOM      7  F   UNL d   1      -1.931   0.879   1.698  0.00  0.00    -0.097 F 
ATOM      8  F1  UNL d   1      -0.438   1.499  -0.475  0.00  0.00    -0.096 F 
ATOM      9  I   UNL d   1       2.287   0.261  -1.607  0.00  0.00    -0.060 I 
ATOM     10  F2  UNL d   1       2.636  -1.939   0.691  0.00  0.00    -0.096 F 
ATOM     11  F3  UNL d   1       1.122  -2.536   2.856  0.00  0.00    -0.097 F 
ATOM     12  F4  UNL d   1      -1.162  -1.135   3.370  0.00  0.00    -0.092 F 
ENDROOT
TORSDOF 0
ENDMDL
