MODEL 1
REMARK minimizedAffinity -1.52221143
REMARK minimizedRMSD -1
REMARK  0 active torsions:
REMARK  status: ('A' for Active; 'I' for Inactive)
ROOT
ATOM      1  C   UNL d   1       0.725  -2.310   2.187  0.00  0.00     0.124 A 
ATOM      2  C1  UNL d   1       1.375  -2.138   0.973  0.00  0.00     0.062 A 
ATOM      3  C2  UNL d   1       0.938  -1.166   0.077  0.00  0.00     0.162 A 
ATOM      4  C3  UNL d   1      -0.155  -0.358   0.393  0.00  0.00    -0.034 A 
ATOM      5  C4  UNL d   1      -0.803  -0.539   1.616  0.00  0.00     0.162 A 
ATOM      6  C5  UNL d   1      -0.363  -1.511   2.508  0.00  0.00     0.062 A 
ATOM      7  F   UNL d   1      -0.991  -1.677   3.681  0.00  0.00    -0.097 F 
ATOM      8  F1  UNL d   1      -1.857   0.221   1.952  0.00  0.00    -0.096 F 
ATOM      9  I   UNL d   1      -0.812   1.096  -0.943  0.00  0.00    -0.060 I 
ATOM     10  F2  UNL d   1       1.584  -1.021  -1.089  0.00  0.00    -0.096 F 
ATOM     11  F3  UNL d   1       2.426  -2.909   0.660  0.00  0.00    -0.097 F 
ATOM     12  F4  UNL d   1       1.148  -3.247   3.047  0.00  0.00    -0.092 F 
ENDROOT
TORSDOF 0
ENDMDL
