MODEL 1
REMARK minimizedAffinity -4.11916018
REMARK minimizedRMSD -1
REMARK  0 active torsions:
REMARK  status: ('A' for Active; 'I' for Inactive)
ROOT
ATOM      1  C   UNL d   1       0.790  -1.539   1.934  0.00  0.00     0.124 A 
ATOM      2  C1  UNL d   1       1.490  -1.285   0.763  0.00  0.00     0.062 A 
ATOM      3  C2  UNL d   1       1.038  -0.314  -0.126  0.00  0.00     0.162 A 
ATOM      4  C3  UNL d   1      -0.120   0.411   0.153  0.00  0.00    -0.034 A 
ATOM      5  C4  UNL d   1      -0.820   0.149   1.332  0.00  0.00     0.162 A 
ATOM      6  C5  UNL d   1      -0.364  -0.822   2.218  0.00  0.00     0.062 A 
ATOM      7  F   UNL d   1      -1.042  -1.067   3.348  0.00  0.00    -0.097 F 
ATOM      8  F1  UNL d   1      -1.938   0.827   1.631  0.00  0.00    -0.096 F 
ATOM      9  I   UNL d   1      -0.799   1.863  -1.174  0.00  0.00    -0.060 I 
ATOM     10  F2  UNL d   1       1.735  -0.090  -1.250  0.00  0.00    -0.096 F 
ATOM     11  F3  UNL d   1       2.605  -1.977   0.487  0.00  0.00    -0.097 F 
ATOM     12  F4  UNL d   1       1.226  -2.475   2.788  0.00  0.00    -0.092 F 
ENDROOT
TORSDOF 0
ENDMDL
