MODEL 1
REMARK minimizedAffinity 0.959794343
REMARK minimizedRMSD -1
REMARK  0 active torsions:
REMARK  status: ('A' for Active; 'I' for Inactive)
ROOT
ATOM      1  C   UNL d   1       2.297  -1.031   0.469  0.00  0.00     0.124 A 
ATOM      2  C1  UNL d   1       2.197  -0.260  -0.681  0.00  0.00     0.062 A 
ATOM      3  C2  UNL d   1       1.037   0.462  -0.942  0.00  0.00     0.162 A 
ATOM      4  C3  UNL d   1      -0.034   0.419  -0.049  0.00  0.00    -0.034 A 
ATOM      5  C4  UNL d   1       0.073  -0.359   1.106  0.00  0.00     0.162 A 
ATOM      6  C5  UNL d   1       1.235  -1.079   1.361  0.00  0.00     0.062 A 
ATOM      7  F   UNL d   1       1.330  -1.823   2.473  0.00  0.00    -0.097 F 
ATOM      8  F1  UNL d   1      -0.938  -0.423   1.985  0.00  0.00    -0.096 F 
ATOM      9  I   UNL d   1      -1.772   1.498  -0.434  0.00  0.00    -0.060 I 
ATOM     10  F2  UNL d   1       0.968   1.198  -2.061  0.00  0.00    -0.096 F 
ATOM     11  F3  UNL d   1       3.221  -0.213  -1.546  0.00  0.00    -0.097 F 
ATOM     12  F4  UNL d   1       3.415  -1.726   0.716  0.00  0.00    -0.092 F 
ENDROOT
TORSDOF 0
ENDMDL
