MODEL 1
REMARK minimizedAffinity 3.89567423
REMARK minimizedRMSD -1
REMARK  0 active torsions:
REMARK  status: ('A' for Active; 'I' for Inactive)
ROOT
ATOM      1  C   UNL d   1       1.785  -0.570   1.573  0.00  0.00     0.124 A 
ATOM      2  C1  UNL d   1       1.645  -0.435   0.199  0.00  0.00     0.062 A 
ATOM      3  C2  UNL d   1       0.381  -0.278  -0.363  0.00  0.00     0.162 A 
ATOM      4  C3  UNL d   1      -0.753  -0.253   0.449  0.00  0.00    -0.034 A 
ATOM      5  C4  UNL d   1      -0.603  -0.390   1.830  0.00  0.00     0.162 A 
ATOM      6  C5  UNL d   1       0.662  -0.547   2.387  0.00  0.00     0.062 A 
ATOM      7  F   UNL d   1       0.796  -0.677   3.715  0.00  0.00    -0.097 F 
ATOM      8  F1  UNL d   1      -1.672  -0.370   2.641  0.00  0.00    -0.096 F 
ATOM      9  I   UNL d   1      -2.644  -0.018  -0.388  0.00  0.00    -0.060 I 
ATOM     10  F2  UNL d   1       0.275  -0.150  -1.694  0.00  0.00    -0.096 F 
ATOM     11  F3  UNL d   1       2.728  -0.458  -0.590  0.00  0.00    -0.097 F 
ATOM     12  F4  UNL d   1       3.002  -0.722   2.112  0.00  0.00    -0.092 F 
ENDROOT
TORSDOF 0
ENDMDL
