MODEL 1
REMARK minimizedAffinity 12.5525131
REMARK minimizedRMSD -1
REMARK  0 active torsions:
REMARK  status: ('A' for Active; 'I' for Inactive)
ROOT
ATOM      1  C   UNL d   1      -3.548   1.575   4.169  0.00  0.00     0.023 A 
ATOM      2  C1  UNL d   1      -3.809   0.771   3.059  0.00  0.00     0.003 A 
ATOM      3  C2  UNL d   1      -3.843  -0.618   3.195  0.00  0.00     0.048 A 
ATOM      4  C3  UNL d   1      -3.615  -1.197   4.443  0.00  0.00     0.023 A 
ATOM      5  C4  UNL d   1      -3.354  -0.396   5.556  0.00  0.00     0.048 A 
ATOM      6  C5  UNL d   1      -3.321   0.993   5.416  0.00  0.00     0.003 A 
ATOM      7  I   UNL d   1      -3.664  -3.264   4.648  0.00  0.00    -0.146 I 
ENDROOT
TORSDOF 0
ENDMDL
