MODEL 1
REMARK minimizedAffinity 10.9962587
REMARK minimizedRMSD -1
REMARK  0 active torsions:
REMARK  status: ('A' for Active; 'I' for Inactive)
ROOT
ATOM      1  C   UNL d   1      -3.197  -0.160   4.586  0.00  0.00     0.023 A 
ATOM      2  C1  UNL d   1      -3.557   0.402   3.361  0.00  0.00     0.003 A 
ATOM      3  C2  UNL d   1      -4.361  -0.315   2.472  0.00  0.00     0.048 A 
ATOM      4  C3  UNL d   1      -4.800  -1.593   2.814  0.00  0.00     0.023 A 
ATOM      5  C4  UNL d   1      -4.443  -2.159   4.039  0.00  0.00     0.048 A 
ATOM      6  C5  UNL d   1      -3.639  -1.439   4.925  0.00  0.00     0.003 A 
ATOM      7  I   UNL d   1      -5.996  -2.662   1.493  0.00  0.00    -0.146 I 
ENDROOT
TORSDOF 0
ENDMDL
