MODEL 1
REMARK minimizedAffinity 19.2410679
REMARK minimizedRMSD -1
REMARK  0 active torsions:
REMARK  status: ('A' for Active; 'I' for Inactive)
ROOT
ATOM      1  C   UNL d   1      -4.858   2.660   5.647  0.00  0.00     0.023 A 
ATOM      2  C1  UNL d   1      -5.087   2.979   4.308  0.00  0.00     0.003 A 
ATOM      3  C2  UNL d   1      -4.213   2.522   3.320  0.00  0.00     0.048 A 
ATOM      4  C3  UNL d   1      -3.112   1.744   3.678  0.00  0.00     0.023 A 
ATOM      5  C4  UNL d   1      -2.879   1.421   5.016  0.00  0.00     0.048 A 
ATOM      6  C5  UNL d   1      -3.756   1.882   6.000  0.00  0.00     0.003 A 
ATOM      7  I   UNL d   1      -1.809   1.061   2.209  0.00  0.00    -0.146 I 
ENDROOT
TORSDOF 0
ENDMDL
