MODEL 1
REMARK minimizedAffinity 13.4922838
REMARK minimizedRMSD -1
REMARK  0 active torsions:
REMARK  status: ('A' for Active; 'I' for Inactive)
ROOT
ATOM      1  C   UNL d   1       3.076  -0.469  -0.451  0.00  0.00     0.023 A 
ATOM      2  C1  UNL d   1       2.871  -1.813  -0.139  0.00  0.00     0.003 A 
ATOM      3  C2  UNL d   1       2.000  -2.586  -0.908  0.00  0.00     0.048 A 
ATOM      4  C3  UNL d   1       1.336  -2.008  -1.991  0.00  0.00     0.023 A 
ATOM      5  C4  UNL d   1       1.538  -0.664  -2.308  0.00  0.00     0.048 A 
ATOM      6  C5  UNL d   1       2.410   0.105  -1.535  0.00  0.00     0.003 A 
ATOM      7  I   UNL d   1       0.038  -3.157  -3.138  0.00  0.00    -0.146 I 
ENDROOT
TORSDOF 0
ENDMDL
