MODEL 1
REMARK minimizedAffinity 17.4546127
REMARK minimizedRMSD -1
REMARK  0 active torsions:
REMARK  status: ('A' for Active; 'I' for Inactive)
ROOT
ATOM      1  C   UNL d   1      -3.045   0.522   5.143  0.00  0.00     0.023 A 
ATOM      2  C1  UNL d   1      -3.292   0.393   3.776  0.00  0.00     0.003 A 
ATOM      3  C2  UNL d   1      -4.139   1.296   3.130  0.00  0.00     0.048 A 
ATOM      4  C3  UNL d   1      -4.736   2.325   3.857  0.00  0.00     0.023 A 
ATOM      5  C4  UNL d   1      -4.492   2.458   5.225  0.00  0.00     0.048 A 
ATOM      6  C5  UNL d   1      -3.645   1.553   5.866  0.00  0.00     0.003 A 
ATOM      7  I   UNL d   1      -5.997   3.670   2.898  0.00  0.00    -0.146 I 
ENDROOT
TORSDOF 0
ENDMDL
