MODEL 1
REMARK minimizedAffinity 4.9826436
REMARK minimizedRMSD -1
REMARK  0 active torsions:
REMARK  status: ('A' for Active; 'I' for Inactive)
ROOT
ATOM      1  C   UNL d   1       1.440  -4.182  -2.233  0.00  0.00     0.023 A 
ATOM      2  C1  UNL d   1       1.890  -4.068  -0.917  0.00  0.00     0.003 A 
ATOM      3  C2  UNL d   1       2.381  -2.848  -0.449  0.00  0.00     0.048 A 
ATOM      4  C3  UNL d   1       2.419  -1.745  -1.302  0.00  0.00     0.023 A 
ATOM      5  C4  UNL d   1       1.969  -1.854  -2.619  0.00  0.00     0.048 A 
ATOM      6  C5  UNL d   1       1.480  -3.077  -3.082  0.00  0.00     0.003 A 
ATOM      7  I   UNL d   1       3.149   0.073  -0.607  0.00  0.00    -0.146 I 
ENDROOT
TORSDOF 0
ENDMDL
