MODEL 1
REMARK minimizedAffinity 6.99801922
REMARK minimizedRMSD -1
REMARK  0 active torsions:
REMARK  status: ('A' for Active; 'I' for Inactive)
ROOT
ATOM      1  C   UNL d   1       1.756  -4.476  -1.799  0.00  0.00     0.023 A 
ATOM      2  C1  UNL d   1       2.449  -4.066  -0.660  0.00  0.00     0.003 A 
ATOM      3  C2  UNL d   1       2.607  -2.705  -0.389  0.00  0.00     0.048 A 
ATOM      4  C3  UNL d   1       2.068  -1.760  -1.261  0.00  0.00     0.023 A 
ATOM      5  C4  UNL d   1       1.372  -2.166  -2.401  0.00  0.00     0.048 A 
ATOM      6  C5  UNL d   1       1.218  -3.527  -2.668  0.00  0.00     0.003 A 
ATOM      7  I   UNL d   1       2.301   0.266  -0.861  0.00  0.00    -0.146 I 
ENDROOT
TORSDOF 0
ENDMDL
