MODEL 1
REMARK minimizedAffinity 7.86088133
REMARK minimizedRMSD -1
REMARK  0 active torsions:
REMARK  status: ('A' for Active; 'I' for Inactive)
ROOT
ATOM      1  C   UNL d   1       1.015  -4.392  -2.087  0.00  0.00     0.023 A 
ATOM      2  C1  UNL d   1       1.689  -4.446  -0.867  0.00  0.00     0.003 A 
ATOM      3  C2  UNL d   1       2.261  -3.291  -0.331  0.00  0.00     0.048 A 
ATOM      4  C3  UNL d   1       2.155  -2.083  -1.021  0.00  0.00     0.023 A 
ATOM      5  C4  UNL d   1       1.481  -2.024  -2.242  0.00  0.00     0.048 A 
ATOM      6  C5  UNL d   1       0.911  -3.182  -2.773  0.00  0.00     0.003 A 
ATOM      7  I   UNL d   1       3.007  -0.362  -0.226  0.00  0.00    -0.146 I 
ENDROOT
TORSDOF 0
ENDMDL
