MODEL 1
REMARK minimizedAffinity 11.7150755
REMARK minimizedRMSD -1
REMARK  0 active torsions:
REMARK  status: ('A' for Active; 'I' for Inactive)
ROOT
ATOM      1  C   UNL d   1       1.562  -3.352  -1.869  0.00  0.00     0.023 A 
ATOM      2  C1  UNL d   1       1.350  -2.068  -2.373  0.00  0.00     0.003 A 
ATOM      3  C2  UNL d   1       1.816  -0.955  -1.671  0.00  0.00     0.048 A 
ATOM      4  C3  UNL d   1       2.494  -1.133  -0.466  0.00  0.00     0.023 A 
ATOM      5  C4  UNL d   1       2.710  -2.415   0.042  0.00  0.00     0.048 A 
ATOM      6  C5  UNL d   1       2.241  -3.525  -0.663  0.00  0.00     0.003 A 
ATOM      7  I   UNL d   1       3.190   0.523   0.581  0.00  0.00    -0.146 I 
ENDROOT
TORSDOF 0
ENDMDL
