MODEL 1
REMARK minimizedAffinity 19.3238621
REMARK minimizedRMSD -1
REMARK  0 active torsions:
REMARK  status: ('A' for Active; 'I' for Inactive)
ROOT
ATOM      1  C   UNL d   1      -3.364   1.456   3.660  0.00  0.00     0.023 A 
ATOM      2  C1  UNL d   1      -3.814   0.573   2.679  0.00  0.00     0.003 A 
ATOM      3  C2  UNL d   1      -4.105  -0.752   3.011  0.00  0.00     0.048 A 
ATOM      4  C3  UNL d   1      -3.946  -1.186   4.326  0.00  0.00     0.023 A 
ATOM      5  C4  UNL d   1      -3.497  -0.306   5.312  0.00  0.00     0.048 A 
ATOM      6  C5  UNL d   1      -3.205   1.017   4.975  0.00  0.00     0.003 A 
ATOM      7  I   UNL d   1      -4.379  -3.157   4.822  0.00  0.00    -0.146 I 
ENDROOT
TORSDOF 0
ENDMDL
