MODEL 1
REMARK minimizedAffinity 14.3868465
REMARK minimizedRMSD -1
REMARK  0 active torsions:
REMARK  status: ('A' for Active; 'I' for Inactive)
ROOT
ATOM      1  C   UNL d   1      -1.161   2.470  -4.464  0.00  0.00     0.023 A 
ATOM      2  C1  UNL d   1      -1.380   3.682  -3.811  0.00  0.00     0.003 A 
ATOM      3  C2  UNL d   1      -2.390   4.541  -4.250  0.00  0.00     0.048 A 
ATOM      4  C3  UNL d   1      -3.177   4.181  -5.343  0.00  0.00     0.023 A 
ATOM      5  C4  UNL d   1      -2.962   2.968  -5.999  0.00  0.00     0.048 A 
ATOM      6  C5  UNL d   1      -1.951   2.113  -5.557  0.00  0.00     0.003 A 
ATOM      7  I   UNL d   1      -4.681   5.458  -5.998  0.00  0.00    -0.146 I 
ENDROOT
TORSDOF 0
ENDMDL
