MODEL 1
REMARK minimizedAffinity 12.2718086
REMARK minimizedRMSD -1
REMARK  0 active torsions:
REMARK  status: ('A' for Active; 'I' for Inactive)
ROOT
ATOM      1  C   UNL d   1      -3.910   5.655  -5.385  0.00  0.00     0.023 A 
ATOM      2  C1  UNL d   1      -3.959   4.404  -5.999  0.00  0.00     0.003 A 
ATOM      3  C2  UNL d   1      -3.027   3.422  -5.661  0.00  0.00     0.048 A 
ATOM      4  C3  UNL d   1      -2.047   3.697  -4.707  0.00  0.00     0.023 A 
ATOM      5  C4  UNL d   1      -1.995   4.947  -4.089  0.00  0.00     0.048 A 
ATOM      6  C5  UNL d   1      -2.929   5.927  -4.431  0.00  0.00     0.003 A 
ATOM      7  I   UNL d   1      -0.658   2.236  -4.202  0.00  0.00    -0.146 I 
ENDROOT
TORSDOF 0
ENDMDL
