MODEL 1
REMARK minimizedAffinity 9.4734726
REMARK minimizedRMSD -1
REMARK  0 active torsions:
REMARK  status: ('A' for Active; 'I' for Inactive)
ROOT
ATOM      1  C   UNL d   1       1.880  -2.708  -0.857  0.00  0.00     0.023 A 
ATOM      2  C1  UNL d   1       2.967  -2.641   0.014  0.00  0.00     0.003 A 
ATOM      3  C2  UNL d   1       3.633  -1.429   0.210  0.00  0.00     0.048 A 
ATOM      4  C3  UNL d   1       3.205  -0.288  -0.467  0.00  0.00     0.023 A 
ATOM      5  C4  UNL d   1       2.116  -0.350  -1.339  0.00  0.00     0.048 A 
ATOM      6  C5  UNL d   1       1.455  -1.564  -1.533  0.00  0.00     0.003 A 
ATOM      7  I   UNL d   1       4.193   1.517  -0.176  0.00  0.00    -0.146 I 
ENDROOT
TORSDOF 0
ENDMDL
