MODEL 1
REMARK minimizedAffinity 13.0915003
REMARK minimizedRMSD -1
REMARK  0 active torsions:
REMARK  status: ('A' for Active; 'I' for Inactive)
ROOT
ATOM      1  C   UNL d   1      -5.744  -3.195   4.134  0.00  0.00     0.023 A 
ATOM      2  C1  UNL d   1      -5.999  -2.529   2.936  0.00  0.00     0.003 A 
ATOM      3  C2  UNL d   1      -5.311  -1.354   2.628  0.00  0.00     0.048 A 
ATOM      4  C3  UNL d   1      -4.368  -0.851   3.523  0.00  0.00     0.023 A 
ATOM      5  C4  UNL d   1      -4.108  -1.515   4.724  0.00  0.00     0.048 A 
ATOM      6  C5  UNL d   1      -4.800  -2.689   5.027  0.00  0.00     0.003 A 
ATOM      7  I   UNL d   1      -3.341   0.898   3.067  0.00  0.00    -0.146 I 
ENDROOT
TORSDOF 0
ENDMDL
