MODEL 1
REMARK minimizedAffinity 16.7394104
REMARK minimizedRMSD -1
REMARK  0 active torsions:
REMARK  status: ('A' for Active; 'I' for Inactive)
ROOT
ATOM      1  C   UNL d   1       2.403   1.223   1.410  0.00  0.00     0.023 A 
ATOM      2  C1  UNL d   1       1.566   0.346   0.719  0.00  0.00     0.003 A 
ATOM      3  C2  UNL d   1       0.230   0.208   1.101  0.00  0.00     0.048 A 
ATOM      4  C3  UNL d   1      -0.263   0.950   2.174  0.00  0.00     0.023 A 
ATOM      5  C4  UNL d   1       0.570   1.829   2.867  0.00  0.00     0.048 A 
ATOM      6  C5  UNL d   1       1.906   1.963   2.483  0.00  0.00     0.003 A 
ATOM      7  I   UNL d   1      -2.252   0.746   2.743  0.00  0.00    -0.146 I 
ENDROOT
TORSDOF 0
ENDMDL
