MODEL 1
REMARK minimizedAffinity 2.29260778
REMARK minimizedRMSD -1
REMARK  0 active torsions:
REMARK  status: ('A' for Active; 'I' for Inactive)
ROOT
ATOM      1  C   UNL d   1       0.650   1.020   0.530  0.00  0.00     0.020 A 
ATOM      2  C1  UNL d   1       0.443  -0.316   0.871  0.00  0.00     0.020 A 
ATOM      3  C2  UNL d   1      -0.671  -0.678   1.631  0.00  0.00     0.034 A 
ATOM      4  C3  UNL d   1      -1.582   0.297   2.053  0.00  0.00     0.017 A 
ATOM      5  C4  UNL d   1      -1.374   1.638   1.710  0.00  0.00     0.017 A 
ATOM      6  C5  UNL d   1      -0.256   1.995   0.949  0.00  0.00     0.034 A 
ATOM      7 Cl   UNL d   1      -2.454   2.897   2.194  0.00  0.00    -0.070 Cl
ATOM      8 Cl1  UNL d   1      -2.938  -0.222   2.990  0.00  0.00    -0.070 Cl
ENDROOT
TORSDOF 0
ENDMDL
