MODEL 1
REMARK minimizedAffinity 3.22149205
REMARK minimizedRMSD -1
REMARK  0 active torsions:
REMARK  status: ('A' for Active; 'I' for Inactive)
ROOT
ATOM      1  C   UNL d   1      -1.876   2.017   2.201  0.00  0.00     0.020 A 
ATOM      2  C1  UNL d   1      -1.265   2.886   1.299  0.00  0.00     0.020 A 
ATOM      3  C2  UNL d   1      -0.114   2.488   0.616  0.00  0.00     0.034 A 
ATOM      4  C3  UNL d   1       0.430   1.217   0.834  0.00  0.00     0.017 A 
ATOM      5  C4  UNL d   1      -0.185   0.345   1.740  0.00  0.00     0.017 A 
ATOM      6  C5  UNL d   1      -1.337   0.748   2.421  0.00  0.00     0.034 A 
ATOM      7 Cl   UNL d   1       0.427  -1.240   2.061  0.00  0.00    -0.070 Cl
ATOM      8 Cl1  UNL d   1       1.855   0.791  -0.046  0.00  0.00    -0.070 Cl
ENDROOT
TORSDOF 0
ENDMDL
