MODEL 1
REMARK minimizedAffinity 1.50183845
REMARK minimizedRMSD -1
REMARK  0 active torsions:
REMARK  status: ('A' for Active; 'I' for Inactive)
ROOT
ATOM      1  C   UNL d   1       2.469  -0.164  -0.066  0.00  0.00     0.020 A 
ATOM      2  C1  UNL d   1       2.585   1.218  -0.216  0.00  0.00     0.020 A 
ATOM      3  C2  UNL d   1       1.619   2.063   0.335  0.00  0.00     0.034 A 
ATOM      4  C3  UNL d   1       0.534   1.528   1.038  0.00  0.00     0.017 A 
ATOM      5  C4  UNL d   1       0.419   0.141   1.188  0.00  0.00     0.017 A 
ATOM      6  C5  UNL d   1       1.388  -0.700   0.634  0.00  0.00     0.034 A 
ATOM      7 Cl   UNL d   1      -0.892  -0.593   2.042  0.00  0.00    -0.070 Cl
ATOM      8 Cl1  UNL d   1      -0.622   2.633   1.693  0.00  0.00    -0.070 Cl
ENDROOT
TORSDOF 0
ENDMDL
