MODEL 1
REMARK minimizedAffinity 5.04183054
REMARK minimizedRMSD -1
REMARK  0 active torsions:
REMARK  status: ('A' for Active; 'I' for Inactive)
ROOT
ATOM      1  C   UNL d   1       0.540  -0.605   1.419  0.00  0.00     0.020 A 
ATOM      2  C1  UNL d   1      -0.798  -0.505   1.799  0.00  0.00     0.020 A 
ATOM      3  C2  UNL d   1      -1.466   0.716   1.689  0.00  0.00     0.034 A 
ATOM      4  C3  UNL d   1      -0.796   1.843   1.198  0.00  0.00     0.017 A 
ATOM      5  C4  UNL d   1       0.547   1.742   0.817  0.00  0.00     0.017 A 
ATOM      6  C5  UNL d   1       1.211   0.516   0.929  0.00  0.00     0.034 A 
ATOM      7 Cl   UNL d   1       1.440   3.088   0.202  0.00  0.00    -0.070 Cl
ATOM      8 Cl1  UNL d   1      -1.684   3.321   1.088  0.00  0.00    -0.070 Cl
ENDROOT
TORSDOF 0
ENDMDL
