MODEL 1
REMARK minimizedAffinity 5.20643997
REMARK minimizedRMSD -1
REMARK  0 active torsions:
REMARK  status: ('A' for Active; 'I' for Inactive)
ROOT
ATOM      1  C   UNL d   1       0.891   1.466   0.891  0.00  0.00     0.020 A 
ATOM      2  C1  UNL d   1       0.858   0.073   0.917  0.00  0.00     0.020 A 
ATOM      3  C2  UNL d   1      -0.313  -0.591   1.290  0.00  0.00     0.034 A 
ATOM      4  C3  UNL d   1      -1.455   0.140   1.638  0.00  0.00     0.017 A 
ATOM      5  C4  UNL d   1      -1.421   1.538   1.612  0.00  0.00     0.017 A 
ATOM      6  C5  UNL d   1      -0.246   2.198   1.238  0.00  0.00     0.034 A 
ATOM      7 Cl   UNL d   1      -2.790   2.508   2.029  0.00  0.00    -0.070 Cl
ATOM      8 Cl1  UNL d   1      -2.869  -0.746   2.089  0.00  0.00    -0.070 Cl
ENDROOT
TORSDOF 0
ENDMDL
