MODEL 1
REMARK minimizedAffinity 9.97524071
REMARK minimizedRMSD -1
REMARK  0 active torsions:
REMARK  status: ('A' for Active; 'I' for Inactive)
ROOT
ATOM      1  C   UNL d   1      -1.541   1.771   1.907  0.00  0.00     0.020 A 
ATOM      2  C1  UNL d   1      -0.260   2.311   1.800  0.00  0.00     0.020 A 
ATOM      3  C2  UNL d   1       0.854   1.531   2.116  0.00  0.00     0.034 A 
ATOM      4  C3  UNL d   1       0.690   0.208   2.542  0.00  0.00     0.017 A 
ATOM      5  C4  UNL d   1      -0.597  -0.333   2.649  0.00  0.00     0.017 A 
ATOM      6  C5  UNL d   1      -1.709   0.452   2.331  0.00  0.00     0.034 A 
ATOM      7 Cl   UNL d   1      -0.879  -1.957   3.167  0.00  0.00    -0.070 Cl
ATOM      8 Cl1  UNL d   1       2.112  -0.699   2.916  0.00  0.00    -0.070 Cl
ENDROOT
TORSDOF 0
ENDMDL
