MODEL 1
REMARK minimizedAffinity 1.39389932
REMARK minimizedRMSD -1
REMARK  0 active torsions:
REMARK  status: ('A' for Active; 'I' for Inactive)
ROOT
ATOM      1  C   UNL d   1      -0.505   1.931   0.774  0.00  0.00     0.020 A 
ATOM      2  C1  UNL d   1       0.735   1.298   0.837  0.00  0.00     0.020 A 
ATOM      3  C2  UNL d   1       0.819  -0.035   1.245  0.00  0.00     0.034 A 
ATOM      4  C3  UNL d   1      -0.340  -0.739   1.590  0.00  0.00     0.017 A 
ATOM      5  C4  UNL d   1      -1.585  -0.103   1.527  0.00  0.00     0.017 A 
ATOM      6  C5  UNL d   1      -1.663   1.232   1.118  0.00  0.00     0.034 A 
ATOM      7 Cl   UNL d   1      -3.059  -0.906   1.938  0.00  0.00    -0.070 Cl
ATOM      8 Cl1  UNL d   1      -0.163  -2.385   2.085  0.00  0.00    -0.070 Cl
ENDROOT
TORSDOF 0
ENDMDL
