MODEL 1
REMARK minimizedAffinity 2.70266128
REMARK minimizedRMSD -1
REMARK  0 active torsions:
REMARK  status: ('A' for Active; 'I' for Inactive)
ROOT
ATOM      1  C   UNL d   1       0.862   1.498   0.991  0.00  0.00     0.020 A 
ATOM      2  C1  UNL d   1      -0.365   2.085   0.687  0.00  0.00     0.020 A 
ATOM      3  C2  UNL d   1      -1.551   1.385   0.919  0.00  0.00     0.034 A 
ATOM      4  C3  UNL d   1      -1.512   0.093   1.457  0.00  0.00     0.017 A 
ATOM      5  C4  UNL d   1      -0.279  -0.495   1.762  0.00  0.00     0.017 A 
ATOM      6  C5  UNL d   1       0.905   0.211   1.527  0.00  0.00     0.034 A 
ATOM      7 Cl   UNL d   1      -0.150  -2.085   2.428  0.00  0.00    -0.070 Cl
ATOM      8 Cl1  UNL d   1      -3.017  -0.714   1.719  0.00  0.00    -0.070 Cl
ENDROOT
TORSDOF 0
ENDMDL
