MODEL 1
REMARK minimizedAffinity 0.614422262
REMARK minimizedRMSD -1
REMARK  0 active torsions:
REMARK  status: ('A' for Active; 'I' for Inactive)
ROOT
ATOM      1  C   UNL d   1       0.344   0.592   1.126  0.00  0.00     0.020 A 
ATOM      2  C1  UNL d   1       0.146   1.956   1.337  0.00  0.00     0.020 A 
ATOM      3  C2  UNL d   1      -1.004   2.401   1.993  0.00  0.00     0.034 A 
ATOM      4  C3  UNL d   1      -1.960   1.482   2.441  0.00  0.00     0.017 A 
ATOM      5  C4  UNL d   1      -1.759   0.113   2.229  0.00  0.00     0.017 A 
ATOM      6  C5  UNL d   1      -0.606  -0.327   1.571  0.00  0.00     0.034 A 
ATOM      7 Cl   UNL d   1      -2.894  -1.082   2.752  0.00  0.00    -0.070 Cl
ATOM      8 Cl1  UNL d   1      -3.357   2.103   3.244  0.00  0.00    -0.070 Cl
ENDROOT
TORSDOF 0
ENDMDL
