MODEL 1
REMARK minimizedAffinity -0.588199377
REMARK minimizedRMSD -1
REMARK  0 active torsions:
REMARK  status: ('A' for Active; 'I' for Inactive)
ROOT
ATOM      1  C   UNL d   1       0.392  -0.633   0.877  0.00  0.00     0.020 A 
ATOM      2  C1  UNL d   1       0.800   0.692   0.732  0.00  0.00     0.020 A 
ATOM      3  C2  UNL d   1       0.014   1.725   1.248  0.00  0.00     0.034 A 
ATOM      4  C3  UNL d   1      -1.184   1.434   1.911  0.00  0.00     0.017 A 
ATOM      5  C4  UNL d   1      -1.593   0.104   2.056  0.00  0.00     0.017 A 
ATOM      6  C5  UNL d   1      -0.802  -0.926   1.537  0.00  0.00     0.034 A 
ATOM      7 Cl   UNL d   1      -3.058  -0.333   2.862  0.00  0.00    -0.070 Cl
ATOM      8 Cl1  UNL d   1      -2.105   2.761   2.524  0.00  0.00    -0.070 Cl
ENDROOT
TORSDOF 0
ENDMDL
