MODEL 1
REMARK minimizedAffinity 0.0600874275
REMARK minimizedRMSD -1
REMARK  0 active torsions:
REMARK  status: ('A' for Active; 'I' for Inactive)
ROOT
ATOM      1  C   UNL d   1       0.734  -0.419   1.040  0.00  0.00     0.020 A 
ATOM      2  C1  UNL d   1       0.905   0.961   0.939  0.00  0.00     0.020 A 
ATOM      3  C2  UNL d   1      -0.129   1.822   1.315  0.00  0.00     0.034 A 
ATOM      4  C3  UNL d   1      -1.338   1.303   1.793  0.00  0.00     0.017 A 
ATOM      5  C4  UNL d   1      -1.508  -0.083   1.894  0.00  0.00     0.017 A 
ATOM      6  C5  UNL d   1      -0.469  -0.940   1.517  0.00  0.00     0.034 A 
ATOM      7 Cl   UNL d   1      -2.970  -0.797   2.476  0.00  0.00    -0.070 Cl
ATOM      8 Cl1  UNL d   1      -2.573   2.425   2.241  0.00  0.00    -0.070 Cl
ENDROOT
TORSDOF 0
ENDMDL
