MODEL 1
REMARK minimizedAffinity -2.07624769
REMARK minimizedRMSD -1
REMARK  0 active torsions:
REMARK  status: ('A' for Active; 'I' for Inactive)
ROOT
ATOM      1  C   UNL d   1      -1.380   3.428   1.211  0.00  0.00     0.020 A 
ATOM      2  C1  UNL d   1      -0.008   3.374   0.972  0.00  0.00     0.020 A 
ATOM      3  C2  UNL d   1       0.691   2.182   1.177  0.00  0.00     0.034 A 
ATOM      4  C3  UNL d   1       0.017   1.039   1.623  0.00  0.00     0.017 A 
ATOM      5  C4  UNL d   1      -1.361   1.094   1.863  0.00  0.00     0.017 A 
ATOM      6  C5  UNL d   1      -2.055   2.290   1.656  0.00  0.00     0.034 A 
ATOM      7 Cl   UNL d   1      -2.261  -0.274   2.414  0.00  0.00    -0.070 Cl
ATOM      8 Cl1  UNL d   1       0.943  -0.401   1.855  0.00  0.00    -0.070 Cl
ENDROOT
TORSDOF 0
ENDMDL
