MODEL 1
REMARK minimizedAffinity 6.43761396
REMARK minimizedRMSD -1
REMARK  0 active torsions:
REMARK  status: ('A' for Active; 'I' for Inactive)
ROOT
ATOM      1  C   UNL d   1      -3.409  -2.037  -3.605  0.00  0.00     0.020 A 
ATOM      2  C1  UNL d   1      -3.198  -0.839  -2.925  0.00  0.00     0.020 A 
ATOM      3  C2  UNL d   1      -3.087  -0.836  -1.533  0.00  0.00     0.034 A 
ATOM      4  C3  UNL d   1      -3.187  -2.034  -0.817  0.00  0.00     0.017 A 
ATOM      5  C4  UNL d   1      -3.399  -3.237  -1.501  0.00  0.00     0.017 A 
ATOM      6  C5  UNL d   1      -3.510  -3.234  -2.894  0.00  0.00     0.034 A 
ATOM      7 Cl   UNL d   1      -3.534  -4.755  -0.686  0.00  0.00    -0.070 Cl
ATOM      8 Cl1  UNL d   1      -3.040  -1.957   0.903  0.00  0.00    -0.070 Cl
ENDROOT
TORSDOF 0
ENDMDL
