MODEL 1
REMARK minimizedAffinity 4.57235289
REMARK minimizedRMSD -1
REMARK  0 active torsions:
REMARK  status: ('A' for Active; 'I' for Inactive)
ROOT
ATOM      1  C   UNL d   1       2.746   2.535  -4.164  0.00  0.00     0.020 A 
ATOM      2  C1  UNL d   1       4.138   2.482  -4.122  0.00  0.00     0.020 A 
ATOM      3  C2  UNL d   1       4.894   3.524  -4.664  0.00  0.00     0.034 A 
ATOM      4  C3  UNL d   1       4.257   4.623  -5.251  0.00  0.00     0.017 A 
ATOM      5  C4  UNL d   1       2.859   4.676  -5.293  0.00  0.00     0.017 A 
ATOM      6  C5  UNL d   1       2.108   3.630  -4.748  0.00  0.00     0.034 A 
ATOM      7 Cl   UNL d   1       2.002   6.000  -6.000  0.00  0.00    -0.070 Cl
ATOM      8 Cl1  UNL d   1       5.253   5.876  -5.902  0.00  0.00    -0.070 Cl
ENDROOT
TORSDOF 0
ENDMDL
