MODEL 1
REMARK minimizedAffinity 1.70588231
REMARK minimizedRMSD -1
REMARK  0 active torsions:
REMARK  status: ('A' for Active; 'I' for Inactive)
ROOT
ATOM      1  C   UNL d   1       0.858   1.525   2.008  0.00  0.00     0.020 A 
ATOM      2  C1  UNL d   1       1.013   2.392   0.928  0.00  0.00     0.020 A 
ATOM      3  C2  UNL d   1      -0.111   2.924   0.292  0.00  0.00     0.034 A 
ATOM      4  C3  UNL d   1      -1.395   2.589   0.737  0.00  0.00     0.017 A 
ATOM      5  C4  UNL d   1      -1.550   1.719   1.822  0.00  0.00     0.017 A 
ATOM      6  C5  UNL d   1      -0.421   1.189   2.454  0.00  0.00     0.034 A 
ATOM      7 Cl   UNL d   1      -3.102   1.259   2.427  0.00  0.00    -0.070 Cl
ATOM      8 Cl1  UNL d   1      -2.740   3.284  -0.096  0.00  0.00    -0.070 Cl
ENDROOT
TORSDOF 0
ENDMDL
