MODEL 1
REMARK minimizedAffinity 1.90184271
REMARK minimizedRMSD -1
REMARK  1 active torsions:
REMARK  status: ('A' for Active; 'I' for Inactive)
REMARK    1  A    between atoms: N_2  and  C1_3 
ROOT
ATOM      1  C1  UNL d   1       4.384  -1.878  -2.912  0.00  0.00     0.143 A 
ATOM      2  C2  UNL d   1       5.665  -2.138  -2.412  0.00  0.00    -0.057 A 
ATOM      3  C3  UNL d   1       5.849  -2.839  -1.214  0.00  0.00     0.033 A 
ATOM      4  C4  UNL d   1       4.751  -3.269  -0.477  0.00  0.00    -0.042 A 
ATOM      5  C5  UNL d   1       3.468  -3.000  -0.942  0.00  0.00     0.033 A 
ATOM      6  C6  UNL d   1       3.291  -2.305  -2.142  0.00  0.00    -0.057 A 
ENDROOT
BRANCH   1   7
ATOM      7  N   UNL d   1       4.134  -1.101  -4.045  0.00  0.00    -0.732 N 
ATOM      8  C   UNL d   1       5.199  -0.787  -4.973  0.00  0.00     0.284 C 
ATOM      9  H3  UNL d   1       3.251  -1.337  -4.491  0.00  0.00     0.395 HD
ENDBRANCH   1   7
TORSDOF 1
ENDMDL
