MODEL 1
REMARK minimizedAffinity 5.48843765
REMARK minimizedRMSD -1
REMARK  1 active torsions:
REMARK  status: ('A' for Active; 'I' for Inactive)
REMARK    1  A    between atoms: N_2  and  C1_3 
ROOT
ATOM      1  C1  UNL d   1      -1.152   2.275  -1.424  0.00  0.00     0.143 A 
ATOM      2  C2  UNL d   1      -0.656   1.188  -0.695  0.00  0.00    -0.057 A 
ATOM      3  C3  UNL d   1      -1.397   0.009  -0.555  0.00  0.00     0.033 A 
ATOM      4  C4  UNL d   1      -2.664  -0.095  -1.118  0.00  0.00    -0.042 A 
ATOM      5  C5  UNL d   1      -3.188   0.981  -1.826  0.00  0.00     0.033 A 
ATOM      6  C6  UNL d   1      -2.441   2.154  -1.968  0.00  0.00    -0.057 A 
ENDROOT
BRANCH   1   7
ATOM      7  N   UNL d   1      -0.506   3.510  -1.517  0.00  0.00    -0.732 N 
ATOM      8  C   UNL d   1       0.001   4.167  -0.331  0.00  0.00     0.284 C 
ATOM      9  H3  UNL d   1       0.117   3.563  -2.320  0.00  0.00     0.395 HD
ENDBRANCH   1   7
TORSDOF 1
ENDMDL
