MODEL 1
REMARK minimizedAffinity 7.37645912
REMARK minimizedRMSD -1
REMARK  1 active torsions:
REMARK  status: ('A' for Active; 'I' for Inactive)
REMARK    1  A    between atoms: N_2  and  C1_3 
ROOT
ATOM      1  C1  UNL d   1       3.111  -4.287  -1.830  0.00  0.00     0.143 A 
ATOM      2  C2  UNL d   1       3.618  -3.920  -3.081  0.00  0.00    -0.057 A 
ATOM      3  C3  UNL d   1       4.366  -2.748  -3.246  0.00  0.00     0.033 A 
ATOM      4  C4  UNL d   1       4.595  -1.903  -2.164  0.00  0.00    -0.042 A 
ATOM      5  C5  UNL d   1       4.078  -2.235  -0.917  0.00  0.00     0.033 A 
ATOM      6  C6  UNL d   1       3.338  -3.411  -0.757  0.00  0.00    -0.057 A 
ENDROOT
BRANCH   1   7
ATOM      7  N   UNL d   1       2.277  -5.388  -1.621  0.00  0.00    -0.732 N 
ATOM      8  C   UNL d   1       1.207  -5.329  -0.649  0.00  0.00     0.284 C 
ATOM      9  H3  UNL d   1       2.025  -5.854  -2.490  0.00  0.00     0.395 HD
ENDBRANCH   1   7
TORSDOF 1
ENDMDL
