MODEL 1
REMARK minimizedAffinity 4.92291403
REMARK minimizedRMSD -1
REMARK  1 active torsions:
REMARK  status: ('A' for Active; 'I' for Inactive)
REMARK    1  A    between atoms: N_2  and  C1_3 
ROOT
ATOM      1  C1  UNL d   1       3.079  -4.492  -1.239  0.00  0.00     0.143 A 
ATOM      2  C2  UNL d   1       3.373  -3.750  -0.090  0.00  0.00    -0.057 A 
ATOM      3  C3  UNL d   1       4.019  -2.510  -0.172  0.00  0.00     0.033 A 
ATOM      4  C4  UNL d   1       4.410  -2.003  -1.407  0.00  0.00    -0.042 A 
ATOM      5  C5  UNL d   1       4.150  -2.735  -2.560  0.00  0.00     0.033 A 
ATOM      6  C6  UNL d   1       3.499  -3.969  -2.473  0.00  0.00    -0.057 A 
ENDROOT
BRANCH   1   7
ATOM      7  N   UNL d   1       2.527  -5.775  -1.217  0.00  0.00    -0.732 N 
ATOM      8  C   UNL d   1       1.206  -6.000  -0.670  0.00  0.00     0.284 C 
ATOM      9  H3  UNL d   1       2.718  -6.295  -2.070  0.00  0.00     0.395 HD
ENDBRANCH   1   7
TORSDOF 1
ENDMDL
