MODEL 1
REMARK minimizedAffinity 7.16091537
REMARK minimizedRMSD -1
REMARK  1 active torsions:
REMARK  status: ('A' for Active; 'I' for Inactive)
REMARK    1  A    between atoms: N_2  and  C1_3 
ROOT
ATOM      1  C1  UNL d   1       3.224  -4.926  -1.906  0.00  0.00     0.143 A 
ATOM      2  C2  UNL d   1       3.465  -4.195  -3.075  0.00  0.00    -0.057 A 
ATOM      3  C3  UNL d   1       4.647  -4.365  -3.807  0.00  0.00     0.033 A 
ATOM      4  C4  UNL d   1       5.624  -5.252  -3.365  0.00  0.00    -0.042 A 
ATOM      5  C5  UNL d   1       5.416  -5.970  -2.193  0.00  0.00     0.033 A 
ATOM      6  C6  UNL d   1       4.231  -5.801  -1.470  0.00  0.00    -0.057 A 
ENDROOT
BRANCH   1   7
ATOM      7  N   UNL d   1       2.113  -4.730  -1.082  0.00  0.00    -0.732 N 
ATOM      8  C   UNL d   1       1.214  -5.824  -0.783  0.00  0.00     0.284 C 
ATOM      9  H3  UNL d   1       2.322  -4.134  -0.284  0.00  0.00     0.395 HD
ENDBRANCH   1   7
TORSDOF 1
ENDMDL
