MODEL 1
REMARK minimizedAffinity -3.24525952
REMARK minimizedRMSD -1
REMARK  1 active torsions:
REMARK  status: ('A' for Active; 'I' for Inactive)
REMARK    1  A    between atoms: N_2  and  C1_3 
ROOT
ATOM      1  C1  UNL d   1       4.368  -2.951  -1.436  0.00  0.00     0.143 A 
ATOM      2  C2  UNL d   1       5.061  -4.133  -1.152  0.00  0.00    -0.057 A 
ATOM      3  C3  UNL d   1       5.124  -5.178  -2.082  0.00  0.00     0.033 A 
ATOM      4  C4  UNL d   1       4.468  -5.071  -3.304  0.00  0.00    -0.042 A 
ATOM      5  C5  UNL d   1       3.753  -3.915  -3.597  0.00  0.00     0.033 A 
ATOM      6  C6  UNL d   1       3.699  -2.872  -2.667  0.00  0.00    -0.057 A 
ENDROOT
BRANCH   1   7
ATOM      7  N   UNL d   1       4.187  -1.916  -0.515  0.00  0.00    -0.732 N 
ATOM      8  C   UNL d   1       2.968  -1.825   0.260  0.00  0.00     0.284 C 
ATOM      9  H3  UNL d   1       5.032  -1.715   0.015  0.00  0.00     0.395 HD
ENDBRANCH   1   7
TORSDOF 1
ENDMDL
