MODEL 1
REMARK minimizedAffinity 13.657321
REMARK minimizedRMSD -1
REMARK  0 active torsions:
REMARK  status: ('A' for Active; 'I' for Inactive)
ROOT
ATOM      1  C   UNL d   1       3.457   1.495  -0.320  0.00  0.00     0.020 A 
ATOM      2  C1  UNL d   1       2.629   0.465  -0.765  0.00  0.00     0.020 A 
ATOM      3  C2  UNL d   1       2.834  -0.101  -2.025  0.00  0.00     0.034 A 
ATOM      4  C3  UNL d   1       3.870   0.362  -2.844  0.00  0.00     0.017 A 
ATOM      5  C4  UNL d   1       4.701   1.395  -2.397  0.00  0.00     0.017 A 
ATOM      6  C5  UNL d   1       4.491   1.958  -1.134  0.00  0.00     0.034 A 
ATOM      7 Cl   UNL d   1       6.000   2.019  -3.351  0.00  0.00    -0.070 Cl
ATOM      8 Cl1  UNL d   1       4.066  -0.385  -4.390  0.00  0.00    -0.070 Cl
ENDROOT
TORSDOF 0
ENDMDL
