MODEL 1
REMARK minimizedAffinity 6.32754803
REMARK minimizedRMSD -1
REMARK  0 active torsions:
REMARK  status: ('A' for Active; 'I' for Inactive)
ROOT
ATOM      1  C   UNL d   1       3.665   0.896   0.607  0.00  0.00     0.020 A 
ATOM      2  C1  UNL d   1       2.836  -0.074   0.043  0.00  0.00     0.020 A 
ATOM      3  C2  UNL d   1       2.977  -0.414  -1.304  0.00  0.00     0.034 A 
ATOM      4  C3  UNL d   1       3.948   0.216  -2.092  0.00  0.00     0.017 A 
ATOM      5  C4  UNL d   1       4.779   1.189  -1.524  0.00  0.00     0.017 A 
ATOM      6  C5  UNL d   1       4.634   1.525  -0.175  0.00  0.00     0.034 A 
ATOM      7 Cl   UNL d   1       6.000   2.009  -2.432  0.00  0.00    -0.070 Cl
ATOM      8 Cl1  UNL d   1       4.066  -0.254  -3.750  0.00  0.00    -0.070 Cl
ENDROOT
TORSDOF 0
ENDMDL
