MODEL 1
REMARK minimizedAffinity 3.62953973
REMARK minimizedRMSD -1
REMARK  0 active torsions:
REMARK  status: ('A' for Active; 'I' for Inactive)
ROOT
ATOM      1  C   UNL d   1       4.508   5.469   2.577  0.00  0.00     0.020 A 
ATOM      2  C1  UNL d   1       4.465   5.169   3.938  0.00  0.00     0.020 A 
ATOM      3  C2  UNL d   1       3.243   4.880   4.551  0.00  0.00     0.034 A 
ATOM      4  C3  UNL d   1       2.060   4.891   3.802  0.00  0.00     0.017 A 
ATOM      5  C4  UNL d   1       2.105   5.193   2.436  0.00  0.00     0.017 A 
ATOM      6  C5  UNL d   1       3.331   5.481   1.828  0.00  0.00     0.034 A 
ATOM      7 Cl   UNL d   1       0.688   5.227   1.448  0.00  0.00    -0.070 Cl
ATOM      8 Cl1  UNL d   1       0.586   4.525   4.625  0.00  0.00    -0.070 Cl
ENDROOT
TORSDOF 0
ENDMDL
