MODEL 1
REMARK minimizedAffinity 0.975240529
REMARK minimizedRMSD -1
REMARK  0 active torsions:
REMARK  status: ('A' for Active; 'I' for Inactive)
ROOT
ATOM      1  C   UNL d   1       6.000   2.425  -1.632  0.00  0.00     0.020 A 
ATOM      2  C1  UNL d   1       5.090   1.860  -2.524  0.00  0.00     0.020 A 
ATOM      3  C2  UNL d   1       4.009   1.117  -2.043  0.00  0.00     0.034 A 
ATOM      4  C3  UNL d   1       3.836   0.938  -0.666  0.00  0.00     0.017 A 
ATOM      5  C4  UNL d   1       4.750   1.506   0.229  0.00  0.00     0.017 A 
ATOM      6  C5  UNL d   1       5.830   2.248  -0.258  0.00  0.00     0.034 A 
ATOM      7 Cl   UNL d   1       4.602   1.328   1.942  0.00  0.00    -0.070 Cl
ATOM      8 Cl1  UNL d   1       2.477   0.009  -0.141  0.00  0.00    -0.070 Cl
ENDROOT
TORSDOF 0
ENDMDL
