MODEL 1
REMARK minimizedAffinity 10.6683035
REMARK minimizedRMSD -1
REMARK  0 active torsions:
REMARK  status: ('A' for Active; 'I' for Inactive)
ROOT
ATOM      1  C   UNL d   1       4.902   1.901   0.164  0.00  0.00     0.020 A 
ATOM      2  C1  UNL d   1       4.308   1.865  -1.097  0.00  0.00     0.020 A 
ATOM      3  C2  UNL d   1       3.166   1.091  -1.309  0.00  0.00     0.034 A 
ATOM      4  C3  UNL d   1       2.614   0.348  -0.259  0.00  0.00     0.017 A 
ATOM      5  C4  UNL d   1       3.211   0.384   1.006  0.00  0.00     0.017 A 
ATOM      6  C5  UNL d   1       4.355   1.162   1.213  0.00  0.00     0.034 A 
ATOM      7 Cl   UNL d   1       2.588  -0.505   2.351  0.00  0.00    -0.070 Cl
ATOM      8 Cl1  UNL d   1       1.201  -0.588  -0.592  0.00  0.00    -0.070 Cl
ENDROOT
TORSDOF 0
ENDMDL
