MODEL 1
REMARK minimizedAffinity 11.7848377
REMARK minimizedRMSD -1
REMARK  0 active torsions:
REMARK  status: ('A' for Active; 'I' for Inactive)
ROOT
ATOM      1  C   UNL d   1       5.233  -0.948   5.847  0.00  0.00     0.020 A 
ATOM      2  C1  UNL d   1       5.554  -1.477   4.597  0.00  0.00     0.020 A 
ATOM      3  C2  UNL d   1       4.727  -1.227   3.500  0.00  0.00     0.034 A 
ATOM      4  C3  UNL d   1       3.576  -0.445   3.649  0.00  0.00     0.017 A 
ATOM      5  C4  UNL d   1       3.255   0.085   4.904  0.00  0.00     0.017 A 
ATOM      6  C5  UNL d   1       4.086  -0.169   6.000  0.00  0.00     0.034 A 
ATOM      7 Cl   UNL d   1       1.851   1.059   5.166  0.00  0.00    -0.070 Cl
ATOM      8 Cl1  UNL d   1       2.600  -0.176   2.249  0.00  0.00    -0.070 Cl
ENDROOT
TORSDOF 0
ENDMDL
