MODEL 1
REMARK minimizedAffinity 5.96773434
REMARK minimizedRMSD -1
REMARK  0 active torsions:
REMARK  status: ('A' for Active; 'I' for Inactive)
ROOT
ATOM      1  C   UNL d   1      -5.999  -0.015   0.643  0.00  0.00     0.020 A 
ATOM      2  C1  UNL d   1      -6.000   1.180   1.361  0.00  0.00     0.020 A 
ATOM      3  C2  UNL d   1      -4.835   1.946   1.444  0.00  0.00     0.034 A 
ATOM      4  C3  UNL d   1      -3.665   1.517   0.806  0.00  0.00     0.017 A 
ATOM      5  C4  UNL d   1      -3.665   0.318   0.085  0.00  0.00     0.017 A 
ATOM      6  C5  UNL d   1      -4.834  -0.445   0.006  0.00  0.00     0.034 A 
ATOM      7 Cl   UNL d   1      -2.260  -0.275  -0.728  0.00  0.00    -0.070 Cl
ATOM      8 Cl1  UNL d   1      -2.261   2.515   0.950  0.00  0.00    -0.070 Cl
ENDROOT
TORSDOF 0
ENDMDL
