MODEL 1
REMARK minimizedAffinity 9.65052986
REMARK minimizedRMSD -1
REMARK  0 active torsions:
REMARK  status: ('A' for Active; 'I' for Inactive)
ROOT
ATOM      1  C   UNL d   1       2.944   0.376  -0.866  0.00  0.00     0.020 A 
ATOM      2  C1  UNL d   1       2.889   0.507   0.521  0.00  0.00     0.020 A 
ATOM      3  C2  UNL d   1       3.802   1.333   1.181  0.00  0.00     0.034 A 
ATOM      4  C3  UNL d   1       4.773   2.031   0.453  0.00  0.00     0.017 A 
ATOM      5  C4  UNL d   1       4.827   1.899  -0.939  0.00  0.00     0.017 A 
ATOM      6  C5  UNL d   1       3.910   1.070  -1.594  0.00  0.00     0.034 A 
ATOM      7 Cl   UNL d   1       5.996   2.728  -1.904  0.00  0.00    -0.070 Cl
ATOM      8 Cl1  UNL d   1       5.869   3.035   1.334  0.00  0.00    -0.070 Cl
ENDROOT
TORSDOF 0
ENDMDL
