MODEL 1
REMARK minimizedAffinity 8.97947216
REMARK minimizedRMSD -1
REMARK  0 active torsions:
REMARK  status: ('A' for Active; 'I' for Inactive)
ROOT
ATOM      1  C   UNL d   1       2.123   1.592   5.050  0.00  0.00     0.020 A 
ATOM      2  C1  UNL d   1       1.205   2.637   5.145  0.00  0.00     0.020 A 
ATOM      3  C2  UNL d   1       0.872   3.379   4.009  0.00  0.00     0.034 A 
ATOM      4  C3  UNL d   1       1.457   3.077   2.775  0.00  0.00     0.017 A 
ATOM      5  C4  UNL d   1       2.379   2.028   2.680  0.00  0.00     0.017 A 
ATOM      6  C5  UNL d   1       2.709   1.288   3.820  0.00  0.00     0.034 A 
ATOM      7 Cl   UNL d   1       3.143   1.596   1.191  0.00  0.00    -0.070 Cl
ATOM      8 Cl1  UNL d   1       0.998   4.036   1.412  0.00  0.00    -0.070 Cl
ENDROOT
TORSDOF 0
ENDMDL
