MODEL 1
REMARK minimizedAffinity 9.33406734
REMARK minimizedRMSD -1
REMARK  0 active torsions:
REMARK  status: ('A' for Active; 'I' for Inactive)
ROOT
ATOM      1  C   UNL d   1       6.000   2.429  -0.671  0.00  0.00     0.020 A 
ATOM      2  C1  UNL d   1       5.390   2.203  -1.904  0.00  0.00     0.020 A 
ATOM      3  C2  UNL d   1       4.250   1.400  -1.983  0.00  0.00     0.034 A 
ATOM      4  C3  UNL d   1       3.717   0.819  -0.826  0.00  0.00     0.017 A 
ATOM      5  C4  UNL d   1       4.330   1.046   0.412  0.00  0.00     0.017 A 
ATOM      6  C5  UNL d   1       5.471   1.851   0.484  0.00  0.00     0.034 A 
ATOM      7 Cl   UNL d   1       3.731   0.364   1.882  0.00  0.00    -0.070 Cl
ATOM      8 Cl1  UNL d   1       2.305  -0.163  -0.997  0.00  0.00    -0.070 Cl
ENDROOT
TORSDOF 0
ENDMDL
