MODEL 1
REMARK minimizedAffinity -4.58534575
REMARK minimizedRMSD -1
REMARK  0 active torsions:
REMARK  status: ('A' for Active; 'I' for Inactive)
ROOT
ATOM      1  C1  BNZ d   1       0.269   0.041   2.110  0.00  0.00     0.000 A 
ATOM      2  C2  BNZ d   1      -0.103   1.194   2.748  0.00  0.00     0.000 A 
ATOM      3  C3  BNZ d   1      -1.002   2.051   2.177  0.00  0.00     0.000 A 
ATOM      4  C4  BNZ d   1      -1.496   1.775   0.953  0.00  0.00     0.000 A 
ATOM      5  C5  BNZ d   1      -1.123   0.621   0.292  0.00  0.00     0.000 A 
ATOM      6  C6  BNZ d   1      -0.248  -0.258   0.887  0.00  0.00     0.000 A 
ENDROOT
TORSDOF 0
ENDMDL
