MODEL 1
REMARK minimizedAffinity -3.71867681
REMARK minimizedRMSD -1
REMARK  0 active torsions:
REMARK  status: ('A' for Active; 'I' for Inactive)
ROOT
ATOM      1  C1  BNZ d   1      -1.230   1.673   0.118  0.00  0.00     0.000 A 
ATOM      2  C2  BNZ d   1      -0.349   0.919  -0.611  0.00  0.00     0.000 A 
ATOM      3  C3  BNZ d   1       0.531   0.076   0.008  0.00  0.00     0.000 A 
ATOM      4  C4  BNZ d   1       0.556   0.018   1.356  0.00  0.00     0.000 A 
ATOM      5  C5  BNZ d   1      -0.319   0.778   2.105  0.00  0.00     0.000 A 
ATOM      6  C6  BNZ d   1      -1.230   1.596   1.477  0.00  0.00     0.000 A 
ENDROOT
TORSDOF 0
ENDMDL
