MODEL 1
REMARK minimizedAffinity -4.43520498
REMARK minimizedRMSD -1
REMARK  0 active torsions:
REMARK  status: ('A' for Active; 'I' for Inactive)
ROOT
ATOM      1  C1  BNZ d   1       0.766   0.031   1.076  0.00  0.00     0.000 A 
ATOM      2  C2  BNZ d   1      -0.147   0.996   1.409  0.00  0.00     0.000 A 
ATOM      3  C3  BNZ d   1      -0.921   1.587   0.450  0.00  0.00     0.000 A 
ATOM      4  C4  BNZ d   1      -0.754   1.241  -0.843  0.00  0.00     0.000 A 
ATOM      5  C5  BNZ d   1       0.168   0.276  -1.195  0.00  0.00     0.000 A 
ATOM      6  C6  BNZ d   1       0.919  -0.344  -0.223  0.00  0.00     0.000 A 
ENDROOT
TORSDOF 0
ENDMDL
