MODEL 1
REMARK minimizedAffinity -3.92848158
REMARK minimizedRMSD -1
REMARK  0 active torsions:
REMARK  status: ('A' for Active; 'I' for Inactive)
ROOT
ATOM      1  C1  BNZ d   1      -0.402   1.205   2.147  0.00  0.00     0.000 A 
ATOM      2  C2  BNZ d   1       0.341   0.102   1.819  0.00  0.00     0.000 A 
ATOM      3  C3  BNZ d   1       0.379  -0.359   0.533  0.00  0.00     0.000 A 
ATOM      4  C4  BNZ d   1      -0.357   0.258  -0.414  0.00  0.00     0.000 A 
ATOM      5  C5  BNZ d   1      -1.118   1.366  -0.097  0.00  0.00     0.000 A 
ATOM      6  C6  BNZ d   1      -1.123   1.850   1.190  0.00  0.00     0.000 A 
ENDROOT
TORSDOF 0
ENDMDL
