MODEL 1
REMARK minimizedAffinity -3.88922524
REMARK minimizedRMSD -1
REMARK  0 active torsions:
REMARK  status: ('A' for Active; 'I' for Inactive)
ROOT
ATOM      1  C1  BNZ d   1       0.528  -0.029   1.151  0.00  0.00     0.000 A 
ATOM      2  C2  BNZ d   1      -0.033   1.023   1.825  0.00  0.00     0.000 A 
ATOM      3  C3  BNZ d   1      -1.037   1.760   1.261  0.00  0.00     0.000 A 
ATOM      4  C4  BNZ d   1      -1.450   1.471   0.010  0.00  0.00     0.000 A 
ATOM      5  C5  BNZ d   1      -0.888   0.419  -0.686  0.00  0.00     0.000 A 
ATOM      6  C6  BNZ d   1       0.095  -0.345  -0.100  0.00  0.00     0.000 A 
ENDROOT
TORSDOF 0
ENDMDL
