MODEL 1
REMARK minimizedAffinity 8.00482368
REMARK minimizedRMSD -1
REMARK  1 active torsions:
REMARK  status: ('A' for Active; 'I' for Inactive)
REMARK    1  A    between atoms: C3_4  and  O_7 
ROOT
ATOM      1  C   UNL d   1       0.011   1.082   2.316  0.00  0.00    -0.033 A 
ATOM      2  C1  UNL d   1       0.815   0.582   3.342  0.00  0.00     0.039 A 
ATOM      3  C2  UNL d   1       0.827   1.209   4.590  0.00  0.00    -0.080 A 
ATOM      4  C3  UNL d   1       0.031   2.331   4.798  0.00  0.00     0.150 A 
ATOM      5  C4  UNL d   1      -0.776   2.832   3.781  0.00  0.00    -0.007 A 
ATOM      6  C5  UNL d   1      -0.786   2.206   2.536  0.00  0.00     0.039 A 
ENDROOT
BRANCH   4   7
ATOM      7  O   UNL d   1       0.013   2.979   5.997  0.00  0.00    -0.526 OA
ATOM      8  H5  UNL d   1       0.640   2.539   6.595  0.00  0.00     0.418 HD
ENDBRANCH   4   7
TORSDOF 1
ENDMDL
