MODEL 1
REMARK minimizedAffinity -0.245117903
REMARK minimizedRMSD -1
REMARK  1 active torsions:
REMARK  status: ('A' for Active; 'I' for Inactive)
REMARK    1  A    between atoms: C3_4  and  O_7 
ROOT
ATOM      1  C   UNL d   1       3.748   5.848   1.891  0.00  0.00    -0.033 A 
ATOM      2  C1  UNL d   1       4.561   5.995   3.017  0.00  0.00     0.039 A 
ATOM      3  C2  UNL d   1       4.970   4.870   3.736  0.00  0.00    -0.080 A 
ATOM      4  C3  UNL d   1       4.562   3.606   3.318  0.00  0.00     0.150 A 
ATOM      5  C4  UNL d   1       3.756   3.452   2.195  0.00  0.00    -0.007 A 
ATOM      6  C5  UNL d   1       3.348   4.577   1.479  0.00  0.00     0.039 A 
ENDROOT
BRANCH   4   7
ATOM      7  O   UNL d   1       4.933   2.479   3.991  0.00  0.00    -0.526 OA
ATOM      8  H5  UNL d   1       5.464   2.741   4.761  0.00  0.00     0.418 HD
ENDBRANCH   4   7
TORSDOF 1
ENDMDL
