MODEL 1
REMARK minimizedAffinity 9.20801353
REMARK minimizedRMSD -1
REMARK  1 active torsions:
REMARK  status: ('A' for Active; 'I' for Inactive)
REMARK    1  A    between atoms: C3_4  and  O_7 
ROOT
ATOM      1  C   UNL d   1      -5.602   1.748   0.364  0.00  0.00    -0.033 A 
ATOM      2  C1  UNL d   1      -5.295   1.830  -0.996  0.00  0.00     0.039 A 
ATOM      3  C2  UNL d   1      -5.342   3.062  -1.651  0.00  0.00    -0.080 A 
ATOM      4  C3  UNL d   1      -5.697   4.203  -0.936  0.00  0.00     0.150 A 
ATOM      5  C4  UNL d   1      -6.000   4.129   0.420  0.00  0.00    -0.007 A 
ATOM      6  C5  UNL d   1      -5.953   2.897   1.072  0.00  0.00     0.039 A 
ENDROOT
BRANCH   4   7
ATOM      7  O   UNL d   1      -5.761   5.427  -1.532  0.00  0.00    -0.526 OA
ATOM      8  H5  UNL d   1      -5.554   5.320  -2.476  0.00  0.00     0.418 HD
ENDBRANCH   4   7
TORSDOF 1
ENDMDL
