MODEL 1
REMARK minimizedAffinity 3.89080763
REMARK minimizedRMSD -1
REMARK  1 active torsions:
REMARK  status: ('A' for Active; 'I' for Inactive)
REMARK    1  A    between atoms: C3_4  and  O_7 
ROOT
ATOM      1  C   UNL d   1      -2.837  -0.630   1.080  0.00  0.00    -0.033 A 
ATOM      2  C1  UNL d   1      -2.884   0.618   1.706  0.00  0.00     0.039 A 
ATOM      3  C2  UNL d   1      -3.554   1.681   1.097  0.00  0.00    -0.080 A 
ATOM      4  C3  UNL d   1      -4.172   1.484  -0.135  0.00  0.00     0.150 A 
ATOM      5  C4  UNL d   1      -4.132   0.243  -0.762  0.00  0.00    -0.007 A 
ATOM      6  C5  UNL d   1      -3.462  -0.817  -0.153  0.00  0.00     0.039 A 
ENDROOT
BRANCH   4   7
ATOM      7  O   UNL d   1      -4.833   2.493  -0.770  0.00  0.00    -0.526 OA
ATOM      8  H5  UNL d   1      -4.754   3.299  -0.233  0.00  0.00     0.418 HD
ENDBRANCH   4   7
TORSDOF 1
ENDMDL
