MODEL 1
REMARK minimizedAffinity 3.10322523
REMARK minimizedRMSD -1
REMARK  1 active torsions:
REMARK  status: ('A' for Active; 'I' for Inactive)
REMARK    1  A    between atoms: C3_4  and  O_7 
ROOT
ATOM      1  C   UNL d   1       0.381   0.026   2.567  0.00  0.00    -0.033 A 
ATOM      2  C1  UNL d   1       1.002   0.337   3.778  0.00  0.00     0.039 A 
ATOM      3  C2  UNL d   1       1.515  -0.681   4.584  0.00  0.00    -0.080 A 
ATOM      4  C3  UNL d   1       1.400  -2.005   4.168  0.00  0.00     0.150 A 
ATOM      5  C4  UNL d   1       0.785  -2.322   2.962  0.00  0.00    -0.007 A 
ATOM      6  C5  UNL d   1       0.274  -1.304   2.158  0.00  0.00     0.039 A 
ENDROOT
BRANCH   4   7
ATOM      7  O   UNL d   1       1.880  -3.033   4.924  0.00  0.00    -0.526 OA
ATOM      8  H5  UNL d   1       2.252  -2.666   5.743  0.00  0.00     0.418 HD
ENDBRANCH   4   7
TORSDOF 1
ENDMDL
