MODEL 1
REMARK minimizedAffinity 6.21106434
REMARK minimizedRMSD -1
REMARK  1 active torsions:
REMARK  status: ('A' for Active; 'I' for Inactive)
REMARK    1  A    between atoms: C3_4  and  O_7 
ROOT
ATOM      1  C   UNL d   1      -0.506  -1.469  -2.428  0.00  0.00    -0.033 A 
ATOM      2  C1  UNL d   1      -0.160  -0.811  -3.609  0.00  0.00     0.039 A 
ATOM      3  C2  UNL d   1       1.176  -0.753  -4.013  0.00  0.00    -0.080 A 
ATOM      4  C3  UNL d   1       2.154  -1.358  -3.228  0.00  0.00     0.150 A 
ATOM      5  C4  UNL d   1       1.815  -2.019  -2.052  0.00  0.00    -0.007 A 
ATOM      6  C5  UNL d   1       0.482  -2.075  -1.650  0.00  0.00     0.039 A 
ENDROOT
BRANCH   4   7
ATOM      7  O   UNL d   1       3.471  -1.324  -3.579  0.00  0.00    -0.526 OA
ATOM      8  H5  UNL d   1       3.558  -0.809  -4.398  0.00  0.00     0.418 HD
ENDBRANCH   4   7
TORSDOF 1
ENDMDL
