MODEL 1
REMARK minimizedAffinity 8.90444469
REMARK minimizedRMSD -1
REMARK  1 active torsions:
REMARK  status: ('A' for Active; 'I' for Inactive)
REMARK    1  A    between atoms: C3_4  and  O_7 
ROOT
ATOM      1  C   UNL d   1      -0.856  -1.589  -3.647  0.00  0.00    -0.033 A 
ATOM      2  C1  UNL d   1      -0.388  -1.386  -4.946  0.00  0.00     0.039 A 
ATOM      3  C2  UNL d   1       0.844  -0.764  -5.157  0.00  0.00    -0.080 A 
ATOM      4  C3  UNL d   1       1.597  -0.350  -4.061  0.00  0.00     0.150 A 
ATOM      5  C4  UNL d   1       1.138  -0.552  -2.764  0.00  0.00    -0.007 A 
ATOM      6  C5  UNL d   1      -0.093  -1.173  -2.556  0.00  0.00     0.039 A 
ENDROOT
BRANCH   4   7
ATOM      7  O   UNL d   1       2.803   0.266  -4.217  0.00  0.00    -0.526 OA
ATOM      8  H5  UNL d   1       2.978   0.364  -5.168  0.00  0.00     0.418 HD
ENDBRANCH   4   7
TORSDOF 1
ENDMDL
