MODEL 1
REMARK minimizedAffinity 11.4569693
REMARK minimizedRMSD -1
REMARK  1 active torsions:
REMARK  status: ('A' for Active; 'I' for Inactive)
REMARK    1  A    between atoms: C3_4  and  O_7 
ROOT
ATOM      1  C   UNL d   1       4.474   0.416   3.655  0.00  0.00    -0.033 A 
ATOM      2  C1  UNL d   1       3.145   0.485   3.235  0.00  0.00     0.039 A 
ATOM      3  C2  UNL d   1       2.734   1.511   2.381  0.00  0.00    -0.080 A 
ATOM      4  C3  UNL d   1       3.661   2.458   1.955  0.00  0.00     0.150 A 
ATOM      5  C4  UNL d   1       4.988   2.392   2.367  0.00  0.00    -0.007 A 
ATOM      6  C5  UNL d   1       5.396   1.368   3.220  0.00  0.00     0.039 A 
ENDROOT
BRANCH   4   7
ATOM      7  O   UNL d   1       3.305   3.480   1.125  0.00  0.00    -0.526 OA
ATOM      8  H5  UNL d   1       2.352   3.414   0.947  0.00  0.00     0.418 HD
ENDBRANCH   4   7
TORSDOF 1
ENDMDL
