MODEL 1
REMARK minimizedAffinity -0.525647104
REMARK minimizedRMSD -1
REMARK  1 active torsions:
REMARK  status: ('A' for Active; 'I' for Inactive)
REMARK    1  A    between atoms: C1_2  and  C2_3 
ROOT
ATOM      1  C2  UNL d   1      -1.952  -1.493  -0.226  0.00  0.00    -0.073 A 
ATOM      2  C3  UNL d   1      -3.272  -1.231   0.156  0.00  0.00    -0.002 A 
ATOM      3  C4  UNL d   1      -4.323  -1.969  -0.389  0.00  0.00     0.004 A 
ATOM      4  C5  UNL d   1      -4.065  -2.981  -1.314  0.00  0.00    -0.004 A 
ATOM      5  C6  UNL d   1      -2.751  -3.266  -1.699  0.00  0.00    -0.075 A 
ATOM      6  C7  UNL d   1      -2.457  -4.349  -2.695  0.00  0.00     0.076 C 
ATOM      7  C8  UNL d   1      -1.701  -2.518  -1.150  0.00  0.00     0.001 A 
ENDROOT
BRANCH   1   8
ATOM      8  C1  UNL d   1      -0.813  -0.702   0.364  0.00  0.00     0.053 C 
ATOM      9  C   UNL d   1       0.225  -0.330  -0.683  0.00  0.00     0.018 C 
ENDBRANCH   1   8
TORSDOF 1
ENDMDL
