MODEL 1
REMARK minimizedAffinity 3.15775824
REMARK minimizedRMSD -1
REMARK  1 active torsions:
REMARK  status: ('A' for Active; 'I' for Inactive)
REMARK    1  A    between atoms: C1_2  and  C2_3 
ROOT
ATOM      1  C2  UNL d   1      -4.057   4.515   3.300  0.00  0.00    -0.073 A 
ATOM      2  C3  UNL d   1      -5.093   5.244   3.894  0.00  0.00    -0.002 A 
ATOM      3  C4  UNL d   1      -5.975   5.985   3.106  0.00  0.00     0.004 A 
ATOM      4  C5  UNL d   1      -5.834   6.000   1.719  0.00  0.00    -0.004 A 
ATOM      5  C6  UNL d   1      -4.812   5.268   1.106  0.00  0.00    -0.075 A 
ATOM      6  C7  UNL d   1      -4.646   5.275  -0.385  0.00  0.00     0.076 C 
ATOM      7  C8  UNL d   1      -3.929   4.528   1.904  0.00  0.00     0.001 A 
ENDROOT
BRANCH   1   8
ATOM      8  C1  UNL d   1      -3.107   3.707   4.146  0.00  0.00     0.053 C 
ATOM      9  C   UNL d   1      -3.538   2.254   4.259  0.00  0.00     0.018 C 
ENDBRANCH   1   8
TORSDOF 1
ENDMDL
