MODEL 1
REMARK minimizedAffinity 5.81413555
REMARK minimizedRMSD -1
REMARK  1 active torsions:
REMARK  status: ('A' for Active; 'I' for Inactive)
REMARK    1  A    between atoms: C1_2  and  C2_3 
ROOT
ATOM      1  C2  UNL d   1      -1.570  -0.372   1.405  0.00  0.00    -0.073 A 
ATOM      2  C3  UNL d   1      -0.742  -1.299   0.760  0.00  0.00    -0.002 A 
ATOM      3  C4  UNL d   1      -0.093  -0.957  -0.427  0.00  0.00     0.004 A 
ATOM      4  C5  UNL d   1      -0.259   0.314  -0.977  0.00  0.00    -0.004 A 
ATOM      5  C6  UNL d   1      -1.072   1.257  -0.342  0.00  0.00    -0.075 A 
ATOM      6  C7  UNL d   1      -1.262   2.628  -0.922  0.00  0.00     0.076 C 
ATOM      7  C8  UNL d   1      -1.723   0.906   0.849  0.00  0.00     0.001 A 
ENDROOT
BRANCH   1   8
ATOM      8  C1  UNL d   1      -2.267  -0.734   2.691  0.00  0.00     0.053 C 
ATOM      9  C   UNL d   1      -2.539   0.487   3.555  0.00  0.00     0.018 C 
ENDBRANCH   1   8
TORSDOF 1
ENDMDL
