MODEL 1
REMARK minimizedAffinity -4.56173897
REMARK minimizedRMSD -1
REMARK  1 active torsions:
REMARK  status: ('A' for Active; 'I' for Inactive)
REMARK    1  A    between atoms: C1_2  and  C2_3 
ROOT
ATOM      1  C2  UNL d   1      -4.088   2.297   3.533  0.00  0.00    -0.073 A 
ATOM      2  C3  UNL d   1      -4.584   2.283   4.842  0.00  0.00    -0.002 A 
ATOM      3  C4  UNL d   1      -5.002   3.468   5.450  0.00  0.00     0.004 A 
ATOM      4  C5  UNL d   1      -4.934   4.675   4.755  0.00  0.00    -0.004 A 
ATOM      5  C6  UNL d   1      -4.452   4.708   3.443  0.00  0.00    -0.075 A 
ATOM      6  C7  UNL d   1      -4.370   5.999   2.683  0.00  0.00     0.076 C 
ATOM      7  C8  UNL d   1      -4.032   3.515   2.840  0.00  0.00     0.001 A 
ENDROOT
BRANCH   1   8
ATOM      8  C1  UNL d   1      -3.641   1.020   2.870  0.00  0.00     0.053 C 
ATOM      9  C   UNL d   1      -3.037   0.042   3.865  0.00  0.00     0.018 C 
ENDBRANCH   1   8
TORSDOF 1
ENDMDL
