MODEL 1
REMARK minimizedAffinity -3.76795888
REMARK minimizedRMSD -1
REMARK  1 active torsions:
REMARK  status: ('A' for Active; 'I' for Inactive)
REMARK    1  A    between atoms: C1_2  and  C2_3 
ROOT
ATOM      1  C2  UNL d   1      -5.268   4.660   3.201  0.00  0.00    -0.073 A 
ATOM      2  C3  UNL d   1      -5.463   5.834   3.937  0.00  0.00    -0.002 A 
ATOM      3  C4  UNL d   1      -5.372   5.816   5.330  0.00  0.00     0.004 A 
ATOM      4  C5  UNL d   1      -5.079   4.628   5.999  0.00  0.00    -0.004 A 
ATOM      5  C6  UNL d   1      -4.869   3.447   5.281  0.00  0.00    -0.075 A 
ATOM      6  C7  UNL d   1      -4.554   2.161   5.986  0.00  0.00     0.076 C 
ATOM      7  C8  UNL d   1      -4.964   3.472   3.883  0.00  0.00     0.001 A 
ENDROOT
BRANCH   1   8
ATOM      8  C1  UNL d   1      -5.359   4.675   1.697  0.00  0.00     0.053 C 
ATOM      9  C   UNL d   1      -5.887   6.000   1.172  0.00  0.00     0.018 C 
ENDBRANCH   1   8
TORSDOF 1
ENDMDL
