MODEL 1
REMARK minimizedAffinity 2.60449505
REMARK minimizedRMSD -1
REMARK  0 active torsions:
REMARK  status: ('A' for Active; 'I' for Inactive)
ROOT
ATOM      1  C1  BNZ d   1       3.267   5.261   3.719  0.00  0.00     0.000 A 
ATOM      2  C2  BNZ d   1       4.022   4.118   3.737  0.00  0.00     0.000 A 
ATOM      3  C3  BNZ d   1       4.125   3.366   4.874  0.00  0.00     0.000 A 
ATOM      4  C4  BNZ d   1       3.507   3.778   6.000  0.00  0.00     0.000 A 
ATOM      5  C5  BNZ d   1       2.751   4.933   6.000  0.00  0.00     0.000 A 
ATOM      6  C6  BNZ d   1       2.617   5.666   4.843  0.00  0.00     0.000 A 
ENDROOT
TORSDOF 0
ENDMDL
