MODEL 1
REMARK minimizedAffinity -2.15250158
REMARK minimizedRMSD -1
REMARK  0 active torsions:
REMARK  status: ('A' for Active; 'I' for Inactive)
ROOT
ATOM      1  C1  BNZ d   1      -1.595  -4.649   5.994  0.00  0.00     0.000 A 
ATOM      2  C2  BNZ d   1      -1.176  -5.810   5.401  0.00  0.00     0.000 A 
ATOM      3  C3  BNZ d   1       0.048  -5.886   4.797  0.00  0.00     0.000 A 
ATOM      4  C4  BNZ d   1       0.834  -4.790   4.752  0.00  0.00     0.000 A 
ATOM      5  C5  BNZ d   1       0.421  -3.610   5.336  0.00  0.00     0.000 A 
ATOM      6  C6  BNZ d   1      -0.795  -3.548   5.977  0.00  0.00     0.000 A 
ENDROOT
TORSDOF 0
ENDMDL
