MODEL 1
REMARK minimizedAffinity 5.88564634
REMARK minimizedRMSD -1
REMARK  0 active torsions:
REMARK  status: ('A' for Active; 'I' for Inactive)
ROOT
ATOM      1  C1  BNZ d   1       1.842  -0.461   1.648  0.00  0.00     0.000 A 
ATOM      2  C2  BNZ d   1       1.852  -0.815   0.325  0.00  0.00     0.000 A 
ATOM      3  C3  BNZ d   1       0.685  -0.937  -0.376  0.00  0.00     0.000 A 
ATOM      4  C4  BNZ d   1      -0.491  -0.743   0.255  0.00  0.00     0.000 A 
ATOM      5  C5  BNZ d   1      -0.518  -0.395   1.591  0.00  0.00     0.000 A 
ATOM      6  C6  BNZ d   1       0.660  -0.236   2.284  0.00  0.00     0.000 A 
ENDROOT
TORSDOF 0
ENDMDL
