MODEL 1
REMARK minimizedAffinity 5.52026224
REMARK minimizedRMSD -1
REMARK  0 active torsions:
REMARK  status: ('A' for Active; 'I' for Inactive)
ROOT
ATOM      1  C1  BNZ d   1      -0.768  -0.960  -0.657  0.00  0.00     0.000 A 
ATOM      2  C2  BNZ d   1       0.548  -0.591  -0.571  0.00  0.00     0.000 A 
ATOM      3  C3  BNZ d   1       1.080  -0.164   0.613  0.00  0.00     0.000 A 
ATOM      4  C4  BNZ d   1       0.287  -0.068   1.700  0.00  0.00     0.000 A 
ATOM      5  C5  BNZ d   1      -1.044  -0.427   1.628  0.00  0.00     0.000 A 
ATOM      6  C6  BNZ d   1      -1.567  -0.894   0.443  0.00  0.00     0.000 A 
ENDROOT
TORSDOF 0
ENDMDL
