MODEL 1
REMARK minimizedAffinity 3.22284961
REMARK minimizedRMSD -1
REMARK  0 active torsions:
REMARK  status: ('A' for Active; 'I' for Inactive)
ROOT
ATOM      1  C1  BNZ d   1      -0.724   2.410   2.061  0.00  0.00     0.000 A 
ATOM      2  C2  BNZ d   1      -0.621   3.772   1.970  0.00  0.00     0.000 A 
ATOM      3  C3  BNZ d   1      -0.008   4.495   2.955  0.00  0.00     0.000 A 
ATOM      4  C4  BNZ d   1       0.464   3.860   4.047  0.00  0.00     0.000 A 
ATOM      5  C5  BNZ d   1       0.359   2.488   4.158  0.00  0.00     0.000 A 
ATOM      6  C6  BNZ d   1      -0.224   1.760   3.146  0.00  0.00     0.000 A 
ENDROOT
TORSDOF 0
ENDMDL
