MODEL 1
REMARK minimizedAffinity 1.96761107
REMARK minimizedRMSD -1
REMARK  0 active torsions:
REMARK  status: ('A' for Active; 'I' for Inactive)
ROOT
ATOM      1  C1  BNZ d   1      -0.052  -0.706  -0.355  0.00  0.00     0.000 A 
ATOM      2  C2  BNZ d   1       0.868  -0.302   0.575  0.00  0.00     0.000 A 
ATOM      3  C3  BNZ d   1       0.508  -0.112   1.880  0.00  0.00     0.000 A 
ATOM      4  C4  BNZ d   1      -0.778  -0.286   2.245  0.00  0.00     0.000 A 
ATOM      5  C5  BNZ d   1      -1.720  -0.684   1.317  0.00  0.00     0.000 A 
ATOM      6  C6  BNZ d   1      -1.346  -0.913   0.013  0.00  0.00     0.000 A 
ENDROOT
TORSDOF 0
ENDMDL
