MODEL 1
REMARK minimizedAffinity 2.72112536
REMARK minimizedRMSD -1
REMARK  0 active torsions:
REMARK  status: ('A' for Active; 'I' for Inactive)
ROOT
ATOM      1  C1  BNZ d   1       1.797  -3.371   4.828  0.00  0.00     0.000 A 
ATOM      2  C2  BNZ d   1       1.121  -3.581   6.000  0.00  0.00     0.000 A 
ATOM      3  C3  BNZ d   1      -0.116  -4.164   6.000  0.00  0.00     0.000 A 
ATOM      4  C4  BNZ d   1      -0.690  -4.500   4.827  0.00  0.00     0.000 A 
ATOM      5  C5  BNZ d   1      -0.024  -4.287   3.636  0.00  0.00     0.000 A 
ATOM      6  C6  BNZ d   1       1.236  -3.736   3.643  0.00  0.00     0.000 A 
ENDROOT
TORSDOF 0
ENDMDL
