MODEL 1
REMARK minimizedAffinity 1.41257071
REMARK minimizedRMSD -1
REMARK  0 active torsions:
REMARK  status: ('A' for Active; 'I' for Inactive)
ROOT
ATOM      1  C1  BNZ d   1      -1.569  -4.148   5.998  0.00  0.00     0.000 A 
ATOM      2  C2  BNZ d   1      -0.591  -3.189   5.997  0.00  0.00     0.000 A 
ATOM      3  C3  BNZ d   1       0.504  -3.306   5.187  0.00  0.00     0.000 A 
ATOM      4  C4  BNZ d   1       0.639  -4.399   4.410  0.00  0.00     0.000 A 
ATOM      5  C5  BNZ d   1      -0.334  -5.379   4.406  0.00  0.00     0.000 A 
ATOM      6  C6  BNZ d   1      -1.453  -5.239   5.194  0.00  0.00     0.000 A 
ENDROOT
TORSDOF 0
ENDMDL
