MODEL 1
REMARK minimizedAffinity -1.59349763
REMARK minimizedRMSD -1
REMARK  0 active torsions:
REMARK  status: ('A' for Active; 'I' for Inactive)
ROOT
ATOM      1  C1  BNZ d   1      -0.022  -3.204   5.588  0.00  0.00     0.000 A 
ATOM      2  C2  BNZ d   1      -1.314  -3.013   6.000  0.00  0.00     0.000 A 
ATOM      3  C3  BNZ d   1      -2.209  -4.045   5.999  0.00  0.00     0.000 A 
ATOM      4  C4  BNZ d   1      -1.824  -5.257   5.548  0.00  0.00     0.000 A 
ATOM      5  C5  BNZ d   1      -0.527  -5.463   5.120  0.00  0.00     0.000 A 
ATOM      6  C6  BNZ d   1       0.382  -4.431   5.160  0.00  0.00     0.000 A 
ENDROOT
TORSDOF 0
ENDMDL
