MODEL 1
REMARK minimizedAffinity -4.15880108
REMARK minimizedRMSD -1
REMARK  2 active torsions:
REMARK  status: ('A' for Active; 'I' for Inactive)
REMARK    1  A    between atoms: C1_2  and  C2_3 
REMARK    2  A    between atoms: C2_3  and  C3_4 
ROOT
ATOM      1  C3  UNL d   1       0.168   0.648   0.980  0.00  0.00    -0.075 A 
ATOM      2  C4  UNL d   1      -0.421   0.098  -0.168  0.00  0.00     0.002 A 
ATOM      3  C5  UNL d   1       0.174  -0.979  -0.824  0.00  0.00     0.002 A 
ATOM      4  C6  UNL d   1       1.369  -1.514  -0.348  0.00  0.00    -0.004 A 
ATOM      5  C7  UNL d   1       1.973  -0.966   0.782  0.00  0.00     0.002 A 
ATOM      6  C8  UNL d   1       1.377   0.110   1.443  0.00  0.00     0.002 A 
ENDROOT
BRANCH   1   7
ATOM      7  C2  UNL d   1      -0.486   1.795   1.711  0.00  0.00     0.056 C 
BRANCH   7   8
ATOM      8  C1  UNL d   1      -1.158   1.393   3.029  0.00  0.00     0.007 C 
ATOM      9  C   UNL d   1      -1.842   0.034   2.964  0.00  0.00     0.009 C 
ENDBRANCH   7   8
ENDBRANCH   1   7
TORSDOF 2
ENDMDL
