MODEL 1
REMARK minimizedAffinity 4.14689779
REMARK minimizedRMSD -1
REMARK  2 active torsions:
REMARK  status: ('A' for Active; 'I' for Inactive)
REMARK    1  A    between atoms: C1_2  and  C2_3 
REMARK    2  A    between atoms: C2_3  and  C3_4 
ROOT
ATOM      1  C3  UNL d   1       2.407   0.426  -3.694  0.00  0.00    -0.075 A 
ATOM      2  C4  UNL d   1       3.732  -0.013  -3.825  0.00  0.00     0.002 A 
ATOM      3  C5  UNL d   1       4.489  -0.328  -2.696  0.00  0.00     0.002 A 
ATOM      4  C6  UNL d   1       3.935  -0.200  -1.424  0.00  0.00    -0.004 A 
ATOM      5  C7  UNL d   1       2.625   0.251  -1.281  0.00  0.00     0.002 A 
ATOM      6  C8  UNL d   1       1.864   0.563  -2.409  0.00  0.00     0.002 A 
ENDROOT
BRANCH   1   7
ATOM      7  C2  UNL d   1       1.573   0.741  -4.913  0.00  0.00     0.056 C 
BRANCH   7   8
ATOM      8  C1  UNL d   1       0.099   0.342  -4.780  0.00  0.00     0.007 C 
ATOM      9  C   UNL d   1      -0.433  -0.402  -5.998  0.00  0.00     0.009 C 
ENDBRANCH   7   8
ENDBRANCH   1   7
TORSDOF 2
ENDMDL
