MODEL 1
REMARK minimizedAffinity 3.83959889
REMARK minimizedRMSD -1
REMARK  2 active torsions:
REMARK  status: ('A' for Active; 'I' for Inactive)
REMARK    1  A    between atoms: C1_2  and  C2_3 
REMARK    2  A    between atoms: C2_3  and  C3_4 
ROOT
ATOM      1  C3  UNL d   1       0.902  -0.355  -1.905  0.00  0.00    -0.075 A 
ATOM      2  C4  UNL d   1      -0.002  -0.710  -2.917  0.00  0.00     0.002 A 
ATOM      3  C5  UNL d   1       0.035  -0.069  -4.156  0.00  0.00     0.002 A 
ATOM      4  C6  UNL d   1       0.966   0.939  -4.394  0.00  0.00    -0.004 A 
ATOM      5  C7  UNL d   1       1.858   1.311  -3.391  0.00  0.00     0.002 A 
ATOM      6  C8  UNL d   1       1.827   0.668  -2.152  0.00  0.00     0.002 A 
ENDROOT
BRANCH   1   7
ATOM      7  C2  UNL d   1       0.887  -1.065  -0.572  0.00  0.00     0.056 C 
BRANCH   7   8
ATOM      8  C1  UNL d   1       2.145  -0.835   0.272  0.00  0.00     0.007 C 
ATOM      9  C   UNL d   1       1.902   0.060   1.480  0.00  0.00     0.009 C 
ENDBRANCH   7   8
ENDBRANCH   1   7
TORSDOF 2
ENDMDL
