MODEL 1
REMARK minimizedAffinity 1.24862731
REMARK minimizedRMSD -1
REMARK  2 active torsions:
REMARK  status: ('A' for Active; 'I' for Inactive)
REMARK    1  A    between atoms: C1_2  and  C2_3 
REMARK    2  A    between atoms: C2_3  and  C3_4 
ROOT
ATOM      1  C3  UNL d   1       1.580  -0.461  -1.972  0.00  0.00    -0.075 A 
ATOM      2  C4  UNL d   1       0.668  -0.176  -2.999  0.00  0.00     0.002 A 
ATOM      3  C5  UNL d   1       1.101   0.413  -4.187  0.00  0.00     0.002 A 
ATOM      4  C6  UNL d   1       2.446   0.733  -4.360  0.00  0.00    -0.004 A 
ATOM      5  C7  UNL d   1       3.358   0.470  -3.340  0.00  0.00     0.002 A 
ATOM      6  C8  UNL d   1       2.928  -0.123  -2.152  0.00  0.00     0.002 A 
ENDROOT
BRANCH   1   7
ATOM      7  C2  UNL d   1       1.123  -1.125  -0.695  0.00  0.00     0.056 C 
BRANCH   7   8
ATOM      8  C1  UNL d   1       2.240  -1.336   0.332  0.00  0.00     0.007 C 
ATOM      9  C   UNL d   1       2.021  -0.560   1.624  0.00  0.00     0.009 C 
ENDBRANCH   7   8
ENDBRANCH   1   7
TORSDOF 2
ENDMDL
