MODEL 1
REMARK minimizedAffinity 0.603332758
REMARK minimizedRMSD -1
REMARK  0 active torsions:
REMARK  status: ('A' for Active; 'I' for Inactive)
ROOT
ATOM      1  C   UNL d   1       3.846   3.783   2.255  0.00  0.00     0.078 C 
ATOM      2  C1  UNL d   1       2.714   3.310   1.393  0.00  0.00    -0.077 A 
ATOM      3  C2  UNL d   1       1.685   2.522   1.921  0.00  0.00    -0.001 A 
ATOM      4  C3  UNL d   1       0.643   2.081   1.105  0.00  0.00     0.003 A 
ATOM      5  C4  UNL d   1       0.620   2.422  -0.246  0.00  0.00    -0.005 A 
ATOM      6  C5  UNL d   1       1.641   3.205  -0.782  0.00  0.00     0.003 A 
ATOM      7  C6  UNL d   1       2.684   3.646   0.033  0.00  0.00    -0.001 A 
ENDROOT
TORSDOF 0
ENDMDL
