MODEL 1
REMARK minimizedAffinity -2.80036998
REMARK minimizedRMSD -1
REMARK  0 active torsions:
REMARK  status: ('A' for Active; 'I' for Inactive)
ROOT
ATOM      1  C   UNL d   1      -0.756   3.521  -5.983  0.00  0.00     0.078 C 
ATOM      2  C1  UNL d   1      -2.191   3.954  -5.995  0.00  0.00    -0.077 A 
ATOM      3  C2  UNL d   1      -2.535   5.312  -5.992  0.00  0.00    -0.001 A 
ATOM      4  C3  UNL d   1      -3.875   5.701  -5.993  0.00  0.00     0.003 A 
ATOM      5  C4  UNL d   1      -4.883   4.738  -5.997  0.00  0.00    -0.005 A 
ATOM      6  C5  UNL d   1      -4.551   3.385  -5.999  0.00  0.00     0.003 A 
ATOM      7  C6  UNL d   1      -3.211   2.994  -5.997  0.00  0.00    -0.001 A 
ENDROOT
TORSDOF 0
ENDMDL
