MODEL 1
REMARK minimizedAffinity -1.68585324
REMARK minimizedRMSD -1
REMARK  0 active torsions:
REMARK  status: ('A' for Active; 'I' for Inactive)
ROOT
ATOM      1  C   UNL d   1       0.679   3.652  -6.000  0.00  0.00     0.078 C 
ATOM      2  C1  UNL d   1      -0.820   3.612  -5.992  0.00  0.00    -0.077 A 
ATOM      3  C2  UNL d   1      -1.509   2.393  -5.995  0.00  0.00    -0.001 A 
ATOM      4  C3  UNL d   1      -2.905   2.370  -5.998  0.00  0.00     0.003 A 
ATOM      5  C4  UNL d   1      -3.624   3.564  -5.999  0.00  0.00    -0.005 A 
ATOM      6  C5  UNL d   1      -2.947   4.782  -5.998  0.00  0.00     0.003 A 
ATOM      7  C6  UNL d   1      -1.551   4.806  -5.995  0.00  0.00    -0.001 A 
ENDROOT
TORSDOF 0
ENDMDL
