MODEL 1
REMARK minimizedAffinity -2.350631
REMARK minimizedRMSD -1
REMARK  0 active torsions:
REMARK  status: ('A' for Active; 'I' for Inactive)
ROOT
ATOM      1  C   UNL d   1      -0.727   3.012  -4.505  0.00  0.00     0.078 C 
ATOM      2  C1  UNL d   1      -2.047   3.503  -5.021  0.00  0.00    -0.077 A 
ATOM      3  C2  UNL d   1      -3.007   2.609  -5.510  0.00  0.00    -0.001 A 
ATOM      4  C3  UNL d   1      -4.227   3.081  -5.996  0.00  0.00     0.003 A 
ATOM      5  C4  UNL d   1      -4.498   4.447  -6.000  0.00  0.00    -0.005 A 
ATOM      6  C5  UNL d   1      -3.547   5.345  -5.518  0.00  0.00     0.003 A 
ATOM      7  C6  UNL d   1      -2.327   4.875  -5.031  0.00  0.00    -0.001 A 
ENDROOT
TORSDOF 0
ENDMDL
