MODEL 1
REMARK minimizedAffinity -2.53508329
REMARK minimizedRMSD -1
REMARK  0 active torsions:
REMARK  status: ('A' for Active; 'I' for Inactive)
ROOT
ATOM      1  C   UNL d   1       1.510   2.367  -6.000  0.00  0.00     0.078 C 
ATOM      2  C1  UNL d   1       0.197   3.090  -5.998  0.00  0.00    -0.077 A 
ATOM      3  C2  UNL d   1       0.144   4.490  -5.981  0.00  0.00    -0.001 A 
ATOM      4  C3  UNL d   1      -1.086   5.149  -5.969  0.00  0.00     0.003 A 
ATOM      5  C4  UNL d   1      -2.272   4.419  -5.973  0.00  0.00    -0.005 A 
ATOM      6  C5  UNL d   1      -2.230   3.026  -5.988  0.00  0.00     0.003 A 
ATOM      7  C6  UNL d   1      -1.001   2.364  -5.999  0.00  0.00    -0.001 A 
ENDROOT
TORSDOF 0
ENDMDL
