MODEL 1
REMARK minimizedAffinity 2.63109875
REMARK minimizedRMSD -1
REMARK  0 active torsions:
REMARK  status: ('A' for Active; 'I' for Inactive)
ROOT
ATOM      1  C   UNL d   1      -0.352   1.585   1.531  0.00  0.00     0.078 C 
ATOM      2  C1  UNL d   1       0.870   2.411   1.260  0.00  0.00    -0.077 A 
ATOM      3  C2  UNL d   1       1.758   2.745   2.290  0.00  0.00    -0.001 A 
ATOM      4  C3  UNL d   1       2.886   3.522   2.025  0.00  0.00     0.003 A 
ATOM      5  C4  UNL d   1       3.137   3.973   0.730  0.00  0.00    -0.005 A 
ATOM      6  C5  UNL d   1       2.258   3.647  -0.301  0.00  0.00     0.003 A 
ATOM      7  C6  UNL d   1       1.129   2.870  -0.037  0.00  0.00    -0.001 A 
ENDROOT
TORSDOF 0
ENDMDL
