MODEL 1
REMARK minimizedAffinity 0.235928774
REMARK minimizedRMSD -1
REMARK  0 active torsions:
REMARK  status: ('A' for Active; 'I' for Inactive)
ROOT
ATOM      1  C   UNL d   1      -0.602  -0.199   0.807  0.00  0.00     0.078 C 
ATOM      2  C1  UNL d   1       0.171   1.066   0.576  0.00  0.00    -0.077 A 
ATOM      3  C2  UNL d   1       0.590   1.861   1.650  0.00  0.00    -0.001 A 
ATOM      4  C3  UNL d   1       1.300   3.040   1.420  0.00  0.00     0.003 A 
ATOM      5  C4  UNL d   1       1.596   3.436   0.117  0.00  0.00    -0.005 A 
ATOM      6  C5  UNL d   1       1.181   2.653  -0.958  0.00  0.00     0.003 A 
ATOM      7  C6  UNL d   1       0.471   1.473  -0.730  0.00  0.00    -0.001 A 
ENDROOT
TORSDOF 0
ENDMDL
