MODEL 1
REMARK minimizedAffinity 6.64640427
REMARK minimizedRMSD -1
REMARK  0 active torsions:
REMARK  status: ('A' for Active; 'I' for Inactive)
ROOT
ATOM      1  C   UNL d   1      -3.771   3.577  -5.970  0.00  0.00     0.078 C 
ATOM      2  C1  UNL d   1      -2.291   3.337  -5.986  0.00  0.00    -0.077 A 
ATOM      3  C2  UNL d   1      -1.771   2.036  -5.995  0.00  0.00    -0.001 A 
ATOM      4  C3  UNL d   1      -0.391   1.828  -6.000  0.00  0.00     0.003 A 
ATOM      5  C4  UNL d   1       0.481   2.914  -5.995  0.00  0.00    -0.005 A 
ATOM      6  C5  UNL d   1      -0.027   4.212  -5.984  0.00  0.00     0.003 A 
ATOM      7  C6  UNL d   1      -1.407   4.423  -5.979  0.00  0.00    -0.001 A 
ENDROOT
TORSDOF 0
ENDMDL
