MODEL 1
REMARK minimizedAffinity 6.87689734
REMARK minimizedRMSD -1
REMARK  0 active torsions:
REMARK  status: ('A' for Active; 'I' for Inactive)
ROOT
ATOM      1  C   UNL d   1       1.839   3.775  -5.905  0.00  0.00     0.078 C 
ATOM      2  C1  UNL d   1       0.405   4.214  -5.925  0.00  0.00    -0.077 A 
ATOM      3  C2  UNL d   1      -0.635   3.278  -5.971  0.00  0.00    -0.001 A 
ATOM      4  C3  UNL d   1      -1.965   3.700  -5.999  0.00  0.00     0.003 A 
ATOM      5  C4  UNL d   1      -2.267   5.061  -5.982  0.00  0.00    -0.005 A 
ATOM      6  C5  UNL d   1      -1.239   6.000  -5.938  0.00  0.00     0.003 A 
ATOM      7  C6  UNL d   1       0.092   5.579  -5.910  0.00  0.00    -0.001 A 
ENDROOT
TORSDOF 0
ENDMDL
