MODEL 1
REMARK minimizedAffinity 1.89180064
REMARK minimizedRMSD -1
REMARK  0 active torsions:
REMARK  status: ('A' for Active; 'I' for Inactive)
ROOT
ATOM      1  C   UNL d   1       1.017   3.965  -5.991  0.00  0.00     0.078 C 
ATOM      2  C1  UNL d   1      -0.481   4.036  -5.989  0.00  0.00    -0.077 A 
ATOM      3  C2  UNL d   1      -1.145   5.268  -5.961  0.00  0.00    -0.001 A 
ATOM      4  C3  UNL d   1      -2.540   5.319  -5.949  0.00  0.00     0.003 A 
ATOM      5  C4  UNL d   1      -3.283   4.141  -5.963  0.00  0.00    -0.005 A 
ATOM      6  C5  UNL d   1      -2.631   2.909  -5.988  0.00  0.00     0.003 A 
ATOM      7  C6  UNL d   1      -1.237   2.856  -6.000  0.00  0.00    -0.001 A 
ENDROOT
TORSDOF 0
ENDMDL
