MODEL 1
REMARK minimizedAffinity 3.82921219
REMARK minimizedRMSD -1
REMARK  0 active torsions:
REMARK  status: ('A' for Active; 'I' for Inactive)
ROOT
ATOM      1  C   UNL d   1       0.342   3.423  -5.984  0.00  0.00     0.078 C 
ATOM      2  C1  UNL d   1       1.839   3.520  -5.997  0.00  0.00    -0.077 A 
ATOM      3  C2  UNL d   1       2.636   2.370  -5.998  0.00  0.00    -0.001 A 
ATOM      4  C3  UNL d   1       4.028   2.476  -6.000  0.00  0.00     0.003 A 
ATOM      5  C4  UNL d   1       4.634   3.730  -6.000  0.00  0.00    -0.005 A 
ATOM      6  C5  UNL d   1       3.849   4.881  -5.997  0.00  0.00     0.003 A 
ATOM      7  C6  UNL d   1       2.457   4.777  -5.995  0.00  0.00    -0.001 A 
ENDROOT
TORSDOF 0
ENDMDL
