MODEL 1
REMARK minimizedAffinity 3.74437189
REMARK minimizedRMSD -1
REMARK  0 active torsions:
REMARK  status: ('A' for Active; 'I' for Inactive)
ROOT
ATOM      1  C   UNL d   1      -0.103   0.036   1.391  0.00  0.00     0.078 C 
ATOM      2  C1  UNL d   1       0.402   1.028   0.387  0.00  0.00    -0.077 A 
ATOM      3  C2  UNL d   1       0.751   2.329   0.771  0.00  0.00    -0.001 A 
ATOM      4  C3  UNL d   1       1.210   3.246  -0.176  0.00  0.00     0.003 A 
ATOM      5  C4  UNL d   1       1.324   2.872  -1.514  0.00  0.00    -0.005 A 
ATOM      6  C5  UNL d   1       0.977   1.581  -1.906  0.00  0.00     0.003 A 
ATOM      7  C6  UNL d   1       0.518   0.663  -0.960  0.00  0.00    -0.001 A 
ENDROOT
TORSDOF 0
ENDMDL
