MODEL 1
REMARK minimizedAffinity 3.24663377
REMARK minimizedRMSD -1
REMARK  0 active torsions:
REMARK  status: ('A' for Active; 'I' for Inactive)
ROOT
ATOM      1  C   UNL d   1       1.274   2.792  -5.986  0.00  0.00     0.078 C 
ATOM      2  C1  UNL d   1      -0.210   3.013  -5.994  0.00  0.00    -0.077 A 
ATOM      3  C2  UNL d   1      -0.746   4.307  -5.997  0.00  0.00    -0.001 A 
ATOM      4  C3  UNL d   1      -2.128   4.498  -5.995  0.00  0.00     0.003 A 
ATOM      5  C4  UNL d   1      -2.986   3.400  -5.989  0.00  0.00    -0.005 A 
ATOM      6  C5  UNL d   1      -2.462   2.109  -5.984  0.00  0.00     0.003 A 
ATOM      7  C6  UNL d   1      -1.080   1.916  -5.985  0.00  0.00    -0.001 A 
ENDROOT
TORSDOF 0
ENDMDL
