MODEL 1
REMARK minimizedAffinity -1.56526875
REMARK minimizedRMSD -1
REMARK  0 active torsions:
REMARK  status: ('A' for Active; 'I' for Inactive)
ROOT
ATOM      1  C   UNL d   1      -2.861   2.616  -6.000  0.00  0.00     0.078 C 
ATOM      2  C1  UNL d   1      -1.470   3.178  -5.992  0.00  0.00    -0.077 A 
ATOM      3  C2  UNL d   1      -1.251   4.561  -5.995  0.00  0.00    -0.001 A 
ATOM      4  C3  UNL d   1       0.049   5.069  -5.997  0.00  0.00     0.003 A 
ATOM      5  C4  UNL d   1       1.139   4.202  -5.998  0.00  0.00    -0.005 A 
ATOM      6  C5  UNL d   1       0.931   2.824  -5.998  0.00  0.00     0.003 A 
ATOM      7  C6  UNL d   1      -0.368   2.314  -5.995  0.00  0.00    -0.001 A 
ENDROOT
TORSDOF 0
ENDMDL
