MODEL 1
REMARK minimizedAffinity 5.11280727
REMARK minimizedRMSD -1
REMARK  0 active torsions:
REMARK  status: ('A' for Active; 'I' for Inactive)
ROOT
ATOM      1  C   UNL d   1      -0.306  -0.014   0.695  0.00  0.00     0.078 C 
ATOM      2  C1  UNL d   1       0.449   1.247   0.398  0.00  0.00    -0.077 A 
ATOM      3  C2  UNL d   1       0.793   1.589  -0.916  0.00  0.00    -0.001 A 
ATOM      4  C3  UNL d   1       1.504   2.762  -1.177  0.00  0.00     0.003 A 
ATOM      5  C4  UNL d   1       1.878   3.601  -0.130  0.00  0.00    -0.005 A 
ATOM      6  C5  UNL d   1       1.543   3.268   1.181  0.00  0.00     0.003 A 
ATOM      7  C6  UNL d   1       0.832   2.096   1.444  0.00  0.00    -0.001 A 
ENDROOT
TORSDOF 0
ENDMDL
