MODEL 1
REMARK minimizedAffinity 2.63266873
REMARK minimizedRMSD -1
REMARK  0 active torsions:
REMARK  status: ('A' for Active; 'I' for Inactive)
ROOT
ATOM      1  C   UNL d   1      -0.719   3.300  -5.942  0.00  0.00     0.078 C 
ATOM      2  C1  UNL d   1       0.761   3.059  -5.969  0.00  0.00    -0.077 A 
ATOM      3  C2  UNL d   1       1.280   1.759  -5.972  0.00  0.00    -0.001 A 
ATOM      4  C3  UNL d   1       2.660   1.550  -5.988  0.00  0.00     0.003 A 
ATOM      5  C4  UNL d   1       3.532   2.636  -6.000  0.00  0.00    -0.005 A 
ATOM      6  C5  UNL d   1       3.025   3.934  -5.995  0.00  0.00     0.003 A 
ATOM      7  C6  UNL d   1       1.645   4.145  -5.979  0.00  0.00    -0.001 A 
ENDROOT
TORSDOF 0
ENDMDL
