MODEL 1
REMARK minimizedAffinity 1.71915245
REMARK minimizedRMSD -1
REMARK  0 active torsions:
REMARK  status: ('A' for Active; 'I' for Inactive)
ROOT
ATOM      1  C4' PXY d   1       1.487  -5.995  -5.943  0.00  0.00     0.077 C 
ATOM      2  C1' PXY d   1       5.463  -5.941  -1.747  0.00  0.00     0.077 C 
ATOM      3  C1  PXY d   1       4.411  -5.960  -2.839  0.00  0.00    -0.082 A 
ATOM      4  C2  PXY d   1       4.786  -5.998  -4.107  0.00  0.00     0.003 A 
ATOM      5  C3  PXY d   1       3.849  -5.983  -5.108  0.00  0.00     0.003 A 
ATOM      6  C4  PXY d   1       2.514  -5.984  -4.807  0.00  0.00    -0.082 A 
ATOM      7  C5  PXY d   1       2.123  -5.957  -3.515  0.00  0.00     0.003 A 
ATOM      8  C6  PXY d   1       3.090  -5.930  -2.515  0.00  0.00     0.003 A 
ENDROOT
TORSDOF 0
ENDMDL
