MODEL 1
REMARK minimizedAffinity 4.78634167
REMARK minimizedRMSD -1
REMARK  0 active torsions:
REMARK  status: ('A' for Active; 'I' for Inactive)
ROOT
ATOM      1  C4' PXY d   1      -2.749   0.877  -2.179  0.00  0.00     0.077 C 
ATOM      2  C1' PXY d   1      -3.600  -4.519  -4.072  0.00  0.00     0.077 C 
ATOM      3  C1  PXY d   1      -3.386  -3.105  -3.566  0.00  0.00    -0.082 A 
ATOM      4  C2  PXY d   1      -2.859  -2.196  -4.370  0.00  0.00     0.003 A 
ATOM      5  C3  PXY d   1      -2.629  -0.921  -3.920  0.00  0.00     0.003 A 
ATOM      6  C4  PXY d   1      -2.992  -0.560  -2.650  0.00  0.00    -0.082 A 
ATOM      7  C5  PXY d   1      -3.539  -1.479  -1.827  0.00  0.00     0.003 A 
ATOM      8  C6  PXY d   1      -3.726  -2.778  -2.290  0.00  0.00     0.003 A 
ENDROOT
TORSDOF 0
ENDMDL
