MODEL 1
REMARK minimizedAffinity 10.3506536
REMARK minimizedRMSD -1
REMARK  0 active torsions:
REMARK  status: ('A' for Active; 'I' for Inactive)
ROOT
ATOM      1  C4' PXY d   1       1.407   0.891   4.028  0.00  0.00     0.077 C 
ATOM      2  C1' PXY d   1       2.890   2.725  -1.250  0.00  0.00     0.077 C 
ATOM      3  C1  PXY d   1       2.493   2.254   0.136  0.00  0.00    -0.082 A 
ATOM      4  C2  PXY d   1       3.297   1.446   0.807  0.00  0.00     0.003 A 
ATOM      5  C3  PXY d   1       2.939   0.986   2.048  0.00  0.00     0.003 A 
ATOM      6  C4  PXY d   1       1.771   1.399   2.630  0.00  0.00    -0.082 A 
ATOM      7  C5  PXY d   1       0.950   2.232   1.956  0.00  0.00     0.003 A 
ATOM      8  C6  PXY d   1       1.312   2.655   0.680  0.00  0.00     0.003 A 
ENDROOT
TORSDOF 0
ENDMDL
