MODEL 1
REMARK minimizedAffinity 6.21373415
REMARK minimizedRMSD -1
REMARK  0 active torsions:
REMARK  status: ('A' for Active; 'I' for Inactive)
ROOT
ATOM      1  C4' PXY d   1       2.048   0.073   5.552  0.00  0.00     0.077 C 
ATOM      2  C1' PXY d   1       3.378   2.296   0.384  0.00  0.00     0.077 C 
ATOM      3  C1  PXY d   1       3.026   1.702   1.733  0.00  0.00    -0.082 A 
ATOM      4  C2  PXY d   1       2.742   2.503   2.747  0.00  0.00     0.003 A 
ATOM      5  C3  PXY d   1       2.452   1.984   3.982  0.00  0.00     0.003 A 
ATOM      6  C4  PXY d   1       2.400   0.628   4.169  0.00  0.00    -0.082 A 
ATOM      7  C5  PXY d   1       2.678  -0.196   3.137  0.00  0.00     0.003 A 
ATOM      8  C6  PXY d   1       3.010   0.351   1.901  0.00  0.00     0.003 A 
ENDROOT
TORSDOF 0
ENDMDL
