MODEL 1
REMARK minimizedAffinity 7.5873003
REMARK minimizedRMSD -1
REMARK  0 active torsions:
REMARK  status: ('A' for Active; 'I' for Inactive)
ROOT
ATOM      1  C4' PXY d   1      -2.117   2.418  -1.347  0.00  0.00     0.077 C 
ATOM      2  C1' PXY d   1      -3.757  -2.507  -3.890  0.00  0.00     0.077 C 
ATOM      3  C1  PXY d   1      -3.331  -1.209  -3.233  0.00  0.00    -0.082 A 
ATOM      4  C2  PXY d   1      -2.406  -1.227  -2.287  0.00  0.00     0.003 A 
ATOM      5  C3  PXY d   1      -2.032  -0.066  -1.661  0.00  0.00     0.003 A 
ATOM      6  C4  PXY d   1      -2.571   1.133  -2.043  0.00  0.00    -0.082 A 
ATOM      7  C5  PXY d   1      -3.508   1.161  -3.015  0.00  0.00     0.003 A 
ATOM      8  C6  PXY d   1      -3.904  -0.034  -3.610  0.00  0.00     0.003 A 
ENDROOT
TORSDOF 0
ENDMDL
