MODEL 1
REMARK minimizedAffinity 4.23628521
REMARK minimizedRMSD -1
REMARK  0 active torsions:
REMARK  status: ('A' for Active; 'I' for Inactive)
ROOT
ATOM      1  C4' PXY d   1       2.505  -5.987   2.885  0.00  0.00     0.077 C 
ATOM      2  C1' PXY d   1       2.078  -5.992  -2.880  0.00  0.00     0.077 C 
ATOM      3  C1  PXY d   1       2.202  -5.996  -1.369  0.00  0.00    -0.082 A 
ATOM      4  C2  PXY d   1       1.109  -6.000  -0.623  0.00  0.00     0.003 A 
ATOM      5  C3  PXY d   1       1.203  -5.971   0.745  0.00  0.00     0.003 A 
ATOM      6  C4  PXY d   1       2.428  -5.993   1.356  0.00  0.00    -0.082 A 
ATOM      7  C5  PXY d   1       3.547  -6.000   0.602  0.00  0.00     0.003 A 
ATOM      8  C6  PXY d   1       3.431  -5.987  -0.785  0.00  0.00     0.003 A 
ENDROOT
TORSDOF 0
ENDMDL
