MODEL 1
REMARK minimizedAffinity -2.98303032
REMARK minimizedRMSD -1
REMARK  0 active torsions:
REMARK  status: ('A' for Active; 'I' for Inactive)
ROOT
ATOM      1  C4' PXY d   1       0.821  -5.953  -0.004  0.00  0.00     0.077 C 
ATOM      2  C1' PXY d   1       6.000  -5.999  -2.571  0.00  0.00     0.077 C 
ATOM      3  C1  PXY d   1       4.636  -5.981  -1.909  0.00  0.00    -0.082 A 
ATOM      4  C2  PXY d   1       4.551  -5.983  -0.588  0.00  0.00     0.003 A 
ATOM      5  C3  PXY d   1       3.325  -6.000   0.027  0.00  0.00     0.003 A 
ATOM      6  C4  PXY d   1       2.176  -5.961  -0.716  0.00  0.00    -0.082 A 
ATOM      7  C5  PXY d   1       2.255  -5.948  -2.064  0.00  0.00     0.003 A 
ATOM      8  C6  PXY d   1       3.508  -5.973  -2.670  0.00  0.00     0.003 A 
ENDROOT
TORSDOF 0
ENDMDL
