MODEL 1
REMARK minimizedAffinity 0.935648382
REMARK minimizedRMSD -1
REMARK  0 active torsions:
REMARK  status: ('A' for Active; 'I' for Inactive)
ROOT
ATOM      1  C4' PXY d   1       4.791  -5.998  -3.043  0.00  0.00     0.077 C 
ATOM      2  C1' PXY d   1       0.852  -5.943   1.188  0.00  0.00     0.077 C 
ATOM      3  C1  PXY d   1       1.894  -5.953   0.087  0.00  0.00    -0.082 A 
ATOM      4  C2  PXY d   1       1.509  -5.925  -1.179  0.00  0.00     0.003 A 
ATOM      5  C3  PXY d   1       2.436  -5.965  -2.187  0.00  0.00     0.003 A 
ATOM      6  C4  PXY d   1       3.774  -5.981  -1.898  0.00  0.00    -0.082 A 
ATOM      7  C5  PXY d   1       4.176  -5.998  -0.609  0.00  0.00     0.003 A 
ATOM      8  C6  PXY d   1       3.218  -5.998   0.400  0.00  0.00     0.003 A 
ENDROOT
TORSDOF 0
ENDMDL
