MODEL 1
REMARK minimizedAffinity 1.6421113
REMARK minimizedRMSD -1
REMARK  0 active torsions:
REMARK  status: ('A' for Active; 'I' for Inactive)
ROOT
ATOM      1  C4' PXY d   1       1.585  -0.456   2.148  0.00  0.00     0.077 C 
ATOM      2  C1' PXY d   1       2.108   4.522  -0.745  0.00  0.00     0.077 C 
ATOM      3  C1  PXY d   1       1.963   3.222   0.022  0.00  0.00    -0.082 A 
ATOM      4  C2  PXY d   1       2.913   2.305  -0.059  0.00  0.00     0.003 A 
ATOM      5  C3  PXY d   1       2.783   1.111   0.602  0.00  0.00     0.003 A 
ATOM      6  C4  PXY d   1       1.694   0.875   1.398  0.00  0.00    -0.082 A 
ATOM      7  C5  PXY d   1       0.726   1.810   1.495  0.00  0.00     0.003 A 
ATOM      8  C6  PXY d   1       0.857   2.999   0.783  0.00  0.00     0.003 A 
ENDROOT
TORSDOF 0
ENDMDL
