MODEL 1
REMARK minimizedAffinity -3.38166904
REMARK minimizedRMSD -1
REMARK  0 active torsions:
REMARK  status: ('A' for Active; 'I' for Inactive)
ROOT
ATOM      1  C4' PXY d   1       5.167  -3.099  -5.242  0.00  0.00     0.077 C 
ATOM      2  C1' PXY d   1       5.123   2.682  -5.229  0.00  0.00     0.077 C 
ATOM      3  C1  PXY d   1       5.129   1.166  -5.221  0.00  0.00    -0.082 A 
ATOM      4  C2  PXY d   1       6.000   0.511  -5.971  0.00  0.00     0.003 A 
ATOM      5  C3  PXY d   1       5.998  -0.860  -6.000  0.00  0.00     0.003 A 
ATOM      6  C4  PXY d   1       5.131  -1.568  -5.212  0.00  0.00    -0.082 A 
ATOM      7  C5  PXY d   1       4.246  -0.907  -4.435  0.00  0.00     0.003 A 
ATOM      8  C6  PXY d   1       4.237   0.484  -4.452  0.00  0.00     0.003 A 
ENDROOT
TORSDOF 0
ENDMDL
