MODEL 1
REMARK minimizedAffinity 5.10567522
REMARK minimizedRMSD -1
REMARK  0 active torsions:
REMARK  status: ('A' for Active; 'I' for Inactive)
ROOT
ATOM      1  C4' PXY d   1       1.540  -2.091  -0.858  0.00  0.00     0.077 C 
ATOM      2  C1' PXY d   1       0.711   3.426   0.654  0.00  0.00     0.077 C 
ATOM      3  C1  PXY d   1       0.922   1.975   0.268  0.00  0.00    -0.082 A 
ATOM      4  C2  PXY d   1       1.925   1.650  -0.530  0.00  0.00     0.003 A 
ATOM      5  C3  PXY d   1       2.112   0.347  -0.915  0.00  0.00     0.003 A 
ATOM      6  C4  PXY d   1       1.294  -0.641  -0.435  0.00  0.00    -0.082 A 
ATOM      7  C5  PXY d   1       0.275  -0.319   0.389  0.00  0.00     0.003 A 
ATOM      8  C6  PXY d   1       0.078   1.015   0.735  0.00  0.00     0.003 A 
ENDROOT
TORSDOF 0
ENDMDL
