MODEL 1
REMARK minimizedAffinity -1.75308359
REMARK minimizedRMSD -1
REMARK  0 active torsions:
REMARK  status: ('A' for Active; 'I' for Inactive)
ROOT
ATOM      1  C4' PXY d   1       5.009   1.877  -4.180  0.00  0.00     0.077 C 
ATOM      2  C1' PXY d   1       6.000  -3.691  -5.377  0.00  0.00     0.077 C 
ATOM      3  C1  PXY d   1       5.733  -2.234  -5.053  0.00  0.00    -0.082 A 
ATOM      4  C2  PXY d   1       5.863  -1.319  -6.000  0.00  0.00     0.003 A 
ATOM      5  C3  PXY d   1       5.656   0.007  -5.716  0.00  0.00     0.003 A 
ATOM      6  C4  PXY d   1       5.260   0.394  -4.464  0.00  0.00    -0.082 A 
ATOM      7  C5  PXY d   1       5.114  -0.535  -3.496  0.00  0.00     0.003 A 
ATOM      8  C6  PXY d   1       5.369  -1.871  -3.793  0.00  0.00     0.003 A 
ENDROOT
TORSDOF 0
ENDMDL
