MODEL 1
REMARK minimizedAffinity 7.1432333
REMARK minimizedRMSD -1
REMARK  0 active torsions:
REMARK  status: ('A' for Active; 'I' for Inactive)
ROOT
ATOM      1  C4' PXY d   1       0.990  -2.086  -0.787  0.00  0.00     0.077 C 
ATOM      2  C1' PXY d   1      -0.129   3.470   0.349  0.00  0.00     0.077 C 
ATOM      3  C1  PXY d   1       0.158   2.014   0.040  0.00  0.00    -0.082 A 
ATOM      4  C2  PXY d   1       0.338   1.158   1.032  0.00  0.00     0.003 A 
ATOM      5  C3  PXY d   1       0.631  -0.156   0.770  0.00  0.00     0.003 A 
ATOM      6  C4  PXY d   1       0.688  -0.609  -0.521  0.00  0.00    -0.082 A 
ATOM      7  C5  PXY d   1       0.495   0.257  -1.539  0.00  0.00     0.003 A 
ATOM      8  C6  PXY d   1       0.240   1.595  -1.252  0.00  0.00     0.003 A 
ENDROOT
TORSDOF 0
ENDMDL
