MODEL 1
REMARK minimizedAffinity 22.1642895
REMARK minimizedRMSD -1
REMARK  1 active torsions:
REMARK  status: ('A' for Active; 'I' for Inactive)
REMARK    1  A    between atoms: C1_2  and  C2_3 
ROOT
ATOM      1  C2  UNL d   1      -3.115   0.457  -3.141  0.00  0.00    -0.081 A 
ATOM      2  C3  UNL d   1      -3.513   1.277  -2.077  0.00  0.00     0.006 A 
ATOM      3  C4  UNL d   1      -3.522   2.667  -2.220  0.00  0.00     0.002 A 
ATOM      4  C5  UNL d   1      -3.142   3.259  -3.429  0.00  0.00    -0.080 A 
ATOM      5  C6  UNL d   1      -3.177   4.748  -3.604  0.00  0.00     0.076 C 
ATOM      6  C7  UNL d   1      -2.728   2.441  -4.485  0.00  0.00     0.002 A 
ATOM      7  C8  UNL d   1      -2.718   1.052  -4.344  0.00  0.00     0.006 A 
ENDROOT
BRANCH   1   8
ATOM      8  C1  UNL d   1      -3.166  -1.044  -3.012  0.00  0.00     0.054 C 
ATOM      9  C   UNL d   1      -2.042  -1.561  -2.126  0.00  0.00     0.018 C 
ENDBRANCH   1   8
TORSDOF 1
ENDMDL
