MODEL 1
REMARK minimizedAffinity 18.660471
REMARK minimizedRMSD -1
REMARK  1 active torsions:
REMARK  status: ('A' for Active; 'I' for Inactive)
REMARK    1  A    between atoms: C1_2  and  C2_3 
ROOT
ATOM      1  C2  UNL d   1      -2.392  -1.282  -0.377  0.00  0.00    -0.081 A 
ATOM      2  C3  UNL d   1      -2.456  -2.274   0.609  0.00  0.00     0.006 A 
ATOM      3  C4  UNL d   1      -3.617  -2.445   1.366  0.00  0.00     0.002 A 
ATOM      4  C5  UNL d   1      -4.735  -1.634   1.145  0.00  0.00    -0.080 A 
ATOM      5  C6  UNL d   1      -5.998  -1.827   1.930  0.00  0.00     0.076 C 
ATOM      6  C7  UNL d   1      -4.665  -0.631   0.172  0.00  0.00     0.002 A 
ATOM      7  C8  UNL d   1      -3.504  -0.459  -0.585  0.00  0.00     0.006 A 
ENDROOT
BRANCH   1   8
ATOM      8  C1  UNL d   1      -1.164  -1.137  -1.240  0.00  0.00     0.054 C 
ATOM      9  C   UNL d   1      -0.792  -2.457  -1.900  0.00  0.00     0.018 C 
ENDBRANCH   1   8
TORSDOF 1
ENDMDL
