MODEL 1
REMARK minimizedAffinity 27.4855556
REMARK minimizedRMSD -1
REMARK  1 active torsions:
REMARK  status: ('A' for Active; 'I' for Inactive)
REMARK    1  A    between atoms: C1_2  and  C2_3 
ROOT
ATOM      1  C2  UNL d   1       0.145  -1.004  -1.577  0.00  0.00    -0.081 A 
ATOM      2  C3  UNL d   1       0.479  -1.119  -2.932  0.00  0.00     0.006 A 
ATOM      3  C4  UNL d   1       1.781  -0.860  -3.365  0.00  0.00     0.002 A 
ATOM      4  C5  UNL d   1       2.773  -0.489  -2.450  0.00  0.00    -0.080 A 
ATOM      5  C6  UNL d   1       4.182  -0.238  -2.898  0.00  0.00     0.076 C 
ATOM      6  C7  UNL d   1       2.436  -0.358  -1.099  0.00  0.00     0.002 A 
ATOM      7  C8  UNL d   1       1.134  -0.616  -0.665  0.00  0.00     0.006 A 
ENDROOT
BRANCH   1   8
ATOM      8  C1  UNL d   1      -1.242  -1.345  -1.097  0.00  0.00     0.054 C 
ATOM      9  C   UNL d   1      -1.395  -1.077   0.393  0.00  0.00     0.018 C 
ENDBRANCH   1   8
TORSDOF 1
ENDMDL
