MODEL 1
REMARK minimizedAffinity 9.28988743
REMARK minimizedRMSD -1
REMARK  1 active torsions:
REMARK  status: ('A' for Active; 'I' for Inactive)
REMARK    1  A    between atoms: C1_2  and  C2_3 
ROOT
ATOM      1  C2  UNL d   1      -3.274  -2.358   1.404  0.00  0.00    -0.081 A 
ATOM      2  C3  UNL d   1      -2.023  -2.986   1.388  0.00  0.00     0.006 A 
ATOM      3  C4  UNL d   1      -0.983  -2.472   0.610  0.00  0.00     0.002 A 
ATOM      4  C5  UNL d   1      -1.174  -1.319  -0.159  0.00  0.00    -0.080 A 
ATOM      5  C6  UNL d   1      -0.057  -0.740  -0.975  0.00  0.00     0.076 C 
ATOM      6  C7  UNL d   1      -2.429  -0.701  -0.157  0.00  0.00     0.002 A 
ATOM      7  C8  UNL d   1      -3.470  -1.215   0.621  0.00  0.00     0.006 A 
ENDROOT
BRANCH   1   8
ATOM      8  C1  UNL d   1      -4.379  -2.872   2.292  0.00  0.00     0.054 C 
ATOM      9  C   UNL d   1      -5.745  -2.434   1.786  0.00  0.00     0.018 C 
ENDBRANCH   1   8
TORSDOF 1
ENDMDL
