MODEL 1
REMARK minimizedAffinity 18.0231647
REMARK minimizedRMSD -1
REMARK  1 active torsions:
REMARK  status: ('A' for Active; 'I' for Inactive)
REMARK    1  A    between atoms: C1_2  and  C2_3 
ROOT
ATOM      1  C2  UNL d   1      -1.154   1.008  -4.097  0.00  0.00    -0.081 A 
ATOM      2  C3  UNL d   1      -2.260   0.512  -3.395  0.00  0.00     0.006 A 
ATOM      3  C4  UNL d   1      -2.296  -0.822  -2.982  0.00  0.00     0.002 A 
ATOM      4  C5  UNL d   1      -1.225  -1.679  -3.257  0.00  0.00    -0.080 A 
ATOM      5  C6  UNL d   1      -1.237  -3.106  -2.793  0.00  0.00     0.076 C 
ATOM      6  C7  UNL d   1      -0.128  -1.188  -3.973  0.00  0.00     0.002 A 
ATOM      7  C8  UNL d   1      -0.092   0.145  -4.386  0.00  0.00     0.006 A 
ENDROOT
BRANCH   1   8
ATOM      8  C1  UNL d   1      -1.084   2.463  -4.487  0.00  0.00     0.054 C 
ATOM      9  C   UNL d   1      -1.095   2.631  -5.999  0.00  0.00     0.018 C 
ENDBRANCH   1   8
TORSDOF 1
ENDMDL
