MODEL 1
REMARK minimizedAffinity 16.6799488
REMARK minimizedRMSD -1
REMARK  1 active torsions:
REMARK  status: ('A' for Active; 'I' for Inactive)
REMARK    1  A    between atoms: C1_2  and  C2_3 
ROOT
ATOM      1  C2  UNL d   1       4.106   3.615   0.235  0.00  0.00    -0.081 A 
ATOM      2  C3  UNL d   1       5.024   2.831  -0.474  0.00  0.00     0.006 A 
ATOM      3  C4  UNL d   1       4.613   1.651  -1.099  0.00  0.00     0.002 A 
ATOM      4  C5  UNL d   1       3.277   1.240  -1.032  0.00  0.00    -0.080 A 
ATOM      5  C6  UNL d   1       2.817  -0.008  -1.724  0.00  0.00     0.076 C 
ATOM      6  C7  UNL d   1       2.364   2.015  -0.310  0.00  0.00     0.002 A 
ATOM      7  C8  UNL d   1       2.774   3.194   0.316  0.00  0.00     0.006 A 
ENDROOT
BRANCH   1   8
ATOM      8  C1  UNL d   1       4.532   4.921   0.855  0.00  0.00     0.054 C 
ATOM      9  C   UNL d   1       4.954   5.927  -0.207  0.00  0.00     0.018 C 
ENDBRANCH   1   8
TORSDOF 1
ENDMDL
