MODEL 1
REMARK minimizedAffinity 18.0368481
REMARK minimizedRMSD -1
REMARK  1 active torsions:
REMARK  status: ('A' for Active; 'I' for Inactive)
REMARK    1  A    between atoms: C1_2  and  C2_3 
ROOT
ATOM      1  C2  UNL d   1       5.274   2.245  -2.680  0.00  0.00    -0.081 A 
ATOM      2  C3  UNL d   1       5.965   2.924  -1.669  0.00  0.00     0.006 A 
ATOM      3  C4  UNL d   1       5.304   3.323  -0.505  0.00  0.00     0.002 A 
ATOM      4  C5  UNL d   1       3.944   3.043  -0.329  0.00  0.00    -0.080 A 
ATOM      5  C6  UNL d   1       3.230   3.438   0.929  0.00  0.00     0.076 C 
ATOM      6  C7  UNL d   1       3.250   2.380  -1.347  0.00  0.00     0.002 A 
ATOM      7  C8  UNL d   1       3.910   1.982  -2.511  0.00  0.00     0.006 A 
ENDROOT
BRANCH   1   8
ATOM      8  C1  UNL d   1       5.999   1.757  -3.909  0.00  0.00     0.054 C 
ATOM      9  C   UNL d   1       5.998   2.811  -5.007  0.00  0.00     0.018 C 
ENDBRANCH   1   8
TORSDOF 1
ENDMDL
