MODEL 1
REMARK minimizedAffinity 2.54001284
REMARK minimizedRMSD -1
REMARK  1 active torsions:
REMARK  status: ('A' for Active; 'I' for Inactive)
REMARK    1  A    between atoms: C1_2  and  C2_3 
ROOT
ATOM      1  C2  UNL d   1       3.285   3.111   2.319  0.00  0.00    -0.081 A 
ATOM      2  C3  UNL d   1       4.671   3.303   2.374  0.00  0.00     0.006 A 
ATOM      3  C4  UNL d   1       5.282   3.717   3.560  0.00  0.00     0.002 A 
ATOM      4  C5  UNL d   1       4.519   3.939   4.712  0.00  0.00    -0.080 A 
ATOM      5  C6  UNL d   1       5.166   4.354   5.999  0.00  0.00     0.076 C 
ATOM      6  C7  UNL d   1       3.132   3.764   4.652  0.00  0.00     0.002 A 
ATOM      7  C8  UNL d   1       2.521   3.350   3.467  0.00  0.00     0.006 A 
ENDROOT
BRANCH   1   8
ATOM      8  C1  UNL d   1       2.631   2.602   1.060  0.00  0.00     0.054 C 
ATOM      9  C   UNL d   1       3.467   2.930  -0.169  0.00  0.00     0.018 C 
ENDBRANCH   1   8
TORSDOF 1
ENDMDL
