MODEL 1
REMARK minimizedAffinity 10.8546247
REMARK minimizedRMSD -1
REMARK  1 active torsions:
REMARK  status: ('A' for Active; 'I' for Inactive)
REMARK    1  A    between atoms: C1_2  and  C2_3 
ROOT
ATOM      1  C2  UNL d   1       1.478   0.120  -1.461  0.00  0.00    -0.081 A 
ATOM      2  C3  UNL d   1       1.026   1.200  -0.694  0.00  0.00     0.006 A 
ATOM      3  C4  UNL d   1       1.920   2.176  -0.248  0.00  0.00     0.002 A 
ATOM      4  C5  UNL d   1       3.279   2.092  -0.569  0.00  0.00    -0.080 A 
ATOM      5  C6  UNL d   1       4.246   3.149  -0.123  0.00  0.00     0.076 C 
ATOM      6  C7  UNL d   1       3.734   1.003  -1.321  0.00  0.00     0.002 A 
ATOM      7  C8  UNL d   1       2.840   0.027  -1.766  0.00  0.00     0.006 A 
ENDROOT
BRANCH   1   8
ATOM      8  C1  UNL d   1       0.505  -0.900  -1.997  0.00  0.00     0.054 C 
ATOM      9  C   UNL d   1      -0.724  -1.014  -1.107  0.00  0.00     0.018 C 
ENDBRANCH   1   8
TORSDOF 1
ENDMDL
