MODEL 1
REMARK minimizedAffinity 7.17466879
REMARK minimizedRMSD -1
REMARK  1 active torsions:
REMARK  status: ('A' for Active; 'I' for Inactive)
REMARK    1  A    between atoms: C1_2  and  C2_3 
ROOT
ATOM      1  C2  UNL d   1       3.992   3.598   4.328  0.00  0.00    -0.081 A 
ATOM      2  C3  UNL d   1       5.053   2.998   3.640  0.00  0.00     0.006 A 
ATOM      3  C4  UNL d   1       4.920   2.657   2.292  0.00  0.00     0.002 A 
ATOM      4  C5  UNL d   1       3.727   2.917   1.608  0.00  0.00    -0.080 A 
ATOM      5  C6  UNL d   1       3.582   2.584   0.153  0.00  0.00     0.076 C 
ATOM      6  C7  UNL d   1       2.661   3.501   2.301  0.00  0.00     0.002 A 
ATOM      7  C8  UNL d   1       2.793   3.841   3.649  0.00  0.00     0.006 A 
ENDROOT
BRANCH   1   8
ATOM      8  C1  UNL d   1       4.154   4.026   5.765  0.00  0.00     0.054 C 
ATOM      9  C   UNL d   1       5.504   4.692   5.994  0.00  0.00     0.018 C 
ENDBRANCH   1   8
TORSDOF 1
ENDMDL
