MODEL 1
REMARK minimizedAffinity 14.6748466
REMARK minimizedRMSD -1
REMARK  1 active torsions:
REMARK  status: ('A' for Active; 'I' for Inactive)
REMARK    1  A    between atoms: C1_2  and  C2_3 
ROOT
ATOM      1  C2  UNL d   1       4.579   2.187  -1.337  0.00  0.00    -0.081 A 
ATOM      2  C3  UNL d   1       4.211   2.919  -0.202  0.00  0.00     0.006 A 
ATOM      3  C4  UNL d   1       2.942   2.763   0.361  0.00  0.00     0.002 A 
ATOM      4  C5  UNL d   1       2.023   1.868  -0.197  0.00  0.00    -0.080 A 
ATOM      5  C6  UNL d   1       0.668   1.669   0.415  0.00  0.00     0.076 C 
ATOM      6  C7  UNL d   1       2.384   1.150  -1.342  0.00  0.00     0.002 A 
ATOM      7  C8  UNL d   1       3.653   1.305  -1.905  0.00  0.00     0.006 A 
ENDROOT
BRANCH   1   8
ATOM      8  C1  UNL d   1       5.969   2.305  -1.908  0.00  0.00     0.054 C 
ATOM      9  C   UNL d   1       5.999   1.909  -3.377  0.00  0.00     0.018 C 
ENDBRANCH   1   8
TORSDOF 1
ENDMDL
