MODEL 1
REMARK minimizedAffinity 11.4926367
REMARK minimizedRMSD -1
REMARK  1 active torsions:
REMARK  status: ('A' for Active; 'I' for Inactive)
REMARK    1  A    between atoms: C1_2  and  C2_3 
ROOT
ATOM      1  C2  UNL d   1       5.222   3.963   5.962  0.00  0.00    -0.081 A 
ATOM      2  C3  UNL d   1       5.889   2.732   5.978  0.00  0.00     0.006 A 
ATOM      3  C4  UNL d   1       5.167   1.536   6.000  0.00  0.00     0.002 A 
ATOM      4  C5  UNL d   1       3.768   1.551   5.998  0.00  0.00    -0.080 A 
ATOM      5  C6  UNL d   1       2.982   0.274   5.991  0.00  0.00     0.076 C 
ATOM      6  C7  UNL d   1       3.102   2.781   5.999  0.00  0.00     0.002 A 
ATOM      7  C8  UNL d   1       3.823   3.977   5.978  0.00  0.00     0.006 A 
ENDROOT
BRANCH   1   8
ATOM      8  C1  UNL d   1       5.997   5.253   5.873  0.00  0.00     0.054 C 
ATOM      9  C   UNL d   1       5.682   6.000   4.584  0.00  0.00     0.018 C 
ENDBRANCH   1   8
TORSDOF 1
ENDMDL
