MODEL 1
REMARK minimizedAffinity 12.2600527
REMARK minimizedRMSD -1
REMARK  1 active torsions:
REMARK  status: ('A' for Active; 'I' for Inactive)
REMARK    1  A    between atoms: C1_2  and  C2_3 
ROOT
ATOM      1  C2  UNL d   1       4.706   4.512   5.233  0.00  0.00    -0.081 A 
ATOM      2  C3  UNL d   1       3.928   5.506   5.839  0.00  0.00     0.006 A 
ATOM      3  C4  UNL d   1       2.773   5.981   5.214  0.00  0.00     0.002 A 
ATOM      4  C5  UNL d   1       2.372   5.464   3.977  0.00  0.00    -0.080 A 
ATOM      5  C6  UNL d   1       1.117   5.943   3.309  0.00  0.00     0.076 C 
ATOM      6  C7  UNL d   1       3.159   4.483   3.363  0.00  0.00     0.002 A 
ATOM      7  C8  UNL d   1       4.314   4.009   3.988  0.00  0.00     0.006 A 
ENDROOT
BRANCH   1   8
ATOM      8  C1  UNL d   1       5.917   3.952   5.935  0.00  0.00     0.054 C 
ATOM      9  C   UNL d   1       5.877   2.431   5.979  0.00  0.00     0.018 C 
ENDBRANCH   1   8
TORSDOF 1
ENDMDL
