MODEL 1
REMARK minimizedAffinity 1.79532373
REMARK minimizedRMSD -1
REMARK  0 active torsions:
REMARK  status: ('A' for Active; 'I' for Inactive)
ROOT
ATOM      1  C   UNL d   1      -0.119   5.668  -1.365  0.00  0.00    -0.002 A 
ATOM      2  C1  UNL d   1       1.192   5.380  -1.013  0.00  0.00     0.010 A 
ATOM      3  C2  UNL d   1       1.534   4.118  -0.522  0.00  0.00     0.041 A 
ATOM      4  C3  UNL d   1       0.527   3.142  -0.391  0.00  0.00    -0.075 A 
ATOM      5  S   UNL d   1       0.713   1.528   0.187  0.00  0.00     0.015 SA
ATOM      6  C4  UNL d   1      -0.943   1.183  -0.021  0.00  0.00     0.022 A 
ATOM      7  C5  UNL d   1      -1.636   2.262  -0.518  0.00  0.00     0.026 A 
ATOM      8  C6  UNL d   1      -0.800   3.408  -0.740  0.00  0.00    -0.082 A 
ATOM      9  C7  UNL d   1      -1.115   4.697  -1.234  0.00  0.00     0.045 A 
ENDROOT
TORSDOF 0
ENDMDL
