MODEL 1
REMARK minimizedAffinity 17.2238903
REMARK minimizedRMSD -1
REMARK  0 active torsions:
REMARK  status: ('A' for Active; 'I' for Inactive)
ROOT
ATOM      1  C   UNL d   1       0.658   5.932  -1.713  0.00  0.00    -0.002 A 
ATOM      2  C1  UNL d   1      -0.726   6.000  -1.631  0.00  0.00     0.010 A 
ATOM      3  C2  UNL d   1      -1.446   5.012  -0.955  0.00  0.00     0.041 A 
ATOM      4  C3  UNL d   1      -0.745   3.947  -0.357  0.00  0.00    -0.075 A 
ATOM      5  S   UNL d   1      -1.417   2.624   0.522  0.00  0.00     0.015 SA
ATOM      6  C4  UNL d   1       0.117   1.940   0.810  0.00  0.00     0.022 A 
ATOM      7  C5  UNL d   1       1.128   2.688   0.256  0.00  0.00     0.026 A 
ATOM      8  C6  UNL d   1       0.648   3.857  -0.426  0.00  0.00    -0.082 A 
ATOM      9  C7  UNL d   1       1.349   4.874  -1.118  0.00  0.00     0.045 A 
ENDROOT
TORSDOF 0
ENDMDL
