MODEL 1
REMARK minimizedAffinity 8.03625202
REMARK minimizedRMSD -1
REMARK  0 active torsions:
REMARK  status: ('A' for Active; 'I' for Inactive)
ROOT
ATOM      1  C   UNL d   1       3.432  -5.984  -3.962  0.00  0.00    -0.002 A 
ATOM      2  C1  UNL d   1       3.754  -6.000  -2.612  0.00  0.00     0.010 A 
ATOM      3  C2  UNL d   1       2.896  -5.429  -1.671  0.00  0.00     0.041 A 
ATOM      4  C3  UNL d   1       1.695  -4.839  -2.112  0.00  0.00    -0.075 A 
ATOM      5  S   UNL d   1       0.490  -4.081  -1.140  0.00  0.00     0.015 SA
ATOM      6  C4  UNL d   1      -0.481  -3.720  -2.493  0.00  0.00     0.022 A 
ATOM      7  C5  UNL d   1       0.085  -4.159  -3.666  0.00  0.00     0.026 A 
ATOM      8  C6  UNL d   1       1.348  -4.812  -3.466  0.00  0.00    -0.082 A 
ATOM      9  C7  UNL d   1       2.240  -5.398  -4.396  0.00  0.00     0.045 A 
ENDROOT
TORSDOF 0
ENDMDL
