MODEL 1
REMARK minimizedAffinity 19.7675705
REMARK minimizedRMSD -1
REMARK  0 active torsions:
REMARK  status: ('A' for Active; 'I' for Inactive)
ROOT
ATOM      1  C   UNL d   1       0.716   5.775  -2.639  0.00  0.00    -0.002 A 
ATOM      2  C1  UNL d   1      -0.653   6.000  -2.635  0.00  0.00     0.010 A 
ATOM      3  C2  UNL d   1      -1.500   5.207  -1.859  0.00  0.00     0.041 A 
ATOM      4  C3  UNL d   1      -0.943   4.176  -1.077  0.00  0.00    -0.075 A 
ATOM      5  S   UNL d   1      -1.786   3.080  -0.048  0.00  0.00     0.015 SA
ATOM      6  C4  UNL d   1      -0.349   2.288   0.412  0.00  0.00     0.022 A 
ATOM      7  C5  UNL d   1       0.757   2.834  -0.196  0.00  0.00     0.026 A 
ATOM      8  C6  UNL d   1       0.433   3.931  -1.064  0.00  0.00    -0.082 A 
ATOM      9  C7  UNL d   1       1.266   4.751  -1.863  0.00  0.00     0.045 A 
ENDROOT
TORSDOF 0
ENDMDL
