MODEL 1
REMARK minimizedAffinity 8.88385296
REMARK minimizedRMSD -1
REMARK  2 active torsions:
REMARK  status: ('A' for Active; 'I' for Inactive)
REMARK    1  A    between atoms: C1_2  and  C2_3 
REMARK    2  A    between atoms: C2_3  and  C3_4 
ROOT
ATOM      1  C3  UNL d   1       2.225   1.660   2.704  0.00  0.00    -0.075 A 
ATOM      2  C4  UNL d   1       1.756   1.273   3.967  0.00  0.00     0.002 A 
ATOM      3  C5  UNL d   1       0.984   2.147   4.734  0.00  0.00     0.002 A 
ATOM      4  C6  UNL d   1       0.680   3.418   4.252  0.00  0.00    -0.004 A 
ATOM      5  C7  UNL d   1       1.155   3.819   3.005  0.00  0.00     0.002 A 
ATOM      6  C8  UNL d   1       1.924   2.945   2.234  0.00  0.00     0.002 A 
ENDROOT
BRANCH   1   7
ATOM      7  C2  UNL d   1       3.037   0.708   1.857  0.00  0.00     0.056 C 
BRANCH   7   8
ATOM      8  C1  UNL d   1       3.391   1.255   0.470  0.00  0.00     0.007 C 
ATOM      9  C   UNL d   1       2.637   0.563  -0.658  0.00  0.00     0.009 C 
ENDBRANCH   7   8
ENDBRANCH   1   7
TORSDOF 2
ENDMDL
