MODEL 1
REMARK minimizedAffinity 3.16067767
REMARK minimizedRMSD -1
REMARK  2 active torsions:
REMARK  status: ('A' for Active; 'I' for Inactive)
REMARK    1  A    between atoms: C1_2  and  C2_3 
REMARK    2  A    between atoms: C2_3  and  C3_4 
ROOT
ATOM      1  C3  UNL d   1       0.302   1.290  -0.755  0.00  0.00    -0.075 A 
ATOM      2  C4  UNL d   1       0.694   2.323   0.108  0.00  0.00     0.002 A 
ATOM      3  C5  UNL d   1      -0.240   3.250   0.573  0.00  0.00     0.002 A 
ATOM      4  C6  UNL d   1      -1.572   3.162   0.173  0.00  0.00    -0.004 A 
ATOM      5  C7  UNL d   1      -1.968   2.149  -0.697  0.00  0.00     0.002 A 
ATOM      6  C8  UNL d   1      -1.037   1.218  -1.160  0.00  0.00     0.002 A 
ENDROOT
BRANCH   1   7
ATOM      7  C2  UNL d   1       1.302   0.266  -1.237  0.00  0.00     0.056 C 
BRANCH   7   8
ATOM      8  C1  UNL d   1       2.752   0.761  -1.236  0.00  0.00     0.007 C 
ATOM      9  C   UNL d   1       3.470   0.520  -2.557  0.00  0.00     0.009 C 
ENDBRANCH   7   8
ENDBRANCH   1   7
TORSDOF 2
ENDMDL
