MODEL 1
REMARK minimizedAffinity -1.3698982
REMARK minimizedRMSD -1
REMARK  0 active torsions:
REMARK  status: ('A' for Active; 'I' for Inactive)
ROOT
ATOM      1  C   UNL d   1      -1.668   2.117   1.402  0.00  0.00     0.124 A 
ATOM      2  C1  UNL d   1      -1.564   2.131   0.018  0.00  0.00     0.062 A 
ATOM      3  C2  UNL d   1      -0.840   1.140  -0.640  0.00  0.00     0.162 A 
ATOM      4  C3  UNL d   1      -0.216   0.126   0.086  0.00  0.00    -0.034 A 
ATOM      5  C4  UNL d   1      -0.324   0.119   1.478  0.00  0.00     0.162 A 
ATOM      6  C5  UNL d   1      -1.049   1.111   2.130  0.00  0.00     0.062 A 
ATOM      7  F   UNL d   1      -1.148   1.096   3.468  0.00  0.00    -0.097 F 
ATOM      8  F1  UNL d   1       0.264  -0.841   2.207  0.00  0.00    -0.096 F 
ATOM      9  I   UNL d   1       0.867  -1.357  -0.893  0.00  0.00    -0.060 I 
ATOM     10  F2  UNL d   1      -0.756   1.179  -1.978  0.00  0.00    -0.096 F 
ATOM     11  F3  UNL d   1      -2.161   3.102  -0.688  0.00  0.00    -0.097 F 
ATOM     12  F4  UNL d   1      -2.364   3.072   2.032  0.00  0.00    -0.092 F 
ENDROOT
TORSDOF 0
ENDMDL
