MODEL 1
REMARK minimizedAffinity -3.64875412
REMARK minimizedRMSD -1
REMARK  0 active torsions:
REMARK  status: ('A' for Active; 'I' for Inactive)
ROOT
ATOM      1  C   UNL d   1      -1.719   3.219   0.260  0.00  0.00     0.124 A 
ATOM      2  C1  UNL d   1      -1.996   2.005   0.874  0.00  0.00     0.062 A 
ATOM      3  C2  UNL d   1      -1.260   0.871   0.544  0.00  0.00     0.162 A 
ATOM      4  C3  UNL d   1      -0.239   0.945  -0.403  0.00  0.00    -0.034 A 
ATOM      5  C4  UNL d   1       0.033   2.169  -1.016  0.00  0.00     0.162 A 
ATOM      6  C5  UNL d   1      -0.706   3.300  -0.684  0.00  0.00     0.062 A 
ATOM      7  F   UNL d   1      -0.437   4.472  -1.277  0.00  0.00    -0.097 F 
ATOM      8  F1  UNL d   1       1.008   2.276  -1.931  0.00  0.00    -0.096 F 
ATOM      9  I   UNL d   1       0.864  -0.749  -0.898  0.00  0.00    -0.060 I 
ATOM     10  F2  UNL d   1      -1.550  -0.289   1.153  0.00  0.00    -0.096 F 
ATOM     11  F3  UNL d   1      -2.976   1.924   1.785  0.00  0.00    -0.097 F 
ATOM     12  F4  UNL d   1      -2.430   4.309   0.578  0.00  0.00    -0.092 F 
ENDROOT
TORSDOF 0
ENDMDL
