MODEL 1
REMARK minimizedAffinity -2.50875068
REMARK minimizedRMSD -1
REMARK  0 active torsions:
REMARK  status: ('A' for Active; 'I' for Inactive)
ROOT
ATOM      1  C   UNL d   1      -0.926   1.924   1.222  0.00  0.00     0.124 A 
ATOM      2  C1  UNL d   1      -1.017   1.827  -0.160  0.00  0.00     0.062 A 
ATOM      3  C2  UNL d   1      -0.551   0.689  -0.813  0.00  0.00     0.162 A 
ATOM      4  C3  UNL d   1       0.009  -0.361  -0.085  0.00  0.00    -0.034 A 
ATOM      5  C4  UNL d   1       0.097  -0.255   1.304  0.00  0.00     0.162 A 
ATOM      6  C5  UNL d   1      -0.370   0.884   1.952  0.00  0.00     0.062 A 
ATOM      7  F   UNL d   1      -0.281   0.977   3.287  0.00  0.00    -0.097 F 
ATOM      8  F1  UNL d   1       0.630  -1.245   2.035  0.00  0.00    -0.096 F 
ATOM      9  I   UNL d   1       0.707  -2.063  -1.058  0.00  0.00    -0.060 I 
ATOM     10  F2  UNL d   1      -0.651   0.622  -2.149  0.00  0.00    -0.096 F 
ATOM     11  F3  UNL d   1      -1.553   2.831  -0.868  0.00  0.00    -0.097 F 
ATOM     12  F4  UNL d   1      -1.375   3.020   1.847  0.00  0.00    -0.092 F 
ENDROOT
TORSDOF 0
ENDMDL
