MODEL 1
REMARK minimizedAffinity -1.62500477
REMARK minimizedRMSD -1
REMARK  0 active torsions:
REMARK  status: ('A' for Active; 'I' for Inactive)
ROOT
ATOM      1  C   UNL d   1      -1.138   2.143   1.241  0.00  0.00     0.124 A 
ATOM      2  C1  UNL d   1      -0.618   1.130   2.035  0.00  0.00     0.062 A 
ATOM      3  C2  UNL d   1      -0.127  -0.034   1.451  0.00  0.00     0.162 A 
ATOM      4  C3  UNL d   1      -0.153  -0.192   0.065  0.00  0.00    -0.034 A 
ATOM      5  C4  UNL d   1      -0.679   0.831  -0.726  0.00  0.00     0.162 A 
ATOM      6  C5  UNL d   1      -1.168   1.993  -0.138  0.00  0.00     0.062 A 
ATOM      7  F   UNL d   1      -1.670   2.971  -0.906  0.00  0.00    -0.097 F 
ATOM      8  F1  UNL d   1      -0.719   0.713  -2.062  0.00  0.00    -0.096 F 
ATOM      9  I   UNL d   1       0.579  -1.931  -0.812  0.00  0.00    -0.060 I 
ATOM     10  F2  UNL d   1       0.369  -0.997   2.242  0.00  0.00    -0.096 F 
ATOM     11  F3  UNL d   1      -0.589   1.272   3.368  0.00  0.00    -0.097 F 
ATOM     12  F4  UNL d   1      -1.610   3.262   1.806  0.00  0.00    -0.092 F 
ENDROOT
TORSDOF 0
ENDMDL
