MODEL 1
REMARK minimizedAffinity 3.07405519
REMARK minimizedRMSD -1
REMARK  0 active torsions:
REMARK  status: ('A' for Active; 'I' for Inactive)
ROOT
ATOM      1  C   UNL d   1       1.399  -0.992  -1.035  0.00  0.00     0.124 A 
ATOM      2  C1  UNL d   1       0.885  -1.484   0.156  0.00  0.00     0.062 A 
ATOM      3  C2  UNL d   1      -0.013  -0.723   0.899  0.00  0.00     0.162 A 
ATOM      4  C3  UNL d   1      -0.403   0.539   0.452  0.00  0.00    -0.034 A 
ATOM      5  C4  UNL d   1       0.119   1.028  -0.747  0.00  0.00     0.162 A 
ATOM      6  C5  UNL d   1       1.016   0.263  -1.486  0.00  0.00     0.062 A 
ATOM      7  F   UNL d   1       1.511   0.741  -2.637  0.00  0.00    -0.097 F 
ATOM      8  F1  UNL d   1      -0.236   2.237  -1.206  0.00  0.00    -0.096 F 
ATOM      9  I   UNL d   1      -1.746   1.680   1.560  0.00  0.00    -0.060 I 
ATOM     10  F2  UNL d   1      -0.493  -1.224   2.047  0.00  0.00    -0.096 F 
ATOM     11  F3  UNL d   1       1.255  -2.697   0.594  0.00  0.00    -0.097 F 
ATOM     12  F4  UNL d   1       2.264  -1.726  -1.748  0.00  0.00    -0.092 F 
ENDROOT
TORSDOF 0
ENDMDL
