MODEL 1
REMARK minimizedAffinity -0.640734613
REMARK minimizedRMSD -1
REMARK  0 active torsions:
REMARK  status: ('A' for Active; 'I' for Inactive)
ROOT
ATOM      1  C   UNL d   1      -1.010   1.501   0.760  0.00  0.00     0.124 A 
ATOM      2  C1  UNL d   1      -0.313   1.488  -0.441  0.00  0.00     0.062 A 
ATOM      3  C2  UNL d   1       0.359   0.340  -0.848  0.00  0.00     0.162 A 
ATOM      4  C3  UNL d   1       0.337  -0.807  -0.054  0.00  0.00    -0.034 A 
ATOM      5  C4  UNL d   1      -0.366  -0.787   1.152  0.00  0.00     0.162 A 
ATOM      6  C5  UNL d   1      -1.035   0.364   1.555  0.00  0.00     0.062 A 
ATOM      7  F   UNL d   1      -1.708   0.374   2.715  0.00  0.00    -0.097 F 
ATOM      8  F1  UNL d   1      -0.408  -1.872   1.939  0.00  0.00    -0.096 F 
ATOM      9  I   UNL d   1       1.340  -2.527  -0.660  0.00  0.00    -0.060 I 
ATOM     10  F2  UNL d   1       1.024   0.356  -2.013  0.00  0.00    -0.096 F 
ATOM     11  F3  UNL d   1      -0.286   2.586  -1.210  0.00  0.00    -0.097 F 
ATOM     12  F4  UNL d   1      -1.654   2.608   1.150  0.00  0.00    -0.092 F 
ENDROOT
TORSDOF 0
ENDMDL
