MODEL 1
REMARK minimizedAffinity -3.26223087
REMARK minimizedRMSD -1
REMARK  0 active torsions:
REMARK  status: ('A' for Active; 'I' for Inactive)
ROOT
ATOM      1  C   UNL d   1      -1.093   1.715   0.922  0.00  0.00     0.124 A 
ATOM      2  C1  UNL d   1      -0.586   1.671  -0.369  0.00  0.00     0.062 A 
ATOM      3  C2  UNL d   1       0.131   0.559  -0.802  0.00  0.00     0.162 A 
ATOM      4  C3  UNL d   1       0.343  -0.519   0.057  0.00  0.00    -0.034 A 
ATOM      5  C4  UNL d   1      -0.170  -0.467   1.355  0.00  0.00     0.162 A 
ATOM      6  C5  UNL d   1      -0.885   0.647   1.782  0.00  0.00     0.062 A 
ATOM      7  F   UNL d   1      -1.375   0.688   3.030  0.00  0.00    -0.097 F 
ATOM      8  F1  UNL d   1       0.016  -1.486   2.207  0.00  0.00    -0.096 F 
ATOM      9  I   UNL d   1       1.414  -2.184  -0.586  0.00  0.00    -0.060 I 
ATOM     10  F2  UNL d   1       0.610   0.543  -2.054  0.00  0.00    -0.096 F 
ATOM     11  F3  UNL d   1      -0.785   2.703  -1.202  0.00  0.00    -0.097 F 
ATOM     12  F4  UNL d   1      -1.782   2.787   1.336  0.00  0.00    -0.092 F 
ENDROOT
TORSDOF 0
ENDMDL
