MODEL 1
REMARK minimizedAffinity 2.4111259
REMARK minimizedRMSD -1
REMARK  0 active torsions:
REMARK  status: ('A' for Active; 'I' for Inactive)
ROOT
ATOM      1  C   UNL d   1       0.984  -0.219  -1.705  0.00  0.00     0.124 A 
ATOM      2  C1  UNL d   1       0.571   1.102  -1.809  0.00  0.00     0.062 A 
ATOM      3  C2  UNL d   1      -0.224   1.667  -0.816  0.00  0.00     0.162 A 
ATOM      4  C3  UNL d   1      -0.610   0.911   0.291  0.00  0.00    -0.034 A 
ATOM      5  C4  UNL d   1      -0.192  -0.417   0.388  0.00  0.00     0.162 A 
ATOM      6  C5  UNL d   1       0.602  -0.977  -0.607  0.00  0.00     0.062 A 
ATOM      7  F   UNL d   1       1.000  -2.254  -0.505  0.00  0.00    -0.097 F 
ATOM      8  F1  UNL d   1      -0.546  -1.172   1.438  0.00  0.00    -0.096 F 
ATOM      9  I   UNL d   1      -1.799   1.752   1.778  0.00  0.00    -0.060 I 
ATOM     10  F2  UNL d   1      -0.608   2.946  -0.942  0.00  0.00    -0.096 F 
ATOM     11  F3  UNL d   1       0.938   1.836  -2.869  0.00  0.00    -0.097 F 
ATOM     12  F4  UNL d   1       1.749  -0.760  -2.662  0.00  0.00    -0.092 F 
ENDROOT
TORSDOF 0
ENDMDL
