MODEL 1
REMARK minimizedAffinity 0.613879025
REMARK minimizedRMSD -1
REMARK  0 active torsions:
REMARK  status: ('A' for Active; 'I' for Inactive)
ROOT
ATOM      1  C   UNL d   1       1.395  -0.158  -1.292  0.00  0.00     0.124 A 
ATOM      2  C1  UNL d   1       0.722  -0.804  -0.264  0.00  0.00     0.062 A 
ATOM      3  C2  UNL d   1      -0.100  -0.082   0.596  0.00  0.00     0.162 A 
ATOM      4  C3  UNL d   1      -0.255   1.294   0.432  0.00  0.00    -0.034 A 
ATOM      5  C4  UNL d   1       0.427   1.937  -0.603  0.00  0.00     0.162 A 
ATOM      6  C5  UNL d   1       1.247   1.211  -1.460  0.00  0.00     0.062 A 
ATOM      7  F   UNL d   1       1.897   1.837  -2.453  0.00  0.00    -0.097 F 
ATOM      8  F1  UNL d   1       0.301   3.260  -0.789  0.00  0.00    -0.096 F 
ATOM      9  I   UNL d   1      -1.483   2.377   1.717  0.00  0.00    -0.060 I 
ATOM     10  F2  UNL d   1      -0.739  -0.732   1.581  0.00  0.00    -0.096 F 
ATOM     11  F3  UNL d   1       0.864  -2.127  -0.099  0.00  0.00    -0.097 F 
ATOM     12  F4  UNL d   1       2.186  -0.855  -2.118  0.00  0.00    -0.092 F 
ENDROOT
TORSDOF 0
ENDMDL
