MODEL 1
REMARK minimizedAffinity -1.71440494
REMARK minimizedRMSD -1
REMARK  0 active torsions:
REMARK  status: ('A' for Active; 'I' for Inactive)
ROOT
ATOM      1  C   UNL d   1      -1.153   3.005   0.984  0.00  0.00     0.124 A 
ATOM      2  C1  UNL d   1      -0.669   3.071  -0.316  0.00  0.00     0.062 A 
ATOM      3  C2  UNL d   1      -0.043   1.967  -0.886  0.00  0.00     0.162 A 
ATOM      4  C3  UNL d   1       0.102   0.786  -0.158  0.00  0.00    -0.034 A 
ATOM      5  C4  UNL d   1      -0.387   0.727   1.148  0.00  0.00     0.162 A 
ATOM      6  C5  UNL d   1      -1.012   1.834   1.714  0.00  0.00     0.062 A 
ATOM      7  F   UNL d   1      -1.479   1.768   2.969  0.00  0.00    -0.097 F 
ATOM      8  F1  UNL d   1      -0.264  -0.393   1.876  0.00  0.00    -0.096 F 
ATOM      9  I   UNL d   1       1.037  -0.868  -1.008  0.00  0.00    -0.060 I 
ATOM     10  F2  UNL d   1       0.415   2.059  -2.144  0.00  0.00    -0.096 F 
ATOM     11  F3  UNL d   1      -0.804   4.202  -1.023  0.00  0.00    -0.097 F 
ATOM     12  F4  UNL d   1      -1.755   4.069   1.531  0.00  0.00    -0.092 F 
ENDROOT
TORSDOF 0
ENDMDL
