MODEL 1
REMARK minimizedAffinity -3.98023391
REMARK minimizedRMSD -1
REMARK  0 active torsions:
REMARK  status: ('A' for Active; 'I' for Inactive)
ROOT
ATOM      1  C   UNL d   1      -0.921   2.400   0.796  0.00  0.00     0.124 A 
ATOM      2  C1  UNL d   1      -0.244   2.384  -0.416  0.00  0.00     0.062 A 
ATOM      3  C2  UNL d   1       0.441   1.242  -0.820  0.00  0.00     0.162 A 
ATOM      4  C3  UNL d   1       0.452   0.105  -0.012  0.00  0.00    -0.034 A 
ATOM      5  C4  UNL d   1      -0.229   0.129   1.206  0.00  0.00     0.162 A 
ATOM      6  C5  UNL d   1      -0.913   1.273   1.606  0.00  0.00     0.062 A 
ATOM      7  F   UNL d   1      -1.565   1.286   2.777  0.00  0.00    -0.097 F 
ATOM      8  F1  UNL d   1      -0.239  -0.947   2.007  0.00  0.00    -0.096 F 
ATOM      9  I   UNL d   1       1.476  -1.605  -0.613  0.00  0.00    -0.060 I 
ATOM     10  F2  UNL d   1       1.086   1.255  -1.996  0.00  0.00    -0.096 F 
ATOM     11  F3  UNL d   1      -0.250   3.472  -1.199  0.00  0.00    -0.097 F 
ATOM     12  F4  UNL d   1      -1.578   3.500   1.184  0.00  0.00    -0.092 F 
ENDROOT
TORSDOF 0
ENDMDL
