MODEL 1
REMARK minimizedAffinity -0.181112275
REMARK minimizedRMSD -1
REMARK  0 active torsions:
REMARK  status: ('A' for Active; 'I' for Inactive)
ROOT
ATOM      1  C   UNL d   1      -0.839   1.572   0.755  0.00  0.00     0.124 A 
ATOM      2  C1  UNL d   1      -0.660   0.508   1.629  0.00  0.00     0.062 A 
ATOM      3  C2  UNL d   1      -0.032  -0.656   1.196  0.00  0.00     0.162 A 
ATOM      4  C3  UNL d   1       0.424  -0.762  -0.118  0.00  0.00    -0.034 A 
ATOM      5  C4  UNL d   1       0.241   0.312  -0.991  0.00  0.00     0.162 A 
ATOM      6  C5  UNL d   1      -0.388   1.473  -0.553  0.00  0.00     0.062 A 
ATOM      7  F   UNL d   1      -0.559   2.500  -1.399  0.00  0.00    -0.097 F 
ATOM      8  F1  UNL d   1       0.667   0.243  -2.261  0.00  0.00    -0.096 F 
ATOM      9  I   UNL d   1       1.364  -2.501  -0.770  0.00  0.00    -0.060 I 
ATOM     10  F2  UNL d   1       0.127  -1.668   2.062  0.00  0.00    -0.096 F 
ATOM     11  F3  UNL d   1      -1.096   0.601   2.894  0.00  0.00    -0.097 F 
ATOM     12  F4  UNL d   1      -1.444   2.690   1.175  0.00  0.00    -0.092 F 
ENDROOT
TORSDOF 0
ENDMDL
