MODEL 1
REMARK minimizedAffinity -4.21659946
REMARK minimizedRMSD -1
REMARK  0 active torsions:
REMARK  status: ('A' for Active; 'I' for Inactive)
ROOT
ATOM      1  C   UNL d   1      -1.199   2.477   0.489  0.00  0.00     0.124 A 
ATOM      2  C1  UNL d   1      -0.242   2.595  -0.508  0.00  0.00     0.062 A 
ATOM      3  C2  UNL d   1       0.462   1.474  -0.939  0.00  0.00     0.162 A 
ATOM      4  C3  UNL d   1       0.210   0.224  -0.373  0.00  0.00    -0.034 A 
ATOM      5  C4  UNL d   1      -0.754   0.114   0.630  0.00  0.00     0.162 A 
ATOM      6  C5  UNL d   1      -1.455   1.237   1.058  0.00  0.00     0.062 A 
ATOM      7  F   UNL d   1      -2.380   1.121   2.022  0.00  0.00    -0.097 F 
ATOM      8  F1  UNL d   1      -1.022  -1.073   1.196  0.00  0.00    -0.096 F 
ATOM      9  I   UNL d   1       1.259  -1.454  -1.015  0.00  0.00    -0.060 I 
ATOM     10  F2  UNL d   1       1.382   1.617  -1.905  0.00  0.00    -0.096 F 
ATOM     11  F3  UNL d   1       0.008   3.792  -1.058  0.00  0.00    -0.097 F 
ATOM     12  F4  UNL d   1      -1.874   3.557   0.903  0.00  0.00    -0.092 F 
ENDROOT
TORSDOF 0
ENDMDL
