MODEL 1
REMARK minimizedAffinity 0.618983746
REMARK minimizedRMSD -1
REMARK  0 active torsions:
REMARK  status: ('A' for Active; 'I' for Inactive)
ROOT
ATOM      1  C   UNL d   1      -1.764   1.569   1.507  0.00  0.00     0.124 A 
ATOM      2  C1  UNL d   1      -1.535   1.802   0.158  0.00  0.00     0.062 A 
ATOM      3  C2  UNL d   1      -0.583   1.055  -0.529  0.00  0.00     0.162 A 
ATOM      4  C3  UNL d   1       0.146   0.065   0.131  0.00  0.00    -0.034 A 
ATOM      5  C4  UNL d   1      -0.090  -0.162   1.488  0.00  0.00     0.162 A 
ATOM      6  C5  UNL d   1      -1.042   0.588   2.171  0.00  0.00     0.062 A 
ATOM      7  F   UNL d   1      -1.263   0.361   3.474  0.00  0.00    -0.097 F 
ATOM      8  F1  UNL d   1       0.593  -1.106   2.154  0.00  0.00    -0.096 F 
ATOM      9  I   UNL d   1       1.570  -1.055  -0.893  0.00  0.00    -0.060 I 
ATOM     10  F2  UNL d   1      -0.382   1.301  -1.832  0.00  0.00    -0.096 F 
ATOM     11  F3  UNL d   1      -2.231   2.751  -0.485  0.00  0.00    -0.097 F 
ATOM     12  F4  UNL d   1      -2.680   2.291   2.166  0.00  0.00    -0.092 F 
ENDROOT
TORSDOF 0
ENDMDL
