MODEL 1
REMARK minimizedAffinity -3.19822288
REMARK minimizedRMSD -1
REMARK  0 active torsions:
REMARK  status: ('A' for Active; 'I' for Inactive)
ROOT
ATOM      1  C   UNL d   1      -1.223   2.760   0.242  0.00  0.00     0.124 A 
ATOM      2  C1  UNL d   1      -0.200   2.791  -0.695  0.00  0.00     0.062 A 
ATOM      3  C2  UNL d   1       0.477   1.623  -1.032  0.00  0.00     0.162 A 
ATOM      4  C3  UNL d   1       0.132   0.412  -0.432  0.00  0.00    -0.034 A 
ATOM      5  C4  UNL d   1      -0.897   0.388   0.511  0.00  0.00     0.162 A 
ATOM      6  C5  UNL d   1      -1.571   1.559   0.844  0.00  0.00     0.062 A 
ATOM      7  F   UNL d   1      -2.559   1.526   1.750  0.00  0.00    -0.097 F 
ATOM      8  F1  UNL d   1      -1.255  -0.759   1.107  0.00  0.00    -0.096 F 
ATOM      9  I   UNL d   1       1.142  -1.338  -0.932  0.00  0.00    -0.060 I 
ATOM     10  F2  UNL d   1       1.462   1.683  -1.941  0.00  0.00    -0.096 F 
ATOM     11  F3  UNL d   1       0.138   3.951  -1.278  0.00  0.00    -0.097 F 
ATOM     12  F4  UNL d   1      -1.873   3.886   0.565  0.00  0.00    -0.092 F 
ENDROOT
TORSDOF 0
ENDMDL
