MODEL 1
REMARK minimizedAffinity -2.9416337
REMARK minimizedRMSD -1
REMARK  0 active torsions:
REMARK  status: ('A' for Active; 'I' for Inactive)
ROOT
ATOM      1  C   UNL d   1      -0.342  -0.425   1.558  0.00  0.00     0.124 A 
ATOM      2  C1  UNL d   1       0.502  -0.320   0.461  0.00  0.00     0.062 A 
ATOM      3  C2  UNL d   1       0.473   0.819  -0.338  0.00  0.00     0.162 A 
ATOM      4  C3  UNL d   1      -0.404   1.863  -0.043  0.00  0.00    -0.034 A 
ATOM      5  C4  UNL d   1      -1.251   1.750   1.061  0.00  0.00     0.162 A 
ATOM      6  C5  UNL d   1      -1.217   0.609   1.857  0.00  0.00     0.062 A 
ATOM      7  F   UNL d   1      -2.034   0.510   2.916  0.00  0.00    -0.097 F 
ATOM      8  F1  UNL d   1      -2.106   2.735   1.372  0.00  0.00    -0.096 F 
ATOM      9  I   UNL d   1      -0.451   3.567  -1.237  0.00  0.00    -0.060 I 
ATOM     10  F2  UNL d   1       1.300   0.893  -1.392  0.00  0.00    -0.096 F 
ATOM     11  F3  UNL d   1       1.349  -1.319   0.170  0.00  0.00    -0.097 F 
ATOM     12  F4  UNL d   1      -0.312  -1.523   2.325  0.00  0.00    -0.092 F 
ENDROOT
TORSDOF 0
ENDMDL
