MODEL 1
REMARK minimizedAffinity -4.18018484
REMARK minimizedRMSD -1
REMARK  0 active torsions:
REMARK  status: ('A' for Active; 'I' for Inactive)
ROOT
ATOM      1  C   UNL d   1      -1.074   2.588   0.430  0.00  0.00     0.124 A 
ATOM      2  C1  UNL d   1       0.062   2.565  -0.367  0.00  0.00     0.062 A 
ATOM      3  C2  UNL d   1       0.555   1.356  -0.850  0.00  0.00     0.162 A 
ATOM      4  C3  UNL d   1      -0.089   0.159  -0.537  0.00  0.00    -0.034 A 
ATOM      5  C4  UNL d   1      -1.230   0.189   0.266  0.00  0.00     0.162 A 
ATOM      6  C5  UNL d   1      -1.719   1.400   0.746  0.00  0.00     0.062 A 
ATOM      7  F   UNL d   1      -2.817   1.420   1.516  0.00  0.00    -0.097 F 
ATOM      8  F1  UNL d   1      -1.873  -0.943   0.586  0.00  0.00    -0.096 F 
ATOM      9  I   UNL d   1       0.645  -1.651  -1.256  0.00  0.00    -0.060 I 
ATOM     10  F2  UNL d   1       1.654   1.365  -1.618  0.00  0.00    -0.096 F 
ATOM     11  F3  UNL d   1       0.687   3.711  -0.673  0.00  0.00    -0.097 F 
ATOM     12  F4  UNL d   1      -1.546   3.752   0.894  0.00  0.00    -0.092 F 
ENDROOT
TORSDOF 0
ENDMDL
