MODEL 1
REMARK minimizedAffinity 9.76194286
REMARK minimizedRMSD -1
REMARK  0 active torsions:
REMARK  status: ('A' for Active; 'I' for Inactive)
ROOT
ATOM      1  C2' OXE d   1      -0.075   0.336   2.011  0.00  0.00     0.078 C 
ATOM      2  C1' OXE d   1       1.509  -1.448   0.531  0.00  0.00     0.078 C 
ATOM      3  C1  OXE d   1       2.178  -0.227   1.110  0.00  0.00    -0.078 A 
ATOM      4  C2  OXE d   1       1.387   0.664   1.793  0.00  0.00    -0.078 A 
ATOM      5  C3  OXE d   1       1.964   1.780   2.393  0.00  0.00     0.003 A 
ATOM      6  C4  OXE d   1       3.314   2.081   2.178  0.00  0.00    -0.002 A 
ATOM      7  C5  OXE d   1       4.130   1.207   1.452  0.00  0.00    -0.002 A 
ATOM      8  C6  OXE d   1       3.588   0.030   0.948  0.00  0.00     0.003 A 
ENDROOT
TORSDOF 0
ENDMDL
