MODEL 1
REMARK minimizedAffinity 14.0172653
REMARK minimizedRMSD -1
REMARK  0 active torsions:
REMARK  status: ('A' for Active; 'I' for Inactive)
ROOT
ATOM      1  C2' OXE d   1      -2.175   4.047  -5.983  0.00  0.00     0.078 C 
ATOM      2  C1' OXE d   1      -2.069   1.246  -5.830  0.00  0.00     0.078 C 
ATOM      3  C1  OXE d   1      -0.763   1.999  -5.869  0.00  0.00    -0.078 A 
ATOM      4  C2  OXE d   1      -0.824   3.366  -5.991  0.00  0.00    -0.078 A 
ATOM      5  C3  OXE d   1       0.351   4.113  -5.976  0.00  0.00     0.003 A 
ATOM      6  C4  OXE d   1       1.597   3.474  -5.993  0.00  0.00    -0.002 A 
ATOM      7  C5  OXE d   1       1.681   2.080  -5.910  0.00  0.00    -0.002 A 
ATOM      8  C6  OXE d   1       0.514   1.332  -5.804  0.00  0.00     0.003 A 
ENDROOT
TORSDOF 0
ENDMDL
