MODEL 1
REMARK minimizedAffinity 7.35414076
REMARK minimizedRMSD -1
REMARK  0 active torsions:
REMARK  status: ('A' for Active; 'I' for Inactive)
ROOT
ATOM      1  C2' OXE d   1      -2.468  -4.864   0.578  0.00  0.00     0.078 C 
ATOM      2  C1' OXE d   1      -5.064  -3.821   0.344  0.00  0.00     0.078 C 
ATOM      3  C1  OXE d   1      -4.051  -3.428  -0.703  0.00  0.00    -0.078 A 
ATOM      4  C2  OXE d   1      -2.771  -3.906  -0.554  0.00  0.00    -0.078 A 
ATOM      5  C3  OXE d   1      -1.812  -3.620  -1.521  0.00  0.00     0.003 A 
ATOM      6  C4  OXE d   1      -2.097  -2.725  -2.560  0.00  0.00    -0.002 A 
ATOM      7  C5  OXE d   1      -3.384  -2.195  -2.706  0.00  0.00    -0.002 A 
ATOM      8  C6  OXE d   1      -4.381  -2.570  -1.813  0.00  0.00     0.003 A 
ENDROOT
TORSDOF 0
ENDMDL
