MODEL 1
REMARK minimizedAffinity 4.60084867
REMARK minimizedRMSD -1
REMARK  0 active torsions:
REMARK  status: ('A' for Active; 'I' for Inactive)
ROOT
ATOM      1  C2' OXE d   1      -2.565  -2.256   5.144  0.00  0.00     0.078 C 
ATOM      2  C1' OXE d   1      -1.908  -1.144   2.651  0.00  0.00     0.078 C 
ATOM      3  C1  OXE d   1      -3.357  -1.466   2.918  0.00  0.00    -0.078 A 
ATOM      4  C2  OXE d   1      -3.663  -2.053   4.122  0.00  0.00    -0.078 A 
ATOM      5  C3  OXE d   1      -4.992  -2.321   4.440  0.00  0.00     0.003 A 
ATOM      6  C4  OXE d   1      -6.000  -2.139   3.486  0.00  0.00    -0.002 A 
ATOM      7  C5  OXE d   1      -5.704  -1.580   2.238  0.00  0.00    -0.002 A 
ATOM      8  C6  OXE d   1      -4.397  -1.199   1.955  0.00  0.00     0.003 A 
ENDROOT
TORSDOF 0
ENDMDL
