MODEL 1
REMARK minimizedAffinity 0.0619294122
REMARK minimizedRMSD -1
REMARK  0 active torsions:
REMARK  status: ('A' for Active; 'I' for Inactive)
ROOT
ATOM      1  C2' OXE d   1      -1.087  -2.973  -2.377  0.00  0.00     0.078 C 
ATOM      2  C1' OXE d   1       1.597  -3.153  -1.573  0.00  0.00     0.078 C 
ATOM      3  C1  OXE d   1       0.559  -2.898  -0.508  0.00  0.00    -0.078 A 
ATOM      4  C2  OXE d   1      -0.746  -2.765  -0.917  0.00  0.00    -0.078 A 
ATOM      5  C3  OXE d   1      -1.750  -2.584   0.031  0.00  0.00     0.003 A 
ATOM      6  C4  OXE d   1      -1.425  -2.383   1.378  0.00  0.00    -0.002 A 
ATOM      7  C5  OXE d   1      -0.098  -2.475   1.810  0.00  0.00    -0.002 A 
ATOM      8  C6  OXE d   1       0.899  -2.774   0.888  0.00  0.00     0.003 A 
ENDROOT
TORSDOF 0
ENDMDL
