MODEL 1
REMARK minimizedAffinity 5.62487221
REMARK minimizedRMSD -1
REMARK  0 active torsions:
REMARK  status: ('A' for Active; 'I' for Inactive)
ROOT
ATOM      1  C2' OXE d   1      -1.333  -6.000   2.999  0.00  0.00     0.078 C 
ATOM      2  C1' OXE d   1      -0.377  -3.361   2.992  0.00  0.00     0.078 C 
ATOM      3  C1  OXE d   1      -1.446  -3.724   1.992  0.00  0.00    -0.078 A 
ATOM      4  C2  OXE d   1      -1.874  -5.030   1.972  0.00  0.00    -0.078 A 
ATOM      5  C3  OXE d   1      -2.898  -5.406   1.106  0.00  0.00     0.003 A 
ATOM      6  C4  OXE d   1      -3.386  -4.505   0.152  0.00  0.00    -0.002 A 
ATOM      7  C5  OXE d   1      -2.934  -3.181   0.129  0.00  0.00    -0.002 A 
ATOM      8  C6  OXE d   1      -1.998  -2.764   1.068  0.00  0.00     0.003 A 
ENDROOT
TORSDOF 0
ENDMDL
