MODEL 1
REMARK minimizedAffinity 3.12086844
REMARK minimizedRMSD -1
REMARK  0 active torsions:
REMARK  status: ('A' for Active; 'I' for Inactive)
ROOT
ATOM      1  C2' OXE d   1       3.030   5.955   2.227  0.00  0.00     0.078 C 
ATOM      2  C1' OXE d   1       5.837   5.997   2.213  0.00  0.00     0.078 C 
ATOM      3  C1  OXE d   1       5.141   5.973   3.550  0.00  0.00    -0.078 A 
ATOM      4  C2  OXE d   1       3.767   6.000   3.549  0.00  0.00    -0.078 A 
ATOM      5  C3  OXE d   1       3.075   5.924   4.754  0.00  0.00     0.003 A 
ATOM      6  C4  OXE d   1       3.763   5.976   5.972  0.00  0.00    -0.002 A 
ATOM      7  C5  OXE d   1       5.162   5.989   5.996  0.00  0.00    -0.002 A 
ATOM      8  C6  OXE d   1       5.865   5.945   4.797  0.00  0.00     0.003 A 
ENDROOT
TORSDOF 0
ENDMDL
