MODEL 1
REMARK minimizedAffinity -1.76725793
REMARK minimizedRMSD -1
REMARK  0 active torsions:
REMARK  status: ('A' for Active; 'I' for Inactive)
ROOT
ATOM      1  C2' OXE d   1       2.121   0.724   1.298  0.00  0.00     0.078 C 
ATOM      2  C1' OXE d   1      -0.652   0.582   1.709  0.00  0.00     0.078 C 
ATOM      3  C1  OXE d   1       0.020  -0.587   1.033  0.00  0.00    -0.078 A 
ATOM      4  C2  OXE d   1       1.369  -0.489   0.794  0.00  0.00    -0.078 A 
ATOM      5  C3  OXE d   1       2.048  -1.561   0.223  0.00  0.00     0.003 A 
ATOM      6  C4  OXE d   1       1.343  -2.675  -0.250  0.00  0.00    -0.002 A 
ATOM      7  C5  OXE d   1      -0.038  -2.778  -0.052  0.00  0.00    -0.002 A 
ATOM      8  C6  OXE d   1      -0.706  -1.764   0.624  0.00  0.00     0.003 A 
ENDROOT
TORSDOF 0
ENDMDL
