MODEL 1
REMARK minimizedAffinity 17.2757664
REMARK minimizedRMSD -1
REMARK  0 active torsions:
REMARK  status: ('A' for Active; 'I' for Inactive)
ROOT
ATOM      1  C2' OXE d   1       3.062   2.694   2.881  0.00  0.00     0.078 C 
ATOM      2  C1' OXE d   1       1.984   2.608   5.471  0.00  0.00     0.078 C 
ATOM      3  C1  OXE d   1       2.794   3.820   5.087  0.00  0.00    -0.078 A 
ATOM      4  C2  OXE d   1       3.357   3.833   3.834  0.00  0.00    -0.078 A 
ATOM      5  C3  OXE d   1       4.069   4.951   3.409  0.00  0.00     0.003 A 
ATOM      6  C4  OXE d   1       4.346   5.995   4.299  0.00  0.00    -0.002 A 
ATOM      7  C5  OXE d   1       3.816   5.984   5.594  0.00  0.00    -0.002 A 
ATOM      8  C6  OXE d   1       3.004   4.926   5.988  0.00  0.00     0.003 A 
ENDROOT
TORSDOF 0
ENDMDL
