MODEL 1
REMARK minimizedAffinity 10.3617115
REMARK minimizedRMSD -1
REMARK  0 active torsions:
REMARK  status: ('A' for Active; 'I' for Inactive)
ROOT
ATOM      1  C2' OXE d   1       5.950   4.869   2.339  0.00  0.00     0.078 C 
ATOM      2  C1' OXE d   1       3.143   4.840   2.358  0.00  0.00     0.078 C 
ATOM      3  C1  OXE d   1       3.851   5.267   3.619  0.00  0.00    -0.078 A 
ATOM      4  C2  OXE d   1       5.225   5.233   3.616  0.00  0.00    -0.078 A 
ATOM      5  C3  OXE d   1       5.928   5.669   4.736  0.00  0.00     0.003 A 
ATOM      6  C4  OXE d   1       5.249   5.995   5.916  0.00  0.00    -0.002 A 
ATOM      7  C5  OXE d   1       3.850   5.997   5.954  0.00  0.00    -0.002 A 
ATOM      8  C6  OXE d   1       3.137   5.678   4.803  0.00  0.00     0.003 A 
ENDROOT
TORSDOF 0
ENDMDL
