MODEL 1
REMARK minimizedAffinity 9.63650894
REMARK minimizedRMSD -1
REMARK  0 active torsions:
REMARK  status: ('A' for Active; 'I' for Inactive)
ROOT
ATOM      1  C2' OXE d   1      -0.618  -3.635   0.350  0.00  0.00     0.078 C 
ATOM      2  C1' OXE d   1       1.667  -2.311   1.302  0.00  0.00     0.078 C 
ATOM      3  C1  OXE d   1       1.121  -3.451   2.124  0.00  0.00    -0.078 A 
ATOM      4  C2  OXE d   1      -0.024  -4.063   1.675  0.00  0.00    -0.078 A 
ATOM      5  C3  OXE d   1      -0.539  -5.156   2.367  0.00  0.00     0.003 A 
ATOM      6  C4  OXE d   1       0.010  -5.539   3.596  0.00  0.00    -0.002 A 
ATOM      7  C5  OXE d   1       1.153  -4.903   4.092  0.00  0.00    -0.002 A 
ATOM      8  C6  OXE d   1       1.745  -3.888   3.349  0.00  0.00     0.003 A 
ENDROOT
TORSDOF 0
ENDMDL
