MODEL 1
REMARK minimizedAffinity 0.690725803
REMARK minimizedRMSD -1
REMARK  0 active torsions:
REMARK  status: ('A' for Active; 'I' for Inactive)
ROOT
ATOM      1  C2' OXE d   1       1.897   0.344   1.003  0.00  0.00     0.078 C 
ATOM      2  C1' OXE d   1       3.468  -0.395  -1.203  0.00  0.00     0.078 C 
ATOM      3  C1  OXE d   1       2.716  -1.483  -0.479  0.00  0.00    -0.078 A 
ATOM      4  C2  OXE d   1       1.986  -1.120   0.627  0.00  0.00    -0.078 A 
ATOM      5  C3  OXE d   1       1.229  -2.076   1.298  0.00  0.00     0.003 A 
ATOM      6  C4  OXE d   1       1.326  -3.428   0.951  0.00  0.00    -0.002 A 
ATOM      7  C5  OXE d   1       2.094  -3.826  -0.149  0.00  0.00    -0.002 A 
ATOM      8  C6  OXE d   1       2.760  -2.863  -0.898  0.00  0.00     0.003 A 
ENDROOT
TORSDOF 0
ENDMDL
