MODEL 1
REMARK minimizedAffinity 6.23156691
REMARK minimizedRMSD -1
REMARK  0 active torsions:
REMARK  status: ('A' for Active; 'I' for Inactive)
ROOT
ATOM      1  C2' OXE d   1      -1.451   3.933  -5.880  0.00  0.00     0.078 C 
ATOM      2  C1' OXE d   1      -1.650   3.059  -3.220  0.00  0.00     0.078 C 
ATOM      3  C1  OXE d   1      -0.374   2.757  -3.966  0.00  0.00    -0.078 A 
ATOM      4  C2  OXE d   1      -0.304   3.147  -5.281  0.00  0.00    -0.078 A 
ATOM      5  C3  OXE d   1       0.871   2.942  -5.999  0.00  0.00     0.003 A 
ATOM      6  C4  OXE d   1       1.923   2.206  -5.441  0.00  0.00    -0.002 A 
ATOM      7  C5  OXE d   1       1.856   1.765  -4.116  0.00  0.00    -0.002 A 
ATOM      8  C6  OXE d   1       0.734   2.068  -3.352  0.00  0.00     0.003 A 
ENDROOT
TORSDOF 0
ENDMDL
