MODEL 1
REMARK minimizedAffinity 6.1032691
REMARK minimizedRMSD -1
REMARK  0 active torsions:
REMARK  status: ('A' for Active; 'I' for Inactive)
ROOT
ATOM      1  C2' OXE d   1      -2.483   2.360  -3.433  0.00  0.00     0.078 C 
ATOM      2  C1' OXE d   1      -2.277   3.554  -5.966  0.00  0.00     0.078 C 
ATOM      3  C1  OXE d   1      -1.015   3.024  -5.334  0.00  0.00    -0.078 A 
ATOM      4  C2  OXE d   1      -1.117   2.483  -4.074  0.00  0.00    -0.078 A 
ATOM      5  C3  OXE d   1       0.007   1.930  -3.468  0.00  0.00     0.003 A 
ATOM      6  C4  OXE d   1       1.268   2.057  -4.064  0.00  0.00    -0.002 A 
ATOM      7  C5  OXE d   1       1.401   2.640  -5.328  0.00  0.00    -0.002 A 
ATOM      8  C6  OXE d   1       0.265   3.089  -5.994  0.00  0.00     0.003 A 
ENDROOT
TORSDOF 0
ENDMDL
