MODEL 1
REMARK minimizedAffinity 1.15570617
REMARK minimizedRMSD -1
REMARK  0 active torsions:
REMARK  status: ('A' for Active; 'I' for Inactive)
ROOT
ATOM      1  C2' OXE d   1      -0.463   1.264   2.177  0.00  0.00     0.078 C 
ATOM      2  C1' OXE d   1      -1.513  -1.291   1.679  0.00  0.00     0.078 C 
ATOM      3  C1  OXE d   1      -2.444  -0.111   1.551  0.00  0.00    -0.078 A 
ATOM      4  C2  OXE d   1      -1.933   1.131   1.842  0.00  0.00    -0.078 A 
ATOM      5  C3  OXE d   1      -2.734   2.259   1.688  0.00  0.00     0.003 A 
ATOM      6  C4  OXE d   1      -4.095   2.126   1.388  0.00  0.00    -0.002 A 
ATOM      7  C5  OXE d   1      -4.645   0.867   1.126  0.00  0.00    -0.002 A 
ATOM      8  C6  OXE d   1      -3.825  -0.255   1.162  0.00  0.00     0.003 A 
ENDROOT
TORSDOF 0
ENDMDL
