MODEL 1
REMARK minimizedAffinity -2.7741766
REMARK minimizedRMSD -1
REMARK  0 active torsions:
REMARK  status: ('A' for Active; 'I' for Inactive)
ROOT
ATOM      1  C2' OXE d   1      -0.356   0.938   0.672  0.00  0.00     0.078 C 
ATOM      2  C1' OXE d   1      -1.695   2.366  -1.340  0.00  0.00     0.078 C 
ATOM      3  C1  OXE d   1      -2.526   1.753  -0.240  0.00  0.00    -0.078 A 
ATOM      4  C2  OXE d   1      -1.867   1.016   0.714  0.00  0.00    -0.078 A 
ATOM      5  C3  OXE d   1      -2.579   0.475   1.781  0.00  0.00     0.003 A 
ATOM      6  C4  OXE d   1      -3.977   0.543   1.807  0.00  0.00    -0.002 A 
ATOM      7  C5  OXE d   1      -4.672   1.255   0.822  0.00  0.00    -0.002 A 
ATOM      8  C6  OXE d   1      -3.959   1.900  -0.182  0.00  0.00     0.003 A 
ENDROOT
TORSDOF 0
ENDMDL
