MODEL 1
REMARK minimizedAffinity 4.70416355
REMARK minimizedRMSD -1
REMARK  0 active torsions:
REMARK  status: ('A' for Active; 'I' for Inactive)
ROOT
ATOM      1  C2' OXE d   1       5.465   5.692   0.697  0.00  0.00     0.078 C 
ATOM      2  C1' OXE d   1       2.730   5.660   1.331  0.00  0.00     0.078 C 
ATOM      3  C1  OXE d   1       3.714   5.797   2.466  0.00  0.00    -0.078 A 
ATOM      4  C2  OXE d   1       5.051   5.765   2.151  0.00  0.00    -0.078 A 
ATOM      5  C3  OXE d   1       6.000   5.942   3.154  0.00  0.00     0.003 A 
ATOM      6  C4  OXE d   1       5.609   5.999   4.498  0.00  0.00    -0.002 A 
ATOM      7  C5  OXE d   1       4.254   5.993   4.844  0.00  0.00    -0.002 A 
ATOM      8  C6  OXE d   1       3.294   5.936   3.839  0.00  0.00     0.003 A 
ENDROOT
TORSDOF 0
ENDMDL
