MODEL 1
REMARK minimizedAffinity -4.16790915
REMARK minimizedRMSD -1
REMARK  0 active torsions:
REMARK  status: ('A' for Active; 'I' for Inactive)
ROOT
ATOM      1  C2' OXE d   1      -1.747  -3.497  -1.796  0.00  0.00     0.078 C 
ATOM      2  C1' OXE d   1      -1.721  -2.211   0.699  0.00  0.00     0.078 C 
ATOM      3  C1  OXE d   1      -0.417  -2.763   0.178  0.00  0.00    -0.078 A 
ATOM      4  C2  OXE d   1      -0.449  -3.431  -1.022  0.00  0.00    -0.078 A 
ATOM      5  C3  OXE d   1       0.735  -3.912  -1.574  0.00  0.00     0.003 A 
ATOM      6  C4  OXE d   1       1.931  -3.856  -0.847  0.00  0.00    -0.002 A 
ATOM      7  C5  OXE d   1       1.976  -3.214   0.395  0.00  0.00    -0.002 A 
ATOM      8  C6  OXE d   1       0.823  -2.626   0.902  0.00  0.00     0.003 A 
ENDROOT
TORSDOF 0
ENDMDL
