MODEL 1
REMARK minimizedAffinity 3.40861821
REMARK minimizedRMSD -1
REMARK  0 active torsions:
REMARK  status: ('A' for Active; 'I' for Inactive)
ROOT
ATOM      1  C2' OXE d   1      -5.670   3.266  -5.991  0.00  0.00     0.078 C 
ATOM      2  C1' OXE d   1      -4.949   5.979  -5.970  0.00  0.00     0.078 C 
ATOM      3  C1  OXE d   1      -3.840   4.956  -5.977  0.00  0.00    -0.078 A 
ATOM      4  C2  OXE d   1      -4.202   3.631  -5.939  0.00  0.00    -0.078 A 
ATOM      5  C3  OXE d   1      -3.220   2.646  -5.999  0.00  0.00     0.003 A 
ATOM      6  C4  OXE d   1      -1.865   2.992  -5.941  0.00  0.00    -0.002 A 
ATOM      7  C5  OXE d   1      -1.474   4.335  -5.938  0.00  0.00    -0.002 A 
ATOM      8  C6  OXE d   1      -2.447   5.327  -5.999  0.00  0.00     0.003 A 
ENDROOT
TORSDOF 0
ENDMDL
