MODEL 1
REMARK minimizedAffinity 15.7861423
REMARK minimizedRMSD -1
REMARK  0 active torsions:
REMARK  status: ('A' for Active; 'I' for Inactive)
ROOT
ATOM      1  C   UNL d   1      -2.984  -0.081   1.172  0.00  0.00     0.020 A 
ATOM      2  C1  UNL d   1      -1.939   0.408   1.954  0.00  0.00     0.020 A 
ATOM      3  C2  UNL d   1      -0.771  -0.342   2.107  0.00  0.00     0.034 A 
ATOM      4  C3  UNL d   1      -0.646  -1.586   1.477  0.00  0.00     0.017 A 
ATOM      5  C4  UNL d   1      -1.696  -2.076   0.692  0.00  0.00     0.017 A 
ATOM      6  C5  UNL d   1      -2.863  -1.320   0.542  0.00  0.00     0.034 A 
ATOM      7 Cl   UNL d   1      -1.615  -3.601  -0.116  0.00  0.00    -0.070 Cl
ATOM      8 Cl1  UNL d   1       0.826  -2.460   1.710  0.00  0.00    -0.070 Cl
ENDROOT
TORSDOF 0
ENDMDL
