MODEL 1
REMARK minimizedAffinity 22.4218578
REMARK minimizedRMSD -1
REMARK  0 active torsions:
REMARK  status: ('A' for Active; 'I' for Inactive)
ROOT
ATOM      1  C   UNL d   1      -2.677  -2.043   0.744  0.00  0.00     0.020 A 
ATOM      2  C1  UNL d   1      -2.704  -0.744   0.239  0.00  0.00     0.020 A 
ATOM      3  C2  UNL d   1      -1.577   0.073   0.353  0.00  0.00     0.034 A 
ATOM      4  C3  UNL d   1      -0.419  -0.408   0.972  0.00  0.00     0.017 A 
ATOM      5  C4  UNL d   1      -0.392  -1.713   1.479  0.00  0.00     0.017 A 
ATOM      6  C5  UNL d   1      -1.524  -2.526   1.363  0.00  0.00     0.034 A 
ATOM      7 Cl   UNL d   1       1.001  -2.377   2.257  0.00  0.00    -0.070 Cl
ATOM      8 Cl1  UNL d   1       0.938   0.657   1.077  0.00  0.00    -0.070 Cl
ENDROOT
TORSDOF 0
ENDMDL
