MODEL 1
REMARK minimizedAffinity 10.6685762
REMARK minimizedRMSD -1
REMARK  0 active torsions:
REMARK  status: ('A' for Active; 'I' for Inactive)
ROOT
ATOM      1  C   UNL d   1      -5.979   4.693  -2.271  0.00  0.00     0.020 A 
ATOM      2  C1  UNL d   1      -5.991   4.847  -0.885  0.00  0.00     0.020 A 
ATOM      3  C2  UNL d   1      -5.997   3.722  -0.058  0.00  0.00     0.034 A 
ATOM      4  C3  UNL d   1      -5.989   2.438  -0.616  0.00  0.00     0.017 A 
ATOM      5  C4  UNL d   1      -5.977   2.285  -2.007  0.00  0.00     0.017 A 
ATOM      6  C5  UNL d   1      -5.971   3.415  -2.831  0.00  0.00     0.034 A 
ATOM      7 Cl   UNL d   1      -5.967   0.734  -2.769  0.00  0.00    -0.070 Cl
ATOM      8 Cl1  UNL d   1      -5.996   1.091   0.467  0.00  0.00    -0.070 Cl
ENDROOT
TORSDOF 0
ENDMDL
