MODEL 1
REMARK minimizedAffinity 15.9858255
REMARK minimizedRMSD -1
REMARK  0 active torsions:
REMARK  status: ('A' for Active; 'I' for Inactive)
ROOT
ATOM      1  C   UNL d   1       6.000   4.965  -1.968  0.00  0.00     0.020 A 
ATOM      2  C1  UNL d   1       5.156   4.570  -0.931  0.00  0.00     0.020 A 
ATOM      3  C2  UNL d   1       4.118   3.669  -1.179  0.00  0.00     0.034 A 
ATOM      4  C3  UNL d   1       3.921   3.161  -2.468  0.00  0.00     0.017 A 
ATOM      5  C4  UNL d   1       4.769   3.558  -3.509  0.00  0.00     0.017 A 
ATOM      6  C5  UNL d   1       5.806   4.459  -3.254  0.00  0.00     0.034 A 
ATOM      7 Cl   UNL d   1       4.588   2.973  -5.125  0.00  0.00    -0.070 Cl
ATOM      8 Cl1  UNL d   1       2.618   2.051  -2.703  0.00  0.00    -0.070 Cl
ENDROOT
TORSDOF 0
ENDMDL
