MODEL 1
REMARK minimizedAffinity 5.01645136
REMARK minimizedRMSD -1
REMARK  0 active torsions:
REMARK  status: ('A' for Active; 'I' for Inactive)
ROOT
ATOM      1  C   UNL d   1      -0.713  -1.747   2.131  0.00  0.00     0.020 A 
ATOM      2  C1  UNL d   1      -1.813  -2.473   1.677  0.00  0.00     0.020 A 
ATOM      3  C2  UNL d   1      -2.895  -1.809   1.094  0.00  0.00     0.034 A 
ATOM      4  C3  UNL d   1      -2.878  -0.415   0.964  0.00  0.00     0.017 A 
ATOM      5  C4  UNL d   1      -1.772   0.312   1.420  0.00  0.00     0.017 A 
ATOM      6  C5  UNL d   1      -0.692  -0.358   2.003  0.00  0.00     0.034 A 
ATOM      7 Cl   UNL d   1      -1.679   2.033   1.294  0.00  0.00    -0.070 Cl
ATOM      8 Cl1  UNL d   1      -4.250   0.340   0.234  0.00  0.00    -0.070 Cl
ENDROOT
TORSDOF 0
ENDMDL
