MODEL 1
REMARK minimizedAffinity 14.7652664
REMARK minimizedRMSD -1
REMARK  0 active torsions:
REMARK  status: ('A' for Active; 'I' for Inactive)
ROOT
ATOM      1  C   UNL d   1       0.094   4.213  -3.641  0.00  0.00     0.020 A 
ATOM      2  C1  UNL d   1       0.690   5.469  -3.747  0.00  0.00     0.020 A 
ATOM      3  C2  UNL d   1       2.014   5.650  -3.339  0.00  0.00     0.034 A 
ATOM      4  C3  UNL d   1       2.744   4.574  -2.822  0.00  0.00     0.017 A 
ATOM      5  C4  UNL d   1       2.145   3.314  -2.716  0.00  0.00     0.017 A 
ATOM      6  C5  UNL d   1       0.819   3.138  -3.126  0.00  0.00     0.034 A 
ATOM      7 Cl   UNL d   1       2.983   1.938  -2.089  0.00  0.00    -0.070 Cl
ATOM      8 Cl1  UNL d   1       4.376   4.870  -2.338  0.00  0.00    -0.070 Cl
ENDROOT
TORSDOF 0
ENDMDL
