MODEL 1
REMARK minimizedAffinity 8.32686138
REMARK minimizedRMSD -1
REMARK  0 active torsions:
REMARK  status: ('A' for Active; 'I' for Inactive)
ROOT
ATOM      1  C   UNL d   1      -1.011   0.710   2.030  0.00  0.00     0.020 A 
ATOM      2  C1  UNL d   1      -2.337   0.454   1.685  0.00  0.00     0.020 A 
ATOM      3  C2  UNL d   1      -2.768  -0.860   1.495  0.00  0.00     0.034 A 
ATOM      4  C3  UNL d   1      -1.872  -1.924   1.650  0.00  0.00     0.017 A 
ATOM      5  C4  UNL d   1      -0.541  -1.666   1.998  0.00  0.00     0.017 A 
ATOM      6  C5  UNL d   1      -0.115  -0.348   2.187  0.00  0.00     0.034 A 
ATOM      7 Cl   UNL d   1       0.623  -2.927   2.207  0.00  0.00    -0.070 Cl
ATOM      8 Cl1  UNL d   1      -2.474  -3.524   1.400  0.00  0.00    -0.070 Cl
ENDROOT
TORSDOF 0
ENDMDL
