MODEL 1
REMARK minimizedAffinity 10.9919977
REMARK minimizedRMSD -1
REMARK  0 active torsions:
REMARK  status: ('A' for Active; 'I' for Inactive)
ROOT
ATOM      1  C   UNL d   1       4.858   3.727  -4.842  0.00  0.00     0.020 A 
ATOM      2  C1  UNL d   1       6.000   4.415  -4.432  0.00  0.00     0.020 A 
ATOM      3  C2  UNL d   1       5.999   5.110  -3.221  0.00  0.00     0.034 A 
ATOM      4  C3  UNL d   1       4.854   5.119  -2.416  0.00  0.00     0.017 A 
ATOM      5  C4  UNL d   1       3.709   4.429  -2.828  0.00  0.00     0.017 A 
ATOM      6  C5  UNL d   1       3.715   3.734  -4.042  0.00  0.00     0.034 A 
ATOM      7 Cl   UNL d   1       2.259   4.394  -1.888  0.00  0.00    -0.070 Cl
ATOM      8 Cl1  UNL d   1       4.924   5.999  -0.930  0.00  0.00    -0.070 Cl
ENDROOT
TORSDOF 0
ENDMDL
