MODEL 1
REMARK minimizedAffinity 3.23317695
REMARK minimizedRMSD -1
REMARK  0 active torsions:
REMARK  status: ('A' for Active; 'I' for Inactive)
ROOT
ATOM      1  C   UNL d   1      -2.003  -0.542   1.913  0.00  0.00     0.020 A 
ATOM      2  C1  UNL d   1      -1.930  -0.344   3.291  0.00  0.00     0.020 A 
ATOM      3  C2  UNL d   1      -2.911   0.406   3.942  0.00  0.00     0.034 A 
ATOM      4  C3  UNL d   1      -3.970   0.962   3.214  0.00  0.00     0.017 A 
ATOM      5  C4  UNL d   1      -4.042   0.763   1.831  0.00  0.00     0.017 A 
ATOM      6  C5  UNL d   1      -3.057   0.011   1.184  0.00  0.00     0.034 A 
ATOM      7 Cl   UNL d   1      -5.318   1.418   0.866  0.00  0.00    -0.070 Cl
ATOM      8 Cl1  UNL d   1      -5.148   1.879   4.084  0.00  0.00    -0.070 Cl
ENDROOT
TORSDOF 0
ENDMDL
