MODEL 1
REMARK minimizedAffinity 13.6016388
REMARK minimizedRMSD -1
REMARK  0 active torsions:
REMARK  status: ('A' for Active; 'I' for Inactive)
ROOT
ATOM      1  C   UNL d   1       1.856   1.784  -0.149  0.00  0.00     0.020 A 
ATOM      2  C1  UNL d   1       3.216   1.533  -0.330  0.00  0.00     0.020 A 
ATOM      3  C2  UNL d   1       3.851   1.944  -1.504  0.00  0.00     0.034 A 
ATOM      4  C3  UNL d   1       3.127   2.608  -2.500  0.00  0.00     0.017 A 
ATOM      5  C4  UNL d   1       1.763   2.860  -2.317  0.00  0.00     0.017 A 
ATOM      6  C5  UNL d   1       1.132   2.446  -1.140  0.00  0.00     0.034 A 
ATOM      7 Cl   UNL d   1       0.803   3.674  -3.502  0.00  0.00    -0.070 Cl
ATOM      8 Cl1  UNL d   1       3.978   3.088  -3.926  0.00  0.00    -0.070 Cl
ENDROOT
TORSDOF 0
ENDMDL
