MODEL 1
REMARK minimizedAffinity 7.87561989
REMARK minimizedRMSD -1
REMARK  0 active torsions:
REMARK  status: ('A' for Active; 'I' for Inactive)
ROOT
ATOM      1  C   UNL d   1      -5.999  -0.829  -3.018  0.00  0.00     0.020 A 
ATOM      2  C1  UNL d   1      -5.928   0.339  -3.777  0.00  0.00     0.020 A 
ATOM      3  C2  UNL d   1      -5.855   1.580  -3.142  0.00  0.00     0.034 A 
ATOM      4  C3  UNL d   1      -5.854   1.658  -1.745  0.00  0.00     0.017 A 
ATOM      5  C4  UNL d   1      -5.925   0.485  -0.984  0.00  0.00     0.017 A 
ATOM      6  C5  UNL d   1      -5.998  -0.756  -1.625  0.00  0.00     0.034 A 
ATOM      7 Cl   UNL d   1      -5.928   0.500   0.744  0.00  0.00    -0.070 Cl
ATOM      8 Cl1  UNL d   1      -5.762   3.227  -1.027  0.00  0.00    -0.070 Cl
ENDROOT
TORSDOF 0
ENDMDL
