MODEL 1
REMARK minimizedAffinity 11.1251278
REMARK minimizedRMSD -1
REMARK  0 active torsions:
REMARK  status: ('A' for Active; 'I' for Inactive)
ROOT
ATOM      1  C   UNL d   1      -2.911  -2.590   1.066  0.00  0.00     0.020 A 
ATOM      2  C1  UNL d   1      -1.780  -3.309   0.680  0.00  0.00     0.020 A 
ATOM      3  C2  UNL d   1      -0.562  -3.094   1.329  0.00  0.00     0.034 A 
ATOM      4  C3  UNL d   1      -0.472  -2.159   2.367  0.00  0.00     0.017 A 
ATOM      5  C4  UNL d   1      -1.608  -1.438   2.752  0.00  0.00     0.017 A 
ATOM      6  C5  UNL d   1      -2.825  -1.657   2.099  0.00  0.00     0.034 A 
ATOM      7 Cl   UNL d   1      -1.576  -0.268   4.024  0.00  0.00    -0.070 Cl
ATOM      8 Cl1  UNL d   1       1.065  -1.945   3.125  0.00  0.00    -0.070 Cl
ENDROOT
TORSDOF 0
ENDMDL
