MODEL 1
REMARK minimizedAffinity 9.56188393
REMARK minimizedRMSD -1
REMARK  0 active torsions:
REMARK  status: ('A' for Active; 'I' for Inactive)
ROOT
ATOM      1  C   UNL d   1      -4.800  -3.826   2.152  0.00  0.00     0.020 A 
ATOM      2  C1  UNL d   1      -5.108  -5.185   2.132  0.00  0.00     0.020 A 
ATOM      3  C2  UNL d   1      -5.467  -5.837   3.314  0.00  0.00     0.034 A 
ATOM      4  C3  UNL d   1      -5.520  -5.129   4.520  0.00  0.00     0.017 A 
ATOM      5  C4  UNL d   1      -5.211  -3.765   4.539  0.00  0.00     0.017 A 
ATOM      6  C5  UNL d   1      -4.852  -3.117   3.353  0.00  0.00     0.034 A 
ATOM      7 Cl   UNL d   1      -5.253  -2.825   5.989  0.00  0.00    -0.070 Cl
ATOM      8 Cl1  UNL d   1      -5.972  -5.999   5.943  0.00  0.00    -0.070 Cl
ENDROOT
TORSDOF 0
ENDMDL
