MODEL 1
REMARK minimizedAffinity 14.0681763
REMARK minimizedRMSD -1
REMARK  0 active torsions:
REMARK  status: ('A' for Active; 'I' for Inactive)
ROOT
ATOM      1  C   UNL d   1      -1.114  -0.116   2.643  0.00  0.00     0.020 A 
ATOM      2  C1  UNL d   1      -2.458  -0.355   2.357  0.00  0.00     0.020 A 
ATOM      3  C2  UNL d   1      -2.834  -1.532   1.705  0.00  0.00     0.034 A 
ATOM      4  C3  UNL d   1      -1.866  -2.473   1.337  0.00  0.00     0.017 A 
ATOM      5  C4  UNL d   1      -0.517  -2.232   1.624  0.00  0.00     0.017 A 
ATOM      6  C5  UNL d   1      -0.146  -1.052   2.277  0.00  0.00     0.034 A 
ATOM      7 Cl   UNL d   1       0.734  -3.346   1.201  0.00  0.00    -0.070 Cl
ATOM      8 Cl1  UNL d   1      -2.403  -3.906   0.534  0.00  0.00    -0.070 Cl
ENDROOT
TORSDOF 0
ENDMDL
