MODEL 1
REMARK minimizedAffinity 12.1605511
REMARK minimizedRMSD -1
REMARK  0 active torsions:
REMARK  status: ('A' for Active; 'I' for Inactive)
ROOT
ATOM      1  C   UNL d   1      -1.289  -5.620  -5.168  0.00  0.00     0.020 A 
ATOM      2  C1  UNL d   1      -2.359  -5.999  -5.979  0.00  0.00     0.020 A 
ATOM      3  C2  UNL d   1      -3.525  -5.231  -6.000  0.00  0.00     0.034 A 
ATOM      4  C3  UNL d   1      -3.625  -4.081  -5.209  0.00  0.00     0.017 A 
ATOM      5  C4  UNL d   1      -2.551  -3.701  -4.396  0.00  0.00     0.017 A 
ATOM      6  C5  UNL d   1      -1.386  -4.473  -4.378  0.00  0.00     0.034 A 
ATOM      7 Cl   UNL d   1      -2.600  -2.295  -3.392  0.00  0.00    -0.070 Cl
ATOM      8 Cl1  UNL d   1      -5.097  -3.179  -5.285  0.00  0.00    -0.070 Cl
ENDROOT
TORSDOF 0
ENDMDL
