MODEL 1
REMARK minimizedAffinity 3.71055818
REMARK minimizedRMSD -1
REMARK  0 active torsions:
REMARK  status: ('A' for Active; 'I' for Inactive)
ROOT
ATOM      1  C   UNL d   1       2.298   0.738  -2.912  0.00  0.00     0.020 A 
ATOM      2  C1  UNL d   1       2.297   2.117  -2.709  0.00  0.00     0.020 A 
ATOM      3  C2  UNL d   1       3.451   2.861  -2.966  0.00  0.00     0.034 A 
ATOM      4  C3  UNL d   1       4.609   2.226  -3.428  0.00  0.00     0.017 A 
ATOM      5  C4  UNL d   1       4.609   0.842  -3.632  0.00  0.00     0.017 A 
ATOM      6  C5  UNL d   1       3.451   0.102  -3.373  0.00  0.00     0.034 A 
ATOM      7 Cl   UNL d   1       6.000  -0.012  -4.201  0.00  0.00    -0.070 Cl
ATOM      8 Cl1  UNL d   1       5.999   3.209  -3.726  0.00  0.00    -0.070 Cl
ENDROOT
TORSDOF 0
ENDMDL
