MODEL 1
REMARK minimizedAffinity 4.23840666
REMARK minimizedRMSD -1
REMARK  0 active torsions:
REMARK  status: ('A' for Active; 'I' for Inactive)
ROOT
ATOM      1  C   UNL d   1       1.617  -3.380  -0.019  0.00  0.00     0.020 A 
ATOM      2  C1  UNL d   1       0.395  -3.444  -0.686  0.00  0.00     0.020 A 
ATOM      3  C2  UNL d   1      -0.718  -2.778  -0.169  0.00  0.00     0.034 A 
ATOM      4  C3  UNL d   1      -0.611  -2.044   1.018  0.00  0.00     0.017 A 
ATOM      5  C4  UNL d   1       0.616  -1.980   1.687  0.00  0.00     0.017 A 
ATOM      6  C5  UNL d   1       1.728  -2.649   1.165  0.00  0.00     0.034 A 
ATOM      7 Cl   UNL d   1       0.826  -1.094   3.156  0.00  0.00    -0.070 Cl
ATOM      8 Cl1  UNL d   1      -2.029  -1.245   1.599  0.00  0.00    -0.070 Cl
ENDROOT
TORSDOF 0
ENDMDL
