MODEL 1
REMARK minimizedAffinity -2.19012332
REMARK minimizedRMSD -1
REMARK  0 active torsions:
REMARK  status: ('A' for Active; 'I' for Inactive)
ROOT
ATOM      1  C   UNL d   1       2.356   0.092   0.306  0.00  0.00     0.020 A 
ATOM      2  C1  UNL d   1       1.710   0.835  -0.681  0.00  0.00     0.020 A 
ATOM      3  C2  UNL d   1       0.348   0.642  -0.921  0.00  0.00     0.034 A 
ATOM      4  C3  UNL d   1      -0.373  -0.296  -0.174  0.00  0.00     0.017 A 
ATOM      5  C4  UNL d   1       0.277  -1.041   0.817  0.00  0.00     0.017 A 
ATOM      6  C5  UNL d   1       1.640  -0.844   1.054  0.00  0.00     0.034 A 
ATOM      7 Cl   UNL d   1      -0.546  -2.217   1.781  0.00  0.00    -0.070 Cl
ATOM      8 Cl1  UNL d   1      -2.054  -0.482  -0.524  0.00  0.00    -0.070 Cl
ENDROOT
TORSDOF 0
ENDMDL
