MODEL 1
REMARK minimizedAffinity 11.0591402
REMARK minimizedRMSD -1
REMARK  0 active torsions:
REMARK  status: ('A' for Active; 'I' for Inactive)
ROOT
ATOM      1  C2' OXE d   1       0.386   1.872   0.368  0.00  0.00     0.078 C 
ATOM      2  C1' OXE d   1      -1.311   2.900   2.353  0.00  0.00     0.078 C 
ATOM      3  C1  OXE d   1      -0.900   3.822   1.232  0.00  0.00    -0.078 A 
ATOM      4  C2  OXE d   1      -0.032   3.324   0.290  0.00  0.00    -0.078 A 
ATOM      5  C3  OXE d   1       0.335   4.115  -0.795  0.00  0.00     0.003 A 
ATOM      6  C4  OXE d   1      -0.048   5.460  -0.853  0.00  0.00    -0.002 A 
ATOM      7  C5  OXE d   1      -0.900   5.999   0.117  0.00  0.00    -0.002 A 
ATOM      8  C6  OXE d   1      -1.369   5.183   1.141  0.00  0.00     0.003 A 
ENDROOT
TORSDOF 0
ENDMDL
