MODEL 1
REMARK minimizedAffinity 7.99545002
REMARK minimizedRMSD -1
REMARK  0 active torsions:
REMARK  status: ('A' for Active; 'I' for Inactive)
ROOT
ATOM      1  C2' OXE d   1       0.417   1.824   3.274  0.00  0.00     0.078 C 
ATOM      2  C1' OXE d   1       2.613   3.441   2.608  0.00  0.00     0.078 C 
ATOM      3  C1  OXE d   1       1.345   3.612   1.808  0.00  0.00    -0.078 A 
ATOM      4  C2  OXE d   1       0.291   2.784   2.111  0.00  0.00    -0.078 A 
ATOM      5  C3  OXE d   1      -0.919   2.936   1.441  0.00  0.00     0.003 A 
ATOM      6  C4  OXE d   1      -1.025   3.819   0.359  0.00  0.00    -0.002 A 
ATOM      7  C5  OXE d   1       0.050   4.644   0.008  0.00  0.00    -0.002 A 
ATOM      8  C6  OXE d   1       1.225   4.583   0.749  0.00  0.00     0.003 A 
ENDROOT
TORSDOF 0
ENDMDL
