MODEL 1
REMARK minimizedAffinity 15.1999407
REMARK minimizedRMSD -1
REMARK  0 active torsions:
REMARK  status: ('A' for Active; 'I' for Inactive)
ROOT
ATOM      1  C2' OXE d   1       0.616   2.815   2.360  0.00  0.00     0.078 C 
ATOM      2  C1' OXE d   1       0.306   1.634  -0.167  0.00  0.00     0.078 C 
ATOM      3  C1  OXE d   1       0.275   3.140  -0.086  0.00  0.00    -0.078 A 
ATOM      4  C2  OXE d   1       0.380   3.708   1.161  0.00  0.00    -0.078 A 
ATOM      5  C3  OXE d   1       0.412   5.094   1.287  0.00  0.00     0.003 A 
ATOM      6  C4  OXE d   1       0.184   5.912   0.174  0.00  0.00    -0.002 A 
ATOM      7  C5  OXE d   1       0.034   5.353  -1.099  0.00  0.00    -0.002 A 
ATOM      8  C6  OXE d   1       0.119   3.973  -1.252  0.00  0.00     0.003 A 
ENDROOT
TORSDOF 0
ENDMDL
