MODEL 1
REMARK minimizedAffinity 8.21354866
REMARK minimizedRMSD -1
REMARK  0 active torsions:
REMARK  status: ('A' for Active; 'I' for Inactive)
ROOT
ATOM      1  C2' OXE d   1       1.919  -3.758  -0.001  0.00  0.00     0.078 C 
ATOM      2  C1' OXE d   1       2.788  -1.144  -0.542  0.00  0.00     0.078 C 
ATOM      3  C1  OXE d   1       3.669  -2.284  -0.988  0.00  0.00    -0.078 A 
ATOM      4  C2  OXE d   1       3.259  -3.559  -0.677  0.00  0.00    -0.078 A 
ATOM      5  C3  OXE d   1       4.007  -4.649  -1.112  0.00  0.00     0.003 A 
ATOM      6  C4  OXE d   1       5.249  -4.456  -1.728  0.00  0.00    -0.002 A 
ATOM      7  C5  OXE d   1       5.705  -3.166  -2.018  0.00  0.00    -0.002 A 
ATOM      8  C6  OXE d   1       4.909  -2.073  -1.694  0.00  0.00     0.003 A 
ENDROOT
TORSDOF 0
ENDMDL
