MODEL 1
REMARK minimizedAffinity 6.89605951
REMARK minimizedRMSD -1
REMARK  0 active torsions:
REMARK  status: ('A' for Active; 'I' for Inactive)
ROOT
ATOM      1  C2' OXE d   1      -0.616   3.318   2.612  0.00  0.00     0.078 C 
ATOM      2  C1' OXE d   1      -1.546   5.952   2.329  0.00  0.00     0.078 C 
ATOM      3  C1  OXE d   1      -0.866   5.315   1.143  0.00  0.00    -0.078 A 
ATOM      4  C2  OXE d   1      -0.373   4.042   1.305  0.00  0.00    -0.078 A 
ATOM      5  C3  OXE d   1       0.214   3.388   0.226  0.00  0.00     0.003 A 
ATOM      6  C4  OXE d   1       0.444   4.068  -0.976  0.00  0.00    -0.002 A 
ATOM      7  C5  OXE d   1      -0.015   5.378  -1.149  0.00  0.00    -0.002 A 
ATOM      8  C6  OXE d   1      -0.708   6.000  -0.116  0.00  0.00     0.003 A 
ENDROOT
TORSDOF 0
ENDMDL
