MODEL 1
REMARK minimizedAffinity 12.1616173
REMARK minimizedRMSD -1
REMARK  0 active torsions:
REMARK  status: ('A' for Active; 'I' for Inactive)
ROOT
ATOM      1  C2' OXE d   1       2.712  -3.117   1.250  0.00  0.00     0.078 C 
ATOM      2  C1' OXE d   1       2.976  -0.565   0.110  0.00  0.00     0.078 C 
ATOM      3  C1  OXE d   1       3.991  -1.614  -0.270  0.00  0.00    -0.078 A 
ATOM      4  C2  OXE d   1       3.882  -2.846   0.329  0.00  0.00    -0.078 A 
ATOM      5  C3  OXE d   1       4.760  -3.865  -0.027  0.00  0.00     0.003 A 
ATOM      6  C4  OXE d   1       5.846  -3.604  -0.872  0.00  0.00    -0.002 A 
ATOM      7  C5  OXE d   1       5.999  -2.344  -1.461  0.00  0.00    -0.002 A 
ATOM      8  C6  OXE d   1       5.058  -1.353  -1.205  0.00  0.00     0.003 A 
ENDROOT
TORSDOF 0
ENDMDL
