MODEL 1
REMARK minimizedAffinity 10.5568581
REMARK minimizedRMSD -1
REMARK  0 active torsions:
REMARK  status: ('A' for Active; 'I' for Inactive)
ROOT
ATOM      1  C2' OXE d   1      -0.597   1.784  -0.095  0.00  0.00     0.078 C 
ATOM      2  C1' OXE d   1       0.324   3.015   2.254  0.00  0.00     0.078 C 
ATOM      3  C1  OXE d   1       0.293   3.841   0.992  0.00  0.00    -0.078 A 
ATOM      4  C2  OXE d   1      -0.115   3.217  -0.162  0.00  0.00    -0.078 A 
ATOM      5  C3  OXE d   1      -0.214   3.948  -1.342  0.00  0.00     0.003 A 
ATOM      6  C4  OXE d   1       0.244   5.270  -1.398  0.00  0.00    -0.002 A 
ATOM      7  C5  OXE d   1       0.701   5.912  -0.242  0.00  0.00    -0.002 A 
ATOM      8  C6  OXE d   1       0.692   5.226   0.967  0.00  0.00     0.003 A 
ENDROOT
TORSDOF 0
ENDMDL
