MODEL 1
REMARK minimizedAffinity 7.33472443
REMARK minimizedRMSD -1
REMARK  0 active torsions:
REMARK  status: ('A' for Active; 'I' for Inactive)
ROOT
ATOM      1  C2' OXE d   1       2.810  -3.012   1.600  0.00  0.00     0.078 C 
ATOM      2  C1' OXE d   1       2.821  -0.734  -0.041  0.00  0.00     0.078 C 
ATOM      3  C1  OXE d   1       3.821  -1.822  -0.341  0.00  0.00    -0.078 A 
ATOM      4  C2  OXE d   1       3.840  -2.912   0.496  0.00  0.00    -0.078 A 
ATOM      5  C3  OXE d   1       4.706  -3.970   0.231  0.00  0.00     0.003 A 
ATOM      6  C4  OXE d   1       5.662  -3.865  -0.787  0.00  0.00    -0.002 A 
ATOM      7  C5  OXE d   1       5.687  -2.746  -1.626  0.00  0.00    -0.002 A 
ATOM      8  C6  OXE d   1       4.747  -1.737  -1.443  0.00  0.00     0.003 A 
ENDROOT
TORSDOF 0
ENDMDL
