MODEL 1
REMARK minimizedAffinity 5.11279631
REMARK minimizedRMSD -1
REMARK  0 active torsions:
REMARK  status: ('A' for Active; 'I' for Inactive)
ROOT
ATOM      1  C2' OXE d   1       0.382   2.999   1.533  0.00  0.00     0.078 C 
ATOM      2  C1' OXE d   1      -1.640   2.612  -0.375  0.00  0.00     0.078 C 
ATOM      3  C1  OXE d   1      -0.730   3.803  -0.546  0.00  0.00    -0.078 A 
ATOM      4  C2  OXE d   1       0.227   4.011   0.418  0.00  0.00    -0.078 A 
ATOM      5  C3  OXE d   1       1.127   5.063   0.279  0.00  0.00     0.003 A 
ATOM      6  C4  OXE d   1       0.970   6.000  -0.749  0.00  0.00    -0.002 A 
ATOM      7  C5  OXE d   1      -0.023   5.829  -1.719  0.00  0.00    -0.002 A 
ATOM      8  C6  OXE d   1      -0.853   4.715  -1.656  0.00  0.00     0.003 A 
ENDROOT
TORSDOF 0
ENDMDL
