MODEL 1
REMARK minimizedAffinity 16.5925217
REMARK minimizedRMSD -1
REMARK  0 active torsions:
REMARK  status: ('A' for Active; 'I' for Inactive)
ROOT
ATOM      1  C2' OXE d   1      -0.709   2.265  -0.075  0.00  0.00     0.078 C 
ATOM      2  C1' OXE d   1      -3.074   0.771  -0.314  0.00  0.00     0.078 C 
ATOM      3  C1  OXE d   1      -1.801   0.165  -0.850  0.00  0.00    -0.078 A 
ATOM      4  C2  OXE d   1      -0.657   0.922  -0.771  0.00  0.00    -0.078 A 
ATOM      5  C3  OXE d   1       0.554   0.388  -1.202  0.00  0.00     0.003 A 
ATOM      6  C4  OXE d   1       0.591  -0.850  -1.854  0.00  0.00    -0.002 A 
ATOM      7  C5  OXE d   1      -0.570  -1.621  -1.981  0.00  0.00    -0.002 A 
ATOM      8  C6  OXE d   1      -1.764  -1.148  -1.447  0.00  0.00     0.003 A 
ENDROOT
TORSDOF 0
ENDMDL
