MODEL 1
REMARK minimizedAffinity 7.8456583
REMARK minimizedRMSD -1
REMARK  0 active torsions:
REMARK  status: ('A' for Active; 'I' for Inactive)
ROOT
ATOM      1  C2' OXE d   1      -0.419   2.787   2.522  0.00  0.00     0.078 C 
ATOM      2  C1' OXE d   1       0.788   2.066   0.093  0.00  0.00     0.078 C 
ATOM      3  C1  OXE d   1       0.224   3.460   0.212  0.00  0.00    -0.078 A 
ATOM      4  C2  OXE d   1      -0.406   3.788   1.388  0.00  0.00    -0.078 A 
ATOM      5  C3  OXE d   1      -0.895   5.079   1.570  0.00  0.00     0.003 A 
ATOM      6  C4  OXE d   1      -0.889   5.996   0.512  0.00  0.00    -0.002 A 
ATOM      7  C5  OXE d   1      -0.287   5.668  -0.708  0.00  0.00    -0.002 A 
ATOM      8  C6  OXE d   1       0.311   4.422  -0.859  0.00  0.00     0.003 A 
ENDROOT
TORSDOF 0
ENDMDL
