MODEL 1
REMARK minimizedAffinity -3.51310039
REMARK minimizedRMSD -1
REMARK  0 active torsions:
REMARK  status: ('A' for Active; 'I' for Inactive)
ROOT
ATOM      1  C   UNL d   1       1.369  -1.558  -4.072  0.00  0.00     0.023 A 
ATOM      2  C1  UNL d   1       1.422  -2.433  -2.987  0.00  0.00     0.003 A 
ATOM      3  C2  UNL d   1       0.999  -2.009  -1.726  0.00  0.00     0.048 A 
ATOM      4  C3  UNL d   1       0.523  -0.709  -1.556  0.00  0.00     0.023 A 
ATOM      5  C4  UNL d   1       0.468   0.170  -2.639  0.00  0.00     0.048 A 
ATOM      6  C5  UNL d   1       0.893  -0.258  -3.898  0.00  0.00     0.003 A 
ATOM      7  I   UNL d   1      -0.107  -0.077   0.321  0.00  0.00    -0.146 I 
ENDROOT
TORSDOF 0
ENDMDL
