MODEL 1
REMARK minimizedAffinity -1.19731498
REMARK minimizedRMSD -1
REMARK  0 active torsions:
REMARK  status: ('A' for Active; 'I' for Inactive)
ROOT
ATOM      1  C   UNL d   1      -0.717   0.516   0.872  0.00  0.00     0.023 A 
ATOM      2  C1  UNL d   1      -1.404   0.617  -0.338  0.00  0.00     0.003 A 
ATOM      3  C2  UNL d   1      -0.792   0.212  -1.526  0.00  0.00     0.048 A 
ATOM      4  C3  UNL d   1       0.508  -0.293  -1.497  0.00  0.00     0.023 A 
ATOM      5  C4  UNL d   1       1.198  -0.397  -0.288  0.00  0.00     0.048 A 
ATOM      6  C5  UNL d   1       0.582   0.010   0.897  0.00  0.00     0.003 A 
ATOM      7  I   UNL d   1       1.421  -0.896  -3.263  0.00  0.00    -0.146 I 
ENDROOT
TORSDOF 0
ENDMDL
