MODEL 1
REMARK minimizedAffinity -2.81389761
REMARK minimizedRMSD -1
REMARK  0 active torsions:
REMARK  status: ('A' for Active; 'I' for Inactive)
ROOT
ATOM      1  C   UNL d   1       1.094  -1.542  -4.153  0.00  0.00     0.023 A 
ATOM      2  C1  UNL d   1      -0.008  -1.941  -3.397  0.00  0.00     0.003 A 
ATOM      3  C2  UNL d   1      -0.283  -1.318  -2.178  0.00  0.00     0.048 A 
ATOM      4  C3  UNL d   1       0.549  -0.296  -1.721  0.00  0.00     0.023 A 
ATOM      5  C4  UNL d   1       1.653   0.107  -2.475  0.00  0.00     0.048 A 
ATOM      6  C5  UNL d   1       1.924  -0.520  -3.693  0.00  0.00     0.003 A 
ATOM      7  I   UNL d   1       0.143   0.633   0.093  0.00  0.00    -0.146 I 
ENDROOT
TORSDOF 0
ENDMDL
