MODEL 1
REMARK minimizedAffinity -2.78801632
REMARK minimizedRMSD -1
REMARK  0 active torsions:
REMARK  status: ('A' for Active; 'I' for Inactive)
ROOT
ATOM      1  C   UNL d   1       1.021   0.017   0.178  0.00  0.00     0.023 A 
ATOM      2  C1  UNL d   1       0.942   0.078   1.569  0.00  0.00     0.003 A 
ATOM      3  C2  UNL d   1      -0.255   0.448   2.186  0.00  0.00     0.048 A 
ATOM      4  C3  UNL d   1      -1.369   0.754   1.406  0.00  0.00     0.023 A 
ATOM      5  C4  UNL d   1      -1.295   0.694   0.013  0.00  0.00     0.048 A 
ATOM      6  C5  UNL d   1      -0.096   0.324  -0.599  0.00  0.00     0.003 A 
ATOM      7  I   UNL d   1      -3.151   1.305   2.322  0.00  0.00    -0.146 I 
ENDROOT
TORSDOF 0
ENDMDL
