MODEL 1
REMARK minimizedAffinity -5.65968895
REMARK minimizedRMSD -1
REMARK  0 active torsions:
REMARK  status: ('A' for Active; 'I' for Inactive)
ROOT
ATOM      1  C   UNL d   1      -1.163  -0.155   2.828  0.00  0.00     0.023 A 
ATOM      2  C1  UNL d   1      -2.149  -0.288   1.851  0.00  0.00     0.003 A 
ATOM      3  C2  UNL d   1      -1.806  -0.231   0.498  0.00  0.00     0.048 A 
ATOM      4  C3  UNL d   1      -0.475  -0.040   0.131  0.00  0.00     0.023 A 
ATOM      5  C4  UNL d   1       0.516   0.093   1.105  0.00  0.00     0.048 A 
ATOM      6  C5  UNL d   1       0.167   0.036   2.456  0.00  0.00     0.003 A 
ATOM      7  I   UNL d   1       0.039   0.045  -1.881  0.00  0.00    -0.146 I 
ENDROOT
TORSDOF 0
ENDMDL
