MODEL 1
REMARK minimizedAffinity -3.76632857
REMARK minimizedRMSD -1
REMARK  0 active torsions:
REMARK  status: ('A' for Active; 'I' for Inactive)
ROOT
ATOM      1  C   UNL d   1      -2.657   0.312   3.081  0.00  0.00     0.023 A 
ATOM      2  C1  UNL d   1      -3.072   0.463   1.758  0.00  0.00     0.003 A 
ATOM      3  C2  UNL d   1      -2.137   0.412   0.722  0.00  0.00     0.048 A 
ATOM      4  C3  UNL d   1      -0.789   0.209   1.016  0.00  0.00     0.023 A 
ATOM      5  C4  UNL d   1      -0.370   0.056   2.339  0.00  0.00     0.048 A 
ATOM      6  C5  UNL d   1      -1.308   0.109   3.372  0.00  0.00     0.003 A 
ATOM      7  I   UNL d   1       0.604   0.133  -0.524  0.00  0.00    -0.146 I 
ENDROOT
TORSDOF 0
ENDMDL
