MODEL 1
REMARK minimizedAffinity -0.97492969
REMARK minimizedRMSD -1
REMARK  0 active torsions:
REMARK  status: ('A' for Active; 'I' for Inactive)
ROOT
ATOM      1  C   UNL d   1      -1.944   0.581   2.404  0.00  0.00     0.023 A 
ATOM      2  C1  UNL d   1      -0.567   0.414   2.559  0.00  0.00     0.003 A 
ATOM      3  C2  UNL d   1       0.246   0.233   1.439  0.00  0.00     0.048 A 
ATOM      4  C3  UNL d   1      -0.323   0.221   0.166  0.00  0.00     0.023 A 
ATOM      5  C4  UNL d   1      -1.700   0.388   0.006  0.00  0.00     0.048 A 
ATOM      6  C5  UNL d   1      -2.509   0.568   1.129  0.00  0.00     0.003 A 
ATOM      7  I   UNL d   1       0.885  -0.048  -1.504  0.00  0.00    -0.146 I 
ENDROOT
TORSDOF 0
ENDMDL
