MODEL 1
REMARK minimizedAffinity 2.76432705
REMARK minimizedRMSD -1
REMARK  0 active torsions:
REMARK  status: ('A' for Active; 'I' for Inactive)
ROOT
ATOM      1  C   UNL d   1       2.118   0.796   1.280  0.00  0.00     0.023 A 
ATOM      2  C1  UNL d   1       1.900   0.930  -0.091  0.00  0.00     0.003 A 
ATOM      3  C2  UNL d   1       0.613   0.783  -0.613  0.00  0.00     0.048 A 
ATOM      4  C3  UNL d   1      -0.452   0.504   0.243  0.00  0.00     0.023 A 
ATOM      5  C4  UNL d   1      -0.239   0.370   1.616  0.00  0.00     0.048 A 
ATOM      6  C5  UNL d   1       1.050   0.516   2.133  0.00  0.00     0.003 A 
ATOM      7  I   UNL d   1      -2.369   0.285  -0.530  0.00  0.00    -0.146 I 
ENDROOT
TORSDOF 0
ENDMDL
