MODEL 1
REMARK minimizedAffinity 0.682473481
REMARK minimizedRMSD -1
REMARK  0 active torsions:
REMARK  status: ('A' for Active; 'I' for Inactive)
ROOT
ATOM      1  C   UNL d   1      -0.621   0.166  -2.067  0.00  0.00     0.023 A 
ATOM      2  C1  UNL d   1       0.744   0.265  -1.798  0.00  0.00     0.003 A 
ATOM      3  C2  UNL d   1       1.194   0.327  -0.477  0.00  0.00     0.048 A 
ATOM      4  C3  UNL d   1       0.274   0.288   0.570  0.00  0.00     0.023 A 
ATOM      5  C4  UNL d   1      -1.093   0.188   0.305  0.00  0.00     0.048 A 
ATOM      6  C5  UNL d   1      -1.538   0.128  -1.017  0.00  0.00     0.003 A 
ATOM      7  I   UNL d   1       0.941   0.380   2.536  0.00  0.00    -0.146 I 
ENDROOT
TORSDOF 0
ENDMDL
