MODEL 1
REMARK minimizedAffinity -2.31628609
REMARK minimizedRMSD -1
REMARK  0 active torsions:
REMARK  status: ('A' for Active; 'I' for Inactive)
ROOT
ATOM      1  C   UNL d   1      -0.094  -2.159  -3.414  0.00  0.00     0.023 A 
ATOM      2  C1  UNL d   1       1.100  -1.439  -3.448  0.00  0.00     0.003 A 
ATOM      3  C2  UNL d   1       1.402  -0.538  -2.424  0.00  0.00     0.048 A 
ATOM      4  C3  UNL d   1       0.507  -0.365  -1.369  0.00  0.00     0.023 A 
ATOM      5  C4  UNL d   1      -0.688  -1.084  -1.331  0.00  0.00     0.048 A 
ATOM      6  C5  UNL d   1      -0.987  -1.983  -2.357  0.00  0.00     0.003 A 
ATOM      7  I   UNL d   1       0.955   0.974   0.156  0.00  0.00    -0.146 I 
ENDROOT
TORSDOF 0
ENDMDL
