MODEL 1
REMARK minimizedAffinity 0.303406507
REMARK minimizedRMSD -1
REMARK  0 active torsions:
REMARK  status: ('A' for Active; 'I' for Inactive)
ROOT
ATOM      1  C   UNL d   1       0.641  -0.646  -3.377  0.00  0.00     0.023 A 
ATOM      2  C1  UNL d   1       1.497  -1.458  -2.632  0.00  0.00     0.003 A 
ATOM      3  C2  UNL d   1       1.617  -1.269  -1.254  0.00  0.00     0.048 A 
ATOM      4  C3  UNL d   1       0.878  -0.267  -0.626  0.00  0.00     0.023 A 
ATOM      5  C4  UNL d   1       0.020   0.548  -1.368  0.00  0.00     0.048 A 
ATOM      6  C5  UNL d   1      -0.096   0.355  -2.746  0.00  0.00     0.003 A 
ATOM      7  I   UNL d   1       1.054   0.016   1.425  0.00  0.00    -0.146 I 
ENDROOT
TORSDOF 0
ENDMDL
