MODEL 1
REMARK minimizedAffinity -4.1967535
REMARK minimizedRMSD -1
REMARK  0 active torsions:
REMARK  status: ('A' for Active; 'I' for Inactive)
ROOT
ATOM      1  C   UNL d   1      -1.565  -0.306   2.876  0.00  0.00     0.023 A 
ATOM      2  C1  UNL d   1      -0.178  -0.355   2.740  0.00  0.00     0.003 A 
ATOM      3  C2  UNL d   1       0.408  -0.203   1.481  0.00  0.00     0.048 A 
ATOM      4  C3  UNL d   1      -0.400  -0.001   0.363  0.00  0.00     0.023 A 
ATOM      5  C4  UNL d   1      -1.789   0.050   0.494  0.00  0.00     0.048 A 
ATOM      6  C5  UNL d   1      -2.370  -0.104   1.754  0.00  0.00     0.003 A 
ATOM      7  I   UNL d   1       0.469   0.225  -1.512  0.00  0.00    -0.146 I 
ENDROOT
TORSDOF 0
ENDMDL
