MODEL 1
REMARK minimizedAffinity -2.65032911
REMARK minimizedRMSD -1
REMARK  0 active torsions:
REMARK  status: ('A' for Active; 'I' for Inactive)
ROOT
ATOM      1  C   UNL d   1      -1.748   0.623   2.594  0.00  0.00     0.023 A 
ATOM      2  C1  UNL d   1      -0.387   0.316   2.568  0.00  0.00     0.003 A 
ATOM      3  C2  UNL d   1       0.288   0.231   1.349  0.00  0.00     0.048 A 
ATOM      4  C3  UNL d   1      -0.404   0.454   0.159  0.00  0.00     0.023 A 
ATOM      5  C4  UNL d   1      -1.765   0.762   0.180  0.00  0.00     0.048 A 
ATOM      6  C5  UNL d   1      -2.436   0.846   1.401  0.00  0.00     0.003 A 
ATOM      7  I   UNL d   1       0.599   0.328  -1.658  0.00  0.00    -0.146 I 
ENDROOT
TORSDOF 0
ENDMDL
