MODEL 1
REMARK minimizedAffinity -2.94009185
REMARK minimizedRMSD -1
REMARK  0 active torsions:
REMARK  status: ('A' for Active; 'I' for Inactive)
ROOT
ATOM      1  C   UNL d   1       1.883   0.229   1.135  0.00  0.00     0.023 A 
ATOM      2  C1  UNL d   1       0.999   0.194   2.215  0.00  0.00     0.003 A 
ATOM      3  C2  UNL d   1      -0.372   0.351   2.002  0.00  0.00     0.048 A 
ATOM      4  C3  UNL d   1      -0.853   0.541   0.707  0.00  0.00     0.023 A 
ATOM      5  C4  UNL d   1       0.027   0.576  -0.376  0.00  0.00     0.048 A 
ATOM      6  C5  UNL d   1       1.397   0.420  -0.158  0.00  0.00     0.003 A 
ATOM      7  I   UNL d   1      -2.893   0.775   0.388  0.00  0.00    -0.146 I 
ENDROOT
TORSDOF 0
ENDMDL
