MODEL 1
REMARK minimizedAffinity -3.512115
REMARK minimizedRMSD -1
REMARK  0 active torsions:
REMARK  status: ('A' for Active; 'I' for Inactive)
ROOT
ATOM      1  C   UNL d   1       0.912   0.104   0.990  0.00  0.00     0.023 A 
ATOM      2  C1  UNL d   1       0.535   0.118   2.333  0.00  0.00     0.003 A 
ATOM      3  C2  UNL d   1      -0.794   0.363   2.684  0.00  0.00     0.048 A 
ATOM      4  C3  UNL d   1      -1.741   0.593   1.686  0.00  0.00     0.023 A 
ATOM      5  C4  UNL d   1      -1.368   0.579   0.341  0.00  0.00     0.048 A 
ATOM      6  C5  UNL d   1      -0.038   0.334  -0.004  0.00  0.00     0.003 A 
ATOM      7  I   UNL d   1      -3.720   0.957   2.205  0.00  0.00    -0.146 I 
ENDROOT
TORSDOF 0
ENDMDL
