MODEL 1
REMARK minimizedAffinity 6.92818451
REMARK minimizedRMSD -1
REMARK  1 active torsions:
REMARK  status: ('A' for Active; 'I' for Inactive)
REMARK    1  A    between atoms: C1_2  and  C2_3 
ROOT
ATOM      1  C2  UNL d   1       4.739   5.739  -3.239  0.00  0.00    -0.081 A 
ATOM      2  C3  UNL d   1       4.853   5.942  -1.858  0.00  0.00     0.006 A 
ATOM      3  C4  UNL d   1       3.779   5.660  -1.010  0.00  0.00     0.002 A 
ATOM      4  C5  UNL d   1       2.577   5.164  -1.528  0.00  0.00    -0.080 A 
ATOM      5  C6  UNL d   1       1.427   4.828  -0.625  0.00  0.00     0.076 C 
ATOM      6  C7  UNL d   1       2.458   4.977  -2.909  0.00  0.00     0.002 A 
ATOM      7  C8  UNL d   1       3.531   5.260  -3.757  0.00  0.00     0.006 A 
ENDROOT
BRANCH   1   8
ATOM      8  C1  UNL d   1       5.917   5.981  -4.148  0.00  0.00     0.054 C 
ATOM      9  C   UNL d   1       5.998   4.925  -5.241  0.00  0.00     0.018 C 
ENDBRANCH   1   8
TORSDOF 1
ENDMDL
