MODEL 1
REMARK minimizedAffinity 3.42828035
REMARK minimizedRMSD -1
REMARK  1 active torsions:
REMARK  status: ('A' for Active; 'I' for Inactive)
REMARK    1  A    between atoms: C1_2  and  C2_3 
ROOT
ATOM      1  C2  UNL d   1       2.579   0.530   1.487  0.00  0.00    -0.081 A 
ATOM      2  C3  UNL d   1       3.635   1.147   0.806  0.00  0.00     0.006 A 
ATOM      3  C4  UNL d   1       3.419   2.315   0.072  0.00  0.00     0.002 A 
ATOM      4  C5  UNL d   1       2.145   2.890   0.013  0.00  0.00    -0.080 A 
ATOM      5  C6  UNL d   1       1.905   4.161  -0.747  0.00  0.00     0.076 C 
ATOM      6  C7  UNL d   1       1.085   2.264   0.678  0.00  0.00     0.002 A 
ATOM      7  C8  UNL d   1       1.301   1.096   1.412  0.00  0.00     0.006 A 
ENDROOT
BRANCH   1   8
ATOM      8  C1  UNL d   1       2.823  -0.694   2.332  0.00  0.00     0.054 C 
ATOM      9  C   UNL d   1       1.522  -1.241   2.902  0.00  0.00     0.018 C 
ENDBRANCH   1   8
TORSDOF 1
ENDMDL
