MODEL 1
REMARK minimizedAffinity 18.3930225
REMARK minimizedRMSD -1
REMARK  1 active torsions:
REMARK  status: ('A' for Active; 'I' for Inactive)
REMARK    1  A    between atoms: C1_2  and  C2_3 
ROOT
ATOM      1  C2  UNL d   1      -5.096  -3.776  -5.581  0.00  0.00    -0.081 A 
ATOM      2  C3  UNL d   1      -5.973  -2.767  -5.996  0.00  0.00     0.006 A 
ATOM      3  C4  UNL d   1      -5.722  -1.432  -5.668  0.00  0.00     0.002 A 
ATOM      4  C5  UNL d   1      -4.587  -1.084  -4.928  0.00  0.00    -0.080 A 
ATOM      5  C6  UNL d   1      -4.291   0.348  -4.595  0.00  0.00     0.076 C 
ATOM      6  C7  UNL d   1      -3.720  -2.094  -4.498  0.00  0.00     0.002 A 
ATOM      7  C8  UNL d   1      -3.971  -3.429  -4.824  0.00  0.00     0.006 A 
ENDROOT
BRANCH   1   8
ATOM      8  C1  UNL d   1      -5.329  -5.209  -5.987  0.00  0.00     0.054 C 
ATOM      9  C   UNL d   1      -5.998  -5.999  -4.871  0.00  0.00     0.018 C 
ENDBRANCH   1   8
TORSDOF 1
ENDMDL
