MODEL 1
REMARK minimizedAffinity 14.3965225
REMARK minimizedRMSD -1
REMARK  1 active torsions:
REMARK  status: ('A' for Active; 'I' for Inactive)
REMARK    1  A    between atoms: C1_2  and  C2_3 
ROOT
ATOM      1  C2  UNL d   1      -3.142   2.301  -0.240  0.00  0.00    -0.081 A 
ATOM      2  C3  UNL d   1      -3.558   2.974  -1.395  0.00  0.00     0.006 A 
ATOM      3  C4  UNL d   1      -3.555   2.326  -2.633  0.00  0.00     0.002 A 
ATOM      4  C5  UNL d   1      -3.144   0.993  -2.734  0.00  0.00    -0.080 A 
ATOM      5  C6  UNL d   1      -3.164   0.276  -4.052  0.00  0.00     0.076 C 
ATOM      6  C7  UNL d   1      -2.711   0.326  -1.583  0.00  0.00     0.002 A 
ATOM      7  C8  UNL d   1      -2.713   0.973  -0.346  0.00  0.00     0.006 A 
ENDROOT
BRANCH   1   8
ATOM      8  C1  UNL d   1      -3.205   2.977   1.106  0.00  0.00     0.054 C 
ATOM      9  C   UNL d   1      -4.642   3.289   1.501  0.00  0.00     0.018 C 
ENDBRANCH   1   8
TORSDOF 1
ENDMDL
