MODEL 1
REMARK minimizedAffinity 10.7805891
REMARK minimizedRMSD -1
REMARK  1 active torsions:
REMARK  status: ('A' for Active; 'I' for Inactive)
REMARK    1  A    between atoms: C1_2  and  C2_3 
ROOT
ATOM      1  C2  UNL d   1       2.293  -1.565   2.624  0.00  0.00    -0.081 A 
ATOM      2  C3  UNL d   1       2.453  -0.271   2.112  0.00  0.00     0.006 A 
ATOM      3  C4  UNL d   1       1.430   0.330   1.375  0.00  0.00     0.002 A 
ATOM      4  C5  UNL d   1       0.228  -0.349   1.144  0.00  0.00    -0.080 A 
ATOM      5  C6  UNL d   1      -0.889   0.296   0.380  0.00  0.00     0.076 C 
ATOM      6  C7  UNL d   1       0.076  -1.648   1.640  0.00  0.00     0.002 A 
ATOM      7  C8  UNL d   1       1.098  -2.250   2.377  0.00  0.00     0.006 A 
ENDROOT
BRANCH   1   8
ATOM      8  C1  UNL d   1       3.369  -2.191   3.474  0.00  0.00     0.054 C 
ATOM      9  C   UNL d   1       4.713  -2.183   2.760  0.00  0.00     0.018 C 
ENDBRANCH   1   8
TORSDOF 1
ENDMDL
