MODEL 1
REMARK minimizedAffinity 9.21190834
REMARK minimizedRMSD -1
REMARK  1 active torsions:
REMARK  status: ('A' for Active; 'I' for Inactive)
REMARK    1  A    between atoms: C1_2  and  C2_3 
ROOT
ATOM      1  C2  UNL d   1       4.082  -3.399   4.121  0.00  0.00    -0.081 A 
ATOM      2  C3  UNL d   1       3.778  -4.514   4.912  0.00  0.00     0.006 A 
ATOM      3  C4  UNL d   1       2.450  -4.846   5.187  0.00  0.00     0.002 A 
ATOM      4  C5  UNL d   1       1.403  -4.075   4.670  0.00  0.00    -0.080 A 
ATOM      5  C6  UNL d   1      -0.028  -4.439   4.932  0.00  0.00     0.076 C 
ATOM      6  C7  UNL d   1       1.707  -2.951   3.894  0.00  0.00     0.002 A 
ATOM      7  C8  UNL d   1       3.035  -2.618   3.619  0.00  0.00     0.006 A 
ENDROOT
BRANCH   1   8
ATOM      8  C1  UNL d   1       5.512  -3.075   3.770  0.00  0.00     0.054 C 
ATOM      9  C   UNL d   1       5.997  -3.916   2.597  0.00  0.00     0.018 C 
ENDBRANCH   1   8
TORSDOF 1
ENDMDL
