MODEL 1
REMARK minimizedAffinity 2.66009498
REMARK minimizedRMSD -1
REMARK  1 active torsions:
REMARK  status: ('A' for Active; 'I' for Inactive)
REMARK    1  A    between atoms: C1_2  and  C2_3 
ROOT
ATOM      1  C2  UNL d   1       2.434  -2.837   3.575  0.00  0.00    -0.081 A 
ATOM      2  C3  UNL d   1       2.360  -3.893   4.492  0.00  0.00     0.006 A 
ATOM      3  C4  UNL d   1       3.514  -4.365   5.122  0.00  0.00     0.002 A 
ATOM      4  C5  UNL d   1       4.758  -3.785   4.853  0.00  0.00    -0.080 A 
ATOM      5  C6  UNL d   1       6.000  -4.263   5.546  0.00  0.00     0.076 C 
ATOM      6  C7  UNL d   1       4.835  -2.742   3.924  0.00  0.00     0.002 A 
ATOM      7  C8  UNL d   1       3.682  -2.270   3.293  0.00  0.00     0.006 A 
ENDROOT
BRANCH   1   8
ATOM      8  C1  UNL d   1       1.184  -2.283   2.942  0.00  0.00     0.054 C 
ATOM      9  C   UNL d   1       1.511  -1.188   1.936  0.00  0.00     0.018 C 
ENDBRANCH   1   8
TORSDOF 1
ENDMDL
