MODEL 1
REMARK minimizedAffinity 3.79574585
REMARK minimizedRMSD -1
REMARK  0 active torsions:
REMARK  status: ('A' for Active; 'I' for Inactive)
ROOT
ATOM      1  C   UNL d   1      -0.102   1.868   1.436  0.00  0.00     0.078 C 
ATOM      2  C1  UNL d   1      -1.348   1.680   2.248  0.00  0.00    -0.077 A 
ATOM      3  C2  UNL d   1      -2.018   0.450   2.267  0.00  0.00    -0.001 A 
ATOM      4  C3  UNL d   1      -3.182   0.292   3.020  0.00  0.00     0.003 A 
ATOM      5  C4  UNL d   1      -3.688   1.359   3.759  0.00  0.00    -0.005 A 
ATOM      6  C5  UNL d   1      -3.029   2.587   3.745  0.00  0.00     0.003 A 
ATOM      7  C6  UNL d   1      -1.865   2.747   2.993  0.00  0.00    -0.001 A 
ENDROOT
TORSDOF 0
ENDMDL
