MODEL 1
REMARK minimizedAffinity -6.06274462
REMARK minimizedRMSD -1
REMARK  0 active torsions:
REMARK  status: ('A' for Active; 'I' for Inactive)
ROOT
ATOM      1  C   UNL d   1      -2.773   1.503   3.184  0.00  0.00     0.078 C 
ATOM      2  C1  UNL d   1      -1.744   0.869   2.296  0.00  0.00    -0.077 A 
ATOM      3  C2  UNL d   1      -0.569   1.550   1.953  0.00  0.00    -0.001 A 
ATOM      4  C3  UNL d   1       0.375   0.951   1.118  0.00  0.00     0.003 A 
ATOM      5  C4  UNL d   1       0.155  -0.331   0.619  0.00  0.00    -0.005 A 
ATOM      6  C5  UNL d   1      -1.011  -1.016   0.953  0.00  0.00     0.003 A 
ATOM      7  C6  UNL d   1      -1.957  -0.418   1.788  0.00  0.00    -0.001 A 
ENDROOT
TORSDOF 0
ENDMDL
