MODEL 1
REMARK minimizedAffinity -4.77901506
REMARK minimizedRMSD -1
REMARK  0 active torsions:
REMARK  status: ('A' for Active; 'I' for Inactive)
ROOT
ATOM      1  C   UNL d   1      -2.617   2.101   3.026  0.00  0.00     0.078 C 
ATOM      2  C1  UNL d   1      -1.549   1.398   2.244  0.00  0.00    -0.077 A 
ATOM      3  C2  UNL d   1      -1.417   0.004   2.294  0.00  0.00    -0.001 A 
ATOM      4  C3  UNL d   1      -0.412  -0.637   1.568  0.00  0.00     0.003 A 
ATOM      5  C4  UNL d   1       0.470   0.108   0.787  0.00  0.00    -0.005 A 
ATOM      6  C5  UNL d   1       0.349   1.495   0.733  0.00  0.00     0.003 A 
ATOM      7  C6  UNL d   1      -0.656   2.137   1.459  0.00  0.00    -0.001 A 
ENDROOT
TORSDOF 0
ENDMDL
