MODEL 1
REMARK minimizedAffinity -2.762218
REMARK minimizedRMSD -1
REMARK  0 active torsions:
REMARK  status: ('A' for Active; 'I' for Inactive)
ROOT
ATOM      1  C   UNL d   1      -2.860   2.109   2.813  0.00  0.00     0.078 C 
ATOM      2  C1  UNL d   1      -1.704   1.403   2.169  0.00  0.00    -0.077 A 
ATOM      3  C2  UNL d   1      -1.630   0.005   2.155  0.00  0.00    -0.001 A 
ATOM      4  C3  UNL d   1      -0.543  -0.638   1.560  0.00  0.00     0.003 A 
ATOM      5  C4  UNL d   1       0.477   0.109   0.975  0.00  0.00    -0.005 A 
ATOM      6  C5  UNL d   1       0.413   1.500   0.986  0.00  0.00     0.003 A 
ATOM      7  C6  UNL d   1      -0.672   2.146   1.580  0.00  0.00    -0.001 A 
ENDROOT
TORSDOF 0
ENDMDL
