MODEL 1
REMARK minimizedAffinity -1.44006073
REMARK minimizedRMSD -1
REMARK  0 active torsions:
REMARK  status: ('A' for Active; 'I' for Inactive)
ROOT
ATOM      1  C   UNL d   1      -2.649   2.218   3.331  0.00  0.00     0.078 C 
ATOM      2  C1  UNL d   1      -1.626   1.498   2.504  0.00  0.00    -0.077 A 
ATOM      3  C2  UNL d   1      -0.765   2.199   1.651  0.00  0.00    -0.001 A 
ATOM      4  C3  UNL d   1       0.176   1.514   0.880  0.00  0.00     0.003 A 
ATOM      5  C4  UNL d   1       0.265   0.126   0.954  0.00  0.00    -0.005 A 
ATOM      6  C5  UNL d   1      -0.589  -0.581   1.799  0.00  0.00     0.003 A 
ATOM      7  C6  UNL d   1      -1.531   0.102   2.570  0.00  0.00    -0.001 A 
ENDROOT
TORSDOF 0
ENDMDL
