MODEL 1
REMARK minimizedAffinity -2.980685
REMARK minimizedRMSD -1
REMARK  0 active torsions:
REMARK  status: ('A' for Active; 'I' for Inactive)
ROOT
ATOM      1  C   UNL d   1      -1.836   2.316   2.611  0.00  0.00     0.078 C 
ATOM      2  C1  UNL d   1      -0.634   1.653   2.006  0.00  0.00    -0.077 A 
ATOM      3  C2  UNL d   1      -0.144   0.445   2.515  0.00  0.00    -0.001 A 
ATOM      4  C3  UNL d   1       0.981  -0.155   1.948  0.00  0.00     0.003 A 
ATOM      5  C4  UNL d   1       1.627   0.446   0.869  0.00  0.00    -0.005 A 
ATOM      6  C5  UNL d   1       1.147   1.650   0.357  0.00  0.00     0.003 A 
ATOM      7  C6  UNL d   1       0.022   2.252   0.923  0.00  0.00    -0.001 A 
ENDROOT
TORSDOF 0
ENDMDL
