MODEL 1
REMARK minimizedAffinity 2.51961732
REMARK minimizedRMSD -1
REMARK  0 active torsions:
REMARK  status: ('A' for Active; 'I' for Inactive)
ROOT
ATOM      1  C   UNL d   1      -2.393   2.997   2.664  0.00  0.00     0.078 C 
ATOM      2  C1  UNL d   1      -1.195   2.335   2.052  0.00  0.00    -0.077 A 
ATOM      3  C2  UNL d   1      -0.127   3.093   1.556  0.00  0.00    -0.001 A 
ATOM      4  C3  UNL d   1       0.978   2.463   0.980  0.00  0.00     0.003 A 
ATOM      5  C4  UNL d   1       1.025   1.073   0.893  0.00  0.00    -0.005 A 
ATOM      6  C5  UNL d   1      -0.034   0.311   1.382  0.00  0.00     0.003 A 
ATOM      7  C6  UNL d   1      -1.140   0.939   1.958  0.00  0.00    -0.001 A 
ENDROOT
TORSDOF 0
ENDMDL
