MODEL 1
REMARK minimizedAffinity -5.9570117
REMARK minimizedRMSD -1
REMARK  0 active torsions:
REMARK  status: ('A' for Active; 'I' for Inactive)
ROOT
ATOM      1  C   UNL d   1       1.258   0.040   0.429  0.00  0.00     0.078 C 
ATOM      2  C1  UNL d   1      -0.057   0.390   1.058  0.00  0.00    -0.077 A 
ATOM      3  C2  UNL d   1      -0.984  -0.605   1.393  0.00  0.00    -0.001 A 
ATOM      4  C3  UNL d   1      -2.209  -0.264   1.969  0.00  0.00     0.003 A 
ATOM      5  C4  UNL d   1      -2.519   1.072   2.214  0.00  0.00    -0.005 A 
ATOM      6  C5  UNL d   1      -1.604   2.069   1.883  0.00  0.00     0.003 A 
ATOM      7  C6  UNL d   1      -0.378   1.730   1.307  0.00  0.00    -0.001 A 
ENDROOT
TORSDOF 0
ENDMDL
