MODEL 1
REMARK minimizedAffinity -4.63933229
REMARK minimizedRMSD -1
REMARK  0 active torsions:
REMARK  status: ('A' for Active; 'I' for Inactive)
ROOT
ATOM      1  C   UNL d   1       0.505   1.858   0.338  0.00  0.00     0.078 C 
ATOM      2  C1  UNL d   1      -0.672   1.526   1.206  0.00  0.00    -0.077 A 
ATOM      3  C2  UNL d   1      -1.089   0.200   1.379  0.00  0.00    -0.001 A 
ATOM      4  C3  UNL d   1      -2.192  -0.093   2.182  0.00  0.00     0.003 A 
ATOM      5  C4  UNL d   1      -2.888   0.933   2.818  0.00  0.00    -0.005 A 
ATOM      6  C5  UNL d   1      -2.482   2.255   2.650  0.00  0.00     0.003 A 
ATOM      7  C6  UNL d   1      -1.379   2.551   1.847  0.00  0.00    -0.001 A 
ENDROOT
TORSDOF 0
ENDMDL
