MODEL 1
REMARK minimizedAffinity -2.31764722
REMARK minimizedRMSD -1
REMARK  0 active torsions:
REMARK  status: ('A' for Active; 'I' for Inactive)
ROOT
ATOM      1  C   UNL d   1       1.224  -4.459  -3.770  0.00  0.00     0.078 C 
ATOM      2  C1  UNL d   1      -0.027  -3.935  -3.130  0.00  0.00    -0.077 A 
ATOM      3  C2  UNL d   1      -0.872  -3.053  -3.814  0.00  0.00    -0.001 A 
ATOM      4  C3  UNL d   1      -2.028  -2.566  -3.203  0.00  0.00     0.003 A 
ATOM      5  C4  UNL d   1      -2.349  -2.954  -1.903  0.00  0.00    -0.005 A 
ATOM      6  C5  UNL d   1      -1.513  -3.830  -1.214  0.00  0.00     0.003 A 
ATOM      7  C6  UNL d   1      -0.356  -4.318  -1.824  0.00  0.00    -0.001 A 
ENDROOT
TORSDOF 0
ENDMDL
