MODEL 1
REMARK minimizedAffinity -3.38533616
REMARK minimizedRMSD -1
REMARK  0 active torsions:
REMARK  status: ('A' for Active; 'I' for Inactive)
ROOT
ATOM      1  C   UNL d   1      -3.241   1.904   3.928  0.00  0.00     0.078 C 
ATOM      2  C1  UNL d   1      -2.136   1.531   2.985  0.00  0.00    -0.077 A 
ATOM      3  C2  UNL d   1      -1.949   0.203   2.583  0.00  0.00    -0.001 A 
ATOM      4  C3  UNL d   1      -0.910  -0.132   1.713  0.00  0.00     0.003 A 
ATOM      5  C4  UNL d   1      -0.050   0.856   1.238  0.00  0.00    -0.005 A 
ATOM      6  C5  UNL d   1      -0.227   2.180   1.634  0.00  0.00     0.003 A 
ATOM      7  C6  UNL d   1      -1.265   2.517   2.505  0.00  0.00    -0.001 A 
ENDROOT
TORSDOF 0
ENDMDL
