MODEL 1
REMARK minimizedAffinity -1.87353182
REMARK minimizedRMSD -1
REMARK  0 active torsions:
REMARK  status: ('A' for Active; 'I' for Inactive)
ROOT
ATOM      1  C   UNL d   1      -3.303   1.871   3.726  0.00  0.00     0.078 C 
ATOM      2  C1  UNL d   1      -2.233   1.883   2.675  0.00  0.00    -0.077 A 
ATOM      3  C2  UNL d   1      -1.957   3.041   1.939  0.00  0.00    -0.001 A 
ATOM      4  C3  UNL d   1      -0.965   3.035   0.957  0.00  0.00     0.003 A 
ATOM      5  C4  UNL d   1      -0.242   1.872   0.702  0.00  0.00    -0.005 A 
ATOM      6  C5  UNL d   1      -0.510   0.713   1.427  0.00  0.00     0.003 A 
ATOM      7  C6  UNL d   1      -1.502   0.718   2.409  0.00  0.00    -0.001 A 
ENDROOT
TORSDOF 0
ENDMDL
