MODEL 1
REMARK minimizedAffinity 0.922478795
REMARK minimizedRMSD -1
REMARK  0 active torsions:
REMARK  status: ('A' for Active; 'I' for Inactive)
ROOT
ATOM      1  C   UNL d   1       0.218   2.503   1.458  0.00  0.00     0.172 C 
ATOM      2  N   UNL d   1       0.153   2.981   0.097  0.00  0.00    -0.070 N 
ATOM      3  C1  UNL d   1      -0.950   2.938  -0.713  0.00  0.00    -0.004 A 
ATOM      4  C2  UNL d   1      -0.604   3.490  -1.927  0.00  0.00    -0.047 A 
ATOM      5  C3  UNL d   1       0.754   3.878  -1.844  0.00  0.00    -0.047 A 
ATOM      6  C4  UNL d   1       1.198   3.552  -0.580  0.00  0.00    -0.004 A 
ENDROOT
TORSDOF 0
ENDMDL
