MODEL 1
REMARK minimizedAffinity 7.43593168
REMARK minimizedRMSD -1
REMARK  0 active torsions:
REMARK  status: ('A' for Active; 'I' for Inactive)
ROOT
ATOM      1  C   UNL d   1       2.488  -5.841  -1.266  0.00  0.00     0.172 C 
ATOM      2  N   UNL d   1       1.444  -4.907  -1.614  0.00  0.00    -0.070 N 
ATOM      3  C1  UNL d   1       0.883  -4.762  -2.855  0.00  0.00    -0.004 A 
ATOM      4  C2  UNL d   1      -0.073  -3.772  -2.774  0.00  0.00    -0.047 A 
ATOM      5  C3  UNL d   1      -0.087  -3.306  -1.438  0.00  0.00    -0.047 A 
ATOM      6  C4  UNL d   1       0.861  -4.025  -0.742  0.00  0.00    -0.004 A 
ENDROOT
TORSDOF 0
ENDMDL
