MODEL 1
REMARK minimizedAffinity -1.57771671
REMARK minimizedRMSD -1
REMARK  0 active torsions:
REMARK  status: ('A' for Active; 'I' for Inactive)
ROOT
ATOM      1  C   UNL d   1      -2.431  -4.872  -4.321  0.00  0.00     0.172 C 
ATOM      2  N   UNL d   1      -3.764  -4.971  -4.866  0.00  0.00    -0.070 N 
ATOM      3  C1  UNL d   1      -4.354  -4.062  -5.704  0.00  0.00    -0.004 A 
ATOM      4  C2  UNL d   1      -5.621  -4.518  -5.997  0.00  0.00    -0.047 A 
ATOM      5  C3  UNL d   1      -5.799  -5.743  -5.310  0.00  0.00    -0.047 A 
ATOM      6  C4  UNL d   1      -4.635  -6.000  -4.619  0.00  0.00    -0.004 A 
ENDROOT
TORSDOF 0
ENDMDL
