MODEL 1
REMARK minimizedAffinity 8.20421505
REMARK minimizedRMSD -1
REMARK  0 active torsions:
REMARK  status: ('A' for Active; 'I' for Inactive)
ROOT
ATOM      1  C   UNL d   1       2.800  -1.509  -0.088  0.00  0.00     0.172 C 
ATOM      2  N   UNL d   1       2.059  -2.567  -0.733  0.00  0.00    -0.070 N 
ATOM      3  C1  UNL d   1       1.380  -3.570  -0.095  0.00  0.00    -0.004 A 
ATOM      4  C2  UNL d   1       0.809  -4.373  -1.059  0.00  0.00    -0.047 A 
ATOM      5  C3  UNL d   1       1.157  -3.834  -2.320  0.00  0.00    -0.047 A 
ATOM      6  C4  UNL d   1       1.931  -2.716  -2.089  0.00  0.00    -0.004 A 
ENDROOT
TORSDOF 0
ENDMDL
