MODEL 1
REMARK minimizedAffinity 8.98618317
REMARK minimizedRMSD -1
REMARK  0 active torsions:
REMARK  status: ('A' for Active; 'I' for Inactive)
ROOT
ATOM      1  C   UNL d   1      -4.281   1.245  -5.582  0.00  0.00     0.172 C 
ATOM      2  N   UNL d   1      -4.075   2.308  -4.626  0.00  0.00    -0.070 N 
ATOM      3  C1  UNL d   1      -4.709   2.429  -3.418  0.00  0.00    -0.004 A 
ATOM      4  C2  UNL d   1      -4.238   3.570  -2.807  0.00  0.00    -0.047 A 
ATOM      5  C3  UNL d   1      -3.289   4.156  -3.677  0.00  0.00    -0.047 A 
ATOM      6  C4  UNL d   1      -3.207   3.354  -4.796  0.00  0.00    -0.004 A 
ENDROOT
TORSDOF 0
ENDMDL
