MODEL 1
REMARK minimizedAffinity 4.92553091
REMARK minimizedRMSD -1
REMARK  0 active torsions:
REMARK  status: ('A' for Active; 'I' for Inactive)
ROOT
ATOM      1  C   UNL d   1       0.004  -0.415   4.326  0.00  0.00     0.172 C 
ATOM      2  N   UNL d   1       0.885  -1.484   4.733  0.00  0.00    -0.070 N 
ATOM      3  C1  UNL d   1       1.782  -2.130   3.925  0.00  0.00    -0.004 A 
ATOM      4  C2  UNL d   1       2.428  -3.080   4.687  0.00  0.00    -0.047 A 
ATOM      5  C3  UNL d   1       1.901  -3.003   5.997  0.00  0.00    -0.047 A 
ATOM      6  C4  UNL d   1       0.947  -2.007   5.998  0.00  0.00    -0.004 A 
ENDROOT
TORSDOF 0
ENDMDL
