MODEL 1
REMARK minimizedAffinity 6.65051746
REMARK minimizedRMSD -1
REMARK  0 active torsions:
REMARK  status: ('A' for Active; 'I' for Inactive)
ROOT
ATOM      1  C   UNL d   1       5.999  -4.852  -0.011  0.00  0.00     0.172 C 
ATOM      2  N   UNL d   1       5.357  -3.564   0.105  0.00  0.00    -0.070 N 
ATOM      3  C1  UNL d   1       4.023  -3.354   0.332  0.00  0.00    -0.004 A 
ATOM      4  C2  UNL d   1       3.811  -1.993   0.375  0.00  0.00    -0.047 A 
ATOM      5  C3  UNL d   1       5.060  -1.363   0.166  0.00  0.00    -0.047 A 
ATOM      6  C4  UNL d   1       6.000  -2.358   0.002  0.00  0.00    -0.004 A 
ENDROOT
TORSDOF 0
ENDMDL
