MODEL 1
REMARK minimizedAffinity 5.89482164
REMARK minimizedRMSD -1
REMARK  0 active torsions:
REMARK  status: ('A' for Active; 'I' for Inactive)
ROOT
ATOM      1  C   UNL d   1       5.930  -2.416  -0.269  0.00  0.00     0.172 C 
ATOM      2  N   UNL d   1       5.956  -3.780  -0.743  0.00  0.00    -0.070 N 
ATOM      3  C1  UNL d   1       5.965  -4.900   0.045  0.00  0.00    -0.004 A 
ATOM      4  C2  UNL d   1       5.991  -6.000  -0.785  0.00  0.00    -0.047 A 
ATOM      5  C3  UNL d   1       6.000  -5.525  -2.118  0.00  0.00    -0.047 A 
ATOM      6  C4  UNL d   1       5.978  -4.147  -2.063  0.00  0.00    -0.004 A 
ENDROOT
TORSDOF 0
ENDMDL
