MODEL 1
REMARK minimizedAffinity 6.50686169
REMARK minimizedRMSD -1
REMARK  0 active torsions:
REMARK  status: ('A' for Active; 'I' for Inactive)
ROOT
ATOM      1  C   UNL d   1       0.508  -3.825  -1.502  0.00  0.00     0.172 C 
ATOM      2  N   UNL d   1       1.457  -3.017  -0.773  0.00  0.00    -0.070 N 
ATOM      3  C1  UNL d   1       1.932  -1.794  -1.165  0.00  0.00    -0.004 A 
ATOM      4  C2  UNL d   1       2.813  -1.354  -0.201  0.00  0.00    -0.047 A 
ATOM      5  C3  UNL d   1       2.871  -2.348   0.805  0.00  0.00    -0.047 A 
ATOM      6  C4  UNL d   1       2.022  -3.366   0.425  0.00  0.00    -0.004 A 
ENDROOT
TORSDOF 0
ENDMDL
