MODEL 1
REMARK minimizedAffinity -3.87099838
REMARK minimizedRMSD -1
REMARK  0 active torsions:
REMARK  status: ('A' for Active; 'I' for Inactive)
ROOT
ATOM      1  C   UNL d   1      -1.874   2.082   0.933  0.00  0.00     0.020 A 
ATOM      2  C1  UNL d   1      -1.709   1.836  -0.430  0.00  0.00     0.020 A 
ATOM      3  C2  UNL d   1      -0.805   0.863  -0.859  0.00  0.00     0.034 A 
ATOM      4  C3  UNL d   1      -0.062   0.132   0.075  0.00  0.00     0.017 A 
ATOM      5  C4  UNL d   1      -0.228   0.379   1.442  0.00  0.00     0.017 A 
ATOM      6  C5  UNL d   1      -1.135   1.355   1.867  0.00  0.00     0.034 A 
ATOM      7 Cl   UNL d   1       0.653  -0.482   2.654  0.00  0.00    -0.070 Cl
ATOM      8 Cl1  UNL d   1       1.038  -1.057  -0.527  0.00  0.00    -0.070 Cl
ENDROOT
TORSDOF 0
ENDMDL
