MODEL 1
REMARK minimizedAffinity -2.34420061
REMARK minimizedRMSD -1
REMARK  0 active torsions:
REMARK  status: ('A' for Active; 'I' for Inactive)
ROOT
ATOM      1  C   UNL d   1       0.724  -3.690  -1.501  0.00  0.00     0.020 A 
ATOM      2  C1  UNL d   1      -0.432  -3.796  -0.728  0.00  0.00     0.020 A 
ATOM      3  C2  UNL d   1      -0.933  -2.674  -0.064  0.00  0.00     0.034 A 
ATOM      4  C3  UNL d   1      -0.278  -1.442  -0.172  0.00  0.00     0.017 A 
ATOM      5  C4  UNL d   1       0.882  -1.336  -0.948  0.00  0.00     0.017 A 
ATOM      6  C5  UNL d   1       1.379  -2.463  -1.611  0.00  0.00     0.034 A 
ATOM      7 Cl   UNL d   1       1.745   0.150  -1.129  0.00  0.00    -0.070 Cl
ATOM      8 Cl1  UNL d   1      -0.954  -0.096   0.676  0.00  0.00    -0.070 Cl
ENDROOT
TORSDOF 0
ENDMDL
