MODEL 1
REMARK minimizedAffinity -2.36789823
REMARK minimizedRMSD -1
REMARK  0 active torsions:
REMARK  status: ('A' for Active; 'I' for Inactive)
ROOT
ATOM      1  C   UNL d   1       0.145  -4.937  -1.890  0.00  0.00     0.020 A 
ATOM      2  C1  UNL d   1       0.889  -4.855  -0.713  0.00  0.00     0.020 A 
ATOM      3  C2  UNL d   1       1.448  -3.636  -0.324  0.00  0.00     0.034 A 
ATOM      4  C3  UNL d   1       1.264  -2.494  -1.111  0.00  0.00     0.017 A 
ATOM      5  C4  UNL d   1       0.517  -2.577  -2.292  0.00  0.00     0.017 A 
ATOM      6  C5  UNL d   1      -0.041  -3.800  -2.677  0.00  0.00     0.034 A 
ATOM      7 Cl   UNL d   1       0.246  -1.211  -3.315  0.00  0.00    -0.070 Cl
ATOM      8 Cl1  UNL d   1       1.983  -1.020  -0.569  0.00  0.00    -0.070 Cl
ENDROOT
TORSDOF 0
ENDMDL
