MODEL 1
REMARK minimizedAffinity -1.00416231
REMARK minimizedRMSD -1
REMARK  0 active torsions:
REMARK  status: ('A' for Active; 'I' for Inactive)
ROOT
ATOM      1  C   UNL d   1       1.055  -5.278  -1.146  0.00  0.00     0.020 A 
ATOM      2  C1  UNL d   1       1.685  -4.714  -0.038  0.00  0.00     0.020 A 
ATOM      3  C2  UNL d   1       1.647  -3.332   0.159  0.00  0.00     0.034 A 
ATOM      4  C3  UNL d   1       0.977  -2.509  -0.754  0.00  0.00     0.017 A 
ATOM      5  C4  UNL d   1       0.346  -3.076  -1.867  0.00  0.00     0.017 A 
ATOM      6  C5  UNL d   1       0.387  -4.460  -2.059  0.00  0.00     0.034 A 
ATOM      7 Cl   UNL d   1      -0.500  -2.126  -3.037  0.00  0.00    -0.070 Cl
ATOM      8 Cl1  UNL d   1       0.970  -0.809  -0.448  0.00  0.00    -0.070 Cl
ENDROOT
TORSDOF 0
ENDMDL
