MODEL 1
REMARK minimizedAffinity -2.99302745
REMARK minimizedRMSD -1
REMARK  0 active torsions:
REMARK  status: ('A' for Active; 'I' for Inactive)
ROOT
ATOM      1  C   UNL d   1      -2.348   1.523   0.099  0.00  0.00     0.020 A 
ATOM      2  C1  UNL d   1      -2.076   1.846   1.428  0.00  0.00     0.020 A 
ATOM      3  C2  UNL d   1      -0.957   1.303   2.063  0.00  0.00     0.034 A 
ATOM      4  C3  UNL d   1      -0.106   0.435   1.369  0.00  0.00     0.017 A 
ATOM      5  C4  UNL d   1      -0.380   0.112   0.035  0.00  0.00     0.017 A 
ATOM      6  C5  UNL d   1      -1.502   0.658  -0.596  0.00  0.00     0.034 A 
ATOM      7 Cl   UNL d   1       0.625  -0.951  -0.886  0.00  0.00    -0.070 Cl
ATOM      8 Cl1  UNL d   1       1.260  -0.198   2.217  0.00  0.00    -0.070 Cl
ENDROOT
TORSDOF 0
ENDMDL
