MODEL 1
REMARK minimizedAffinity -2.37704206
REMARK minimizedRMSD -1
REMARK  0 active torsions:
REMARK  status: ('A' for Active; 'I' for Inactive)
ROOT
ATOM      1  C   UNL d   1      -2.014   2.047   1.742  0.00  0.00     0.020 A 
ATOM      2  C1  UNL d   1      -2.090   1.916   0.356  0.00  0.00     0.020 A 
ATOM      3  C2  UNL d   1      -1.144   1.148  -0.325  0.00  0.00     0.034 A 
ATOM      4  C3  UNL d   1      -0.118   0.507   0.379  0.00  0.00     0.017 A 
ATOM      5  C4  UNL d   1      -0.042   0.639   1.770  0.00  0.00     0.017 A 
ATOM      6  C5  UNL d   1      -0.992   1.410   2.448  0.00  0.00     0.034 A 
ATOM      7 Cl   UNL d   1       1.194  -0.122   2.708  0.00  0.00    -0.070 Cl
ATOM      8 Cl1  UNL d   1       1.017  -0.428  -0.528  0.00  0.00    -0.070 Cl
ENDROOT
TORSDOF 0
ENDMDL
