MODEL 1
REMARK minimizedAffinity -1.39423907
REMARK minimizedRMSD -1
REMARK  0 active torsions:
REMARK  status: ('A' for Active; 'I' for Inactive)
ROOT
ATOM      1  C   UNL d   1      -0.746   1.448   2.483  0.00  0.00     0.020 A 
ATOM      2  C1  UNL d   1      -1.058   2.500   1.623  0.00  0.00     0.020 A 
ATOM      3  C2  UNL d   1      -1.139   2.277   0.247  0.00  0.00     0.034 A 
ATOM      4  C3  UNL d   1      -0.906   0.999  -0.274  0.00  0.00     0.017 A 
ATOM      5  C4  UNL d   1      -0.593  -0.056   0.590  0.00  0.00     0.017 A 
ATOM      6  C5  UNL d   1      -0.513   0.172   1.967  0.00  0.00     0.034 A 
ATOM      7 Cl   UNL d   1      -0.293  -1.661   0.021  0.00  0.00    -0.070 Cl
ATOM      8 Cl1  UNL d   1      -1.023   0.796  -1.986  0.00  0.00    -0.070 Cl
ENDROOT
TORSDOF 0
ENDMDL
