MODEL 1
REMARK minimizedAffinity 7.25584698
REMARK minimizedRMSD -1
REMARK  0 active torsions:
REMARK  status: ('A' for Active; 'I' for Inactive)
ROOT
ATOM      1  C   UNL d   1      -0.323  -0.130   3.231  0.00  0.00     0.020 A 
ATOM      2  C1  UNL d   1      -1.641  -0.097   2.777  0.00  0.00     0.020 A 
ATOM      3  C2  UNL d   1      -2.315   1.122   2.675  0.00  0.00     0.034 A 
ATOM      4  C3  UNL d   1      -1.670   2.313   3.027  0.00  0.00     0.017 A 
ATOM      5  C4  UNL d   1      -0.347   2.280   3.482  0.00  0.00     0.017 A 
ATOM      6  C5  UNL d   1       0.322   1.057   3.582  0.00  0.00     0.034 A 
ATOM      7 Cl   UNL d   1       0.514   3.709   3.934  0.00  0.00    -0.070 Cl
ATOM      8 Cl1  UNL d   1      -2.564   3.785   2.875  0.00  0.00    -0.070 Cl
ENDROOT
TORSDOF 0
ENDMDL
