MODEL 1
REMARK minimizedAffinity -2.57788563
REMARK minimizedRMSD -1
REMARK  0 active torsions:
REMARK  status: ('A' for Active; 'I' for Inactive)
ROOT
ATOM      1  C   UNL d   1      -2.180   2.442   1.473  0.00  0.00     0.020 A 
ATOM      2  C1  UNL d   1      -1.321   1.883   2.417  0.00  0.00     0.020 A 
ATOM      3  C2  UNL d   1      -0.426   0.880   2.040  0.00  0.00     0.034 A 
ATOM      4  C3  UNL d   1      -0.388   0.433   0.714  0.00  0.00     0.017 A 
ATOM      5  C4  UNL d   1      -1.251   0.995  -0.234  0.00  0.00     0.017 A 
ATOM      6  C5  UNL d   1      -2.145   1.999   0.150  0.00  0.00     0.034 A 
ATOM      7 Cl   UNL d   1      -1.263   0.496  -1.889  0.00  0.00    -0.070 Cl
ATOM      8 Cl1  UNL d   1       0.745  -0.810   0.317  0.00  0.00    -0.070 Cl
ENDROOT
TORSDOF 0
ENDMDL
