MODEL 1
REMARK minimizedAffinity 3.81261683
REMARK minimizedRMSD -1
REMARK  0 active torsions:
REMARK  status: ('A' for Active; 'I' for Inactive)
ROOT
ATOM      1  C   UNL d   1      -0.954   0.720   2.465  0.00  0.00     0.020 A 
ATOM      2  C1  UNL d   1      -0.791   2.049   2.075  0.00  0.00     0.020 A 
ATOM      3  C2  UNL d   1      -0.207   2.348   0.843  0.00  0.00     0.034 A 
ATOM      4  C3  UNL d   1       0.216   1.317  -0.004  0.00  0.00     0.017 A 
ATOM      5  C4  UNL d   1       0.051  -0.016   0.388  0.00  0.00     0.017 A 
ATOM      6  C5  UNL d   1      -0.534  -0.310   1.623  0.00  0.00     0.034 A 
ATOM      7 Cl   UNL d   1       0.548  -1.342  -0.603  0.00  0.00    -0.070 Cl
ATOM      8 Cl1  UNL d   1       0.929   1.760  -1.514  0.00  0.00    -0.070 Cl
ENDROOT
TORSDOF 0
ENDMDL
