MODEL 1
REMARK minimizedAffinity -3.92811847
REMARK minimizedRMSD -1
REMARK  0 active torsions:
REMARK  status: ('A' for Active; 'I' for Inactive)
ROOT
ATOM      1  C   UNL d   1       0.273   0.687  -1.754  0.00  0.00     0.020 A 
ATOM      2  C1  UNL d   1       1.053  -0.056  -0.869  0.00  0.00     0.020 A 
ATOM      3  C2  UNL d   1       0.780  -0.024   0.500  0.00  0.00     0.034 A 
ATOM      4  C3  UNL d   1      -0.277   0.754   0.988  0.00  0.00     0.017 A 
ATOM      5  C4  UNL d   1      -1.059   1.500   0.100  0.00  0.00     0.017 A 
ATOM      6  C5  UNL d   1      -0.781   1.464  -1.270  0.00  0.00     0.034 A 
ATOM      7 Cl   UNL d   1      -2.379   2.483   0.627  0.00  0.00    -0.070 Cl
ATOM      8 Cl1  UNL d   1      -0.558   0.747   2.693  0.00  0.00    -0.070 Cl
ENDROOT
TORSDOF 0
ENDMDL
