MODEL 1
REMARK minimizedAffinity 0.200962186
REMARK minimizedRMSD -1
REMARK  0 active torsions:
REMARK  status: ('A' for Active; 'I' for Inactive)
ROOT
ATOM      1  C   UNL d   1      -1.770   1.902   2.654  0.00  0.00     0.020 A 
ATOM      2  C1  UNL d   1      -2.709   2.192   1.665  0.00  0.00     0.020 A 
ATOM      3  C2  UNL d   1      -2.440   1.875   0.332  0.00  0.00     0.034 A 
ATOM      4  C3  UNL d   1      -1.229   1.266  -0.016  0.00  0.00     0.017 A 
ATOM      5  C4  UNL d   1      -0.287   0.975   0.978  0.00  0.00     0.017 A 
ATOM      6  C5  UNL d   1      -0.561   1.295   2.311  0.00  0.00     0.034 A 
ATOM      7 Cl   UNL d   1       1.230   0.225   0.625  0.00  0.00    -0.070 Cl
ATOM      8 Cl1  UNL d   1      -0.962   0.902  -1.684  0.00  0.00    -0.070 Cl
ENDROOT
TORSDOF 0
ENDMDL
