MODEL 1
REMARK minimizedAffinity 5.51677036
REMARK minimizedRMSD -1
REMARK  0 active torsions:
REMARK  status: ('A' for Active; 'I' for Inactive)
ROOT
ATOM      1  C   UNL d   1      -0.597   0.373   2.838  0.00  0.00     0.020 A 
ATOM      2  C1  UNL d   1      -1.186   1.525   2.318  0.00  0.00     0.020 A 
ATOM      3  C2  UNL d   1      -0.766   2.030   1.086  0.00  0.00     0.034 A 
ATOM      4  C3  UNL d   1       0.248   1.383   0.369  0.00  0.00     0.017 A 
ATOM      5  C4  UNL d   1       0.839   0.227   0.892  0.00  0.00     0.017 A 
ATOM      6  C5  UNL d   1       0.414  -0.274   2.126  0.00  0.00     0.034 A 
ATOM      7 Cl   UNL d   1       2.095  -0.627   0.066  0.00  0.00    -0.070 Cl
ATOM      8 Cl1  UNL d   1       0.718   2.062  -1.148  0.00  0.00    -0.070 Cl
ENDROOT
TORSDOF 0
ENDMDL
