MODEL 1
REMARK minimizedAffinity 1.6971103
REMARK minimizedRMSD -1
REMARK  0 active torsions:
REMARK  status: ('A' for Active; 'I' for Inactive)
ROOT
ATOM      1  C   UNL d   1      -0.491  -0.356  -4.973  0.00  0.00     0.020 A 
ATOM      2  C1  UNL d   1       0.690  -0.801  -4.380  0.00  0.00     0.020 A 
ATOM      3  C2  UNL d   1       0.955  -0.502  -3.042  0.00  0.00     0.034 A 
ATOM      4  C3  UNL d   1       0.039   0.245  -2.292  0.00  0.00     0.017 A 
ATOM      5  C4  UNL d   1      -1.146   0.691  -2.889  0.00  0.00     0.017 A 
ATOM      6  C5  UNL d   1      -1.407   0.389  -4.229  0.00  0.00     0.034 A 
ATOM      7 Cl   UNL d   1      -2.325   1.617  -2.028  0.00  0.00    -0.070 Cl
ATOM      8 Cl1  UNL d   1       0.432   0.578  -0.643  0.00  0.00    -0.070 Cl
ENDROOT
TORSDOF 0
ENDMDL
