MODEL 1
REMARK minimizedAffinity 0.21400474
REMARK minimizedRMSD -1
REMARK  0 active torsions:
REMARK  status: ('A' for Active; 'I' for Inactive)
ROOT
ATOM      1  C   UNL d   1       1.184  -0.002  -0.054  0.00  0.00     0.020 A 
ATOM      2  C1  UNL d   1       0.564   0.900  -0.918  0.00  0.00     0.020 A 
ATOM      3  C2  UNL d   1      -0.568   1.602  -0.500  0.00  0.00     0.034 A 
ATOM      4  C3  UNL d   1      -1.084   1.405   0.786  0.00  0.00     0.017 A 
ATOM      5  C4  UNL d   1      -0.461   0.500   1.653  0.00  0.00     0.017 A 
ATOM      6  C5  UNL d   1       0.672  -0.201   1.229  0.00  0.00     0.034 A 
ATOM      7 Cl   UNL d   1      -1.039   0.202   3.255  0.00  0.00    -0.070 Cl
ATOM      8 Cl1  UNL d   1      -2.486   2.308   1.237  0.00  0.00    -0.070 Cl
ENDROOT
TORSDOF 0
ENDMDL
