MODEL 1
REMARK minimizedAffinity 1.86682498
REMARK minimizedRMSD -1
REMARK  2 active torsions:
REMARK  status: ('A' for Active; 'I' for Inactive)
REMARK    1  A    between atoms: C1_2  and  C2_3 
REMARK    2  A    between atoms: C2_3  and  C3_4 
ROOT
ATOM      1  C3  UNL d   1       0.087  -0.753   1.236  0.00  0.00    -0.075 A 
ATOM      2  C4  UNL d   1       0.998   0.247   1.607  0.00  0.00     0.002 A 
ATOM      3  C5  UNL d   1       2.372   0.013   1.545  0.00  0.00     0.002 A 
ATOM      4  C6  UNL d   1       2.852  -1.225   1.122  0.00  0.00    -0.004 A 
ATOM      5  C7  UNL d   1       1.956  -2.231   0.767  0.00  0.00     0.002 A 
ATOM      6  C8  UNL d   1       0.581  -1.998   0.824  0.00  0.00     0.002 A 
ENDROOT
BRANCH   1   7
ATOM      7  C2  UNL d   1      -1.400  -0.496   1.273  0.00  0.00     0.056 C 
BRANCH   7   8
ATOM      8  C1  UNL d   1      -1.784   0.974   1.076  0.00  0.00     0.007 C 
ATOM      9  C   UNL d   1      -3.233   1.270   1.437  0.00  0.00     0.009 C 
ENDBRANCH   7   8
ENDBRANCH   1   7
TORSDOF 2
ENDMDL
