MODEL 1
REMARK minimizedAffinity 14.9589424
REMARK minimizedRMSD -1
REMARK  2 active torsions:
REMARK  status: ('A' for Active; 'I' for Inactive)
REMARK    1  A    between atoms: C1_2  and  C2_3 
REMARK    2  A    between atoms: C2_3  and  C3_4 
ROOT
ATOM      1  C3  UNL d   1       3.717  -0.207  -0.393  0.00  0.00    -0.075 A 
ATOM      2  C4  UNL d   1       3.608  -1.043   0.727  0.00  0.00     0.002 A 
ATOM      3  C5  UNL d   1       3.172  -0.535   1.951  0.00  0.00     0.002 A 
ATOM      4  C6  UNL d   1       2.849   0.815   2.073  0.00  0.00    -0.004 A 
ATOM      5  C7  UNL d   1       2.970   1.659   0.970  0.00  0.00     0.002 A 
ATOM      6  C8  UNL d   1       3.402   1.152  -0.256  0.00  0.00     0.002 A 
ENDROOT
BRANCH   1   7
ATOM      7  C2  UNL d   1       4.161  -0.757  -1.728  0.00  0.00     0.056 C 
BRANCH   7   8
ATOM      8  C1  UNL d   1       3.090  -0.681  -2.821  0.00  0.00     0.007 C 
ATOM      9  C   UNL d   1       2.114  -1.850  -2.787  0.00  0.00     0.009 C 
ENDBRANCH   7   8
ENDBRANCH   1   7
TORSDOF 2
ENDMDL
