MODEL 1
REMARK minimizedAffinity 9.18114281
REMARK minimizedRMSD -1
REMARK  2 active torsions:
REMARK  status: ('A' for Active; 'I' for Inactive)
REMARK    1  A    between atoms: C1_2  and  C2_3 
REMARK    2  A    between atoms: C2_3  and  C3_4 
ROOT
ATOM      1  C3  UNL d   1       0.800  -1.176   0.863  0.00  0.00    -0.075 A 
ATOM      2  C4  UNL d   1       0.972  -0.195   1.851  0.00  0.00     0.002 A 
ATOM      3  C5  UNL d   1       2.251   0.220   2.221  0.00  0.00     0.002 A 
ATOM      4  C6  UNL d   1       3.372  -0.346   1.619  0.00  0.00    -0.004 A 
ATOM      5  C7  UNL d   1       3.213  -1.333   0.648  0.00  0.00     0.002 A 
ATOM      6  C8  UNL d   1       1.934  -1.747   0.272  0.00  0.00     0.002 A 
ENDROOT
BRANCH   1   7
ATOM      7  C2  UNL d   1      -0.583  -1.608   0.436  0.00  0.00     0.056 C 
BRANCH   7   8
ATOM      8  C1  UNL d   1      -0.968  -1.159  -0.978  0.00  0.00     0.007 C 
ATOM      9  C   UNL d   1      -0.133  -1.821  -2.066  0.00  0.00     0.009 C 
ENDBRANCH   7   8
ENDBRANCH   1   7
TORSDOF 2
ENDMDL
