MODEL 1
REMARK minimizedAffinity -1.01666594
REMARK minimizedRMSD -1
REMARK  2 active torsions:
REMARK  status: ('A' for Active; 'I' for Inactive)
REMARK    1  A    between atoms: C1_2  and  C2_3 
REMARK    2  A    between atoms: C2_3  and  C3_4 
ROOT
ATOM      1  C3  UNL d   1      -2.652   1.736  -2.411  0.00  0.00    -0.075 A 
ATOM      2  C4  UNL d   1      -3.767   0.891  -2.514  0.00  0.00     0.002 A 
ATOM      3  C5  UNL d   1      -4.696   1.066  -3.540  0.00  0.00     0.002 A 
ATOM      4  C6  UNL d   1      -4.529   2.091  -4.468  0.00  0.00    -0.004 A 
ATOM      5  C7  UNL d   1      -3.434   2.947  -4.365  0.00  0.00     0.002 A 
ATOM      6  C8  UNL d   1      -2.501   2.772  -3.343  0.00  0.00     0.002 A 
ENDROOT
BRANCH   1   7
ATOM      7  C2  UNL d   1      -1.627   1.534  -1.321  0.00  0.00     0.056 C 
BRANCH   7   8
ATOM      8  C1  UNL d   1      -2.219   1.495   0.092  0.00  0.00     0.007 C 
ATOM      9  C   UNL d   1      -1.231   1.924   1.169  0.00  0.00     0.009 C 
ENDBRANCH   7   8
ENDBRANCH   1   7
TORSDOF 2
ENDMDL
