MODEL 1
REMARK minimizedAffinity 3.12549019
REMARK minimizedRMSD -1
REMARK  1 active torsions:
REMARK  status: ('A' for Active; 'I' for Inactive)
REMARK    1  A    between atoms: C3_4  and  O_7 
ROOT
ATOM      1  C   UNL d   1       2.302   0.478  -1.713  0.00  0.00    -0.033 A 
ATOM      2  C1  UNL d   1       1.662   1.118  -0.650  0.00  0.00     0.039 A 
ATOM      3  C2  UNL d   1       0.529   1.899  -0.883  0.00  0.00    -0.080 A 
ATOM      4  C3  UNL d   1       0.045   2.030  -2.182  0.00  0.00     0.150 A 
ATOM      5  C4  UNL d   1       0.675   1.392  -3.245  0.00  0.00    -0.007 A 
ATOM      6  C5  UNL d   1       1.807   0.613  -3.010  0.00  0.00     0.039 A 
ENDROOT
BRANCH   4   7
ATOM      7  O   UNL d   1      -1.056   2.786  -2.459  0.00  0.00    -0.526 OA
ATOM      8  H5  UNL d   1      -1.368   3.189  -1.632  0.00  0.00     0.418 HD
ENDBRANCH   4   7
TORSDOF 1
ENDMDL
