MODEL 1
REMARK minimizedAffinity 0.196222767
REMARK minimizedRMSD -1
REMARK  1 active torsions:
REMARK  status: ('A' for Active; 'I' for Inactive)
REMARK    1  A    between atoms: C3_4  and  O_7 
ROOT
ATOM      1  C   UNL d   1       3.049  -4.791   0.634  0.00  0.00    -0.033 A 
ATOM      2  C1  UNL d   1       2.004  -5.423   1.312  0.00  0.00     0.039 A 
ATOM      3  C2  UNL d   1       1.043  -4.662   1.980  0.00  0.00    -0.080 A 
ATOM      4  C3  UNL d   1       1.137  -3.273   1.962  0.00  0.00     0.150 A 
ATOM      5  C4  UNL d   1       2.174  -2.637   1.286  0.00  0.00    -0.007 A 
ATOM      6  C5  UNL d   1       3.133  -3.399   0.620  0.00  0.00     0.039 A 
ENDROOT
BRANCH   4   7
ATOM      7  O   UNL d   1       0.226  -2.488   2.604  0.00  0.00    -0.526 OA
ATOM      8  H5  UNL d   1      -0.416  -3.065   3.052  0.00  0.00     0.418 HD
ENDBRANCH   4   7
TORSDOF 1
ENDMDL
