MODEL 1
REMARK minimizedAffinity 4.37583876
REMARK minimizedRMSD -1
REMARK  1 active torsions:
REMARK  status: ('A' for Active; 'I' for Inactive)
REMARK    1  A    between atoms: C3_4  and  O_7 
ROOT
ATOM      1  C   UNL d   1       3.249  -4.447   2.531  0.00  0.00    -0.033 A 
ATOM      2  C1  UNL d   1       3.206  -3.234   3.222  0.00  0.00     0.039 A 
ATOM      3  C2  UNL d   1       2.318  -2.233   2.824  0.00  0.00    -0.080 A 
ATOM      4  C3  UNL d   1       1.479  -2.457   1.736  0.00  0.00     0.150 A 
ATOM      5  C4  UNL d   1       1.513  -3.664   1.046  0.00  0.00    -0.007 A 
ATOM      6  C5  UNL d   1       2.401  -4.662   1.444  0.00  0.00     0.039 A 
ENDROOT
BRANCH   4   7
ATOM      7  O   UNL d   1       0.599  -1.507   1.308  0.00  0.00    -0.526 OA
ATOM      8  H5  UNL d   1       0.706  -0.716   1.862  0.00  0.00     0.418 HD
ENDBRANCH   4   7
TORSDOF 1
ENDMDL
