MODEL 1
REMARK minimizedAffinity -0.0842648
REMARK minimizedRMSD -1
REMARK  1 active torsions:
REMARK  status: ('A' for Active; 'I' for Inactive)
REMARK    1  A    between atoms: C3_4  and  O_7 
ROOT
ATOM      1  C   UNL d   1       5.990   1.978  -3.525  0.00  0.00    -0.033 A 
ATOM      2  C1  UNL d   1       5.998   2.084  -4.917  0.00  0.00     0.039 A 
ATOM      3  C2  UNL d   1       6.000   0.932  -5.707  0.00  0.00    -0.080 A 
ATOM      4  C3  UNL d   1       5.993  -0.317  -5.092  0.00  0.00     0.150 A 
ATOM      5  C4  UNL d   1       5.981  -0.430  -3.706  0.00  0.00    -0.007 A 
ATOM      6  C5  UNL d   1       5.980   0.721  -2.920  0.00  0.00     0.039 A 
ENDROOT
BRANCH   4   7
ATOM      7  O   UNL d   1       6.000  -1.470  -5.821  0.00  0.00    -0.526 OA
ATOM      8  H5  UNL d   1       6.037  -1.238  -6.764  0.00  0.00     0.418 HD
ENDBRANCH   4   7
TORSDOF 1
ENDMDL
