MODEL 1
REMARK minimizedAffinity 4.89324379
REMARK minimizedRMSD -1
REMARK  1 active torsions:
REMARK  status: ('A' for Active; 'I' for Inactive)
REMARK    1  A    between atoms: C3_4  and  O_7 
ROOT
ATOM      1  C   UNL d   1       1.196   1.180  -2.027  0.00  0.00    -0.033 A 
ATOM      2  C1  UNL d   1       1.161   2.349  -2.790  0.00  0.00     0.039 A 
ATOM      3  C2  UNL d   1      -0.053   2.997  -3.022  0.00  0.00    -0.080 A 
ATOM      4  C3  UNL d   1      -1.224   2.468  -2.486  0.00  0.00     0.150 A 
ATOM      5  C4  UNL d   1      -1.196   1.305  -1.723  0.00  0.00    -0.007 A 
ATOM      6  C5  UNL d   1       0.017   0.659  -1.493  0.00  0.00     0.039 A 
ENDROOT
BRANCH   4   7
ATOM      7  O   UNL d   1      -2.433   3.062  -2.690  0.00  0.00    -0.526 OA
ATOM      8  H5  UNL d   1      -2.302   3.839  -3.259  0.00  0.00     0.418 HD
ENDBRANCH   4   7
TORSDOF 1
ENDMDL
