MODEL 1
REMARK minimizedAffinity 4.21972466
REMARK minimizedRMSD -1
REMARK  1 active torsions:
REMARK  status: ('A' for Active; 'I' for Inactive)
REMARK    1  A    between atoms: C3_4  and  O_7 
ROOT
ATOM      1  C   UNL d   1       2.351   0.346  -1.894  0.00  0.00    -0.033 A 
ATOM      2  C1  UNL d   1       1.508   0.183  -2.995  0.00  0.00     0.039 A 
ATOM      3  C2  UNL d   1       0.549   1.153  -3.292  0.00  0.00    -0.080 A 
ATOM      4  C3  UNL d   1       0.444   2.281  -2.483  0.00  0.00     0.150 A 
ATOM      5  C4  UNL d   1       1.283   2.451  -1.386  0.00  0.00    -0.007 A 
ATOM      6  C5  UNL d   1       2.239   1.481  -1.090  0.00  0.00     0.039 A 
ENDROOT
BRANCH   4   7
ATOM      7  O   UNL d   1      -0.479   3.252  -2.730  0.00  0.00    -0.526 OA
ATOM      8  H5  UNL d   1      -1.007   2.986  -3.501  0.00  0.00     0.418 HD
ENDBRANCH   4   7
TORSDOF 1
ENDMDL
