MODEL 1
REMARK minimizedAffinity 9.30572987
REMARK minimizedRMSD -1
REMARK  1 active torsions:
REMARK  status: ('A' for Active; 'I' for Inactive)
REMARK    1  A    between atoms: C3_4  and  O_7 
ROOT
ATOM      1  C   UNL d   1      -2.755   2.506   0.369  0.00  0.00    -0.033 A 
ATOM      2  C1  UNL d   1      -3.261   1.207   0.287  0.00  0.00     0.039 A 
ATOM      3  C2  UNL d   1      -3.582   0.658  -0.956  0.00  0.00    -0.080 A 
ATOM      4  C3  UNL d   1      -3.391   1.417  -2.107  0.00  0.00     0.150 A 
ATOM      5  C4  UNL d   1      -2.884   2.710  -2.033  0.00  0.00    -0.007 A 
ATOM      6  C5  UNL d   1      -2.566   3.257  -0.791  0.00  0.00     0.039 A 
ENDROOT
BRANCH   4   7
ATOM      7  O   UNL d   1      -3.695   0.926  -3.342  0.00  0.00    -0.526 OA
ATOM      8  H5  UNL d   1      -4.062   0.032  -3.236  0.00  0.00     0.418 HD
ENDBRANCH   4   7
TORSDOF 1
ENDMDL
