MODEL 1
REMARK minimizedAffinity 3.09277225
REMARK minimizedRMSD -1
REMARK  1 active torsions:
REMARK  status: ('A' for Active; 'I' for Inactive)
REMARK    1  A    between atoms: C3_4  and  O_7 
ROOT
ATOM      1  C   UNL d   1      -3.788   1.755  -2.830  0.00  0.00    -0.033 A 
ATOM      2  C1  UNL d   1      -4.968   1.987  -2.122  0.00  0.00     0.039 A 
ATOM      3  C2  UNL d   1      -5.593   0.940  -1.440  0.00  0.00    -0.080 A 
ATOM      4  C3  UNL d   1      -5.026  -0.331  -1.474  0.00  0.00     0.150 A 
ATOM      5  C4  UNL d   1      -3.848  -0.568  -2.174  0.00  0.00    -0.007 A 
ATOM      6  C5  UNL d   1      -3.227   0.478  -2.855  0.00  0.00     0.039 A 
ENDROOT
BRANCH   4   7
ATOM      7  O   UNL d   1      -5.602  -1.385  -0.828  0.00  0.00    -0.526 OA
ATOM      8  H5  UNL d   1      -6.424  -1.078  -0.411  0.00  0.00     0.418 HD
ENDBRANCH   4   7
TORSDOF 1
ENDMDL
