MODEL 1
REMARK minimizedAffinity 5.40468979
REMARK minimizedRMSD -1
REMARK  1 active torsions:
REMARK  status: ('A' for Active; 'I' for Inactive)
REMARK    1  A    between atoms: C3_4  and  O_7 
ROOT
ATOM      1  C   UNL d   1       4.779   5.936  -6.000  0.00  0.00    -0.033 A 
ATOM      2  C1  UNL d   1       5.989   5.969  -5.303  0.00  0.00     0.039 A 
ATOM      3  C2  UNL d   1       5.992   5.988  -3.907  0.00  0.00    -0.080 A 
ATOM      4  C3  UNL d   1       4.781   5.972  -3.221  0.00  0.00     0.150 A 
ATOM      5  C4  UNL d   1       3.572   5.936  -3.908  0.00  0.00    -0.007 A 
ATOM      6  C5  UNL d   1       3.571   5.918  -5.302  0.00  0.00     0.039 A 
ENDROOT
BRANCH   4   7
ATOM      7  O   UNL d   1       4.734   5.994  -1.859  0.00  0.00    -0.526 OA
ATOM      8  H5  UNL d   1       5.643   6.048  -1.520  0.00  0.00     0.418 HD
ENDBRANCH   4   7
TORSDOF 1
ENDMDL
