MODEL 1
REMARK minimizedAffinity 1.72271383
REMARK minimizedRMSD -1
REMARK  1 active torsions:
REMARK  status: ('A' for Active; 'I' for Inactive)
REMARK    1  A    between atoms: C3_4  and  O_7 
ROOT
ATOM      1  C   UNL d   1       1.126  -1.742   2.981  0.00  0.00    -0.033 A 
ATOM      2  C1  UNL d   1       0.713  -0.772   2.066  0.00  0.00     0.039 A 
ATOM      3  C2  UNL d   1       1.583  -0.342   1.062  0.00  0.00    -0.080 A 
ATOM      4  C3  UNL d   1       2.860  -0.891   0.983  0.00  0.00     0.150 A 
ATOM      5  C4  UNL d   1       3.277  -1.861   1.889  0.00  0.00    -0.007 A 
ATOM      6  C5  UNL d   1       2.407  -2.287   2.892  0.00  0.00     0.039 A 
ENDROOT
BRANCH   4   7
ATOM      7  O   UNL d   1       3.745  -0.500   0.022  0.00  0.00    -0.526 OA
ATOM      8  H5  UNL d   1       3.330   0.196  -0.514  0.00  0.00     0.418 HD
ENDBRANCH   4   7
TORSDOF 1
ENDMDL
