MODEL 1
REMARK minimizedAffinity 6.98096704
REMARK minimizedRMSD -1
REMARK  1 active torsions:
REMARK  status: ('A' for Active; 'I' for Inactive)
REMARK    1  A    between atoms: C3_4  and  O_7 
ROOT
ATOM      1  C   UNL d   1       4.926  -0.973  -4.830  0.00  0.00    -0.033 A 
ATOM      2  C1  UNL d   1       5.978  -0.468  -5.597  0.00  0.00     0.039 A 
ATOM      3  C2  UNL d   1       5.972   0.870  -5.998  0.00  0.00    -0.080 A 
ATOM      4  C3  UNL d   1       4.911   1.690  -5.625  0.00  0.00     0.150 A 
ATOM      5  C4  UNL d   1       3.862   1.195  -4.858  0.00  0.00    -0.007 A 
ATOM      6  C5  UNL d   1       3.869  -0.142  -4.460  0.00  0.00     0.039 A 
ENDROOT
BRANCH   4   7
ATOM      7  O   UNL d   1       4.860   3.001  -5.996  0.00  0.00    -0.526 OA
ATOM      8  H5  UNL d   1       5.637   3.196  -6.547  0.00  0.00     0.418 HD
ENDBRANCH   4   7
TORSDOF 1
ENDMDL
