MODEL 1
REMARK minimizedAffinity 9.30854797
REMARK minimizedRMSD -1
REMARK  1 active torsions:
REMARK  status: ('A' for Active; 'I' for Inactive)
REMARK    1  A    between atoms: C3_4  and  O_7 
ROOT
ATOM      1  C   UNL d   1      -4.677  -6.000  -5.069  0.00  0.00    -0.033 A 
ATOM      2  C1  UNL d   1      -4.120  -5.115  -4.144  0.00  0.00     0.039 A 
ATOM      3  C2  UNL d   1      -4.496  -3.771  -4.145  0.00  0.00    -0.080 A 
ATOM      4  C3  UNL d   1      -5.431  -3.325  -5.075  0.00  0.00     0.150 A 
ATOM      5  C4  UNL d   1      -5.993  -4.201  -5.998  0.00  0.00    -0.007 A 
ATOM      6  C5  UNL d   1      -5.615  -5.543  -5.995  0.00  0.00     0.039 A 
ENDROOT
BRANCH   4   7
ATOM      7  O   UNL d   1      -5.826  -2.021  -5.119  0.00  0.00    -0.526 OA
ATOM      8  H5  UNL d   1      -5.333  -1.527  -4.442  0.00  0.00     0.418 HD
ENDBRANCH   4   7
TORSDOF 1
ENDMDL
