MODEL 1
REMARK minimizedAffinity -2.35434079
REMARK minimizedRMSD -1
REMARK  0 active torsions:
REMARK  status: ('A' for Active; 'I' for Inactive)
ROOT
ATOM      1  C   UNL d   1       1.912  -0.843  -0.054  0.00  0.00    -0.002 A 
ATOM      2  C1  UNL d   1       1.848   0.537  -0.179  0.00  0.00     0.010 A 
ATOM      3  C2  UNL d   1       0.650   1.216   0.053  0.00  0.00     0.041 A 
ATOM      4  C3  UNL d   1      -0.493   0.477   0.417  0.00  0.00    -0.075 A 
ATOM      5  S   UNL d   1      -2.067   1.095   0.751  0.00  0.00     0.015 SA
ATOM      6  C4  UNL d   1      -2.691  -0.460   1.069  0.00  0.00     0.022 A 
ATOM      7  C5  UNL d   1      -1.735  -1.437   0.928  0.00  0.00     0.026 A 
ATOM      8  C6  UNL d   1      -0.452  -0.914   0.551  0.00  0.00    -0.082 A 
ATOM      9  C7  UNL d   1       0.777  -1.573   0.308  0.00  0.00     0.045 A 
ENDROOT
TORSDOF 0
ENDMDL
