MODEL 1
REMARK minimizedAffinity -4.38140059
REMARK minimizedRMSD -1
REMARK  0 active torsions:
REMARK  status: ('A' for Active; 'I' for Inactive)
ROOT
ATOM      1  C   UNL d   1       3.192  -1.370  -0.080  0.00  0.00    -0.002 A 
ATOM      2  C1  UNL d   1       3.773  -0.112  -0.009  0.00  0.00     0.010 A 
ATOM      3  C2  UNL d   1       2.979   1.037   0.007  0.00  0.00     0.041 A 
ATOM      4  C3  UNL d   1       1.578   0.898  -0.048  0.00  0.00    -0.075 A 
ATOM      5  S   UNL d   1       0.407   2.163  -0.039  0.00  0.00     0.015 SA
ATOM      6  C4  UNL d   1      -0.891   1.063  -0.128  0.00  0.00     0.022 A 
ATOM      7  C5  UNL d   1      -0.460  -0.242  -0.165  0.00  0.00     0.026 A 
ATOM      8  C6  UNL d   1       0.970  -0.358  -0.118  0.00  0.00    -0.082 A 
ATOM      9  C7  UNL d   1       1.802  -1.504  -0.134  0.00  0.00     0.045 A 
ENDROOT
TORSDOF 0
ENDMDL
