MODEL 1
REMARK minimizedAffinity 0.833223641
REMARK minimizedRMSD -1
REMARK  0 active torsions:
REMARK  status: ('A' for Active; 'I' for Inactive)
ROOT
ATOM      1  C   UNL d   1       0.380  -0.365  -0.719  0.00  0.00    -0.002 A 
ATOM      2  C1  UNL d   1       0.051  -1.487   0.029  0.00  0.00     0.010 A 
ATOM      3  C2  UNL d   1      -1.106  -1.504   0.810  0.00  0.00     0.041 A 
ATOM      4  C3  UNL d   1      -1.936  -0.366   0.826  0.00  0.00    -0.075 A 
ATOM      5  S   UNL d   1      -3.403  -0.160   1.708  0.00  0.00     0.015 SA
ATOM      6  C4  UNL d   1      -3.627   1.421   1.112  0.00  0.00     0.022 A 
ATOM      7  C5  UNL d   1      -2.616   1.799   0.260  0.00  0.00     0.026 A 
ATOM      8  C6  UNL d   1      -1.625   0.775   0.080  0.00  0.00    -0.082 A 
ATOM      9  C7  UNL d   1      -0.445   0.762  -0.701  0.00  0.00     0.045 A 
ENDROOT
TORSDOF 0
ENDMDL
