MODEL 1
REMARK minimizedAffinity -5.24075556
REMARK minimizedRMSD -1
REMARK  0 active torsions:
REMARK  status: ('A' for Active; 'I' for Inactive)
ROOT
ATOM      1  C   UNL d   1       3.040  -1.188   0.775  0.00  0.00    -0.002 A 
ATOM      2  C1  UNL d   1       3.637   0.060   0.672  0.00  0.00     0.010 A 
ATOM      3  C2  UNL d   1       2.884   1.181   0.316  0.00  0.00     0.041 A 
ATOM      4  C3  UNL d   1       1.506   1.024   0.065  0.00  0.00    -0.075 A 
ATOM      5  S   UNL d   1       0.385   2.254  -0.384  0.00  0.00     0.015 SA
ATOM      6  C4  UNL d   1      -0.913   1.152  -0.448  0.00  0.00     0.022 A 
ATOM      7  C5  UNL d   1      -0.519  -0.128  -0.138  0.00  0.00     0.026 A 
ATOM      8  C6  UNL d   1       0.882  -0.223   0.164  0.00  0.00    -0.082 A 
ATOM      9  C7  UNL d   1       1.673  -1.339   0.526  0.00  0.00     0.045 A 
ENDROOT
TORSDOF 0
ENDMDL
