MODEL 1
REMARK minimizedAffinity -3.80149031
REMARK minimizedRMSD -1
REMARK  0 active torsions:
REMARK  status: ('A' for Active; 'I' for Inactive)
ROOT
ATOM      1  C   UNL d   1       0.168  -2.709  -0.706  0.00  0.00    -0.002 A 
ATOM      2  C1  UNL d   1       1.527  -2.718  -0.421  0.00  0.00     0.010 A 
ATOM      3  C2  UNL d   1       2.220  -1.522  -0.226  0.00  0.00     0.041 A 
ATOM      4  C3  UNL d   1       1.517  -0.304  -0.321  0.00  0.00    -0.075 A 
ATOM      5  S   UNL d   1       2.158   1.284  -0.120  0.00  0.00     0.015 SA
ATOM      6  C4  UNL d   1       0.644   2.012  -0.406  0.00  0.00     0.022 A 
ATOM      7  C5  UNL d   1      -0.338   1.081  -0.651  0.00  0.00     0.026 A 
ATOM      8  C6  UNL d   1       0.149  -0.269  -0.606  0.00  0.00    -0.082 A 
ATOM      9  C7  UNL d   1      -0.525  -1.499  -0.799  0.00  0.00     0.045 A 
ENDROOT
TORSDOF 0
ENDMDL
