MODEL 1
REMARK minimizedAffinity -0.0246162992
REMARK minimizedRMSD -1
REMARK  0 active torsions:
REMARK  status: ('A' for Active; 'I' for Inactive)
ROOT
ATOM      1  C   UNL d   1       1.874  -1.803   0.325  0.00  0.00    -0.002 A 
ATOM      2  C1  UNL d   1       1.593  -1.634   1.673  0.00  0.00     0.010 A 
ATOM      3  C2  UNL d   1       0.525  -0.833   2.081  0.00  0.00     0.041 A 
ATOM      4  C3  UNL d   1      -0.266  -0.201   1.102  0.00  0.00    -0.075 A 
ATOM      5  S   UNL d   1      -1.626   0.825   1.368  0.00  0.00     0.015 SA
ATOM      6  C4  UNL d   1      -1.867   1.063  -0.303  0.00  0.00     0.022 A 
ATOM      7  C5  UNL d   1      -0.942   0.384  -1.059  0.00  0.00     0.026 A 
ATOM      8  C6  UNL d   1      -0.004  -0.356  -0.262  0.00  0.00    -0.082 A 
ATOM      9  C7  UNL d   1       1.087  -1.174  -0.644  0.00  0.00     0.045 A 
ENDROOT
TORSDOF 0
ENDMDL
