MODEL 1
REMARK minimizedAffinity 2.91458154
REMARK minimizedRMSD -1
REMARK  0 active torsions:
REMARK  status: ('A' for Active; 'I' for Inactive)
ROOT
ATOM      1  C   UNL d   1      -0.143   2.008   0.209  0.00  0.00    -0.002 A 
ATOM      2  C1  UNL d   1       1.174   2.232  -0.168  0.00  0.00     0.010 A 
ATOM      3  C2  UNL d   1       1.969   1.181  -0.629  0.00  0.00     0.041 A 
ATOM      4  C3  UNL d   1       1.413  -0.111  -0.706  0.00  0.00    -0.075 A 
ATOM      5  S   UNL d   1       2.198  -1.550  -1.241  0.00  0.00     0.015 SA
ATOM      6  C4  UNL d   1       0.804  -2.496  -0.982  0.00  0.00     0.022 A 
ATOM      7  C5  UNL d   1      -0.244  -1.748  -0.499  0.00  0.00     0.026 A 
ATOM      8  C6  UNL d   1       0.090  -0.361  -0.333  0.00  0.00    -0.082 A 
ATOM      9  C7  UNL d   1      -0.691   0.725   0.131  0.00  0.00     0.045 A 
ENDROOT
TORSDOF 0
ENDMDL
