MODEL 1
REMARK minimizedAffinity 11.8114738
REMARK minimizedRMSD -1
REMARK  0 active torsions:
REMARK  status: ('A' for Active; 'I' for Inactive)
ROOT
ATOM      1  C4' PXY d   1      -1.300   2.910  -2.014  0.00  0.00     0.077 C 
ATOM      2  C1' PXY d   1       0.712   2.027   3.332  0.00  0.00     0.077 C 
ATOM      3  C1  PXY d   1       0.175   2.250   1.932  0.00  0.00    -0.082 A 
ATOM      4  C2  PXY d   1       0.982   2.700   0.985  0.00  0.00     0.003 A 
ATOM      5  C3  PXY d   1       0.505   2.938  -0.278  0.00  0.00     0.003 A 
ATOM      6  C4  PXY d   1      -0.799   2.661  -0.589  0.00  0.00    -0.082 A 
ATOM      7  C5  PXY d   1      -1.626   2.191   0.368  0.00  0.00     0.003 A 
ATOM      8  C6  PXY d   1      -1.133   1.996   1.655  0.00  0.00     0.003 A 
ENDROOT
TORSDOF 0
ENDMDL
