MODEL 1
REMARK minimizedAffinity 19.0300617
REMARK minimizedRMSD -1
REMARK  0 active torsions:
REMARK  status: ('A' for Active; 'I' for Inactive)
ROOT
ATOM      1  C4' PXY d   1      -5.131   6.000   0.839  0.00  0.00     0.077 C 
ATOM      2  C1' PXY d   1      -0.686   2.306   0.737  0.00  0.00     0.077 C 
ATOM      3  C1  PXY d   1      -1.843   3.285   0.766  0.00  0.00    -0.082 A 
ATOM      4  C2  PXY d   1      -3.051   2.859   1.098  0.00  0.00     0.003 A 
ATOM      5  C3  PXY d   1      -4.116   3.724   1.098  0.00  0.00     0.003 A 
ATOM      6  C4  PXY d   1      -3.931   5.049   0.806  0.00  0.00    -0.082 A 
ATOM      7  C5  PXY d   1      -2.700   5.493   0.477  0.00  0.00     0.003 A 
ATOM      8  C6  PXY d   1      -1.641   4.591   0.442  0.00  0.00     0.003 A 
ENDROOT
TORSDOF 0
ENDMDL
