MODEL 1
REMARK minimizedAffinity 16.0092926
REMARK minimizedRMSD -1
REMARK  0 active torsions:
REMARK  status: ('A' for Active; 'I' for Inactive)
ROOT
ATOM      1  C4' PXY d   1      -3.760   5.997   0.784  0.00  0.00     0.077 C 
ATOM      2  C1' PXY d   1      -4.217   0.249   1.186  0.00  0.00     0.077 C 
ATOM      3  C1  PXY d   1      -4.085   1.755   1.078  0.00  0.00    -0.082 A 
ATOM      4  C2  PXY d   1      -4.974   2.534   1.672  0.00  0.00     0.003 A 
ATOM      5  C3  PXY d   1      -4.887   3.898   1.558  0.00  0.00     0.003 A 
ATOM      6  C4  PXY d   1      -3.849   4.471   0.873  0.00  0.00    -0.082 A 
ATOM      7  C5  PXY d   1      -2.932   3.683   0.273  0.00  0.00     0.003 A 
ATOM      8  C6  PXY d   1      -3.061   2.300   0.366  0.00  0.00     0.003 A 
ENDROOT
TORSDOF 0
ENDMDL
