MODEL 1
REMARK minimizedAffinity 24.9205475
REMARK minimizedRMSD -1
REMARK  0 active torsions:
REMARK  status: ('A' for Active; 'I' for Inactive)
ROOT
ATOM      1  C4' PXY d   1       1.561  -4.631   5.954  0.00  0.00     0.077 C 
ATOM      2  C1' PXY d   1      -2.626  -1.630   3.333  0.00  0.00     0.077 C 
ATOM      3  C1  PXY d   1      -1.532  -2.412   4.032  0.00  0.00    -0.082 A 
ATOM      4  C2  PXY d   1      -0.465  -2.797   3.350  0.00  0.00     0.003 A 
ATOM      5  C3  PXY d   1       0.519  -3.532   3.958  0.00  0.00     0.003 A 
ATOM      6  C4  PXY d   1       0.436  -3.832   5.292  0.00  0.00    -0.082 A 
ATOM      7  C5  PXY d   1      -0.644  -3.434   5.997  0.00  0.00     0.003 A 
ATOM      8  C6  PXY d   1      -1.652  -2.723   5.351  0.00  0.00     0.003 A 
ENDROOT
TORSDOF 0
ENDMDL
