MODEL 1
REMARK minimizedAffinity 10.6710987
REMARK minimizedRMSD -1
REMARK  0 active torsions:
REMARK  status: ('A' for Active; 'I' for Inactive)
ROOT
ATOM      1  C4' PXY d   1      -0.478  -3.776   4.488  0.00  0.00     0.077 C 
ATOM      2  C1' PXY d   1      -6.000  -2.951   5.985  0.00  0.00     0.077 C 
ATOM      3  C1  PXY d   1      -4.550  -3.155   5.594  0.00  0.00    -0.082 A 
ATOM      4  C2  PXY d   1      -4.210  -4.204   4.863  0.00  0.00     0.003 A 
ATOM      5  C3  PXY d   1      -2.899  -4.421   4.528  0.00  0.00     0.003 A 
ATOM      6  C4  PXY d   1      -1.932  -3.525   4.898  0.00  0.00    -0.082 A 
ATOM      7  C5  PXY d   1      -2.271  -2.446   5.634  0.00  0.00     0.003 A 
ATOM      8  C6  PXY d   1      -3.602  -2.266   6.000  0.00  0.00     0.003 A 
ENDROOT
TORSDOF 0
ENDMDL
