MODEL 1
REMARK minimizedAffinity 7.34914732
REMARK minimizedRMSD -1
REMARK  0 active torsions:
REMARK  status: ('A' for Active; 'I' for Inactive)
ROOT
ATOM      1  C4' PXY d   1      -5.999  -4.101   5.158  0.00  0.00     0.077 C 
ATOM      2  C1' PXY d   1      -0.498  -2.339   4.915  0.00  0.00     0.077 C 
ATOM      3  C1  PXY d   1      -1.941  -2.797   4.991  0.00  0.00    -0.082 A 
ATOM      4  C2  PXY d   1      -2.383  -3.711   4.142  0.00  0.00     0.003 A 
ATOM      5  C3  PXY d   1      -3.693  -4.114   4.176  0.00  0.00     0.003 A 
ATOM      6  C4  PXY d   1      -4.547  -3.615   5.123  0.00  0.00    -0.082 A 
ATOM      7  C5  PXY d   1      -4.101  -2.690   6.000  0.00  0.00     0.003 A 
ATOM      8  C6  PXY d   1      -2.778  -2.264   5.922  0.00  0.00     0.003 A 
ENDROOT
TORSDOF 0
ENDMDL
