MODEL 1
REMARK minimizedAffinity 0.168898344
REMARK minimizedRMSD -1
REMARK  0 active torsions:
REMARK  status: ('A' for Active; 'I' for Inactive)
ROOT
ATOM      1  C4' PXY d   1      -1.570   6.000  -4.717  0.00  0.00     0.077 C 
ATOM      2  C1' PXY d   1      -5.132   1.450  -4.874  0.00  0.00     0.077 C 
ATOM      3  C1  PXY d   1      -4.203   2.647  -4.844  0.00  0.00    -0.082 A 
ATOM      4  C2  PXY d   1      -3.102   2.603  -4.111  0.00  0.00     0.003 A 
ATOM      5  C3  PXY d   1      -2.267   3.688  -4.047  0.00  0.00     0.003 A 
ATOM      6  C4  PXY d   1      -2.533   4.811  -4.784  0.00  0.00    -0.082 A 
ATOM      7  C5  PXY d   1      -3.648   4.860  -5.544  0.00  0.00     0.003 A 
ATOM      8  C6  PXY d   1      -4.504   3.763  -5.562  0.00  0.00     0.003 A 
ENDROOT
TORSDOF 0
ENDMDL
