MODEL 1
REMARK minimizedAffinity 14.9153776
REMARK minimizedRMSD -1
REMARK  0 active torsions:
REMARK  status: ('A' for Active; 'I' for Inactive)
ROOT
ATOM      1  C4' PXY d   1      -0.454   5.999  -5.218  0.00  0.00     0.077 C 
ATOM      2  C1' PXY d   1      -3.803   1.533  -3.715  0.00  0.00     0.077 C 
ATOM      3  C1  PXY d   1      -2.935   2.712  -4.108  0.00  0.00    -0.082 A 
ATOM      4  C2  PXY d   1      -1.868   2.516  -4.866  0.00  0.00     0.003 A 
ATOM      5  C3  PXY d   1      -1.054   3.566  -5.203  0.00  0.00     0.003 A 
ATOM      6  C4  PXY d   1      -1.365   4.839  -4.805  0.00  0.00    -0.082 A 
ATOM      7  C5  PXY d   1      -2.457   5.049  -4.040  0.00  0.00     0.003 A 
ATOM      8  C6  PXY d   1      -3.247   3.964  -3.674  0.00  0.00     0.003 A 
ENDROOT
TORSDOF 0
ENDMDL
