MODEL 1
REMARK minimizedAffinity -2.21895409
REMARK minimizedRMSD -1
REMARK  0 active torsions:
REMARK  status: ('A' for Active; 'I' for Inactive)
ROOT
ATOM      1  C4' PXY d   1      -5.122   1.509  -4.504  0.00  0.00     0.077 C 
ATOM      2  C1' PXY d   1      -1.527   5.999  -5.077  0.00  0.00     0.077 C 
ATOM      3  C1  PXY d   1      -2.480   4.829  -4.932  0.00  0.00    -0.082 A 
ATOM      4  C2  PXY d   1      -2.236   3.896  -4.026  0.00  0.00     0.003 A 
ATOM      5  C3  PXY d   1      -3.069   2.814  -3.903  0.00  0.00     0.003 A 
ATOM      6  C4  PXY d   1      -4.193   2.713  -4.680  0.00  0.00    -0.082 A 
ATOM      7  C5  PXY d   1      -4.454   3.666  -5.599  0.00  0.00     0.003 A 
ATOM      8  C6  PXY d   1      -3.573   4.736  -5.736  0.00  0.00     0.003 A 
ENDROOT
TORSDOF 0
ENDMDL
