MODEL 1
REMARK minimizedAffinity 11.6244612
REMARK minimizedRMSD -1
REMARK  0 active torsions:
REMARK  status: ('A' for Active; 'I' for Inactive)
ROOT
ATOM      1  C4' PXY d   1      -4.647   1.368  -4.428  0.00  0.00     0.077 C 
ATOM      2  C1' PXY d   1      -1.196   5.998  -4.665  0.00  0.00     0.077 C 
ATOM      3  C1  PXY d   1      -2.110   4.791  -4.608  0.00  0.00    -0.082 A 
ATOM      4  C2  PXY d   1      -1.897   3.850  -3.702  0.00  0.00     0.003 A 
ATOM      5  C3  PXY d   1      -2.695   2.736  -3.658  0.00  0.00     0.003 A 
ATOM      6  C4  PXY d   1      -3.755   2.609  -4.516  0.00  0.00    -0.082 A 
ATOM      7  C5  PXY d   1      -3.985   3.569  -5.436  0.00  0.00     0.003 A 
ATOM      8  C6  PXY d   1      -3.139   4.672  -5.491  0.00  0.00     0.003 A 
ENDROOT
TORSDOF 0
ENDMDL
