MODEL 1
REMARK minimizedAffinity 17.7472191
REMARK minimizedRMSD -1
REMARK  0 active torsions:
REMARK  status: ('A' for Active; 'I' for Inactive)
ROOT
ATOM      1  C4' PXY d   1       2.806  -1.727   0.746  0.00  0.00     0.077 C 
ATOM      2  C1' PXY d   1       1.226  -6.000  -2.812  0.00  0.00     0.077 C 
ATOM      3  C1  PXY d   1       1.651  -4.886  -1.875  0.00  0.00    -0.082 A 
ATOM      4  C2  PXY d   1       0.749  -4.027  -1.429  0.00  0.00     0.003 A 
ATOM      5  C3  PXY d   1       1.121  -2.995  -0.607  0.00  0.00     0.003 A 
ATOM      6  C4  PXY d   1       2.421  -2.872  -0.194  0.00  0.00    -0.082 A 
ATOM      7  C5  PXY d   1       3.345  -3.751  -0.636  0.00  0.00     0.003 A 
ATOM      8  C6  PXY d   1       2.954  -4.768  -1.503  0.00  0.00     0.003 A 
ENDROOT
TORSDOF 0
ENDMDL
