MODEL 1
REMARK minimizedAffinity -0.409440905
REMARK minimizedRMSD -1
REMARK  0 active torsions:
REMARK  status: ('A' for Active; 'I' for Inactive)
ROOT
ATOM      1  C4' PXY d   1      -2.428   1.285  -2.846  0.00  0.00     0.077 C 
ATOM      2  C1' PXY d   1       0.896   4.571   0.555  0.00  0.00     0.077 C 
ATOM      3  C1  PXY d   1       0.018   3.719  -0.341  0.00  0.00    -0.082 A 
ATOM      4  C2  PXY d   1      -0.182   2.446  -0.043  0.00  0.00     0.003 A 
ATOM      5  C3  PXY d   1      -0.947   1.654  -0.860  0.00  0.00     0.003 A 
ATOM      6  C4  PXY d   1      -1.557   2.184  -1.965  0.00  0.00    -0.082 A 
ATOM      7  C5  PXY d   1      -1.367   3.485  -2.270  0.00  0.00     0.003 A 
ATOM      8  C6  PXY d   1      -0.553   4.262  -1.451  0.00  0.00     0.003 A 
ENDROOT
TORSDOF 0
ENDMDL
