MODEL 1
REMARK minimizedAffinity 14.3797798
REMARK minimizedRMSD -1
REMARK  0 active torsions:
REMARK  status: ('A' for Active; 'I' for Inactive)
ROOT
ATOM      1  C4' PXY d   1       1.592   4.300   1.393  0.00  0.00     0.077 C 
ATOM      2  C1' PXY d   1      -2.169   0.604   3.760  0.00  0.00     0.077 C 
ATOM      3  C1  PXY d   1      -1.177   1.575   3.151  0.00  0.00    -0.082 A 
ATOM      4  C2  PXY d   1      -1.463   2.167   2.003  0.00  0.00     0.003 A 
ATOM      5  C3  PXY d   1      -0.564   3.024   1.422  0.00  0.00     0.003 A 
ATOM      6  C4  PXY d   1       0.617   3.319   2.049  0.00  0.00    -0.082 A 
ATOM      7  C5  PXY d   1       0.911   2.727   3.226  0.00  0.00     0.003 A 
ATOM      8  C6  PXY d   1       0.003   1.829   3.779  0.00  0.00     0.003 A 
ENDROOT
TORSDOF 0
ENDMDL
