MODEL 1
REMARK minimizedAffinity 18.6721668
REMARK minimizedRMSD -1
REMARK  0 active torsions:
REMARK  status: ('A' for Active; 'I' for Inactive)
ROOT
ATOM      1  C4' PXY d   1      -5.057   6.000   2.907  0.00  0.00     0.077 C 
ATOM      2  C1' PXY d   1      -4.465   4.969  -2.750  0.00  0.00     0.077 C 
ATOM      3  C1  PXY d   1      -4.630   5.247  -1.269  0.00  0.00    -0.082 A 
ATOM      4  C2  PXY d   1      -3.609   5.056  -0.449  0.00  0.00     0.003 A 
ATOM      5  C3  PXY d   1      -3.750   5.272   0.897  0.00  0.00     0.003 A 
ATOM      6  C4  PXY d   1      -4.933   5.740   1.403  0.00  0.00    -0.082 A 
ATOM      7  C5  PXY d   1      -5.976   5.949   0.573  0.00  0.00     0.003 A 
ATOM      8  C6  PXY d   1      -5.825   5.684  -0.785  0.00  0.00     0.003 A 
ENDROOT
TORSDOF 0
ENDMDL
