MODEL 1
REMARK minimizedAffinity 1.13769484
REMARK minimizedRMSD -1
REMARK  0 active torsions:
REMARK  status: ('A' for Active; 'I' for Inactive)
ROOT
ATOM      1  C4' PXY d   1      -5.975  -4.984   5.887  0.00  0.00     0.077 C 
ATOM      2  C1' PXY d   1      -6.000  -4.340   0.143  0.00  0.00     0.077 C 
ATOM      3  C1  PXY d   1      -5.999  -4.521   1.648  0.00  0.00    -0.082 A 
ATOM      4  C2  PXY d   1      -5.996  -3.457   2.435  0.00  0.00     0.003 A 
ATOM      5  C3  PXY d   1      -5.962  -3.602   3.798  0.00  0.00     0.003 A 
ATOM      6  C4  PXY d   1      -5.986  -4.849   4.362  0.00  0.00    -0.082 A 
ATOM      7  C5  PXY d   1      -5.999  -5.940   3.567  0.00  0.00     0.003 A 
ATOM      8  C6  PXY d   1      -5.991  -5.771   2.185  0.00  0.00     0.003 A 
ENDROOT
TORSDOF 0
ENDMDL
