MODEL 1
REMARK minimizedAffinity 14.5024509
REMARK minimizedRMSD -1
REMARK  0 active torsions:
REMARK  status: ('A' for Active; 'I' for Inactive)
ROOT
ATOM      1  C4' PXY d   1       0.339   1.616   2.309  0.00  0.00     0.077 C 
ATOM      2  C1' PXY d   1      -1.294   2.658  -3.137  0.00  0.00     0.077 C 
ATOM      3  C1  PXY d   1      -0.853   2.384  -1.712  0.00  0.00    -0.082 A 
ATOM      4  C2  PXY d   1      -1.720   1.889  -0.843  0.00  0.00     0.003 A 
ATOM      5  C3  PXY d   1      -1.347   1.664   0.457  0.00  0.00     0.003 A 
ATOM      6  C4  PXY d   1      -0.059   1.900   0.859  0.00  0.00    -0.082 A 
ATOM      7  C5  PXY d   1       0.834   2.395  -0.025  0.00  0.00     0.003 A 
ATOM      8  C6  PXY d   1       0.424   2.654  -1.329  0.00  0.00     0.003 A 
ENDROOT
TORSDOF 0
ENDMDL
