MODEL 1
REMARK minimizedAffinity 13.4718828
REMARK minimizedRMSD -1
REMARK  0 active torsions:
REMARK  status: ('A' for Active; 'I' for Inactive)
ROOT
ATOM      1  C4' PXY d   1      -3.498   2.605   1.531  0.00  0.00     0.077 C 
ATOM      2  C1' PXY d   1       1.009  -0.624   3.165  0.00  0.00     0.077 C 
ATOM      3  C1  PXY d   1      -0.181   0.214   2.742  0.00  0.00    -0.082 A 
ATOM      4  C2  PXY d   1      -0.067   1.041   1.715  0.00  0.00     0.003 A 
ATOM      5  C3  PXY d   1      -1.124   1.830   1.339  0.00  0.00     0.003 A 
ATOM      6  C4  PXY d   1      -2.326   1.733   1.987  0.00  0.00    -0.082 A 
ATOM      7  C5  PXY d   1      -2.453   0.884   3.029  0.00  0.00     0.003 A 
ATOM      8  C6  PXY d   1      -1.356   0.122   3.421  0.00  0.00     0.003 A 
ENDROOT
TORSDOF 0
ENDMDL
