MODEL 1
REMARK minimizedAffinity 15.6029577
REMARK minimizedRMSD -1
REMARK  0 active torsions:
REMARK  status: ('A' for Active; 'I' for Inactive)
ROOT
ATOM      1  C4' PXY d   1      -3.516   1.471   1.307  0.00  0.00     0.077 C 
ATOM      2  C1' PXY d   1       1.106   4.045  -1.022  0.00  0.00     0.077 C 
ATOM      3  C1  PXY d   1      -0.111   3.382  -0.409  0.00  0.00    -0.082 A 
ATOM      4  C2  PXY d   1       0.003   2.182   0.138  0.00  0.00     0.003 A 
ATOM      5  C3  PXY d   1      -1.095   1.554   0.668  0.00  0.00     0.003 A 
ATOM      6  C4  PXY d   1      -2.311   2.183   0.685  0.00  0.00    -0.082 A 
ATOM      7  C5  PXY d   1      -2.434   3.411   0.139  0.00  0.00     0.003 A 
ATOM      8  C6  PXY d   1      -1.316   4.014  -0.431  0.00  0.00     0.003 A 
ENDROOT
TORSDOF 0
ENDMDL
