MODEL 1
REMARK minimizedAffinity -2.88823605
REMARK minimizedRMSD -1
REMARK  0 active torsions:
REMARK  status: ('A' for Active; 'I' for Inactive)
ROOT
ATOM      1  C   UNL d   1      -0.031   0.151   2.826  0.00  0.00     0.023 A 
ATOM      2  C1  UNL d   1      -0.969  -0.503   2.028  0.00  0.00     0.003 A 
ATOM      3  C2  UNL d   1      -0.783  -0.575   0.646  0.00  0.00     0.048 A 
ATOM      4  C3  UNL d   1       0.345   0.008   0.069  0.00  0.00     0.023 A 
ATOM      5  C4  UNL d   1       1.287   0.663   0.864  0.00  0.00     0.048 A 
ATOM      6  C5  UNL d   1       1.095   0.733   2.246  0.00  0.00     0.003 A 
ATOM      7  I   UNL d   1       0.625  -0.098  -1.988  0.00  0.00    -0.146 I 
ENDROOT
TORSDOF 0
ENDMDL
