MODEL 1
REMARK minimizedAffinity -3.27536964
REMARK minimizedRMSD -1
REMARK  0 active torsions:
REMARK  status: ('A' for Active; 'I' for Inactive)
ROOT
ATOM      1  C   UNL d   1      -2.822   0.162   2.186  0.00  0.00     0.023 A 
ATOM      2  C1  UNL d   1      -3.233   0.423   0.879  0.00  0.00     0.003 A 
ATOM      3  C2  UNL d   1      -2.314   0.355  -0.171  0.00  0.00     0.048 A 
ATOM      4  C3  UNL d   1      -0.986   0.024   0.094  0.00  0.00     0.023 A 
ATOM      5  C4  UNL d   1      -0.570  -0.239   1.400  0.00  0.00     0.048 A 
ATOM      6  C5  UNL d   1      -1.492  -0.169   2.446  0.00  0.00     0.003 A 
ATOM      7  I   UNL d   1       0.383  -0.078  -1.467  0.00  0.00    -0.146 I 
ENDROOT
TORSDOF 0
ENDMDL
