MODEL 1
REMARK minimizedAffinity -4.7750783
REMARK minimizedRMSD -1
REMARK  0 active torsions:
REMARK  status: ('A' for Active; 'I' for Inactive)
ROOT
ATOM      1  C   UNL d   1      -2.615   0.060   3.386  0.00  0.00     0.023 A 
ATOM      2  C1  UNL d   1      -3.143   0.274   2.113  0.00  0.00     0.003 A 
ATOM      3  C2  UNL d   1      -2.299   0.302   1.001  0.00  0.00     0.048 A 
ATOM      4  C3  UNL d   1      -0.927   0.114   1.170  0.00  0.00     0.023 A 
ATOM      5  C4  UNL d   1      -0.395  -0.101   2.442  0.00  0.00     0.048 A 
ATOM      6  C5  UNL d   1      -1.243  -0.127   3.551  0.00  0.00     0.003 A 
ATOM      7  I   UNL d   1       0.332   0.154  -0.483  0.00  0.00    -0.146 I 
ENDROOT
TORSDOF 0
ENDMDL
