MODEL 1
REMARK minimizedAffinity -1.93224037
REMARK minimizedRMSD -1
REMARK  0 active torsions:
REMARK  status: ('A' for Active; 'I' for Inactive)
ROOT
ATOM      1  C   UNL d   1      -0.647  -1.128   3.120  0.00  0.00     0.023 A 
ATOM      2  C1  UNL d   1      -1.358  -1.478   1.972  0.00  0.00     0.003 A 
ATOM      3  C2  UNL d   1      -1.014  -0.921   0.739  0.00  0.00     0.048 A 
ATOM      4  C3  UNL d   1       0.043  -0.016   0.660  0.00  0.00     0.023 A 
ATOM      5  C4  UNL d   1       0.758   0.337   1.806  0.00  0.00     0.048 A 
ATOM      6  C5  UNL d   1       0.410  -0.221   3.037  0.00  0.00     0.003 A 
ATOM      7  I   UNL d   1       0.558   0.814  -1.174  0.00  0.00    -0.146 I 
ENDROOT
TORSDOF 0
ENDMDL
