MODEL 1
REMARK minimizedAffinity -1.05248034
REMARK minimizedRMSD -1
REMARK  0 active torsions:
REMARK  status: ('A' for Active; 'I' for Inactive)
ROOT
ATOM      1  C   UNL d   1      -0.725  -0.217   3.044  0.00  0.00     0.023 A 
ATOM      2  C1  UNL d   1       0.608  -0.214   2.631  0.00  0.00     0.003 A 
ATOM      3  C2  UNL d   1       0.920  -0.065   1.279  0.00  0.00     0.048 A 
ATOM      4  C3  UNL d   1      -0.104   0.081   0.344  0.00  0.00     0.023 A 
ATOM      5  C4  UNL d   1      -1.439   0.079   0.753  0.00  0.00     0.048 A 
ATOM      6  C5  UNL d   1      -1.747  -0.071   2.106  0.00  0.00     0.003 A 
ATOM      7  I   UNL d   1       0.359   0.302  -1.670  0.00  0.00    -0.146 I 
ENDROOT
TORSDOF 0
ENDMDL
