MODEL 1
REMARK minimizedAffinity 4.40664244
REMARK minimizedRMSD -1
REMARK  0 active torsions:
REMARK  status: ('A' for Active; 'I' for Inactive)
ROOT
ATOM      1  C   UNL d   1       1.410   0.179   2.188  0.00  0.00     0.023 A 
ATOM      2  C1  UNL d   1       0.883   0.998   1.189  0.00  0.00     0.003 A 
ATOM      3  C2  UNL d   1      -0.500   1.106   1.031  0.00  0.00     0.048 A 
ATOM      4  C3  UNL d   1      -1.351   0.393   1.875  0.00  0.00     0.023 A 
ATOM      5  C4  UNL d   1      -0.828  -0.427   2.876  0.00  0.00     0.048 A 
ATOM      6  C5  UNL d   1       0.556  -0.533   3.030  0.00  0.00     0.003 A 
ATOM      7  I   UNL d   1      -3.410   0.552   1.642  0.00  0.00    -0.146 I 
ENDROOT
TORSDOF 0
ENDMDL
