MODEL 1
REMARK minimizedAffinity 3.28110862
REMARK minimizedRMSD -1
REMARK  0 active torsions:
REMARK  status: ('A' for Active; 'I' for Inactive)
ROOT
ATOM      1  C   UNL d   1       0.815  -0.170   3.168  0.00  0.00     0.023 A 
ATOM      2  C1  UNL d   1      -0.274  -0.974   3.505  0.00  0.00     0.003 A 
ATOM      3  C2  UNL d   1      -1.475  -0.854   2.803  0.00  0.00     0.048 A 
ATOM      4  C3  UNL d   1      -1.580   0.070   1.764  0.00  0.00     0.023 A 
ATOM      5  C4  UNL d   1      -0.492   0.876   1.423  0.00  0.00     0.048 A 
ATOM      6  C5  UNL d   1       0.707   0.753   2.128  0.00  0.00     0.003 A 
ATOM      7  I   UNL d   1      -3.366   0.250   0.717  0.00  0.00    -0.146 I 
ENDROOT
TORSDOF 0
ENDMDL
