MODEL 1
REMARK minimizedAffinity -2.01356411
REMARK minimizedRMSD -1
REMARK  0 active torsions:
REMARK  status: ('A' for Active; 'I' for Inactive)
ROOT
ATOM      1  C   UNL d   1      -0.435  -0.675   2.998  0.00  0.00     0.023 A 
ATOM      2  C1  UNL d   1       0.388   0.377   2.598  0.00  0.00     0.003 A 
ATOM      3  C2  UNL d   1       0.527   0.681   1.242  0.00  0.00     0.048 A 
ATOM      4  C3  UNL d   1      -0.163  -0.071   0.292  0.00  0.00     0.023 A 
ATOM      5  C4  UNL d   1      -0.989  -1.124   0.687  0.00  0.00     0.048 A 
ATOM      6  C5  UNL d   1      -1.123  -1.425   2.044  0.00  0.00     0.003 A 
ATOM      7  I   UNL d   1       0.041   0.379  -1.727  0.00  0.00    -0.146 I 
ENDROOT
TORSDOF 0
ENDMDL
