MODEL 1
REMARK minimizedAffinity -3.89294481
REMARK minimizedRMSD -1
REMARK  0 active torsions:
REMARK  status: ('A' for Active; 'I' for Inactive)
ROOT
ATOM      1  C   UNL d   1       0.493  -0.296   2.742  0.00  0.00     0.023 A 
ATOM      2  C1  UNL d   1      -0.713  -0.643   2.134  0.00  0.00     0.003 A 
ATOM      3  C2  UNL d   1      -0.890  -0.440   0.763  0.00  0.00     0.048 A 
ATOM      4  C3  UNL d   1       0.145   0.109   0.007  0.00  0.00     0.023 A 
ATOM      5  C4  UNL d   1       1.354   0.457   0.611  0.00  0.00     0.048 A 
ATOM      6  C5  UNL d   1       1.525   0.253   1.982  0.00  0.00     0.003 A 
ATOM      7  I   UNL d   1      -0.115   0.412  -2.033  0.00  0.00    -0.146 I 
ENDROOT
TORSDOF 0
ENDMDL
