MODEL 1
REMARK minimizedAffinity -4.91850567
REMARK minimizedRMSD -1
REMARK  0 active torsions:
REMARK  status: ('A' for Active; 'I' for Inactive)
ROOT
ATOM      1  C   UNL d   1      -2.381  -0.571   3.274  0.00  0.00     0.023 A 
ATOM      2  C1  UNL d   1      -2.982  -0.226   2.064  0.00  0.00     0.003 A 
ATOM      3  C2  UNL d   1      -2.196   0.017   0.936  0.00  0.00     0.048 A 
ATOM      4  C3  UNL d   1      -0.809  -0.089   1.024  0.00  0.00     0.023 A 
ATOM      5  C4  UNL d   1      -0.202  -0.436   2.233  0.00  0.00     0.048 A 
ATOM      6  C5  UNL d   1      -0.992  -0.676   3.358  0.00  0.00     0.003 A 
ATOM      7  I   UNL d   1       0.364   0.271  -0.653  0.00  0.00    -0.146 I 
ENDROOT
TORSDOF 0
ENDMDL
