MODEL 1
REMARK minimizedAffinity -4.36200857
REMARK minimizedRMSD -1
REMARK  0 active torsions:
REMARK  status: ('A' for Active; 'I' for Inactive)
ROOT
ATOM      1  C   UNL d   1      -2.132  -0.344   3.461  0.00  0.00     0.023 A 
ATOM      2  C1  UNL d   1      -2.723   0.265   2.354  0.00  0.00     0.003 A 
ATOM      3  C2  UNL d   1      -1.967   0.514   1.206  0.00  0.00     0.048 A 
ATOM      4  C3  UNL d   1      -0.621   0.152   1.173  0.00  0.00     0.023 A 
ATOM      5  C4  UNL d   1      -0.025  -0.458   2.278  0.00  0.00     0.048 A 
ATOM      6  C5  UNL d   1      -0.785  -0.704   3.424  0.00  0.00     0.003 A 
ATOM      7  I   UNL d   1       0.506   0.521  -0.534  0.00  0.00    -0.146 I 
ENDROOT
TORSDOF 0
ENDMDL
