MODEL 1
REMARK minimizedAffinity -2.69907236
REMARK minimizedRMSD -1
REMARK  0 active torsions:
REMARK  status: ('A' for Active; 'I' for Inactive)
ROOT
ATOM      1  C   UNL d   1      -0.332   0.590   1.008  0.00  0.00     0.023 A 
ATOM      2  C1  UNL d   1       0.968   0.116   0.828  0.00  0.00     0.003 A 
ATOM      3  C2  UNL d   1       1.429  -0.193  -0.453  0.00  0.00     0.048 A 
ATOM      4  C3  UNL d   1       0.585  -0.024  -1.550  0.00  0.00     0.023 A 
ATOM      5  C4  UNL d   1      -0.716   0.450  -1.375  0.00  0.00     0.048 A 
ATOM      6  C5  UNL d   1      -1.173   0.756  -0.092  0.00  0.00     0.003 A 
ATOM      7  I   UNL d   1       1.269  -0.483  -3.459  0.00  0.00    -0.146 I 
ENDROOT
TORSDOF 0
ENDMDL
