MODEL 1
REMARK minimizedAffinity 2.96776628
REMARK minimizedRMSD -1
REMARK  0 active torsions:
REMARK  status: ('A' for Active; 'I' for Inactive)
ROOT
ATOM      1  C   UNL d   1      -2.700  -2.348   1.670  0.00  0.00     0.023 A 
ATOM      2  C1  UNL d   1      -2.258  -1.134   2.196  0.00  0.00     0.003 A 
ATOM      3  C2  UNL d   1      -1.443  -0.296   1.433  0.00  0.00     0.048 A 
ATOM      4  C3  UNL d   1      -1.073  -0.678   0.144  0.00  0.00     0.023 A 
ATOM      5  C4  UNL d   1      -1.513  -1.892  -0.387  0.00  0.00     0.048 A 
ATOM      6  C5  UNL d   1      -2.327  -2.726   0.380  0.00  0.00     0.003 A 
ATOM      7  I   UNL d   1       0.141   0.568  -0.994  0.00  0.00    -0.146 I 
ENDROOT
TORSDOF 0
ENDMDL
