MODEL 1
REMARK minimizedAffinity -2.1576066
REMARK minimizedRMSD -1
REMARK  0 active torsions:
REMARK  status: ('A' for Active; 'I' for Inactive)
ROOT
ATOM      1  C   UNL d   1      -0.210  -0.773   0.697  0.00  0.00     0.023 A 
ATOM      2  C1  UNL d   1       0.635   0.289   0.375  0.00  0.00     0.003 A 
ATOM      3  C2  UNL d   1       0.900   1.282   1.320  0.00  0.00     0.048 A 
ATOM      4  C3  UNL d   1       0.318   1.207   2.584  0.00  0.00     0.023 A 
ATOM      5  C4  UNL d   1      -0.528   0.146   2.911  0.00  0.00     0.048 A 
ATOM      6  C5  UNL d   1      -0.791  -0.845   1.963  0.00  0.00     0.003 A 
ATOM      7  I   UNL d   1       0.711   2.685   3.992  0.00  0.00    -0.146 I 
ENDROOT
TORSDOF 0
ENDMDL
