MODEL 1
REMARK minimizedAffinity -5.48986292
REMARK minimizedRMSD -1
REMARK  0 active torsions:
REMARK  status: ('A' for Active; 'I' for Inactive)
ROOT
ATOM      1  C1  DEN d   1      -0.152  -0.125  -0.826  0.00  0.00     0.130 A 
ATOM      2  C2  DEN d   1       1.215   0.389  -0.808  0.00  0.00    -0.031 A 
ATOM      3  C3  DEN d   1       1.557   0.727   0.588  0.00  0.00     0.027 A 
ATOM      4  C4  DEN d   1       0.112   0.503   2.713  0.00  0.00     0.027 A 
ATOM      5  C5  DEN d   1      -1.121   0.127   3.197  0.00  0.00    -0.003 A 
ATOM      6  C6  DEN d   1      -2.121  -0.324   2.376  0.00  0.00     0.001 A 
ATOM      7  C7  DEN d   1      -1.890  -0.452   1.032  0.00  0.00     0.017 A 
ATOM      8  C8  DEN d   1      -0.652  -0.068   0.536  0.00  0.00    -0.094 A 
ATOM      9  C9  DEN d   1       0.350   0.373   1.383  0.00  0.00    -0.072 A 
ENDROOT
TORSDOF 0
ENDMDL
