MODEL 1
REMARK minimizedAffinity -6.37011194
REMARK minimizedRMSD -1
REMARK  0 active torsions:
REMARK  status: ('A' for Active; 'I' for Inactive)
ROOT
ATOM      1  C1  DEN d   1       0.711   0.339  -0.164  0.00  0.00     0.130 A 
ATOM      2  C2  DEN d   1      -0.334   0.452  -1.178  0.00  0.00    -0.031 A 
ATOM      3  C3  DEN d   1      -1.640   0.304  -0.506  0.00  0.00     0.027 A 
ATOM      4  C4  DEN d   1      -2.144  -0.081   1.994  0.00  0.00     0.027 A 
ATOM      5  C5  DEN d   1      -1.581  -0.257   3.238  0.00  0.00    -0.003 A 
ATOM      6  C6  DEN d   1      -0.225  -0.280   3.429  0.00  0.00     0.001 A 
ATOM      7  C7  DEN d   1       0.614  -0.080   2.365  0.00  0.00     0.017 A 
ATOM      8  C8  DEN d   1       0.054   0.091   1.106  0.00  0.00    -0.094 A 
ATOM      9  C9  DEN d   1      -1.320   0.123   0.935  0.00  0.00    -0.072 A 
ENDROOT
TORSDOF 0
ENDMDL
