MODEL 1
REMARK minimizedAffinity -7.27821064
REMARK minimizedRMSD -1
REMARK  0 active torsions:
REMARK  status: ('A' for Active; 'I' for Inactive)
ROOT
ATOM      1  C1  DEN d   1      -0.650   0.148  -0.477  0.00  0.00     0.130 A 
ATOM      2  C2  DEN d   1       0.805   0.267  -0.513  0.00  0.00    -0.031 A 
ATOM      3  C3  DEN d   1       1.304   0.184   0.874  0.00  0.00     0.027 A 
ATOM      4  C4  DEN d   1      -0.027  -0.120   3.062  0.00  0.00     0.027 A 
ATOM      5  C5  DEN d   1      -1.288  -0.257   3.599  0.00  0.00    -0.003 A 
ATOM      6  C6  DEN d   1      -2.418  -0.234   2.825  0.00  0.00     0.001 A 
ATOM      7  C7  DEN d   1      -2.306  -0.116   1.465  0.00  0.00     0.017 A 
ATOM      8  C8  DEN d   1      -1.039   0.029   0.917  0.00  0.00    -0.094 A 
ATOM      9  C9  DEN d   1       0.092  -0.008   1.715  0.00  0.00    -0.072 A 
ENDROOT
TORSDOF 0
ENDMDL
