MODEL 1
REMARK minimizedAffinity -5.33421516
REMARK minimizedRMSD -1
REMARK  0 active torsions:
REMARK  status: ('A' for Active; 'I' for Inactive)
ROOT
ATOM      1  C1  DEN d   1       1.182   0.067   0.630  0.00  0.00     0.130 A 
ATOM      2  C2  DEN d   1       0.746   0.098  -0.764  0.00  0.00    -0.031 A 
ATOM      3  C3  DEN d   1      -0.710  -0.147  -0.793  0.00  0.00     0.027 A 
ATOM      4  C4  DEN d   1      -2.325  -0.562   1.175  0.00  0.00     0.027 A 
ATOM      5  C5  DEN d   1      -2.417  -0.692   2.544  0.00  0.00    -0.003 A 
ATOM      6  C6  DEN d   1      -1.320  -0.611   3.360  0.00  0.00     0.001 A 
ATOM      7  C7  DEN d   1      -0.089  -0.351   2.819  0.00  0.00     0.017 A 
ATOM      8  C8  DEN d   1       0.013  -0.227   1.440  0.00  0.00    -0.094 A 
ATOM      9  C9  DEN d   1      -1.109  -0.299   0.632  0.00  0.00    -0.072 A 
ENDROOT
TORSDOF 0
ENDMDL
