MODEL 1
REMARK minimizedAffinity -5.78324604
REMARK minimizedRMSD -1
REMARK  0 active torsions:
REMARK  status: ('A' for Active; 'I' for Inactive)
ROOT
ATOM      1  C1  DEN d   1      -2.093  -0.133   2.893  0.00  0.00     0.130 A 
ATOM      2  C2  DEN d   1      -3.218   0.079   1.986  0.00  0.00    -0.031 A 
ATOM      3  C3  DEN d   1      -2.678   0.258   0.623  0.00  0.00     0.027 A 
ATOM      4  C4  DEN d   1      -0.224   0.222  -0.168  0.00  0.00     0.027 A 
ATOM      5  C5  DEN d   1       1.085   0.087   0.240  0.00  0.00    -0.003 A 
ATOM      6  C6  DEN d   1       1.426  -0.095   1.554  0.00  0.00     0.001 A 
ATOM      7  C7  DEN d   1       0.443  -0.192   2.503  0.00  0.00     0.017 A 
ATOM      8  C8  DEN d   1      -0.879  -0.050   2.101  0.00  0.00    -0.094 A 
ATOM      9  C9  DEN d   1      -1.204   0.121   0.766  0.00  0.00    -0.072 A 
ENDROOT
TORSDOF 0
ENDMDL
