MODEL 1
REMARK minimizedAffinity -6.80986214
REMARK minimizedRMSD -1
REMARK  0 active torsions:
REMARK  status: ('A' for Active; 'I' for Inactive)
ROOT
ATOM      1  C1  DEN d   1      -0.313   0.155  -0.933  0.00  0.00     0.130 A 
ATOM      2  C2  DEN d   1       1.134   0.006  -0.800  0.00  0.00    -0.031 A 
ATOM      3  C3  DEN d   1       1.441  -0.213   0.628  0.00  0.00     0.027 A 
ATOM      4  C4  DEN d   1      -0.175  -0.341   2.634  0.00  0.00     0.027 A 
ATOM      5  C5  DEN d   1      -1.495  -0.262   3.019  0.00  0.00    -0.003 A 
ATOM      6  C6  DEN d   1      -2.502  -0.007   2.126  0.00  0.00     0.001 A 
ATOM      7  C7  DEN d   1      -2.209   0.134   0.795  0.00  0.00     0.017 A 
ATOM      8  C8  DEN d   1      -0.880   0.063   0.401  0.00  0.00    -0.094 A 
ATOM      9  C9  DEN d   1       0.123  -0.208   1.317  0.00  0.00    -0.072 A 
ENDROOT
TORSDOF 0
ENDMDL
