MODEL 1
REMARK minimizedAffinity -6.85332918
REMARK minimizedRMSD -1
REMARK  0 active torsions:
REMARK  status: ('A' for Active; 'I' for Inactive)
ROOT
ATOM      1  C1  DEN d   1       1.000   0.079   0.092  0.00  0.00     0.130 A 
ATOM      2  C2  DEN d   1       0.257   0.394  -1.124  0.00  0.00    -0.031 A 
ATOM      3  C3  DEN d   1      -1.178   0.455  -0.780  0.00  0.00     0.027 A 
ATOM      4  C4  DEN d   1      -2.314   0.099   1.508  0.00  0.00     0.027 A 
ATOM      5  C5  DEN d   1      -2.096  -0.200   2.835  0.00  0.00    -0.003 A 
ATOM      6  C6  DEN d   1      -0.846  -0.459   3.330  0.00  0.00     0.001 A 
ATOM      7  C7  DEN d   1       0.242  -0.379   2.501  0.00  0.00     0.017 A 
ATOM      8  C8  DEN d   1       0.030  -0.084   1.160  0.00  0.00    -0.094 A 
ATOM      9  C9  DEN d   1      -1.241   0.186   0.682  0.00  0.00    -0.072 A 
ENDROOT
TORSDOF 0
ENDMDL
