MODEL 1
REMARK minimizedAffinity -5.08673
REMARK minimizedRMSD -1
REMARK  0 active torsions:
REMARK  status: ('A' for Active; 'I' for Inactive)
ROOT
ATOM      1  C1  DEN d   1       0.987   0.380  -0.488  0.00  0.00     0.130 A 
ATOM      2  C2  DEN d   1      -0.016   0.466  -1.547  0.00  0.00    -0.031 A 
ATOM      3  C3  DEN d   1      -1.322   0.090  -0.970  0.00  0.00     0.027 A 
ATOM      4  C4  DEN d   1      -1.888  -0.608   1.447  0.00  0.00     0.027 A 
ATOM      5  C5  DEN d   1      -1.365  -0.839   2.701  0.00  0.00    -0.003 A 
ATOM      6  C6  DEN d   1      -0.028  -0.714   2.969  0.00  0.00     0.001 A 
ATOM      7  C7  DEN d   1       0.827  -0.303   1.980  0.00  0.00     0.017 A 
ATOM      8  C8  DEN d   1       0.308  -0.076   0.712  0.00  0.00    -0.094 A 
ATOM      9  C9  DEN d   1      -1.049  -0.197   0.464  0.00  0.00    -0.072 A 
ENDROOT
TORSDOF 0
ENDMDL
