MODEL 1
REMARK minimizedAffinity -6.71380568
REMARK minimizedRMSD -1
REMARK  0 active torsions:
REMARK  status: ('A' for Active; 'I' for Inactive)
ROOT
ATOM      1  C1  DEN d   1       1.014   0.194   0.819  0.00  0.00     0.130 A 
ATOM      2  C2  DEN d   1       0.669   0.447  -0.578  0.00  0.00    -0.031 A 
ATOM      3  C3  DEN d   1      -0.798   0.343  -0.712  0.00  0.00     0.027 A 
ATOM      4  C4  DEN d   1      -2.559  -0.178   1.099  0.00  0.00     0.027 A 
ATOM      5  C5  DEN d   1      -2.746  -0.476   2.430  0.00  0.00    -0.003 A 
ATOM      6  C6  DEN d   1      -1.699  -0.605   3.304  0.00  0.00     0.001 A 
ATOM      7  C7  DEN d   1      -0.419  -0.390   2.865  0.00  0.00     0.017 A 
ATOM      8  C8  DEN d   1      -0.222  -0.096   1.522  0.00  0.00    -0.094 A 
ATOM      9  C9  DEN d   1      -1.295   0.042   0.658  0.00  0.00    -0.072 A 
ENDROOT
TORSDOF 0
ENDMDL
