MODEL 1
REMARK minimizedAffinity 0.59049356
REMARK minimizedRMSD -1
REMARK  0 active torsions:
REMARK  status: ('A' for Active; 'I' for Inactive)
ROOT
ATOM      1  C1  DEN d   1       2.032  -0.052  -1.971  0.00  0.00     0.130 A 
ATOM      2  C2  DEN d   1       1.082  -0.178  -3.073  0.00  0.00    -0.031 A 
ATOM      3  C3  DEN d   1      -0.281  -0.156  -2.504  0.00  0.00     0.027 A 
ATOM      4  C4  DEN d   1      -1.008   0.065  -0.039  0.00  0.00     0.027 A 
ATOM      5  C5  DEN d   1      -0.558   0.187   1.257  0.00  0.00    -0.003 A 
ATOM      6  C6  DEN d   1       0.775   0.203   1.569  0.00  0.00     0.001 A 
ATOM      7  C7  DEN d   1       1.708   0.141   0.567  0.00  0.00     0.017 A 
ATOM      8  C8  DEN d   1       1.262   0.011  -0.742  0.00  0.00    -0.094 A 
ATOM      9  C9  DEN d   1      -0.091   0.009  -1.038  0.00  0.00    -0.072 A 
ENDROOT
TORSDOF 0
ENDMDL
