MODEL 1
REMARK minimizedAffinity -0.703868926
REMARK minimizedRMSD -1
REMARK  0 active torsions:
REMARK  status: ('A' for Active; 'I' for Inactive)
ROOT
ATOM      1  C1  DEN d   1       0.093  -0.934   0.234  0.00  0.00     0.130 A 
ATOM      2  C2  DEN d   1       0.240   0.500   0.470  0.00  0.00    -0.031 A 
ATOM      3  C3  DEN d   1       0.700   1.125  -0.786  0.00  0.00     0.027 A 
ATOM      4  C4  DEN d   1       1.192   0.019  -3.064  0.00  0.00     0.027 A 
ATOM      5  C5  DEN d   1       1.222  -1.176  -3.748  0.00  0.00    -0.003 A 
ATOM      6  C6  DEN d   1       0.914  -2.369  -3.149  0.00  0.00     0.001 A 
ATOM      7  C7  DEN d   1       0.517  -2.387  -1.838  0.00  0.00     0.017 A 
ATOM      8  C8  DEN d   1       0.491  -1.187  -1.139  0.00  0.00    -0.094 A 
ATOM      9  C9  DEN d   1       0.795   0.009  -1.766  0.00  0.00    -0.072 A 
ENDROOT
TORSDOF 0
ENDMDL
