MODEL 1
REMARK minimizedAffinity -6.11739445
REMARK minimizedRMSD -1
REMARK  0 active torsions:
REMARK  status: ('A' for Active; 'I' for Inactive)
ROOT
ATOM      1  C1  DEN d   1       1.305   0.794   0.128  0.00  0.00     0.130 A 
ATOM      2  C2  DEN d   1       0.620   0.745  -1.161  0.00  0.00    -0.031 A 
ATOM      3  C3  DEN d   1      -0.722   0.169  -0.944  0.00  0.00     0.027 A 
ATOM      4  C4  DEN d   1      -1.803  -0.642   1.253  0.00  0.00     0.027 A 
ATOM      5  C5  DEN d   1      -1.606  -0.811   2.606  0.00  0.00    -0.003 A 
ATOM      6  C6  DEN d   1      -0.423  -0.490   3.217  0.00  0.00     0.001 A 
ATOM      7  C7  DEN d   1       0.595   0.058   2.481  0.00  0.00     0.017 A 
ATOM      8  C8  DEN d   1       0.406   0.224   1.115  0.00  0.00    -0.094 A 
ATOM      9  C9  DEN d   1      -0.802  -0.095   0.518  0.00  0.00    -0.072 A 
ENDROOT
TORSDOF 0
ENDMDL
