MODEL 1
REMARK minimizedAffinity -3.37138438
REMARK minimizedRMSD -1
REMARK  0 active torsions:
REMARK  status: ('A' for Active; 'I' for Inactive)
ROOT
ATOM      1  C1  DEN d   1      -0.568  -0.357  -3.456  0.00  0.00     0.130 A 
ATOM      2  C2  DEN d   1       0.277  -1.404  -4.026  0.00  0.00    -0.031 A 
ATOM      3  C3  DEN d   1       1.263  -1.802  -3.002  0.00  0.00     0.027 A 
ATOM      4  C4  DEN d   1       1.561  -0.908  -0.601  0.00  0.00     0.027 A 
ATOM      5  C5  DEN d   1       1.088  -0.009   0.329  0.00  0.00    -0.003 A 
ATOM      6  C6  DEN d   1       0.061   0.854   0.053  0.00  0.00     0.001 A 
ATOM      7  C7  DEN d   1      -0.558   0.805  -1.169  0.00  0.00     0.017 A 
ATOM      8  C8  DEN d   1      -0.082  -0.094  -2.114  0.00  0.00    -0.094 A 
ATOM      9  C9  DEN d   1       0.950  -0.967  -1.811  0.00  0.00    -0.072 A 
ENDROOT
TORSDOF 0
ENDMDL
