MODEL 1
REMARK minimizedAffinity -6.27008677
REMARK minimizedRMSD -1
REMARK  0 active torsions:
REMARK  status: ('A' for Active; 'I' for Inactive)
ROOT
ATOM      1  C1  DEN d   1      -0.798  -0.090  -0.925  0.00  0.00     0.130 A 
ATOM      2  C2  DEN d   1       0.646  -0.310  -0.928  0.00  0.00    -0.031 A 
ATOM      3  C3  DEN d   1       1.084  -0.482   0.472  0.00  0.00     0.027 A 
ATOM      4  C4  DEN d   1      -0.327  -0.434   2.631  0.00  0.00     0.027 A 
ATOM      5  C5  DEN d   1      -1.596  -0.267   3.139  0.00  0.00    -0.003 A 
ATOM      6  C6  DEN d   1      -2.674   0.002   2.338  0.00  0.00     0.001 A 
ATOM      7  C7  DEN d   1      -2.510   0.067   0.979  0.00  0.00     0.017 A 
ATOM      8  C8  DEN d   1      -1.232  -0.092   0.460  0.00  0.00    -0.094 A 
ATOM      9  C9  DEN d   1      -0.157  -0.376   1.286  0.00  0.00    -0.072 A 
ENDROOT
TORSDOF 0
ENDMDL
