MODEL 1
REMARK minimizedAffinity -6.70982122
REMARK minimizedRMSD -1
REMARK  0 active torsions:
REMARK  status: ('A' for Active; 'I' for Inactive)
ROOT
ATOM      1  C1  DEN d   1      -0.843   0.355  -0.904  0.00  0.00     0.130 A 
ATOM      2  C2  DEN d   1       0.615   0.435  -0.942  0.00  0.00    -0.031 A 
ATOM      3  C3  DEN d   1       1.119   0.240   0.432  0.00  0.00     0.027 A 
ATOM      4  C4  DEN d   1      -0.209  -0.180   2.603  0.00  0.00     0.027 A 
ATOM      5  C5  DEN d   1      -1.471  -0.318   3.138  0.00  0.00    -0.003 A 
ATOM      6  C6  DEN d   1      -2.603  -0.209   2.376  0.00  0.00     0.001 A 
ATOM      7  C7  DEN d   1      -2.495   0.002   1.027  0.00  0.00     0.017 A 
ATOM      8  C8  DEN d   1      -1.227   0.149   0.481  0.00  0.00    -0.094 A 
ATOM      9  C9  DEN d   1      -0.094   0.023   1.266  0.00  0.00    -0.072 A 
ENDROOT
TORSDOF 0
ENDMDL
