MODEL 1
REMARK minimizedAffinity -2.52704334
REMARK minimizedRMSD -1
REMARK  0 active torsions:
REMARK  status: ('A' for Active; 'I' for Inactive)
ROOT
ATOM      1  C   UNL d   1      -2.441   1.777   1.213  0.00  0.00     0.023 A 
ATOM      2  C1  UNL d   1      -1.546   1.292   2.166  0.00  0.00     0.003 A 
ATOM      3  C2  UNL d   1      -0.433   0.550   1.766  0.00  0.00     0.048 A 
ATOM      4  C3  UNL d   1      -0.221   0.297   0.411  0.00  0.00     0.023 A 
ATOM      5  C4  UNL d   1      -1.114   0.780  -0.546  0.00  0.00     0.048 A 
ATOM      6  C5  UNL d   1      -2.226   1.521  -0.141  0.00  0.00     0.003 A 
ATOM      7  I   UNL d   1       1.435  -0.808  -0.186  0.00  0.00    -0.146 I 
ENDROOT
TORSDOF 0
ENDMDL
