MODEL 1
REMARK minimizedAffinity -3.65848255
REMARK minimizedRMSD -1
REMARK  0 active torsions:
REMARK  status: ('A' for Active; 'I' for Inactive)
ROOT
ATOM      1  C   UNL d   1      -1.174   1.589   1.763  0.00  0.00     0.023 A 
ATOM      2  C1  UNL d   1      -0.401   0.475   2.089  0.00  0.00     0.003 A 
ATOM      3  C2  UNL d   1      -0.027  -0.431   1.094  0.00  0.00     0.048 A 
ATOM      4  C3  UNL d   1      -0.429  -0.217  -0.223  0.00  0.00     0.023 A 
ATOM      5  C4  UNL d   1      -1.202   0.897  -0.554  0.00  0.00     0.048 A 
ATOM      6  C5  UNL d   1      -1.575   1.800   0.444  0.00  0.00     0.003 A 
ATOM      7  I   UNL d   1       0.127  -1.564  -1.705  0.00  0.00    -0.146 I 
ENDROOT
TORSDOF 0
ENDMDL
