MODEL 1
REMARK minimizedAffinity -4.04974651
REMARK minimizedRMSD -1
REMARK  0 active torsions:
REMARK  status: ('A' for Active; 'I' for Inactive)
ROOT
ATOM      1  C   UNL d   1      -1.204   2.186   1.142  0.00  0.00     0.023 A 
ATOM      2  C1  UNL d   1      -0.814   2.275  -0.194  0.00  0.00     0.003 A 
ATOM      3  C2  UNL d   1      -0.193   1.189  -0.815  0.00  0.00     0.048 A 
ATOM      4  C3  UNL d   1       0.033   0.017  -0.094  0.00  0.00     0.023 A 
ATOM      5  C4  UNL d   1      -0.357  -0.076   1.243  0.00  0.00     0.048 A 
ATOM      6  C5  UNL d   1      -0.976   1.012   1.859  0.00  0.00     0.003 A 
ATOM      7  I   UNL d   1       0.956  -1.601  -1.016  0.00  0.00    -0.146 I 
ENDROOT
TORSDOF 0
ENDMDL
