MODEL 1
REMARK minimizedAffinity -4.46216011
REMARK minimizedRMSD -1
REMARK  0 active torsions:
REMARK  status: ('A' for Active; 'I' for Inactive)
ROOT
ATOM      1  C   UNL d   1      -1.894   1.721   1.638  0.00  0.00     0.023 A 
ATOM      2  C1  UNL d   1      -1.148   0.656   2.144  0.00  0.00     0.003 A 
ATOM      3  C2  UNL d   1      -0.218   0.005   1.331  0.00  0.00     0.048 A 
ATOM      4  C3  UNL d   1      -0.038   0.424   0.014  0.00  0.00     0.023 A 
ATOM      5  C4  UNL d   1      -0.781   1.490  -0.497  0.00  0.00     0.048 A 
ATOM      6  C5  UNL d   1      -1.711   2.137   0.319  0.00  0.00     0.003 A 
ATOM      7  I   UNL d   1       1.346  -0.544  -1.198  0.00  0.00    -0.146 I 
ENDROOT
TORSDOF 0
ENDMDL
