MODEL 1
REMARK minimizedAffinity 1.36396289
REMARK minimizedRMSD -1
REMARK  0 active torsions:
REMARK  status: ('A' for Active; 'I' for Inactive)
ROOT
ATOM      1  C   UNL d   1      -1.134   2.170  -0.860  0.00  0.00     0.023 A 
ATOM      2  C1  UNL d   1      -1.774   1.240  -0.040  0.00  0.00     0.003 A 
ATOM      3  C2  UNL d   1      -1.205  -0.018   0.169  0.00  0.00     0.048 A 
ATOM      4  C3  UNL d   1       0.005  -0.340  -0.445  0.00  0.00     0.023 A 
ATOM      5  C4  UNL d   1       0.650   0.587  -1.266  0.00  0.00     0.048 A 
ATOM      6  C5  UNL d   1       0.077   1.844  -1.472  0.00  0.00     0.003 A 
ATOM      7  I   UNL d   1       0.854  -2.211  -0.136  0.00  0.00    -0.146 I 
ENDROOT
TORSDOF 0
ENDMDL
