MODEL 1
REMARK minimizedAffinity -5.05326796
REMARK minimizedRMSD -1
REMARK  0 active torsions:
REMARK  status: ('A' for Active; 'I' for Inactive)
ROOT
ATOM      1  C   UNL d   1      -1.420   1.699   1.596  0.00  0.00     0.023 A 
ATOM      2  C1  UNL d   1      -1.473   1.833   0.209  0.00  0.00     0.003 A 
ATOM      3  C2  UNL d   1      -0.913   0.851  -0.611  0.00  0.00     0.048 A 
ATOM      4  C3  UNL d   1      -0.304  -0.264  -0.036  0.00  0.00     0.023 A 
ATOM      5  C4  UNL d   1      -0.250  -0.403   1.352  0.00  0.00     0.048 A 
ATOM      6  C5  UNL d   1      -0.810   0.582   2.167  0.00  0.00     0.003 A 
ATOM      7  I   UNL d   1       0.529  -1.728  -1.254  0.00  0.00    -0.146 I 
ENDROOT
TORSDOF 0
ENDMDL
