MODEL 1
REMARK minimizedAffinity -2.98293376
REMARK minimizedRMSD -1
REMARK  0 active torsions:
REMARK  status: ('A' for Active; 'I' for Inactive)
ROOT
ATOM      1  C   UNL d   1      -1.278   2.824   1.270  0.00  0.00     0.023 A 
ATOM      2  C1  UNL d   1      -0.886   1.740   2.056  0.00  0.00     0.003 A 
ATOM      3  C2  UNL d   1      -0.630   0.502   1.463  0.00  0.00     0.048 A 
ATOM      4  C3  UNL d   1      -0.767   0.355   0.083  0.00  0.00     0.023 A 
ATOM      5  C4  UNL d   1      -1.157   1.436  -0.708  0.00  0.00     0.048 A 
ATOM      6  C5  UNL d   1      -1.413   2.672  -0.110  0.00  0.00     0.003 A 
ATOM      7  I   UNL d   1      -0.386  -1.487  -0.801  0.00  0.00    -0.146 I 
ENDROOT
TORSDOF 0
ENDMDL
