MODEL 1
REMARK minimizedAffinity -3.75516582
REMARK minimizedRMSD -1
REMARK  0 active torsions:
REMARK  status: ('A' for Active; 'I' for Inactive)
ROOT
ATOM      1  C   UNL d   1       1.695   0.138  -1.317  0.00  0.00     0.023 A 
ATOM      2  C1  UNL d   1       1.215   1.407  -1.637  0.00  0.00     0.003 A 
ATOM      3  C2  UNL d   1       0.175   1.970  -0.895  0.00  0.00     0.048 A 
ATOM      4  C3  UNL d   1      -0.380   1.257   0.168  0.00  0.00     0.023 A 
ATOM      5  C4  UNL d   1       0.098  -0.014   0.492  0.00  0.00     0.048 A 
ATOM      6  C5  UNL d   1       1.138  -0.572  -0.253  0.00  0.00     0.003 A 
ATOM      7  I   UNL d   1      -1.929   2.092   1.274  0.00  0.00    -0.146 I 
ENDROOT
TORSDOF 0
ENDMDL
