MODEL 1
REMARK minimizedAffinity -2.90389824
REMARK minimizedRMSD -1
REMARK  0 active torsions:
REMARK  status: ('A' for Active; 'I' for Inactive)
ROOT
ATOM      1  C   UNL d   1      -0.700   0.894   2.375  0.00  0.00     0.023 A 
ATOM      2  C1  UNL d   1       0.136  -0.221   2.309  0.00  0.00     0.003 A 
ATOM      3  C2  UNL d   1       0.324  -0.883   1.094  0.00  0.00     0.048 A 
ATOM      4  C3  UNL d   1      -0.326  -0.423  -0.052  0.00  0.00     0.023 A 
ATOM      5  C4  UNL d   1      -1.162   0.693   0.010  0.00  0.00     0.048 A 
ATOM      6  C5  UNL d   1      -1.347   1.351   1.227  0.00  0.00     0.003 A 
ATOM      7  I   UNL d   1      -0.047  -1.406  -1.862  0.00  0.00    -0.146 I 
ENDROOT
TORSDOF 0
ENDMDL
