MODEL 1
REMARK minimizedAffinity -3.27067304
REMARK minimizedRMSD -1
REMARK  0 active torsions:
REMARK  status: ('A' for Active; 'I' for Inactive)
ROOT
ATOM      1  C   UNL d   1      -1.333   1.128   1.671  0.00  0.00     0.023 A 
ATOM      2  C1  UNL d   1      -0.657  -0.016   2.095  0.00  0.00     0.003 A 
ATOM      3  C2  UNL d   1       0.044  -0.796   1.173  0.00  0.00     0.048 A 
ATOM      4  C3  UNL d   1       0.067  -0.425  -0.171  0.00  0.00     0.023 A 
ATOM      5  C4  UNL d   1      -0.606   0.720  -0.599  0.00  0.00     0.048 A 
ATOM      6  C5  UNL d   1      -1.307   1.496   0.325  0.00  0.00     0.003 A 
ATOM      7  I   UNL d   1       1.112  -1.584  -1.544  0.00  0.00    -0.146 I 
ENDROOT
TORSDOF 0
ENDMDL
