MODEL 1
REMARK minimizedAffinity -4.38682508
REMARK minimizedRMSD -1
REMARK  0 active torsions:
REMARK  status: ('A' for Active; 'I' for Inactive)
ROOT
ATOM      1  C   UNL d   1      -1.687   2.145   1.601  0.00  0.00     0.023 A 
ATOM      2  C1  UNL d   1      -2.122   1.904   0.298  0.00  0.00     0.003 A 
ATOM      3  C2  UNL d   1      -1.494   0.929  -0.480  0.00  0.00     0.048 A 
ATOM      4  C3  UNL d   1      -0.432   0.199   0.051  0.00  0.00     0.023 A 
ATOM      5  C4  UNL d   1       0.007   0.436   1.355  0.00  0.00     0.048 A 
ATOM      6  C5  UNL d   1      -0.624   1.412   2.129  0.00  0.00     0.003 A 
ATOM      7  I   UNL d   1       0.505  -1.252  -1.105  0.00  0.00    -0.146 I 
ENDROOT
TORSDOF 0
ENDMDL
