MODEL 1
REMARK minimizedAffinity -4.64265394
REMARK minimizedRMSD -1
REMARK  0 active torsions:
REMARK  status: ('A' for Active; 'I' for Inactive)
ROOT
ATOM      1  C   UNL d   1      -1.317   1.907   1.982  0.00  0.00     0.023 A 
ATOM      2  C1  UNL d   1      -1.693   1.829   0.641  0.00  0.00     0.003 A 
ATOM      3  C2  UNL d   1      -1.158   0.832  -0.178  0.00  0.00     0.048 A 
ATOM      4  C3  UNL d   1      -0.249  -0.083   0.351  0.00  0.00     0.023 A 
ATOM      5  C4  UNL d   1       0.130  -0.009   1.693  0.00  0.00     0.048 A 
ATOM      6  C5  UNL d   1      -0.407   0.990   2.507  0.00  0.00     0.003 A 
ATOM      7  I   UNL d   1       0.549  -1.568  -0.866  0.00  0.00    -0.146 I 
ENDROOT
TORSDOF 0
ENDMDL
