MODEL 1
REMARK minimizedAffinity -3.08319426
REMARK minimizedRMSD -1
REMARK  0 active torsions:
REMARK  status: ('A' for Active; 'I' for Inactive)
ROOT
ATOM      1  C   UNL d   1      -1.720   1.770   1.618  0.00  0.00     0.023 A 
ATOM      2  C1  UNL d   1      -0.601   1.171   2.196  0.00  0.00     0.003 A 
ATOM      3  C2  UNL d   1       0.195   0.304   1.444  0.00  0.00     0.048 A 
ATOM      4  C3  UNL d   1      -0.133   0.043   0.114  0.00  0.00     0.023 A 
ATOM      5  C4  UNL d   1      -1.251   0.642  -0.469  0.00  0.00     0.048 A 
ATOM      6  C5  UNL d   1      -2.045   1.506   0.287  0.00  0.00     0.003 A 
ATOM      7  I   UNL d   1       1.051  -1.246  -1.007  0.00  0.00    -0.146 I 
ENDROOT
TORSDOF 0
ENDMDL
