MODEL 1
REMARK minimizedAffinity -3.8233521
REMARK minimizedRMSD -1
REMARK  0 active torsions:
REMARK  status: ('A' for Active; 'I' for Inactive)
ROOT
ATOM      1  C   UNL d   1      -1.485   2.528   1.932  0.00  0.00     0.023 A 
ATOM      2  C1  UNL d   1      -1.551   1.161   2.205  0.00  0.00     0.003 A 
ATOM      3  C2  UNL d   1      -0.826   0.256   1.428  0.00  0.00     0.048 A 
ATOM      4  C3  UNL d   1      -0.034   0.724   0.380  0.00  0.00     0.023 A 
ATOM      5  C4  UNL d   1       0.036   2.090   0.103  0.00  0.00     0.048 A 
ATOM      6  C5  UNL d   1      -0.692   2.991   0.882  0.00  0.00     0.003 A 
ATOM      7  I   UNL d   1       1.047  -0.621  -0.778  0.00  0.00    -0.146 I 
ENDROOT
TORSDOF 0
ENDMDL
