MODEL 1
REMARK minimizedAffinity -3.3192153
REMARK minimizedRMSD -1
REMARK  0 active torsions:
REMARK  status: ('A' for Active; 'I' for Inactive)
ROOT
ATOM      1  C   UNL d   1       0.855  -3.970  -3.380  0.00  0.00     0.023 A 
ATOM      2  C1  UNL d   1       1.435  -3.969  -2.112  0.00  0.00     0.003 A 
ATOM      3  C2  UNL d   1       1.243  -2.883  -1.256  0.00  0.00     0.048 A 
ATOM      4  C3  UNL d   1       0.467  -1.802  -1.674  0.00  0.00     0.023 A 
ATOM      5  C4  UNL d   1      -0.116  -1.799  -2.942  0.00  0.00     0.048 A 
ATOM      6  C5  UNL d   1       0.080  -2.887  -3.795  0.00  0.00     0.003 A 
ATOM      7  I   UNL d   1       0.179  -0.184  -0.401  0.00  0.00    -0.146 I 
ENDROOT
TORSDOF 0
ENDMDL
