MODEL 1
REMARK minimizedAffinity -3.90329003
REMARK minimizedRMSD -1
REMARK  0 active torsions:
REMARK  status: ('A' for Active; 'I' for Inactive)
ROOT
ATOM      1  C   UNL d   1      -2.651   1.683   1.477  0.00  0.00     0.023 A 
ATOM      2  C1  UNL d   1      -2.563   0.321   1.764  0.00  0.00     0.003 A 
ATOM      3  C2  UNL d   1      -1.523  -0.442   1.230  0.00  0.00     0.048 A 
ATOM      4  C3  UNL d   1      -0.572   0.165   0.409  0.00  0.00     0.023 A 
ATOM      5  C4  UNL d   1      -0.655   1.528   0.120  0.00  0.00     0.048 A 
ATOM      6  C5  UNL d   1      -1.698   2.286   0.656  0.00  0.00     0.003 A 
ATOM      7  I   UNL d   1       0.978  -0.967  -0.387  0.00  0.00    -0.146 I 
ENDROOT
TORSDOF 0
ENDMDL
