MODEL 1
REMARK minimizedAffinity -0.834266663
REMARK minimizedRMSD -1
REMARK  0 active torsions:
REMARK  status: ('A' for Active; 'I' for Inactive)
ROOT
ATOM      1  O1  BZF d   1       1.428  -1.591   0.379  0.00  0.00    -0.204 OA
ATOM      2  C2  BZF d   1       1.459  -0.288   0.838  0.00  0.00     0.174 A 
ATOM      3  C3  BZF d   1       0.414   0.415   0.356  0.00  0.00    -0.012 A 
ATOM      4  C3A BZF d   1      -0.367  -0.530  -0.382  0.00  0.00    -0.107 A 
ATOM      5  C4  BZF d   1      -1.536  -0.439  -1.082  0.00  0.00     0.055 A 
ATOM      6  C5  BZF d   1      -1.993  -1.532  -1.748  0.00  0.00    -0.016 A 
ATOM      7  C6  BZF d   1      -1.306  -2.728  -1.740  0.00  0.00     0.022 A 
ATOM      8  C7  BZF d   1      -0.144  -2.868  -1.056  0.00  0.00     0.029 A 
ATOM      9  C7A BZF d   1       0.303  -1.775  -0.354  0.00  0.00     0.058 A 
ENDROOT
TORSDOF 0
ENDMDL
