MODEL 1
REMARK minimizedAffinity -3.49890757
REMARK minimizedRMSD -1
REMARK  0 active torsions:
REMARK  status: ('A' for Active; 'I' for Inactive)
ROOT
ATOM      1  O1  BZF d   1       2.596   0.682  -1.141  0.00  0.00    -0.204 OA
ATOM      2  C2  BZF d   1       1.502   0.059  -0.572  0.00  0.00     0.174 A 
ATOM      3  C3  BZF d   1       0.478  -0.004  -1.448  0.00  0.00    -0.012 A 
ATOM      4  C3A BZF d   1       0.993   0.535  -2.669  0.00  0.00    -0.107 A 
ATOM      5  C4  BZF d   1       0.459   0.724  -3.911  0.00  0.00     0.055 A 
ATOM      6  C5  BZF d   1       1.204   1.343  -4.864  0.00  0.00    -0.016 A 
ATOM      7  C6  BZF d   1       2.485   1.788  -4.608  0.00  0.00     0.022 A 
ATOM      8  C7  BZF d   1       3.060   1.618  -3.393  0.00  0.00     0.029 A 
ATOM      9  C7A BZF d   1       2.321   0.964  -2.438  0.00  0.00     0.058 A 
ENDROOT
TORSDOF 0
ENDMDL
