MODEL 1
REMARK minimizedAffinity 4.91940737
REMARK minimizedRMSD -1
REMARK  0 active torsions:
REMARK  status: ('A' for Active; 'I' for Inactive)
ROOT
ATOM      1  O1  BZF d   1       1.825  -1.535  -4.493  0.00  0.00    -0.204 OA
ATOM      2  C2  BZF d   1       2.976  -2.299  -4.486  0.00  0.00     0.174 A 
ATOM      3  C3  BZF d   1       4.069  -1.518  -4.595  0.00  0.00    -0.012 A 
ATOM      4  C3A BZF d   1       3.575  -0.175  -4.582  0.00  0.00    -0.107 A 
ATOM      5  C4  BZF d   1       4.179   1.048  -4.645  0.00  0.00     0.055 A 
ATOM      6  C5  BZF d   1       3.406   2.165  -4.684  0.00  0.00    -0.016 A 
ATOM      7  C6  BZF d   1       2.029   2.095  -4.668  0.00  0.00     0.022 A 
ATOM      8  C7  BZF d   1       1.384   0.905  -4.601  0.00  0.00     0.029 A 
ATOM      9  C7A BZF d   1       2.163  -0.224  -4.528  0.00  0.00     0.058 A 
ENDROOT
TORSDOF 0
ENDMDL
