MODEL 1
REMARK minimizedAffinity 1.32817757
REMARK minimizedRMSD -1
REMARK  0 active torsions:
REMARK  status: ('A' for Active; 'I' for Inactive)
ROOT
ATOM      1  O1  BZF d   1       3.273   1.192   1.898  0.00  0.00    -0.204 OA
ATOM      2  C2  BZF d   1       2.369   2.031   2.520  0.00  0.00     0.174 A 
ATOM      3  C3  BZF d   1       1.108   1.739   2.142  0.00  0.00    -0.012 A 
ATOM      4  C3A BZF d   1       1.224   0.590   1.297  0.00  0.00    -0.107 A 
ATOM      5  C4  BZF d   1       0.316  -0.177   0.626  0.00  0.00     0.055 A 
ATOM      6  C5  BZF d   1       0.762  -1.184  -0.171  0.00  0.00    -0.016 A 
ATOM      7  C6  BZF d   1       2.108  -1.447  -0.323  0.00  0.00     0.022 A 
ATOM      8  C7  BZF d   1       3.046  -0.715   0.326  0.00  0.00     0.029 A 
ATOM      9  C7A BZF d   1       2.597   0.281   1.158  0.00  0.00     0.058 A 
ENDROOT
TORSDOF 0
ENDMDL
