MODEL 1
REMARK minimizedAffinity 2.69114041
REMARK minimizedRMSD -1
REMARK  0 active torsions:
REMARK  status: ('A' for Active; 'I' for Inactive)
ROOT
ATOM      1  O1  BZF d   1       1.477   0.408  -1.662  0.00  0.00    -0.204 OA
ATOM      2  C2  BZF d   1       1.146   0.042  -0.371  0.00  0.00     0.174 A 
ATOM      3  C3  BZF d   1       1.462   1.022   0.500  0.00  0.00    -0.012 A 
ATOM      4  C3A BZF d   1       1.940   2.103  -0.307  0.00  0.00    -0.107 A 
ATOM      5  C4  BZF d   1       2.390   3.360  -0.021  0.00  0.00     0.055 A 
ATOM      6  C5  BZF d   1       2.853   4.142  -1.031  0.00  0.00    -0.016 A 
ATOM      7  C6  BZF d   1       2.886   3.697  -2.337  0.00  0.00     0.022 A 
ATOM      8  C7  BZF d   1       2.445   2.459  -2.670  0.00  0.00     0.029 A 
ATOM      9  C7A BZF d   1       1.946   1.679  -1.656  0.00  0.00     0.058 A 
ENDROOT
TORSDOF 0
ENDMDL
