MODEL 1
REMARK minimizedAffinity 3.07363391
REMARK minimizedRMSD -1
REMARK  0 active torsions:
REMARK  status: ('A' for Active; 'I' for Inactive)
ROOT
ATOM      1  O1  BZF d   1       2.004  -0.461  -0.375  0.00  0.00    -0.204 OA
ATOM      2  C2  BZF d   1       0.806  -1.145  -0.296  0.00  0.00     0.174 A 
ATOM      3  C3  BZF d   1       0.166  -0.857   0.856  0.00  0.00    -0.012 A 
ATOM      4  C3A BZF d   1       0.973   0.135   1.497  0.00  0.00    -0.107 A 
ATOM      5  C4  BZF d   1       0.854   0.828   2.668  0.00  0.00     0.055 A 
ATOM      6  C5  BZF d   1       1.853   1.672   3.039  0.00  0.00    -0.016 A 
ATOM      7  C6  BZF d   1       2.984   1.843   2.269  0.00  0.00     0.022 A 
ATOM      8  C7  BZF d   1       3.144   1.181   1.097  0.00  0.00     0.029 A 
ATOM      9  C7A BZF d   1       2.122   0.352   0.702  0.00  0.00     0.058 A 
ENDROOT
TORSDOF 0
ENDMDL
