MODEL 1
REMARK minimizedAffinity 1.81066704
REMARK minimizedRMSD -1
REMARK  0 active torsions:
REMARK  status: ('A' for Active; 'I' for Inactive)
ROOT
ATOM      1  O1  BZF d   1       0.200  -4.630  -2.211  0.00  0.00    -0.204 OA
ATOM      2  C2  BZF d   1      -0.619  -5.310  -3.091  0.00  0.00     0.174 A 
ATOM      3  C3  BZF d   1      -1.775  -4.642  -3.282  0.00  0.00    -0.012 A 
ATOM      4  C3A BZF d   1      -1.633  -3.425  -2.543  0.00  0.00    -0.107 A 
ATOM      5  C4  BZF d   1      -2.442  -2.341  -2.355  0.00  0.00     0.055 A 
ATOM      6  C5  BZF d   1      -2.037  -1.353  -1.515  0.00  0.00    -0.016 A 
ATOM      7  C6  BZF d   1      -0.833  -1.418  -0.844  0.00  0.00     0.022 A 
ATOM      8  C7  BZF d   1       0.005  -2.471  -1.002  0.00  0.00     0.029 A 
ATOM      9  C7A BZF d   1      -0.387  -3.456  -1.876  0.00  0.00     0.058 A 
ENDROOT
TORSDOF 0
ENDMDL
