MODEL 1
REMARK minimizedAffinity 7.96001244
REMARK minimizedRMSD -1
REMARK  0 active torsions:
REMARK  status: ('A' for Active; 'I' for Inactive)
ROOT
ATOM      1  O1  BZF d   1       0.118  -5.200  -2.275  0.00  0.00    -0.204 OA
ATOM      2  C2  BZF d   1      -0.955  -5.954  -2.708  0.00  0.00     0.174 A 
ATOM      3  C3  BZF d   1      -2.116  -5.299  -2.500  0.00  0.00    -0.012 A 
ATOM      4  C3A BZF d   1      -1.738  -4.019  -1.985  0.00  0.00    -0.107 A 
ATOM      5  C4  BZF d   1      -2.445  -2.916  -1.600  0.00  0.00     0.055 A 
ATOM      6  C5  BZF d   1      -1.780  -1.855  -1.073  0.00  0.00    -0.016 A 
ATOM      7  C6  BZF d   1      -0.410  -1.865  -0.912  0.00  0.00     0.022 A 
ATOM      8  C7  BZF d   1       0.336  -2.934  -1.284  0.00  0.00     0.029 A 
ATOM      9  C7A BZF d   1      -0.331  -3.995  -1.847  0.00  0.00     0.058 A 
ENDROOT
TORSDOF 0
ENDMDL
