MODEL 1
REMARK minimizedAffinity 4.28828382
REMARK minimizedRMSD -1
REMARK  0 active torsions:
REMARK  status: ('A' for Active; 'I' for Inactive)
ROOT
ATOM      1  O1  BZF d   1      -0.555  -1.087   0.755  0.00  0.00    -0.204 OA
ATOM      2  C2  BZF d   1       0.368  -0.847  -0.244  0.00  0.00     0.174 A 
ATOM      3  C3  BZF d   1       1.382  -0.086   0.214  0.00  0.00    -0.012 A 
ATOM      4  C3A BZF d   1       1.120   0.089   1.610  0.00  0.00    -0.107 A 
ATOM      5  C4  BZF d   1       1.779   0.738   2.615  0.00  0.00     0.055 A 
ATOM      6  C5  BZF d   1       1.219   0.780   3.852  0.00  0.00    -0.016 A 
ATOM      7  C6  BZF d   1       0.002   0.188   4.119  0.00  0.00     0.022 A 
ATOM      8  C7  BZF d   1      -0.686  -0.472   3.156  0.00  0.00     0.029 A 
ATOM      9  C7A BZF d   1      -0.108  -0.544   1.912  0.00  0.00     0.058 A 
ENDROOT
TORSDOF 0
ENDMDL
