MODEL 1
REMARK minimizedAffinity 8.16904163
REMARK minimizedRMSD -1
REMARK  0 active torsions:
REMARK  status: ('A' for Active; 'I' for Inactive)
ROOT
ATOM      1  O1  BZF d   1      -1.853  -5.230  -3.075  0.00  0.00    -0.204 OA
ATOM      2  C2  BZF d   1      -1.005  -5.997  -2.300  0.00  0.00     0.174 A 
ATOM      3  C3  BZF d   1       0.242  -6.000  -2.814  0.00  0.00    -0.012 A 
ATOM      4  C3A BZF d   1       0.190  -5.108  -3.932  0.00  0.00    -0.107 A 
ATOM      5  C4  BZF d   1       1.120  -4.682  -4.837  0.00  0.00     0.055 A 
ATOM      6  C5  BZF d   1       0.729  -3.866  -5.851  0.00  0.00    -0.016 A 
ATOM      7  C6  BZF d   1      -0.582  -3.461  -5.993  0.00  0.00     0.022 A 
ATOM      8  C7  BZF d   1      -1.539  -3.854  -5.117  0.00  0.00     0.029 A 
ATOM      9  C7A BZF d   1      -1.141  -4.652  -4.072  0.00  0.00     0.058 A 
ENDROOT
TORSDOF 0
ENDMDL
