MODEL 1
REMARK minimizedAffinity -2.65318823
REMARK minimizedRMSD -1
REMARK  0 active torsions:
REMARK  status: ('A' for Active; 'I' for Inactive)
ROOT
ATOM      1  C   UNL d   1       3.777  -0.745  -1.372  0.00  0.00     0.172 C 
ATOM      2  N   UNL d   1       2.587  -0.663  -0.558  0.00  0.00    -0.070 N 
ATOM      3  C1  UNL d   1       2.160   0.446   0.122  0.00  0.00    -0.004 A 
ATOM      4  C2  UNL d   1       0.992   0.118   0.775  0.00  0.00    -0.047 A 
ATOM      5  C3  UNL d   1       0.707  -1.236   0.478  0.00  0.00    -0.047 A 
ATOM      6  C4  UNL d   1       1.711  -1.695  -0.349  0.00  0.00    -0.004 A 
ENDROOT
TORSDOF 0
ENDMDL
