MODEL 1
REMARK minimizedAffinity -2.93819618
REMARK minimizedRMSD -1
REMARK  0 active torsions:
REMARK  status: ('A' for Active; 'I' for Inactive)
ROOT
ATOM      1  C   UNL d   1       4.286  -0.262  -2.268  0.00  0.00     0.172 C 
ATOM      2  N   UNL d   1       3.132   0.183  -1.523  0.00  0.00    -0.070 N 
ATOM      3  C1  UNL d   1       2.656   1.467  -1.481  0.00  0.00    -0.004 A 
ATOM      4  C2  UNL d   1       1.546   1.478  -0.665  0.00  0.00    -0.047 A 
ATOM      5  C3  UNL d   1       1.348   0.157  -0.199  0.00  0.00    -0.047 A 
ATOM      6  C4  UNL d   1       2.345  -0.624  -0.746  0.00  0.00    -0.004 A 
ENDROOT
TORSDOF 0
ENDMDL
