MODEL 1
REMARK minimizedAffinity -0.519709408
REMARK minimizedRMSD -1
REMARK  0 active torsions:
REMARK  status: ('A' for Active; 'I' for Inactive)
ROOT
ATOM      1  C   UNL d   1       2.012   1.687  -0.634  0.00  0.00     0.172 C 
ATOM      2  N   UNL d   1       2.022   0.275  -0.329  0.00  0.00    -0.070 N 
ATOM      3  C1  UNL d   1       1.101  -0.381   0.443  0.00  0.00    -0.004 A 
ATOM      4  C2  UNL d   1       1.461  -1.710   0.491  0.00  0.00    -0.047 A 
ATOM      5  C3  UNL d   1       2.639  -1.858  -0.278  0.00  0.00    -0.047 A 
ATOM      6  C4  UNL d   1       2.965  -0.613  -0.774  0.00  0.00    -0.004 A 
ENDROOT
TORSDOF 0
ENDMDL
