MODEL 1
REMARK minimizedAffinity -3.1414814
REMARK minimizedRMSD -1
REMARK  0 active torsions:
REMARK  status: ('A' for Active; 'I' for Inactive)
ROOT
ATOM      1  C   UNL d   1       3.662  -0.757  -1.667  0.00  0.00     0.172 C 
ATOM      2  N   UNL d   1       2.590  -0.690  -0.702  0.00  0.00    -0.070 N 
ATOM      3  C1  UNL d   1       1.923   0.446  -0.327  0.00  0.00    -0.004 A 
ATOM      4  C2  UNL d   1       0.976   0.090   0.609  0.00  0.00    -0.047 A 
ATOM      5  C3  UNL d   1       1.079  -1.308   0.805  0.00  0.00    -0.047 A 
ATOM      6  C4  UNL d   1       2.085  -1.765  -0.019  0.00  0.00    -0.004 A 
ENDROOT
TORSDOF 0
ENDMDL
