MODEL 1
REMARK minimizedAffinity -2.8958919
REMARK minimizedRMSD -1
REMARK  0 active torsions:
REMARK  status: ('A' for Active; 'I' for Inactive)
ROOT
ATOM      1  C   UNL d   1       2.992  -2.018  -0.843  0.00  0.00     0.172 C 
ATOM      2  N   UNL d   1       2.093  -1.193  -0.070  0.00  0.00    -0.070 N 
ATOM      3  C1  UNL d   1       1.356  -1.608   1.007  0.00  0.00    -0.004 A 
ATOM      4  C2  UNL d   1       0.631  -0.528   1.463  0.00  0.00    -0.047 A 
ATOM      5  C3  UNL d   1       0.942   0.573   0.630  0.00  0.00    -0.047 A 
ATOM      6  C4  UNL d   1       1.850   0.133  -0.310  0.00  0.00    -0.004 A 
ENDROOT
TORSDOF 0
ENDMDL
