MODEL 1
REMARK minimizedAffinity -2.66727018
REMARK minimizedRMSD -1
REMARK  0 active torsions:
REMARK  status: ('A' for Active; 'I' for Inactive)
ROOT
ATOM      1  C   UNL d   1       3.780  -0.644  -1.895  0.00  0.00     0.172 C 
ATOM      2  N   UNL d   1       2.764  -0.482  -0.881  0.00  0.00    -0.070 N 
ATOM      3  C1  UNL d   1       2.551  -1.325   0.177  0.00  0.00    -0.004 A 
ATOM      4  C2  UNL d   1       1.497  -0.825   0.909  0.00  0.00    -0.047 A 
ATOM      5  C3  UNL d   1       1.060   0.359   0.269  0.00  0.00    -0.047 A 
ATOM      6  C4  UNL d   1       1.862   0.548  -0.837  0.00  0.00    -0.004 A 
ENDROOT
TORSDOF 0
ENDMDL
