MODEL 1
REMARK minimizedAffinity -1.92622948
REMARK minimizedRMSD -1
REMARK  0 active torsions:
REMARK  status: ('A' for Active; 'I' for Inactive)
ROOT
ATOM      1  C   UNL d   1       3.532  -1.510  -0.898  0.00  0.00     0.172 C 
ATOM      2  N   UNL d   1       2.455  -0.649  -0.469  0.00  0.00    -0.070 N 
ATOM      3  C1  UNL d   1       2.386   0.704  -0.670  0.00  0.00    -0.004 A 
ATOM      4  C2  UNL d   1       1.208   1.153  -0.113  0.00  0.00    -0.047 A 
ATOM      5  C3  UNL d   1       0.547   0.032   0.442  0.00  0.00    -0.047 A 
ATOM      6  C4  UNL d   1       1.341  -1.071   0.208  0.00  0.00    -0.004 A 
ENDROOT
TORSDOF 0
ENDMDL
