MODEL 1
REMARK minimizedAffinity -3.57314563
REMARK minimizedRMSD -1
REMARK  0 active torsions:
REMARK  status: ('A' for Active; 'I' for Inactive)
ROOT
ATOM      1  C   UNL d   1       0.151  -0.729   1.807  0.00  0.00     0.172 C 
ATOM      2  N   UNL d   1       1.080  -0.428   0.743  0.00  0.00    -0.070 N 
ATOM      3  C1  UNL d   1       1.878  -1.335   0.100  0.00  0.00    -0.004 A 
ATOM      4  C2  UNL d   1       2.614  -0.654  -0.846  0.00  0.00    -0.047 A 
ATOM      5  C3  UNL d   1       2.245   0.710  -0.768  0.00  0.00    -0.047 A 
ATOM      6  C4  UNL d   1       1.294   0.822   0.224  0.00  0.00    -0.004 A 
ENDROOT
TORSDOF 0
ENDMDL
