MODEL 1
REMARK minimizedAffinity -1.49786448
REMARK minimizedRMSD -1
REMARK  0 active torsions:
REMARK  status: ('A' for Active; 'I' for Inactive)
ROOT
ATOM      1  C   UNL d   1       3.513  -1.239  -1.048  0.00  0.00     0.172 C 
ATOM      2  N   UNL d   1       2.356  -0.854  -0.274  0.00  0.00    -0.070 N 
ATOM      3  C1  UNL d   1       1.798  -1.582   0.743  0.00  0.00    -0.004 A 
ATOM      4  C2  UNL d   1       0.717  -0.875   1.224  0.00  0.00    -0.047 A 
ATOM      5  C3  UNL d   1       0.622   0.318   0.469  0.00  0.00    -0.047 A 
ATOM      6  C4  UNL d   1       1.649   0.305  -0.451  0.00  0.00    -0.004 A 
ENDROOT
TORSDOF 0
ENDMDL
