MODEL 1
REMARK minimizedAffinity 0.388997823
REMARK minimizedRMSD -1
REMARK  0 active torsions:
REMARK  status: ('A' for Active; 'I' for Inactive)
ROOT
ATOM      1  C   UNL d   1       3.888  -1.206  -1.607  0.00  0.00     0.172 C 
ATOM      2  N   UNL d   1       2.709  -0.909  -0.827  0.00  0.00    -0.070 N 
ATOM      3  C1  UNL d   1       2.399   0.308  -0.281  0.00  0.00    -0.004 A 
ATOM      4  C2  UNL d   1       1.199   0.178   0.384  0.00  0.00    -0.047 A 
ATOM      5  C3  UNL d   1       0.774  -1.163   0.234  0.00  0.00    -0.047 A 
ATOM      6  C4  UNL d   1       1.727  -1.814  -0.520  0.00  0.00    -0.004 A 
ENDROOT
TORSDOF 0
ENDMDL
