MODEL 1
REMARK minimizedAffinity -2.32184792
REMARK minimizedRMSD -1
REMARK  0 active torsions:
REMARK  status: ('A' for Active; 'I' for Inactive)
ROOT
ATOM      1  C   UNL d   1       3.499  -0.884  -1.591  0.00  0.00     0.172 C 
ATOM      2  N   UNL d   1       2.469  -0.957  -0.582  0.00  0.00    -0.070 N 
ATOM      3  C1  UNL d   1       1.453  -1.874  -0.542  0.00  0.00    -0.004 A 
ATOM      4  C2  UNL d   1       0.687  -1.608   0.572  0.00  0.00    -0.047 A 
ATOM      5  C3  UNL d   1       1.262  -0.491   1.224  0.00  0.00    -0.047 A 
ATOM      6  C4  UNL d   1       2.364  -0.108   0.489  0.00  0.00    -0.004 A 
ENDROOT
TORSDOF 0
ENDMDL
