MODEL 1
REMARK minimizedAffinity -2.44985723
REMARK minimizedRMSD -1
REMARK  0 active torsions:
REMARK  status: ('A' for Active; 'I' for Inactive)
ROOT
ATOM      1  C   UNL d   1       3.438  -1.621  -0.657  0.00  0.00     0.172 C 
ATOM      2  N   UNL d   1       2.208  -1.535   0.095  0.00  0.00    -0.070 N 
ATOM      3  C1  UNL d   1       1.414  -0.425   0.201  0.00  0.00    -0.004 A 
ATOM      4  C2  UNL d   1       0.340  -0.749   1.001  0.00  0.00    -0.047 A 
ATOM      5  C3  UNL d   1       0.495  -2.101   1.390  0.00  0.00    -0.047 A 
ATOM      6  C4  UNL d   1       1.660  -2.563   0.815  0.00  0.00    -0.004 A 
ENDROOT
TORSDOF 0
ENDMDL
