MODEL 1
REMARK minimizedAffinity -3.46437573
REMARK minimizedRMSD -1
REMARK  0 active torsions:
REMARK  status: ('A' for Active; 'I' for Inactive)
ROOT
ATOM      1  C   UNL d   1       4.212  -0.355  -2.033  0.00  0.00     0.172 C 
ATOM      2  N   UNL d   1       3.064  -0.723  -1.239  0.00  0.00    -0.070 N 
ATOM      3  C1  UNL d   1       2.016   0.099  -0.922  0.00  0.00    -0.004 A 
ATOM      4  C2  UNL d   1       1.128  -0.624  -0.155  0.00  0.00    -0.047 A 
ATOM      5  C3  UNL d   1       1.661  -1.927  -0.006  0.00  0.00    -0.047 A 
ATOM      6  C4  UNL d   1       2.860  -1.960  -0.687  0.00  0.00    -0.004 A 
ENDROOT
TORSDOF 0
ENDMDL
