MODEL 1
REMARK minimizedAffinity -2.82807207
REMARK minimizedRMSD -1
REMARK  0 active torsions:
REMARK  status: ('A' for Active; 'I' for Inactive)
ROOT
ATOM      1  C   UNL d   1       1.534  -3.079   0.220  0.00  0.00     0.172 C 
ATOM      2  N   UNL d   1       1.910  -1.694   0.063  0.00  0.00    -0.070 N 
ATOM      3  C1  UNL d   1       3.047  -1.240  -0.550  0.00  0.00    -0.004 A 
ATOM      4  C2  UNL d   1       3.035   0.137  -0.494  0.00  0.00    -0.047 A 
ATOM      5  C3  UNL d   1       1.850   0.524   0.177  0.00  0.00    -0.047 A 
ATOM      6  C4  UNL d   1       1.172  -0.630   0.510  0.00  0.00    -0.004 A 
ENDROOT
TORSDOF 0
ENDMDL
