MODEL 1
REMARK minimizedAffinity -3.10764623
REMARK minimizedRMSD -1
REMARK  0 active torsions:
REMARK  status: ('A' for Active; 'I' for Inactive)
ROOT
ATOM      1  C   UNL d   1       3.756  -1.079  -1.473  0.00  0.00     0.172 C 
ATOM      2  N   UNL d   1       2.587  -0.817  -0.666  0.00  0.00    -0.070 N 
ATOM      3  C1  UNL d   1       1.945   0.388  -0.558  0.00  0.00    -0.004 A 
ATOM      4  C2  UNL d   1       0.881   0.224   0.302  0.00  0.00    -0.047 A 
ATOM      5  C3  UNL d   1       0.885  -1.126   0.728  0.00  0.00    -0.047 A 
ATOM      6  C4  UNL d   1       1.951  -1.747   0.113  0.00  0.00    -0.004 A 
ENDROOT
TORSDOF 0
ENDMDL
