MODEL 1
REMARK minimizedAffinity -2.76319838
REMARK minimizedRMSD -1
REMARK  0 active torsions:
REMARK  status: ('A' for Active; 'I' for Inactive)
ROOT
ATOM      1  C   UNL d   1       3.888  -0.623  -1.487  0.00  0.00     0.172 C 
ATOM      2  N   UNL d   1       2.645  -0.797  -0.773  0.00  0.00    -0.070 N 
ATOM      3  C1  UNL d   1       1.738   0.191  -0.497  0.00  0.00    -0.004 A 
ATOM      4  C2  UNL d   1       0.692  -0.379   0.197  0.00  0.00    -0.047 A 
ATOM      5  C3  UNL d   1       0.981  -1.756   0.344  0.00  0.00    -0.047 A 
ATOM      6  C4  UNL d   1       2.196  -1.988  -0.266  0.00  0.00    -0.004 A 
ENDROOT
TORSDOF 0
ENDMDL
