MODEL 1
REMARK minimizedAffinity -3.20706654
REMARK minimizedRMSD -1
REMARK  0 active torsions:
REMARK  status: ('A' for Active; 'I' for Inactive)
ROOT
ATOM      1  C   UNL d   1       4.056  -0.755  -2.041  0.00  0.00     0.172 C 
ATOM      2  N   UNL d   1       2.924  -0.624  -1.154  0.00  0.00    -0.070 N 
ATOM      3  C1  UNL d   1       2.177   0.509  -0.974  0.00  0.00    -0.004 A 
ATOM      4  C2  UNL d   1       1.194   0.225  -0.051  0.00  0.00    -0.047 A 
ATOM      5  C3  UNL d   1       1.356  -1.126   0.338  0.00  0.00    -0.047 A 
ATOM      6  C4  UNL d   1       2.434  -1.628  -0.360  0.00  0.00    -0.004 A 
ENDROOT
TORSDOF 0
ENDMDL
