MODEL 1
REMARK minimizedAffinity -3.65258908
REMARK minimizedRMSD -1
REMARK  0 active torsions:
REMARK  status: ('A' for Active; 'I' for Inactive)
ROOT
ATOM      1  C   UNL d   1       0.884  -1.390   1.154  0.00  0.00     0.172 C 
ATOM      2  N   UNL d   1       1.678  -0.813   0.095  0.00  0.00    -0.070 N 
ATOM      3  C1  UNL d   1       2.733  -1.419  -0.533  0.00  0.00    -0.004 A 
ATOM      4  C2  UNL d   1       3.220  -0.543  -1.479  0.00  0.00    -0.047 A 
ATOM      5  C3  UNL d   1       2.432   0.630  -1.417  0.00  0.00    -0.047 A 
ATOM      6  C4  UNL d   1       1.485   0.436  -0.434  0.00  0.00    -0.004 A 
ENDROOT
TORSDOF 0
ENDMDL
