MODEL 1
REMARK minimizedAffinity -2.73037982
REMARK minimizedRMSD -1
REMARK  0 active torsions:
REMARK  status: ('A' for Active; 'I' for Inactive)
ROOT
ATOM      1  C   UNL d   1       5.581  -0.311  -2.797  0.00  0.00     0.172 C 
ATOM      2  N   UNL d   1       4.380  -0.180  -2.006  0.00  0.00    -0.070 N 
ATOM      3  C1  UNL d   1       3.749   0.997  -1.703  0.00  0.00    -0.004 A 
ATOM      4  C2  UNL d   1       2.645   0.697  -0.934  0.00  0.00    -0.047 A 
ATOM      5  C3  UNL d   1       2.612  -0.708  -0.768  0.00  0.00    -0.047 A 
ATOM      6  C4  UNL d   1       3.698  -1.226  -1.442  0.00  0.00    -0.004 A 
ENDROOT
TORSDOF 0
ENDMDL
