MODEL 1
REMARK minimizedAffinity -3.97651792
REMARK minimizedRMSD -1
REMARK  0 active torsions:
REMARK  status: ('A' for Active; 'I' for Inactive)
ROOT
ATOM      1  C   UNL d   1      -2.004  -1.679   1.071  0.00  0.00     0.124 A 
ATOM      2  C1  UNL d   1      -2.053  -0.466   0.399  0.00  0.00     0.062 A 
ATOM      3  C2  UNL d   1      -0.894   0.285   0.224  0.00  0.00     0.162 A 
ATOM      4  C3  UNL d   1       0.325  -0.176   0.721  0.00  0.00    -0.034 A 
ATOM      5  C4  UNL d   1       0.367  -1.397   1.397  0.00  0.00     0.162 A 
ATOM      6  C5  UNL d   1      -0.794  -2.143   1.569  0.00  0.00     0.062 A 
ATOM      7  F   UNL d   1      -0.745  -3.315   2.219  0.00  0.00    -0.097 F 
ATOM      8  F1  UNL d   1       1.522  -1.869   1.888  0.00  0.00    -0.096 F 
ATOM      9  I   UNL d   1       2.060   0.944   0.461  0.00  0.00    -0.060 I 
ATOM     10  F2  UNL d   1      -0.972   1.454  -0.430  0.00  0.00    -0.096 F 
ATOM     11  F3  UNL d   1      -3.220  -0.015  -0.082  0.00  0.00    -0.097 F 
ATOM     12  F4  UNL d   1      -3.120  -2.399   1.239  0.00  0.00    -0.092 F 
ENDROOT
TORSDOF 0
ENDMDL
