MODEL 1
REMARK minimizedAffinity 9.42413139
REMARK minimizedRMSD -1
REMARK  0 active torsions:
REMARK  status: ('A' for Active; 'I' for Inactive)
ROOT
ATOM      1  C   UNL d   1       0.177   0.238  -2.019  0.00  0.00     0.124 A 
ATOM      2  C1  UNL d   1       1.015   0.326  -0.916  0.00  0.00     0.062 A 
ATOM      3  C2  UNL d   1       0.707  -0.363   0.253  0.00  0.00     0.162 A 
ATOM      4  C3  UNL d   1      -0.444  -1.148   0.326  0.00  0.00    -0.034 A 
ATOM      5  C4  UNL d   1      -1.282  -1.230  -0.787  0.00  0.00     0.162 A 
ATOM      6  C5  UNL d   1      -0.971  -0.540  -1.954  0.00  0.00     0.062 A 
ATOM      7  F   UNL d   1      -1.781  -0.626  -3.018  0.00  0.00    -0.097 F 
ATOM      8  F1  UNL d   1      -2.397  -1.976  -0.752  0.00  0.00    -0.096 F 
ATOM      9  I   UNL d   1      -0.907  -2.180   2.073  0.00  0.00    -0.060 I 
ATOM     10  F2  UNL d   1       1.535  -0.260   1.304  0.00  0.00    -0.096 F 
ATOM     11  F3  UNL d   1       2.123   1.078  -0.976  0.00  0.00    -0.097 F 
ATOM     12  F4  UNL d   1       0.475   0.903  -3.143  0.00  0.00    -0.092 F 
ENDROOT
TORSDOF 0
ENDMDL
