MODEL 1
REMARK minimizedAffinity -0.591716409
REMARK minimizedRMSD -1
REMARK  0 active torsions:
REMARK  status: ('A' for Active; 'I' for Inactive)
ROOT
ATOM      1  C   UNL d   1       0.538  -0.626   1.361  0.00  0.00     0.124 A 
ATOM      2  C1  UNL d   1       0.443   0.234   2.447  0.00  0.00     0.062 A 
ATOM      3  C2  UNL d   1       0.979   1.516   2.374  0.00  0.00     0.162 A 
ATOM      4  C3  UNL d   1       1.614   1.948   1.209  0.00  0.00    -0.034 A 
ATOM      5  C4  UNL d   1       1.707   1.078   0.122  0.00  0.00     0.162 A 
ATOM      6  C5  UNL d   1       1.170  -0.203   0.200  0.00  0.00     0.062 A 
ATOM      7  F   UNL d   1       1.263  -1.032  -0.850  0.00  0.00    -0.097 F 
ATOM      8  F1  UNL d   1       2.311   1.461  -1.013  0.00  0.00    -0.096 F 
ATOM      9  I   UNL d   1       2.417   3.865   1.096  0.00  0.00    -0.060 I 
ATOM     10  F2  UNL d   1       0.873   2.325   3.438  0.00  0.00    -0.096 F 
ATOM     11  F3  UNL d   1      -0.166  -0.173   3.570  0.00  0.00    -0.097 F 
ATOM     12  F4  UNL d   1       0.023  -1.859   1.435  0.00  0.00    -0.092 F 
ENDROOT
TORSDOF 0
ENDMDL
