MODEL 1
REMARK minimizedAffinity -2.00014591
REMARK minimizedRMSD -1
REMARK  0 active torsions:
REMARK  status: ('A' for Active; 'I' for Inactive)
ROOT
ATOM      1  C   UNL d   1       1.271  -1.422   1.373  0.00  0.00     0.124 A 
ATOM      2  C1  UNL d   1       2.307  -0.904   0.608  0.00  0.00     0.062 A 
ATOM      3  C2  UNL d   1       2.550   0.466   0.593  0.00  0.00     0.162 A 
ATOM      4  C3  UNL d   1       1.755   1.330   1.347  0.00  0.00    -0.034 A 
ATOM      5  C4  UNL d   1       0.714   0.802   2.113  0.00  0.00     0.162 A 
ATOM      6  C5  UNL d   1       0.476  -0.569   2.125  0.00  0.00     0.062 A 
ATOM      7  F   UNL d   1      -0.525  -1.067   2.865  0.00  0.00    -0.097 F 
ATOM      8  F1  UNL d   1      -0.069   1.603   2.850  0.00  0.00    -0.096 F 
ATOM      9  I   UNL d   1       2.114   3.379   1.327  0.00  0.00    -0.060 I 
ATOM     10  F2  UNL d   1       3.557   0.938  -0.156  0.00  0.00    -0.096 F 
ATOM     11  F3  UNL d   1       3.077  -1.726  -0.121  0.00  0.00    -0.097 F 
ATOM     12  F4  UNL d   1       1.040  -2.741   1.384  0.00  0.00    -0.092 F 
ENDROOT
TORSDOF 0
ENDMDL
