MODEL 1
REMARK minimizedAffinity 2.27855873
REMARK minimizedRMSD -1
REMARK  0 active torsions:
REMARK  status: ('A' for Active; 'I' for Inactive)
ROOT
ATOM      1  C   UNL d   1      -1.488  -1.370  -0.016  0.00  0.00     0.124 A 
ATOM      2  C1  UNL d   1      -0.803  -1.075   1.154  0.00  0.00     0.062 A 
ATOM      3  C2  UNL d   1       0.139  -0.051   1.175  0.00  0.00     0.162 A 
ATOM      4  C3  UNL d   1       0.400   0.689   0.021  0.00  0.00    -0.034 A 
ATOM      5  C4  UNL d   1      -0.293   0.386  -1.152  0.00  0.00     0.162 A 
ATOM      6  C5  UNL d   1      -1.233  -0.639  -1.168  0.00  0.00     0.062 A 
ATOM      7  F   UNL d   1      -1.895  -0.922  -2.299  0.00  0.00    -0.097 F 
ATOM      8  F1  UNL d   1      -0.066   1.077  -2.280  0.00  0.00    -0.096 F 
ATOM      9  I   UNL d   1       1.808   2.222   0.048  0.00  0.00    -0.060 I 
ATOM     10  F2  UNL d   1       0.787   0.212   2.320  0.00  0.00    -0.096 F 
ATOM     11  F3  UNL d   1      -1.047  -1.780   2.268  0.00  0.00    -0.097 F 
ATOM     12  F4  UNL d   1      -2.393  -2.357  -0.033  0.00  0.00    -0.092 F 
ENDROOT
TORSDOF 0
ENDMDL
