MODEL 1
REMARK minimizedAffinity -2.6083436
REMARK minimizedRMSD -1
REMARK  0 active torsions:
REMARK  status: ('A' for Active; 'I' for Inactive)
ROOT
ATOM      1  C   UNL d   1       2.503   2.692   1.501  0.00  0.00     0.124 A 
ATOM      2  C1  UNL d   1       1.590   2.440   2.515  0.00  0.00     0.062 A 
ATOM      3  C2  UNL d   1       0.844   1.265   2.510  0.00  0.00     0.162 A 
ATOM      4  C3  UNL d   1       1.009   0.332   1.487  0.00  0.00    -0.034 A 
ATOM      5  C4  UNL d   1       1.928   0.592   0.469  0.00  0.00     0.162 A 
ATOM      6  C5  UNL d   1       2.671   1.768   0.479  0.00  0.00     0.062 A 
ATOM      7  F   UNL d   1       3.553   2.009  -0.502  0.00  0.00    -0.097 F 
ATOM      8  F1  UNL d   1       2.111  -0.284  -0.530  0.00  0.00    -0.096 F 
ATOM      9  I   UNL d   1      -0.105  -1.426   1.476  0.00  0.00    -0.060 I 
ATOM     10  F2  UNL d   1      -0.030   1.049   3.504  0.00  0.00    -0.096 F 
ATOM     11  F3  UNL d   1       1.426   3.332   3.503  0.00  0.00    -0.097 F 
ATOM     12  F4  UNL d   1       3.219   3.824   1.507  0.00  0.00    -0.092 F 
ENDROOT
TORSDOF 0
ENDMDL
