MODEL 1
REMARK minimizedAffinity 4.95998573
REMARK minimizedRMSD -1
REMARK  0 active torsions:
REMARK  status: ('A' for Active; 'I' for Inactive)
ROOT
ATOM      1  C   UNL d   1      -1.278  -0.367  -1.019  0.00  0.00     0.124 A 
ATOM      2  C1  UNL d   1       0.104  -0.387  -1.147  0.00  0.00     0.062 A 
ATOM      3  C2  UNL d   1       0.875   0.619  -0.572  0.00  0.00     0.162 A 
ATOM      4  C3  UNL d   1       0.265   1.655   0.136  0.00  0.00    -0.034 A 
ATOM      5  C4  UNL d   1      -1.125   1.669   0.260  0.00  0.00     0.162 A 
ATOM      6  C5  UNL d   1      -1.891   0.660  -0.316  0.00  0.00     0.062 A 
ATOM      7  F   UNL d   1      -3.226   0.682  -0.192  0.00  0.00    -0.097 F 
ATOM      8  F1  UNL d   1      -1.744   2.649   0.935  0.00  0.00    -0.096 F 
ATOM      9  I   UNL d   1       1.414   3.162   0.997  0.00  0.00    -0.060 I 
ATOM     10  F2  UNL d   1       2.208   0.574  -0.712  0.00  0.00    -0.096 F 
ATOM     11  F3  UNL d   1       0.698  -1.378  -1.826  0.00  0.00    -0.097 F 
ATOM     12  F4  UNL d   1      -2.018  -1.336  -1.574  0.00  0.00    -0.092 F 
ENDROOT
TORSDOF 0
ENDMDL
