MODEL 1
REMARK minimizedAffinity -2.49832177
REMARK minimizedRMSD -1
REMARK  0 active torsions:
REMARK  status: ('A' for Active; 'I' for Inactive)
ROOT
ATOM      1  C   UNL d   1      -1.954  -1.882  -0.140  0.00  0.00     0.124 A 
ATOM      2  C1  UNL d   1      -1.065  -2.096   0.904  0.00  0.00     0.062 A 
ATOM      3  C2  UNL d   1       0.028  -1.252   1.077  0.00  0.00     0.162 A 
ATOM      4  C3  UNL d   1       0.238  -0.185   0.204  0.00  0.00    -0.034 A 
ATOM      5  C4  UNL d   1      -0.660   0.024  -0.844  0.00  0.00     0.162 A 
ATOM      6  C5  UNL d   1      -1.751  -0.822  -1.013  0.00  0.00     0.062 A 
ATOM      7  F   UNL d   1      -2.609  -0.614  -2.022  0.00  0.00    -0.097 F 
ATOM      8  F1  UNL d   1      -0.488   1.041  -1.702  0.00  0.00    -0.096 F 
ATOM      9  I   UNL d   1       1.871   1.080   0.460  0.00  0.00    -0.060 I 
ATOM     10  F2  UNL d   1       0.871  -1.483   2.095  0.00  0.00    -0.096 F 
ATOM     11  F3  UNL d   1      -1.259  -3.120   1.748  0.00  0.00    -0.097 F 
ATOM     12  F4  UNL d   1      -3.005  -2.696  -0.305  0.00  0.00    -0.092 F 
ENDROOT
TORSDOF 0
ENDMDL
