MODEL 1
REMARK minimizedAffinity -6.07060957
REMARK minimizedRMSD -1
REMARK  0 active torsions:
REMARK  status: ('A' for Active; 'I' for Inactive)
ROOT
ATOM      1  C   UNL d   1      -2.367  -1.980   0.214  0.00  0.00     0.124 A 
ATOM      2  C1  UNL d   1      -1.593  -2.370   1.298  0.00  0.00     0.062 A 
ATOM      3  C2  UNL d   1      -0.414  -1.693   1.595  0.00  0.00     0.162 A 
ATOM      4  C3  UNL d   1      -0.002  -0.618   0.808  0.00  0.00    -0.034 A 
ATOM      5  C4  UNL d   1      -0.786  -0.232  -0.282  0.00  0.00     0.162 A 
ATOM      6  C5  UNL d   1      -1.963  -0.912  -0.575  0.00  0.00     0.062 A 
ATOM      7  F   UNL d   1      -2.710  -0.534  -1.623  0.00  0.00    -0.097 F 
ATOM      8  F1  UNL d   1      -0.419   0.797  -1.059  0.00  0.00    -0.096 F 
ATOM      9  I   UNL d   1       1.760   0.398   1.249  0.00  0.00    -0.060 I 
ATOM     10  F2  UNL d   1       0.314  -2.091   2.649  0.00  0.00    -0.096 F 
ATOM     11  F3  UNL d   1      -1.981  -3.402   2.060  0.00  0.00    -0.097 F 
ATOM     12  F4  UNL d   1      -3.501  -2.634  -0.071  0.00  0.00    -0.092 F 
ENDROOT
TORSDOF 0
ENDMDL
