MODEL 1
REMARK minimizedAffinity -6.30228949
REMARK minimizedRMSD -1
REMARK  0 active torsions:
REMARK  status: ('A' for Active; 'I' for Inactive)
ROOT
ATOM      1  C   UNL d   1      -2.175  -1.192   0.183  0.00  0.00     0.124 A 
ATOM      2  C1  UNL d   1      -1.986  -0.245  -0.814  0.00  0.00     0.062 A 
ATOM      3  C2  UNL d   1      -0.815   0.508  -0.851  0.00  0.00     0.162 A 
ATOM      4  C3  UNL d   1       0.175   0.316   0.112  0.00  0.00    -0.034 A 
ATOM      5  C4  UNL d   1      -0.023  -0.637   1.113  0.00  0.00     0.162 A 
ATOM      6  C5  UNL d   1      -1.195  -1.387   1.145  0.00  0.00     0.062 A 
ATOM      7  F   UNL d   1      -1.376  -2.301   2.109  0.00  0.00    -0.097 F 
ATOM      8  F1  UNL d   1       0.909  -0.847   2.054  0.00  0.00    -0.096 F 
ATOM      9  I   UNL d   1       1.926   1.439   0.061  0.00  0.00    -0.060 I 
ATOM     10  F2  UNL d   1      -0.659   1.415  -1.826  0.00  0.00    -0.096 F 
ATOM     11  F3  UNL d   1      -2.932  -0.054  -1.744  0.00  0.00    -0.097 F 
ATOM     12  F4  UNL d   1      -3.303  -1.914   0.217  0.00  0.00    -0.092 F 
ENDROOT
TORSDOF 0
ENDMDL
