MODEL 1
REMARK minimizedAffinity -5.76139927
REMARK minimizedRMSD -1
REMARK  0 active torsions:
REMARK  status: ('A' for Active; 'I' for Inactive)
ROOT
ATOM      1  C   UNL d   1      -2.286  -1.430   0.146  0.00  0.00     0.124 A 
ATOM      2  C1  UNL d   1      -2.021  -0.611  -0.942  0.00  0.00     0.062 A 
ATOM      3  C2  UNL d   1      -0.866   0.165  -0.970  0.00  0.00     0.162 A 
ATOM      4  C3  UNL d   1       0.035   0.123   0.094  0.00  0.00    -0.034 A 
ATOM      5  C4  UNL d   1      -0.238  -0.703   1.186  0.00  0.00     0.162 A 
ATOM      6  C5  UNL d   1      -1.395  -1.476   1.209  0.00  0.00     0.062 A 
ATOM      7  F   UNL d   1      -1.649  -2.267   2.261  0.00  0.00    -0.097 F 
ATOM      8  F1  UNL d   1       0.607  -0.767   2.226  0.00  0.00    -0.096 F 
ATOM      9  I   UNL d   1       1.765   1.280   0.056  0.00  0.00    -0.060 I 
ATOM     10  F2  UNL d   1      -0.635   0.947  -2.034  0.00  0.00    -0.096 F 
ATOM     11  F3  UNL d   1      -2.882  -0.564  -1.969  0.00  0.00    -0.097 F 
ATOM     12  F4  UNL d   1      -3.399  -2.174   0.171  0.00  0.00    -0.092 F 
ENDROOT
TORSDOF 0
ENDMDL
