MODEL 1
REMARK minimizedAffinity -3.80218697
REMARK minimizedRMSD -1
REMARK  0 active torsions:
REMARK  status: ('A' for Active; 'I' for Inactive)
ROOT
ATOM      1  C   UNL d   1      -2.533  -0.661   0.276  0.00  0.00     0.124 A 
ATOM      2  C1  UNL d   1      -1.980  -0.299  -0.945  0.00  0.00     0.062 A 
ATOM      3  C2  UNL d   1      -0.666   0.153  -1.012  0.00  0.00     0.162 A 
ATOM      4  C3  UNL d   1       0.107   0.244   0.145  0.00  0.00    -0.034 A 
ATOM      5  C4  UNL d   1      -0.456  -0.121   1.370  0.00  0.00     0.162 A 
ATOM      6  C5  UNL d   1      -1.770  -0.572   1.432  0.00  0.00     0.062 A 
ATOM      7  F   UNL d   1      -2.302  -0.921   2.612  0.00  0.00    -0.097 F 
ATOM      8  F1  UNL d   1       0.259  -0.045   2.502  0.00  0.00    -0.096 F 
ATOM      9  I   UNL d   1       2.074   0.919   0.049  0.00  0.00    -0.060 I 
ATOM     10  F2  UNL d   1      -0.158   0.496  -2.206  0.00  0.00    -0.096 F 
ATOM     11  F3  UNL d   1      -2.715  -0.384  -2.063  0.00  0.00    -0.097 F 
ATOM     12  F4  UNL d   1      -3.798  -1.094   0.337  0.00  0.00    -0.092 F 
ENDROOT
TORSDOF 0
ENDMDL
