MODEL 1
REMARK minimizedAffinity 5.72016525
REMARK minimizedRMSD -1
REMARK  0 active torsions:
REMARK  status: ('A' for Active; 'I' for Inactive)
ROOT
ATOM      1  C   UNL d   1      -1.940  -1.844  -0.674  0.00  0.00     0.124 A 
ATOM      2  C1  UNL d   1      -1.864  -0.751  -1.526  0.00  0.00     0.062 A 
ATOM      3  C2  UNL d   1      -0.756   0.090  -1.489  0.00  0.00     0.162 A 
ATOM      4  C3  UNL d   1       0.287  -0.159  -0.597  0.00  0.00    -0.034 A 
ATOM      5  C4  UNL d   1       0.203  -1.260   0.258  0.00  0.00     0.162 A 
ATOM      6  C5  UNL d   1      -0.906  -2.097   0.217  0.00  0.00     0.062 A 
ATOM      7  F   UNL d   1      -0.978  -3.153   1.041  0.00  0.00    -0.097 F 
ATOM      8  F1  UNL d   1       1.188  -1.528   1.128  0.00  0.00    -0.096 F 
ATOM      9  I   UNL d   1       1.946   1.096  -0.538  0.00  0.00    -0.060 I 
ATOM     10  F2  UNL d   1      -0.710   1.139  -2.324  0.00  0.00    -0.096 F 
ATOM     11  F3  UNL d   1      -2.862  -0.504  -2.387  0.00  0.00    -0.097 F 
ATOM     12  F4  UNL d   1      -3.008  -2.652  -0.711  0.00  0.00    -0.092 F 
ENDROOT
TORSDOF 0
ENDMDL
