MODEL 1
REMARK minimizedAffinity -4.70399427
REMARK minimizedRMSD -1
REMARK  0 active torsions:
REMARK  status: ('A' for Active; 'I' for Inactive)
ROOT
ATOM      1  C   UNL d   1      -1.683  -1.920   0.247  0.00  0.00     0.124 A 
ATOM      2  C1  UNL d   1      -1.760  -0.812  -0.585  0.00  0.00     0.062 A 
ATOM      3  C2  UNL d   1      -0.804   0.196  -0.500  0.00  0.00     0.162 A 
ATOM      4  C3  UNL d   1       0.239   0.100   0.422  0.00  0.00    -0.034 A 
ATOM      5  C4  UNL d   1       0.309  -1.017   1.256  0.00  0.00     0.162 A 
ATOM      6  C5  UNL d   1      -0.649  -2.022   1.167  0.00  0.00     0.062 A 
ATOM      7  F   UNL d   1      -0.573  -3.091   1.972  0.00  0.00    -0.097 F 
ATOM      8  F1  UNL d   1       1.299  -1.141   2.153  0.00  0.00    -0.096 F 
ATOM      9  I   UNL d   1       1.670   1.605   0.553  0.00  0.00    -0.060 I 
ATOM     10  F2  UNL d   1      -0.904   1.255  -1.317  0.00  0.00    -0.096 F 
ATOM     11  F3  UNL d   1      -2.759  -0.712  -1.474  0.00  0.00    -0.097 F 
ATOM     12  F4  UNL d   1      -2.605  -2.888   0.163  0.00  0.00    -0.092 F 
ENDROOT
TORSDOF 0
ENDMDL
