MODEL 1
REMARK minimizedAffinity -2.55021572
REMARK minimizedRMSD -1
REMARK  0 active torsions:
REMARK  status: ('A' for Active; 'I' for Inactive)
ROOT
ATOM      1  C   UNL d   1      -1.970  -1.929   0.048  0.00  0.00     0.124 A 
ATOM      2  C1  UNL d   1      -0.941  -2.145   0.955  0.00  0.00     0.062 A 
ATOM      3  C2  UNL d   1       0.106  -1.234   1.055  0.00  0.00     0.162 A 
ATOM      4  C3  UNL d   1       0.130  -0.098   0.246  0.00  0.00    -0.034 A 
ATOM      5  C4  UNL d   1      -0.907   0.112  -0.665  0.00  0.00     0.162 A 
ATOM      6  C5  UNL d   1      -1.952  -0.802  -0.761  0.00  0.00     0.062 A 
ATOM      7  F   UNL d   1      -2.944  -0.592  -1.638  0.00  0.00    -0.097 F 
ATOM      8  F1  UNL d   1      -0.915   1.194  -1.458  0.00  0.00    -0.096 F 
ATOM      9  I   UNL d   1       1.695   1.267   0.392  0.00  0.00    -0.060 I 
ATOM     10  F2  UNL d   1       1.086  -1.467   1.940  0.00  0.00    -0.096 F 
ATOM     11  F3  UNL d   1      -0.956  -3.234   1.737  0.00  0.00    -0.097 F 
ATOM     12  F4  UNL d   1      -2.976  -2.808  -0.047  0.00  0.00    -0.092 F 
ENDROOT
TORSDOF 0
ENDMDL
