MODEL 1
REMARK minimizedAffinity -2.56096601
REMARK minimizedRMSD -1
REMARK  0 active torsions:
REMARK  status: ('A' for Active; 'I' for Inactive)
ROOT
ATOM      1  C   UNL d   1      -1.891  -0.296  -1.290  0.00  0.00     0.124 A 
ATOM      2  C1  UNL d   1      -2.281  -0.578   0.012  0.00  0.00     0.062 A 
ATOM      3  C2  UNL d   1      -1.343  -0.571   1.041  0.00  0.00     0.162 A 
ATOM      4  C3  UNL d   1      -0.006  -0.280   0.772  0.00  0.00    -0.034 A 
ATOM      5  C4  UNL d   1       0.379   0.001  -0.541  0.00  0.00     0.162 A 
ATOM      6  C5  UNL d   1      -0.562  -0.007  -1.565  0.00  0.00     0.062 A 
ATOM      7  F   UNL d   1      -0.184   0.265  -2.822  0.00  0.00    -0.097 F 
ATOM      8  F1  UNL d   1       1.656   0.285  -0.834  0.00  0.00    -0.096 F 
ATOM      9  I   UNL d   1       1.399  -0.268   2.307  0.00  0.00    -0.060 I 
ATOM     10  F2  UNL d   1      -1.748  -0.847   2.289  0.00  0.00    -0.096 F 
ATOM     11  F3  UNL d   1      -3.564  -0.859   0.280  0.00  0.00    -0.097 F 
ATOM     12  F4  UNL d   1      -2.795  -0.305  -2.278  0.00  0.00    -0.092 F 
ENDROOT
TORSDOF 0
ENDMDL
