MODEL 1
REMARK minimizedAffinity 4.79568291
REMARK minimizedRMSD -1
REMARK  1 active torsions:
REMARK  status: ('A' for Active; 'I' for Inactive)
REMARK    1  A    between atoms: C1_2  and  C2_3 
ROOT
ATOM      1  C2  UNL d   1      -0.165   1.857   0.255  0.00  0.00    -0.081 A 
ATOM      2  C3  UNL d   1      -0.091   3.199  -0.137  0.00  0.00     0.006 A 
ATOM      3  C4  UNL d   1       0.539   4.141   0.679  0.00  0.00     0.002 A 
ATOM      4  C5  UNL d   1       1.111   3.756   1.897  0.00  0.00    -0.080 A 
ATOM      5  C6  UNL d   1       1.816   4.752   2.769  0.00  0.00     0.076 C 
ATOM      6  C7  UNL d   1       1.021   2.418   2.297  0.00  0.00     0.002 A 
ATOM      7  C8  UNL d   1       0.391   1.476   1.481  0.00  0.00     0.006 A 
ENDROOT
BRANCH   1   8
ATOM      8  C1  UNL d   1      -0.787   0.826  -0.653  0.00  0.00     0.054 C 
ATOM      9  C   UNL d   1      -2.261   0.623  -0.332  0.00  0.00     0.018 C 
ENDBRANCH   1   8
TORSDOF 1
ENDMDL
