MODEL 1
REMARK minimizedAffinity -6.33726072
REMARK minimizedRMSD -1
REMARK  1 active torsions:
REMARK  status: ('A' for Active; 'I' for Inactive)
REMARK    1  A    between atoms: C1_2  and  C2_3 
ROOT
ATOM      1  C2  UNL d   1       0.232  -0.435  -0.636  0.00  0.00    -0.081 A 
ATOM      2  C3  UNL d   1       0.485  -0.531   0.738  0.00  0.00     0.006 A 
ATOM      3  C4  UNL d   1       0.155   0.521   1.594  0.00  0.00     0.002 A 
ATOM      4  C5  UNL d   1      -0.442   1.683   1.093  0.00  0.00    -0.080 A 
ATOM      5  C6  UNL d   1      -0.829   2.809   2.006  0.00  0.00     0.076 C 
ATOM      6  C7  UNL d   1      -0.678   1.787  -0.282  0.00  0.00     0.002 A 
ATOM      7  C8  UNL d   1      -0.347   0.735  -1.139  0.00  0.00     0.006 A 
ENDROOT
BRANCH   1   8
ATOM      8  C1  UNL d   1       0.528  -1.594  -1.553  0.00  0.00     0.054 C 
ATOM      9  C   UNL d   1      -0.325  -2.806  -1.207  0.00  0.00     0.018 C 
ENDBRANCH   1   8
TORSDOF 1
ENDMDL
