MODEL 1
REMARK minimizedAffinity -3.65740919
REMARK minimizedRMSD -1
REMARK  1 active torsions:
REMARK  status: ('A' for Active; 'I' for Inactive)
REMARK    1  A    between atoms: C1_2  and  C2_3 
ROOT
ATOM      1  C2  UNL d   1      -0.615  -1.675  -0.593  0.00  0.00    -0.081 A 
ATOM      2  C3  UNL d   1      -1.640  -1.126   0.188  0.00  0.00     0.006 A 
ATOM      3  C4  UNL d   1      -1.388  -0.035   1.023  0.00  0.00     0.002 A 
ATOM      4  C5  UNL d   1      -0.110   0.530   1.085  0.00  0.00    -0.080 A 
ATOM      5  C6  UNL d   1       0.167   1.721   1.955  0.00  0.00     0.076 C 
ATOM      6  C7  UNL d   1       0.918  -0.029   0.319  0.00  0.00     0.002 A 
ATOM      7  C8  UNL d   1       0.667  -1.120  -0.515  0.00  0.00     0.006 A 
ENDROOT
BRANCH   1   8
ATOM      8  C1  UNL d   1      -0.899  -2.810  -1.543  0.00  0.00     0.054 C 
ATOM      9  C   UNL d   1      -0.104  -4.053  -1.172  0.00  0.00     0.018 C 
ENDBRANCH   1   8
TORSDOF 1
ENDMDL
