MODEL 1
REMARK minimizedAffinity -2.37237453
REMARK minimizedRMSD -1
REMARK  1 active torsions:
REMARK  status: ('A' for Active; 'I' for Inactive)
REMARK    1  A    between atoms: C1_2  and  C2_3 
ROOT
ATOM      1  C2  UNL d   1       0.577  -1.489  -0.299  0.00  0.00    -0.081 A 
ATOM      2  C3  UNL d   1       0.940  -1.393   1.050  0.00  0.00     0.006 A 
ATOM      3  C4  UNL d   1       0.678  -0.226   1.772  0.00  0.00     0.002 A 
ATOM      4  C5  UNL d   1       0.041   0.859   1.161  0.00  0.00    -0.080 A 
ATOM      5  C6  UNL d   1      -0.274   2.106   1.934  0.00  0.00     0.076 C 
ATOM      6  C7  UNL d   1      -0.306   0.769  -0.191  0.00  0.00     0.002 A 
ATOM      7  C8  UNL d   1      -0.043  -0.396  -0.914  0.00  0.00     0.006 A 
ENDROOT
BRANCH   1   8
ATOM      8  C1  UNL d   1       0.800  -2.769  -1.063  0.00  0.00     0.054 C 
ATOM      9  C   UNL d   1      -0.512  -3.494  -1.324  0.00  0.00     0.018 C 
ENDBRANCH   1   8
TORSDOF 1
ENDMDL
