MODEL 1
REMARK minimizedAffinity -0.255341232
REMARK minimizedRMSD -1
REMARK  1 active torsions:
REMARK  status: ('A' for Active; 'I' for Inactive)
REMARK    1  A    between atoms: C1_2  and  C2_3 
ROOT
ATOM      1  C2  UNL d   1      -0.505   0.707   1.536  0.00  0.00    -0.081 A 
ATOM      2  C3  UNL d   1      -1.323  -0.384   1.857  0.00  0.00     0.006 A 
ATOM      3  C4  UNL d   1      -1.470  -1.446   0.961  0.00  0.00     0.002 A 
ATOM      4  C5  UNL d   1      -0.796  -1.440  -0.264  0.00  0.00    -0.080 A 
ATOM      5  C6  UNL d   1      -0.921  -2.588  -1.221  0.00  0.00     0.076 C 
ATOM      6  C7  UNL d   1       0.008  -0.342  -0.592  0.00  0.00     0.002 A 
ATOM      7  C8  UNL d   1       0.155   0.720   0.303  0.00  0.00     0.006 A 
ENDROOT
BRANCH   1   8
ATOM      8  C1  UNL d   1      -0.294   1.823   2.527  0.00  0.00     0.054 C 
ATOM      9  C   UNL d   1      -0.666   3.172   1.928  0.00  0.00     0.018 C 
ENDBRANCH   1   8
TORSDOF 1
ENDMDL
