MODEL 1
REMARK minimizedAffinity -3.2237339
REMARK minimizedRMSD -1
REMARK  1 active torsions:
REMARK  status: ('A' for Active; 'I' for Inactive)
REMARK    1  A    between atoms: C1_2  and  C2_3 
ROOT
ATOM      1  C2  UNL d   1       0.234  -0.641   0.209  0.00  0.00    -0.081 A 
ATOM      2  C3  UNL d   1       0.290  -0.314   1.569  0.00  0.00     0.006 A 
ATOM      3  C4  UNL d   1      -0.334   0.841   2.046  0.00  0.00     0.002 A 
ATOM      4  C5  UNL d   1      -1.032   1.683   1.172  0.00  0.00    -0.080 A 
ATOM      5  C6  UNL d   1      -1.732   2.910   1.676  0.00  0.00     0.076 C 
ATOM      6  C7  UNL d   1      -1.073   1.365  -0.189  0.00  0.00     0.002 A 
ATOM      7  C8  UNL d   1      -0.448   0.211  -0.667  0.00  0.00     0.006 A 
ENDROOT
BRANCH   1   8
ATOM      8  C1  UNL d   1       0.851  -1.920  -0.298  0.00  0.00     0.054 C 
ATOM      9  C   UNL d   1      -0.184  -3.031  -0.400  0.00  0.00     0.018 C 
ENDBRANCH   1   8
TORSDOF 1
ENDMDL
