MODEL 1
REMARK minimizedAffinity -1.12121511
REMARK minimizedRMSD -1
REMARK  1 active torsions:
REMARK  status: ('A' for Active; 'I' for Inactive)
REMARK    1  A    between atoms: C1_2  and  C2_3 
ROOT
ATOM      1  C2  UNL d   1       0.585  -0.150  -1.376  0.00  0.00    -0.081 A 
ATOM      2  C3  UNL d   1       0.862  -0.829  -0.182  0.00  0.00     0.006 A 
ATOM      3  C4  UNL d   1       0.705  -0.188   1.049  0.00  0.00     0.002 A 
ATOM      4  C5  UNL d   1       0.263   1.137   1.109  0.00  0.00    -0.080 A 
ATOM      5  C6  UNL d   1       0.061   1.826   2.426  0.00  0.00     0.076 C 
ATOM      6  C7  UNL d   1       0.003   1.821  -0.084  0.00  0.00     0.002 A 
ATOM      7  C8  UNL d   1       0.160   1.182  -1.315  0.00  0.00     0.006 A 
ENDROOT
BRANCH   1   8
ATOM      8  C1  UNL d   1       0.691  -0.857  -2.702  0.00  0.00     0.054 C 
ATOM      9  C   UNL d   1       0.624   0.127  -3.861  0.00  0.00     0.018 C 
ENDBRANCH   1   8
TORSDOF 1
ENDMDL
