MODEL 1
REMARK minimizedAffinity -5.05064201
REMARK minimizedRMSD -1
REMARK  1 active torsions:
REMARK  status: ('A' for Active; 'I' for Inactive)
REMARK    1  A    between atoms: C1_2  and  C2_3 
ROOT
ATOM      1  C2  UNL d   1       0.099   0.185  -1.126  0.00  0.00    -0.081 A 
ATOM      2  C3  UNL d   1      -1.238   0.373  -0.756  0.00  0.00     0.006 A 
ATOM      3  C4  UNL d   1      -1.577   0.624   0.575  0.00  0.00     0.002 A 
ATOM      4  C5  UNL d   1      -0.584   0.700   1.558  0.00  0.00    -0.080 A 
ATOM      5  C6  UNL d   1      -0.931   0.999   2.986  0.00  0.00     0.076 C 
ATOM      6  C7  UNL d   1       0.751   0.495   1.192  0.00  0.00     0.002 A 
ATOM      7  C8  UNL d   1       1.090   0.243  -0.139  0.00  0.00     0.006 A 
ENDROOT
BRANCH   1   8
ATOM      8  C1  UNL d   1       0.474  -0.022  -2.571  0.00  0.00     0.054 C 
ATOM      9  C   UNL d   1       1.381   1.093  -3.073  0.00  0.00     0.018 C 
ENDBRANCH   1   8
TORSDOF 1
ENDMDL
