MODEL 1
REMARK minimizedAffinity -3.80348229
REMARK minimizedRMSD -1
REMARK  1 active torsions:
REMARK  status: ('A' for Active; 'I' for Inactive)
REMARK    1  A    between atoms: C1_2  and  C2_3 
ROOT
ATOM      1  C2  UNL d   1       0.209  -0.001  -1.625  0.00  0.00    -0.081 A 
ATOM      2  C3  UNL d   1      -1.105   0.398  -1.353  0.00  0.00     0.006 A 
ATOM      3  C4  UNL d   1      -1.590   0.389  -0.043  0.00  0.00     0.002 A 
ATOM      4  C5  UNL d   1      -0.769  -0.011   1.016  0.00  0.00    -0.080 A 
ATOM      5  C6  UNL d   1      -1.268   0.004   2.430  0.00  0.00     0.076 C 
ATOM      6  C7  UNL d   1       0.539  -0.426   0.742  0.00  0.00     0.002 A 
ATOM      7  C8  UNL d   1       1.025  -0.418  -0.567  0.00  0.00     0.006 A 
ENDROOT
BRANCH   1   8
ATOM      8  C1  UNL d   1       0.757   0.069  -3.028  0.00  0.00     0.054 C 
ATOM      9  C   UNL d   1       2.257   0.324  -3.025  0.00  0.00     0.018 C 
ENDBRANCH   1   8
TORSDOF 1
ENDMDL
