MODEL 1
REMARK minimizedAffinity -4.54421568
REMARK minimizedRMSD -1
REMARK  1 active torsions:
REMARK  status: ('A' for Active; 'I' for Inactive)
REMARK    1  A    between atoms: C1_2  and  C2_3 
ROOT
ATOM      1  C2  UNL d   1       0.136   0.021  -0.518  0.00  0.00    -0.081 A 
ATOM      2  C3  UNL d   1      -1.172  -0.114  -0.036  0.00  0.00     0.006 A 
ATOM      3  C4  UNL d   1      -1.523   0.402   1.213  0.00  0.00     0.002 A 
ATOM      4  C5  UNL d   1      -0.575   1.068   1.998  0.00  0.00    -0.080 A 
ATOM      5  C6  UNL d   1      -0.946   1.654   3.328  0.00  0.00     0.076 C 
ATOM      6  C7  UNL d   1       0.736   1.188   1.524  0.00  0.00     0.002 A 
ATOM      7  C8  UNL d   1       1.088   0.671   0.275  0.00  0.00     0.006 A 
ENDROOT
BRANCH   1   8
ATOM      8  C1  UNL d   1       0.501  -0.478  -1.893  0.00  0.00     0.054 C 
ATOM      9  C   UNL d   1       1.136   0.623  -2.731  0.00  0.00     0.018 C 
ENDBRANCH   1   8
TORSDOF 1
ENDMDL
