MODEL 1
REMARK minimizedAffinity -3.89429665
REMARK minimizedRMSD -1
REMARK  1 active torsions:
REMARK  status: ('A' for Active; 'I' for Inactive)
REMARK    1  A    between atoms: C1_2  and  C2_3 
ROOT
ATOM      1  C2  UNL d   1       0.413   0.272  -1.352  0.00  0.00    -0.081 A 
ATOM      2  C3  UNL d   1       0.182  -0.750  -0.423  0.00  0.00     0.006 A 
ATOM      3  C4  UNL d   1      -0.434  -0.470   0.799  0.00  0.00     0.002 A 
ATOM      4  C5  UNL d   1      -0.835   0.834   1.109  0.00  0.00    -0.080 A 
ATOM      5  C6  UNL d   1      -1.524   1.143   2.405  0.00  0.00     0.076 C 
ATOM      6  C7  UNL d   1      -0.588   1.858   0.188  0.00  0.00     0.002 A 
ATOM      7  C8  UNL d   1       0.028   1.579  -1.034  0.00  0.00     0.006 A 
ENDROOT
BRANCH   1   8
ATOM      8  C1  UNL d   1       1.018  -0.038  -2.698  0.00  0.00     0.054 C 
ATOM      9  C   UNL d   1       0.437   0.854  -3.785  0.00  0.00     0.018 C 
ENDBRANCH   1   8
TORSDOF 1
ENDMDL
