MODEL 1
REMARK minimizedAffinity -5.27584743
REMARK minimizedRMSD -1
REMARK  1 active torsions:
REMARK  status: ('A' for Active; 'I' for Inactive)
REMARK    1  A    between atoms: C1_2  and  C2_3 
ROOT
ATOM      1  C2  UNL d   1      -0.413   0.123  -0.398  0.00  0.00    -0.081 A 
ATOM      2  C3  UNL d   1      -0.896  -0.026   0.908  0.00  0.00     0.006 A 
ATOM      3  C4  UNL d   1      -0.077  -0.551   1.910  0.00  0.00     0.002 A 
ATOM      4  C5  UNL d   1       1.240  -0.928   1.626  0.00  0.00    -0.080 A 
ATOM      5  C6  UNL d   1       2.139  -1.464   2.700  0.00  0.00     0.076 C 
ATOM      6  C7  UNL d   1       1.717  -0.795   0.318  0.00  0.00     0.002 A 
ATOM      7  C8  UNL d   1       0.898  -0.271  -0.685  0.00  0.00     0.006 A 
ENDROOT
BRANCH   1   8
ATOM      8  C1  UNL d   1      -1.273   0.748  -1.466  0.00  0.00     0.054 C 
ATOM      9  C   UNL d   1      -0.859   2.188  -1.738  0.00  0.00     0.018 C 
ENDBRANCH   1   8
TORSDOF 1
ENDMDL
