MODEL 1
REMARK minimizedAffinity -5.53855038
REMARK minimizedRMSD -1
REMARK  1 active torsions:
REMARK  status: ('A' for Active; 'I' for Inactive)
REMARK    1  A    between atoms: C1_2  and  C2_3 
ROOT
ATOM      1  C2  UNL d   1      -0.318  -0.084  -0.708  0.00  0.00    -0.081 A 
ATOM      2  C3  UNL d   1      -0.896  -0.085   0.568  0.00  0.00     0.006 A 
ATOM      3  C4  UNL d   1      -0.160  -0.507   1.678  0.00  0.00     0.002 A 
ATOM      4  C5  UNL d   1       1.166  -0.927   1.532  0.00  0.00    -0.080 A 
ATOM      5  C6  UNL d   1       1.976  -1.354   2.720  0.00  0.00     0.076 C 
ATOM      6  C7  UNL d   1       1.737  -0.943   0.256  0.00  0.00     0.002 A 
ATOM      7  C8  UNL d   1       1.002  -0.522  -0.855  0.00  0.00     0.006 A 
ENDROOT
BRANCH   1   8
ATOM      8  C1  UNL d   1      -1.088   0.431  -1.897  0.00  0.00     0.054 C 
ATOM      9  C   UNL d   1      -0.622   1.824  -2.296  0.00  0.00     0.018 C 
ENDBRANCH   1   8
TORSDOF 1
ENDMDL
