MODEL 1
REMARK minimizedAffinity -4.92566347
REMARK minimizedRMSD -1
REMARK  1 active torsions:
REMARK  status: ('A' for Active; 'I' for Inactive)
REMARK    1  A    between atoms: C1_2  and  C2_3 
ROOT
ATOM      1  C2  UNL d   1      -0.576   0.651  -0.729  0.00  0.00    -0.081 A 
ATOM      2  C3  UNL d   1       0.767   0.899  -0.423  0.00  0.00     0.006 A 
ATOM      3  C4  UNL d   1       1.308   0.467   0.791  0.00  0.00     0.002 A 
ATOM      4  C5  UNL d   1       0.517  -0.227   1.713  0.00  0.00    -0.080 A 
ATOM      5  C6  UNL d   1       1.093  -0.723   3.006  0.00  0.00     0.076 C 
ATOM      6  C7  UNL d   1      -0.830  -0.459   1.415  0.00  0.00     0.002 A 
ATOM      7  C8  UNL d   1      -1.371  -0.026   0.202  0.00  0.00     0.006 A 
ENDROOT
BRANCH   1   8
ATOM      8  C1  UNL d   1      -1.146   1.059  -2.064  0.00  0.00     0.054 C 
ATOM      9  C   UNL d   1      -0.519   2.354  -2.561  0.00  0.00     0.018 C 
ENDBRANCH   1   8
TORSDOF 1
ENDMDL
