MODEL 1
REMARK minimizedAffinity -5.4505868
REMARK minimizedRMSD -1
REMARK  1 active torsions:
REMARK  status: ('A' for Active; 'I' for Inactive)
REMARK    1  A    between atoms: C1_2  and  C2_3 
ROOT
ATOM      1  C2  UNL d   1      -0.058  -0.141  -0.090  0.00  0.00    -0.081 A 
ATOM      2  C3  UNL d   1      -0.589   0.158   1.171  0.00  0.00     0.006 A 
ATOM      3  C4  UNL d   1       0.085  -0.225   2.333  0.00  0.00     0.002 A 
ATOM      4  C5  UNL d   1       1.305  -0.905   2.254  0.00  0.00    -0.080 A 
ATOM      5  C6  UNL d   1       2.055  -1.295   3.493  0.00  0.00     0.076 C 
ATOM      6  C7  UNL d   1       1.828  -1.219   0.994  0.00  0.00     0.002 A 
ATOM      7  C8  UNL d   1       1.153  -0.837  -0.168  0.00  0.00     0.006 A 
ENDROOT
BRANCH   1   8
ATOM      8  C1  UNL d   1      -0.751   0.327  -1.344  0.00  0.00     0.054 C 
ATOM      9  C   UNL d   1      -0.314   1.735  -1.724  0.00  0.00     0.018 C 
ENDBRANCH   1   8
TORSDOF 1
ENDMDL
