MODEL 1
REMARK minimizedAffinity -3.19963717
REMARK minimizedRMSD -1
REMARK  0 active torsions:
REMARK  status: ('A' for Active; 'I' for Inactive)
ROOT
ATOM      1  C1  BNZ d   1      -0.553  -1.935  -0.032  0.00  0.00     0.000 A 
ATOM      2  C2  BNZ d   1      -0.249  -3.119   0.586  0.00  0.00     0.000 A 
ATOM      3  C3  BNZ d   1       1.013  -3.641   0.516  0.00  0.00     0.000 A 
ATOM      4  C4  BNZ d   1       1.957  -2.999  -0.202  0.00  0.00     0.000 A 
ATOM      5  C5  BNZ d   1       1.663  -1.809  -0.838  0.00  0.00     0.000 A 
ATOM      6  C6  BNZ d   1       0.402  -1.268  -0.734  0.00  0.00     0.000 A 
ENDROOT
TORSDOF 0
ENDMDL
