MODEL 1
REMARK minimizedAffinity -3.9364984
REMARK minimizedRMSD -1
REMARK  0 active torsions:
REMARK  status: ('A' for Active; 'I' for Inactive)
ROOT
ATOM      1  C1  BNZ d   1       1.945  -2.875  -0.098  0.00  0.00     0.000 A 
ATOM      2  C2  BNZ d   1       1.751  -1.552  -0.393  0.00  0.00     0.000 A 
ATOM      3  C3  BNZ d   1       0.496  -1.010  -0.386  0.00  0.00     0.000 A 
ATOM      4  C4  BNZ d   1      -0.566  -1.799  -0.123  0.00  0.00     0.000 A 
ATOM      5  C5  BNZ d   1      -0.387  -3.137   0.168  0.00  0.00     0.000 A 
ATOM      6  C6  BNZ d   1       0.881  -3.670   0.198  0.00  0.00     0.000 A 
ENDROOT
TORSDOF 0
ENDMDL
