MODEL 1
REMARK minimizedAffinity -0.0450837798
REMARK minimizedRMSD -1
REMARK  0 active torsions:
REMARK  status: ('A' for Active; 'I' for Inactive)
ROOT
ATOM      1  C1  BNZ d   1       0.575   0.004  -1.344  0.00  0.00     0.000 A 
ATOM      2  C2  BNZ d   1       1.500  -0.458  -0.447  0.00  0.00     0.000 A 
ATOM      3  C3  BNZ d   1       1.980  -1.735  -0.531  0.00  0.00     0.000 A 
ATOM      4  C4  BNZ d   1       1.504  -2.560  -1.486  0.00  0.00     0.000 A 
ATOM      5  C5  BNZ d   1       0.564  -2.112  -2.393  0.00  0.00     0.000 A 
ATOM      6  C6  BNZ d   1       0.113  -0.814  -2.329  0.00  0.00     0.000 A 
ENDROOT
TORSDOF 0
ENDMDL
