MODEL 1
REMARK minimizedAffinity -4.93122387
REMARK minimizedRMSD -1
REMARK  0 active torsions:
REMARK  status: ('A' for Active; 'I' for Inactive)
ROOT
ATOM      1  C1  BNZ d   1       0.482  -1.832   0.000  0.00  0.00     0.000 A 
ATOM      2  C2  BNZ d   1       0.516  -0.923  -1.022  0.00  0.00     0.000 A 
ATOM      3  C3  BNZ d   1       1.581  -0.870  -1.878  0.00  0.00     0.000 A 
ATOM      4  C4  BNZ d   1       2.627  -1.700  -1.685  0.00  0.00     0.000 A 
ATOM      5  C5  BNZ d   1       2.612  -2.616  -0.653  0.00  0.00     0.000 A 
ATOM      6  C6  BNZ d   1       1.521  -2.692   0.182  0.00  0.00     0.000 A 
ENDROOT
TORSDOF 0
ENDMDL
