MODEL 1
REMARK minimizedAffinity -3.92748523
REMARK minimizedRMSD -1
REMARK  0 active torsions:
REMARK  status: ('A' for Active; 'I' for Inactive)
ROOT
ATOM      1  C1  BNZ d   1       0.706  -1.844  -0.981  0.00  0.00     0.000 A 
ATOM      2  C2  BNZ d   1      -0.405  -2.539  -0.582  0.00  0.00     0.000 A 
ATOM      3  C3  BNZ d   1      -0.288  -3.672   0.174  0.00  0.00     0.000 A 
ATOM      4  C4  BNZ d   1       0.939  -4.131   0.496  0.00  0.00     0.000 A 
ATOM      5  C5  BNZ d   1       2.069  -3.447   0.093  0.00  0.00     0.000 A 
ATOM      6  C6  BNZ d   1       1.946  -2.285  -0.634  0.00  0.00     0.000 A 
ENDROOT
TORSDOF 0
ENDMDL
