MODEL 1
REMARK minimizedAffinity -4.53174829
REMARK minimizedRMSD -1
REMARK  0 active torsions:
REMARK  status: ('A' for Active; 'I' for Inactive)
ROOT
ATOM      1  C1  BNZ d   1       0.913  -3.221   0.529  0.00  0.00     0.000 A 
ATOM      2  C2  BNZ d   1      -0.241  -2.485   0.490  0.00  0.00     0.000 A 
ATOM      3  C3  BNZ d   1      -0.377  -1.441  -0.382  0.00  0.00     0.000 A 
ATOM      4  C4  BNZ d   1       0.655  -1.110  -1.184  0.00  0.00     0.000 A 
ATOM      5  C5  BNZ d   1       1.829  -1.836  -1.151  0.00  0.00     0.000 A 
ATOM      6  C6  BNZ d   1       1.948  -2.911  -0.299  0.00  0.00     0.000 A 
ENDROOT
TORSDOF 0
ENDMDL
