MODEL 1
REMARK minimizedAffinity 0.795135736
REMARK minimizedRMSD -1
REMARK  0 active torsions:
REMARK  status: ('A' for Active; 'I' for Inactive)
ROOT
ATOM      1  C1  BNZ d   1       2.098  -2.518  -0.464  0.00  0.00     0.000 A 
ATOM      2  C2  BNZ d   1       2.134  -1.394  -1.246  0.00  0.00     0.000 A 
ATOM      3  C3  BNZ d   1       1.057  -0.556  -1.317  0.00  0.00     0.000 A 
ATOM      4  C4  BNZ d   1      -0.067  -0.863  -0.638  0.00  0.00     0.000 A 
ATOM      5  C5  BNZ d   1      -0.122  -1.996   0.148  0.00  0.00     0.000 A 
ATOM      6  C6  BNZ d   1       0.977  -2.817   0.247  0.00  0.00     0.000 A 
ENDROOT
TORSDOF 0
ENDMDL
