MODEL 1
REMARK minimizedAffinity 3.59933805
REMARK minimizedRMSD -1
REMARK  0 active torsions:
REMARK  status: ('A' for Active; 'I' for Inactive)
ROOT
ATOM      1  C1  BNZ d   1       1.272  -4.633   0.554  0.00  0.00     0.000 A 
ATOM      2  C2  BNZ d   1       1.139  -3.644  -0.383  0.00  0.00     0.000 A 
ATOM      3  C3  BNZ d   1       1.900  -2.511  -0.318  0.00  0.00     0.000 A 
ATOM      4  C4  BNZ d   1       2.764  -2.351   0.706  0.00  0.00     0.000 A 
ATOM      5  C5  BNZ d   1       2.903  -3.335   1.663  0.00  0.00     0.000 A 
ATOM      6  C6  BNZ d   1       2.163  -4.492   1.573  0.00  0.00     0.000 A 
ENDROOT
TORSDOF 0
ENDMDL
