MODEL 1
REMARK minimizedAffinity -5.53604746
REMARK minimizedRMSD -1
REMARK  0 active torsions:
REMARK  status: ('A' for Active; 'I' for Inactive)
ROOT
ATOM      1  C1  BNZ d   1      -0.535  -1.577  -0.143  0.00  0.00     0.000 A 
ATOM      2  C2  BNZ d   1      -0.261  -2.895   0.110  0.00  0.00     0.000 A 
ATOM      3  C3  BNZ d   1       1.025  -3.359   0.088  0.00  0.00     0.000 A 
ATOM      4  C4  BNZ d   1       2.029  -2.515  -0.226  0.00  0.00     0.000 A 
ATOM      5  C5  BNZ d   1       1.768  -1.186  -0.493  0.00  0.00     0.000 A 
ATOM      6  C6  BNZ d   1       0.477  -0.714  -0.432  0.00  0.00     0.000 A 
ENDROOT
TORSDOF 0
ENDMDL
