MODEL 1
REMARK minimizedAffinity -0.0675215721
REMARK minimizedRMSD -1
REMARK  0 active torsions:
REMARK  status: ('A' for Active; 'I' for Inactive)
ROOT
ATOM      1  C1  BNZ d   1       2.249  -1.264  -0.956  0.00  0.00     0.000 A 
ATOM      2  C2  BNZ d   1       1.453  -0.167  -1.153  0.00  0.00     0.000 A 
ATOM      3  C3  BNZ d   1       0.099  -0.245  -0.980  0.00  0.00     0.000 A 
ATOM      4  C4  BNZ d   1      -0.460  -1.427  -0.650  0.00  0.00     0.000 A 
ATOM      5  C5  BNZ d   1       0.328  -2.544  -0.457  0.00  0.00     0.000 A 
ATOM      6  C6  BNZ d   1       1.694  -2.453  -0.594  0.00  0.00     0.000 A 
ENDROOT
TORSDOF 0
ENDMDL
