MODEL 1
REMARK minimizedAffinity -3.56725669
REMARK minimizedRMSD -1
REMARK  0 active torsions:
REMARK  status: ('A' for Active; 'I' for Inactive)
ROOT
ATOM      1  C1  BNZ d   1      -5.349   0.025   3.861  0.00  0.00     0.000 A 
ATOM      2  C2  BNZ d   1      -4.635   0.830   4.707  0.00  0.00     0.000 A 
ATOM      3  C3  BNZ d   1      -3.269   0.782   4.733  0.00  0.00     0.000 A 
ATOM      4  C4  BNZ d   1      -2.622  -0.099   3.942  0.00  0.00     0.000 A 
ATOM      5  C5  BNZ d   1      -3.328  -0.924   3.090  0.00  0.00     0.000 A 
ATOM      6  C6  BNZ d   1      -4.701  -0.845   3.039  0.00  0.00     0.000 A 
ENDROOT
TORSDOF 0
ENDMDL
