MODEL 1
REMARK minimizedAffinity 0.263223171
REMARK minimizedRMSD -1
REMARK  0 active torsions:
REMARK  status: ('A' for Active; 'I' for Inactive)
ROOT
ATOM      1  C1  BNZ d   1       2.142  -2.215  -0.373  0.00  0.00     0.000 A 
ATOM      2  C2  BNZ d   1       1.842  -1.090  -1.093  0.00  0.00     0.000 A 
ATOM      3  C3  BNZ d   1       0.559  -0.624  -1.162  0.00  0.00     0.000 A 
ATOM      4  C4  BNZ d   1      -0.427  -1.304  -0.543  0.00  0.00     0.000 A 
ATOM      5  C5  BNZ d   1      -0.143  -2.445   0.180  0.00  0.00     0.000 A 
ATOM      6  C6  BNZ d   1       1.156  -2.890   0.278  0.00  0.00     0.000 A 
ENDROOT
TORSDOF 0
ENDMDL
