MODEL 1
REMARK minimizedAffinity -3.68543673
REMARK minimizedRMSD -1
REMARK  0 active torsions:
REMARK  status: ('A' for Active; 'I' for Inactive)
ROOT
ATOM      1  C1  BNZ d   1       1.766  -1.568  -0.772  0.00  0.00     0.000 A 
ATOM      2  C2  BNZ d   1       2.522  -2.649  -0.403  0.00  0.00     0.000 A 
ATOM      3  C3  BNZ d   1       1.965  -3.692   0.283  0.00  0.00     0.000 A 
ATOM      4  C4  BNZ d   1       0.664  -3.635   0.633  0.00  0.00     0.000 A 
ATOM      5  C5  BNZ d   1      -0.109  -2.548   0.277  0.00  0.00     0.000 A 
ATOM      6  C6  BNZ d   1       0.446  -1.518  -0.447  0.00  0.00     0.000 A 
ENDROOT
TORSDOF 0
ENDMDL
