MODEL 1
REMARK minimizedAffinity -1.76976287
REMARK minimizedRMSD -1
REMARK  0 active torsions:
REMARK  status: ('A' for Active; 'I' for Inactive)
ROOT
ATOM      1  C1  BNZ d   1      -3.163  -0.599   3.550  0.00  0.00     0.000 A 
ATOM      2  C2  BNZ d   1      -3.960  -1.185   2.603  0.00  0.00     0.000 A 
ATOM      3  C3  BNZ d   1      -4.668  -0.423   1.716  0.00  0.00     0.000 A 
ATOM      4  C4  BNZ d   1      -4.610   0.921   1.802  0.00  0.00     0.000 A 
ATOM      5  C5  BNZ d   1      -3.819   1.527   2.758  0.00  0.00     0.000 A 
ATOM      6  C6  BNZ d   1      -3.077   0.757   3.624  0.00  0.00     0.000 A 
ENDROOT
TORSDOF 0
ENDMDL
