MODEL 1
REMARK minimizedAffinity -4.3682518
REMARK minimizedRMSD -1
REMARK  0 active torsions:
REMARK  status: ('A' for Active; 'I' for Inactive)
ROOT
ATOM      1  C1  BNZ d   1       0.968  -2.960   0.667  0.00  0.00     0.000 A 
ATOM      2  C2  BNZ d   1       1.905  -2.195   0.026  0.00  0.00     0.000 A 
ATOM      3  C3  BNZ d   1       1.530  -1.152  -0.774  0.00  0.00     0.000 A 
ATOM      4  C4  BNZ d   1       0.218  -0.902  -0.965  0.00  0.00     0.000 A 
ATOM      5  C5  BNZ d   1      -0.739  -1.670  -0.333  0.00  0.00     0.000 A 
ATOM      6  C6  BNZ d   1      -0.357  -2.694   0.503  0.00  0.00     0.000 A 
ENDROOT
TORSDOF 0
ENDMDL
