MODEL 1
REMARK minimizedAffinity -0.975142419
REMARK minimizedRMSD -1
REMARK  0 active torsions:
REMARK  status: ('A' for Active; 'I' for Inactive)
ROOT
ATOM      1  C1  BNZ d   1       2.801  -2.332   0.456  0.00  0.00     0.000 A 
ATOM      2  C2  BNZ d   1       2.046  -2.671  -0.635  0.00  0.00     0.000 A 
ATOM      3  C3  BNZ d   1       1.403  -3.877  -0.694  0.00  0.00     0.000 A 
ATOM      4  C4  BNZ d   1       1.549  -4.756   0.318  0.00  0.00     0.000 A 
ATOM      5  C5  BNZ d   1       2.315  -4.432   1.421  0.00  0.00     0.000 A 
ATOM      6  C6  BNZ d   1       2.929  -3.203   1.494  0.00  0.00     0.000 A 
ENDROOT
TORSDOF 0
ENDMDL
