MODEL 1
REMARK minimizedAffinity -2.79606652
REMARK minimizedRMSD -1
REMARK  0 active torsions:
REMARK  status: ('A' for Active; 'I' for Inactive)
ROOT
ATOM      1  C2' OXE d   1       1.931  -0.646   2.252  0.00  0.00     0.078 C 
ATOM      2  C1' OXE d   1      -0.473   0.389   3.268  0.00  0.00     0.078 C 
ATOM      3  C1  OXE d   1      -0.378   0.161   1.780  0.00  0.00    -0.078 A 
ATOM      4  C2  OXE d   1       0.818  -0.301   1.286  0.00  0.00    -0.078 A 
ATOM      5  C3  OXE d   1       0.941  -0.580  -0.072  0.00  0.00     0.003 A 
ATOM      6  C4  OXE d   1      -0.090  -0.249  -0.960  0.00  0.00    -0.002 A 
ATOM      7  C5  OXE d   1      -1.302   0.260  -0.482  0.00  0.00    -0.002 A 
ATOM      8  C6  OXE d   1      -1.477   0.431   0.886  0.00  0.00     0.003 A 
ENDROOT
TORSDOF 0
ENDMDL
