MODEL 1
REMARK minimizedAffinity -6.4791851
REMARK minimizedRMSD -1
REMARK  0 active torsions:
REMARK  status: ('A' for Active; 'I' for Inactive)
ROOT
ATOM      1  C2' OXE d   1       0.747  -0.384  -0.513  0.00  0.00     0.078 C 
ATOM      2  C1' OXE d   1       2.555  -0.631   1.620  0.00  0.00     0.078 C 
ATOM      3  C1  OXE d   1       1.237   0.052   1.890  0.00  0.00    -0.078 A 
ATOM      4  C2  OXE d   1       0.378   0.211   0.829  0.00  0.00    -0.078 A 
ATOM      5  C3  OXE d   1      -0.873   0.785   1.035  0.00  0.00     0.003 A 
ATOM      6  C4  OXE d   1      -1.202   1.341   2.277  0.00  0.00    -0.002 A 
ATOM      7  C5  OXE d   1      -0.325   1.226   3.361  0.00  0.00    -0.002 A 
ATOM      8  C6  OXE d   1       0.878   0.548   3.195  0.00  0.00     0.003 A 
ENDROOT
TORSDOF 0
ENDMDL
