MODEL 1
REMARK minimizedAffinity -1.12883735
REMARK minimizedRMSD -1
REMARK  0 active torsions:
REMARK  status: ('A' for Active; 'I' for Inactive)
ROOT
ATOM      1  C2' OXE d   1       0.039   0.083  -0.481  0.00  0.00     0.078 C 
ATOM      2  C1' OXE d   1      -1.833   0.490   1.570  0.00  0.00     0.078 C 
ATOM      3  C1  OXE d   1      -0.426   0.117   1.966  0.00  0.00    -0.078 A 
ATOM      4  C2  OXE d   1       0.472  -0.126   0.954  0.00  0.00    -0.078 A 
ATOM      5  C3  OXE d   1       1.796  -0.419   1.264  0.00  0.00     0.003 A 
ATOM      6  C4  OXE d   1       2.185  -0.621   2.594  0.00  0.00    -0.002 A 
ATOM      7  C5  OXE d   1       1.277  -0.417   3.638  0.00  0.00    -0.002 A 
ATOM      8  C6  OXE d   1      -0.019  -0.008   3.344  0.00  0.00     0.003 A 
ENDROOT
TORSDOF 0
ENDMDL
