MODEL 1
REMARK minimizedAffinity -1.09740746
REMARK minimizedRMSD -1
REMARK  0 active torsions:
REMARK  status: ('A' for Active; 'I' for Inactive)
ROOT
ATOM      1  C2' OXE d   1       2.316  -0.829   2.186  0.00  0.00     0.078 C 
ATOM      2  C1' OXE d   1      -0.023  -0.243   3.622  0.00  0.00     0.078 C 
ATOM      3  C1  OXE d   1      -0.115  -0.290   2.118  0.00  0.00    -0.078 A 
ATOM      4  C2  OXE d   1       1.045  -0.532   1.421  0.00  0.00    -0.078 A 
ATOM      5  C3  OXE d   1       1.006  -0.639   0.033  0.00  0.00     0.003 A 
ATOM      6  C4  OXE d   1      -0.172  -0.352  -0.667  0.00  0.00    -0.002 A 
ATOM      7  C5  OXE d   1      -1.356  -0.065   0.022  0.00  0.00    -0.002 A 
ATOM      8  C6  OXE d   1      -1.354  -0.072   1.412  0.00  0.00     0.003 A 
ENDROOT
TORSDOF 0
ENDMDL
