MODEL 1
REMARK minimizedAffinity -5.69870234
REMARK minimizedRMSD -1
REMARK  0 active torsions:
REMARK  status: ('A' for Active; 'I' for Inactive)
ROOT
ATOM      1  C2' OXE d   1      -0.302   1.216   3.689  0.00  0.00     0.078 C 
ATOM      2  C1' OXE d   1       1.931  -0.120   2.633  0.00  0.00     0.078 C 
ATOM      3  C1  OXE d   1       0.703  -0.006   1.764  0.00  0.00    -0.078 A 
ATOM      4  C2  OXE d   1      -0.400   0.609   2.306  0.00  0.00    -0.078 A 
ATOM      5  C3  OXE d   1      -1.540   0.789   1.528  0.00  0.00     0.003 A 
ATOM      6  C4  OXE d   1      -1.626   0.215   0.253  0.00  0.00    -0.002 A 
ATOM      7  C5  OXE d   1      -0.528  -0.449  -0.302  0.00  0.00    -0.002 A 
ATOM      8  C6  OXE d   1       0.657  -0.531   0.422  0.00  0.00     0.003 A 
ENDROOT
TORSDOF 0
ENDMDL
