MODEL 1
REMARK minimizedAffinity -2.30177021
REMARK minimizedRMSD -1
REMARK  0 active torsions:
REMARK  status: ('A' for Active; 'I' for Inactive)
ROOT
ATOM      1  C2' OXE d   1       0.420  -0.552  -0.595  0.00  0.00     0.078 C 
ATOM      2  C1' OXE d   1       2.369  -0.846   1.404  0.00  0.00     0.078 C 
ATOM      3  C1  OXE d   1       0.973  -0.469   1.833  0.00  0.00    -0.078 A 
ATOM      4  C2  OXE d   1       0.037  -0.282   0.844  0.00  0.00    -0.078 A 
ATOM      5  C3  OXE d   1      -1.279   0.013   1.188  0.00  0.00     0.003 A 
ATOM      6  C4  OXE d   1      -1.623   0.271   2.521  0.00  0.00    -0.002 A 
ATOM      7  C5  OXE d   1      -0.675   0.125   3.539  0.00  0.00    -0.002 A 
ATOM      8  C6  OXE d   1       0.614  -0.286   3.217  0.00  0.00     0.003 A 
ENDROOT
TORSDOF 0
ENDMDL
