MODEL 1
REMARK minimizedAffinity -4.68644333
REMARK minimizedRMSD -1
REMARK  0 active torsions:
REMARK  status: ('A' for Active; 'I' for Inactive)
ROOT
ATOM      1  C2' OXE d   1      -2.324   0.328  -0.454  0.00  0.00     0.078 C 
ATOM      2  C1' OXE d   1       0.301  -0.363  -1.171  0.00  0.00     0.078 C 
ATOM      3  C1  OXE d   1      -0.043  -0.333   0.297  0.00  0.00    -0.078 A 
ATOM      4  C2  OXE d   1      -1.316   0.051   0.641  0.00  0.00    -0.078 A 
ATOM      5  C3  OXE d   1      -1.702   0.043   1.979  0.00  0.00     0.003 A 
ATOM      6  C4  OXE d   1      -0.761  -0.204   2.986  0.00  0.00    -0.002 A 
ATOM      7  C5  OXE d   1       0.552  -0.559   2.659  0.00  0.00    -0.002 A 
ATOM      8  C6  OXE d   1       0.915  -0.669   1.321  0.00  0.00     0.003 A 
ENDROOT
TORSDOF 0
ENDMDL
