MODEL 1
REMARK minimizedAffinity -4.66967535
REMARK minimizedRMSD -1
REMARK  0 active torsions:
REMARK  status: ('A' for Active; 'I' for Inactive)
ROOT
ATOM      1  C2' OXE d   1       2.366  -1.965   0.494  0.00  0.00     0.078 C 
ATOM      2  C1' OXE d   1       0.307  -1.213  -1.260  0.00  0.00     0.078 C 
ATOM      3  C1  OXE d   1       0.107  -0.954   0.212  0.00  0.00    -0.078 A 
ATOM      4  C2  OXE d   1       1.099  -1.368   1.068  0.00  0.00    -0.078 A 
ATOM      5  C3  OXE d   1       0.990  -1.104   2.430  0.00  0.00     0.003 A 
ATOM      6  C4  OXE d   1      -0.189  -0.559   2.954  0.00  0.00    -0.002 A 
ATOM      7  C5  OXE d   1      -1.229  -0.167   2.104  0.00  0.00    -0.002 A 
ATOM      8  C6  OXE d   1      -1.080  -0.318   0.730  0.00  0.00     0.003 A 
ENDROOT
TORSDOF 0
ENDMDL
