MODEL 1
REMARK minimizedAffinity -4.76624966
REMARK minimizedRMSD -1
REMARK  0 active torsions:
REMARK  status: ('A' for Active; 'I' for Inactive)
ROOT
ATOM      1  C2' OXE d   1       2.007   0.614   1.919  0.00  0.00     0.078 C 
ATOM      2  C1' OXE d   1      -0.539   1.421   2.783  0.00  0.00     0.078 C 
ATOM      3  C1  OXE d   1      -0.463   0.426   1.652  0.00  0.00    -0.078 A 
ATOM      4  C2  OXE d   1       0.787   0.072   1.205  0.00  0.00    -0.078 A 
ATOM      5  C3  OXE d   1       0.915  -0.884   0.201  0.00  0.00     0.003 A 
ATOM      6  C4  OXE d   1      -0.218  -1.373  -0.460  0.00  0.00    -0.002 A 
ATOM      7  C5  OXE d   1      -1.500  -0.996  -0.047  0.00  0.00    -0.002 A 
ATOM      8  C6  OXE d   1      -1.640  -0.132   1.034  0.00  0.00     0.003 A 
ENDROOT
TORSDOF 0
ENDMDL
