MODEL 1
REMARK minimizedAffinity 0.744917095
REMARK minimizedRMSD -1
REMARK  1 active torsions:
REMARK  status: ('A' for Active; 'I' for Inactive)
REMARK    1  A    between atoms: C1_2  and  C2_3 
ROOT
ATOM      1  C2  UNL d   1      -2.455  -0.954  -0.435  0.00  0.00    -0.073 A 
ATOM      2  C3  UNL d   1      -2.190  -2.224  -0.962  0.00  0.00    -0.002 A 
ATOM      3  C4  UNL d   1      -2.444  -2.496  -2.306  0.00  0.00     0.004 A 
ATOM      4  C5  UNL d   1      -2.957  -1.502  -3.139  0.00  0.00    -0.004 A 
ATOM      5  C6  UNL d   1      -3.217  -0.224  -2.635  0.00  0.00    -0.075 A 
ATOM      6  C7  UNL d   1      -3.771   0.856  -3.517  0.00  0.00     0.076 C 
ATOM      7  C8  UNL d   1      -2.962   0.041  -1.282  0.00  0.00     0.001 A 
ENDROOT
BRANCH   1   8
ATOM      8  C1  UNL d   1      -2.176  -0.654   1.015  0.00  0.00     0.053 C 
ATOM      9  C   UNL d   1      -0.996  -1.451   1.546  0.00  0.00     0.018 C 
ENDBRANCH   1   8
TORSDOF 1
ENDMDL
