MODEL 1
REMARK minimizedAffinity 7.71848249
REMARK minimizedRMSD -1
REMARK  1 active torsions:
REMARK  status: ('A' for Active; 'I' for Inactive)
REMARK    1  A    between atoms: C1_2  and  C2_3 
ROOT
ATOM      1  C2  UNL d   1      -2.086  -1.153   0.425  0.00  0.00    -0.073 A 
ATOM      2  C3  UNL d   1      -2.379   0.023  -0.275  0.00  0.00    -0.002 A 
ATOM      3  C4  UNL d   1      -1.549   1.139  -0.158  0.00  0.00     0.004 A 
ATOM      4  C5  UNL d   1      -0.415   1.089   0.653  0.00  0.00    -0.004 A 
ATOM      5  C6  UNL d   1      -0.099  -0.081   1.352  0.00  0.00    -0.075 A 
ATOM      6  C7  UNL d   1       1.115  -0.150   2.231  0.00  0.00     0.076 C 
ATOM      7  C8  UNL d   1      -0.939  -1.196   1.232  0.00  0.00     0.001 A 
ENDROOT
BRANCH   1   8
ATOM      8  C1  UNL d   1      -2.975  -2.362   0.297  0.00  0.00     0.053 C 
ATOM      9  C   UNL d   1      -2.180  -3.658   0.301  0.00  0.00     0.018 C 
ENDBRANCH   1   8
TORSDOF 1
ENDMDL
