MODEL 1
REMARK minimizedAffinity 6.3391223
REMARK minimizedRMSD -1
REMARK  1 active torsions:
REMARK  status: ('A' for Active; 'I' for Inactive)
REMARK    1  A    between atoms: C1_2  and  C2_3 
ROOT
ATOM      1  C2  UNL d   1       1.744  -1.144   0.373  0.00  0.00    -0.073 A 
ATOM      2  C3  UNL d   1       0.846  -0.299  -0.288  0.00  0.00    -0.002 A 
ATOM      3  C4  UNL d   1       0.041   0.581   0.437  0.00  0.00     0.004 A 
ATOM      4  C5  UNL d   1       0.131   0.630   1.828  0.00  0.00    -0.004 A 
ATOM      5  C6  UNL d   1       1.031  -0.198   2.507  0.00  0.00    -0.075 A 
ATOM      6  C7  UNL d   1       1.138  -0.160   4.003  0.00  0.00     0.076 C 
ATOM      7  C8  UNL d   1       1.833  -1.081   1.771  0.00  0.00     0.001 A 
ENDROOT
BRANCH   1   8
ATOM      8  C1  UNL d   1       2.619  -2.091  -0.406  0.00  0.00     0.053 C 
ATOM      9  C   UNL d   1       3.390  -1.380  -1.506  0.00  0.00     0.018 C 
ENDBRANCH   1   8
TORSDOF 1
ENDMDL
