MODEL 1
REMARK minimizedAffinity 4.044765
REMARK minimizedRMSD -1
REMARK  1 active torsions:
REMARK  status: ('A' for Active; 'I' for Inactive)
REMARK    1  A    between atoms: C1_2  and  C2_3 
ROOT
ATOM      1  C2  UNL d   1       0.107  -0.120   1.788  0.00  0.00    -0.073 A 
ATOM      2  C3  UNL d   1      -0.949  -1.017   1.588  0.00  0.00    -0.002 A 
ATOM      3  C4  UNL d   1      -2.043  -0.654   0.802  0.00  0.00     0.004 A 
ATOM      4  C5  UNL d   1      -2.091   0.605   0.204  0.00  0.00    -0.004 A 
ATOM      5  C6  UNL d   1      -1.040   1.511   0.382  0.00  0.00    -0.075 A 
ATOM      6  C7  UNL d   1      -1.077   2.870  -0.253  0.00  0.00     0.076 C 
ATOM      7  C8  UNL d   1       0.054   1.140   1.175  0.00  0.00     0.001 A 
ENDROOT
BRANCH   1   8
ATOM      8  C1  UNL d   1       1.294  -0.510   2.631  0.00  0.00     0.053 C 
ATOM      9  C   UNL d   1       1.046  -0.269   4.111  0.00  0.00     0.018 C 
ENDBRANCH   1   8
TORSDOF 1
ENDMDL
