MODEL 1
REMARK minimizedAffinity 4.12460804
REMARK minimizedRMSD -1
REMARK  1 active torsions:
REMARK  status: ('A' for Active; 'I' for Inactive)
REMARK    1  A    between atoms: C1_2  and  C2_3 
ROOT
ATOM      1  C2  UNL d   1       1.841  -1.145   2.826  0.00  0.00    -0.073 A 
ATOM      2  C3  UNL d   1       1.800  -2.345   3.545  0.00  0.00    -0.002 A 
ATOM      3  C4  UNL d   1       1.528  -2.338   4.914  0.00  0.00     0.004 A 
ATOM      4  C5  UNL d   1       1.288  -1.134   5.576  0.00  0.00    -0.004 A 
ATOM      5  C6  UNL d   1       1.312   0.075   4.872  0.00  0.00    -0.075 A 
ATOM      6  C7  UNL d   1       1.058   1.379   5.570  0.00  0.00     0.076 C 
ATOM      7  C8  UNL d   1       1.589   0.060   3.498  0.00  0.00     0.001 A 
ENDROOT
BRANCH   1   8
ATOM      8  C1  UNL d   1       2.128  -1.148   1.347  0.00  0.00     0.053 C 
ATOM      9  C   UNL d   1       3.500  -1.723   1.034  0.00  0.00     0.018 C 
ENDBRANCH   1   8
TORSDOF 1
ENDMDL
