MODEL 1
REMARK minimizedAffinity 12.3735409
REMARK minimizedRMSD -1
REMARK  1 active torsions:
REMARK  status: ('A' for Active; 'I' for Inactive)
REMARK    1  A    between atoms: C1_2  and  C2_3 
ROOT
ATOM      1  C2  UNL d   1       1.254  -1.375   4.775  0.00  0.00    -0.073 A 
ATOM      2  C3  UNL d   1       1.121   0.014   4.885  0.00  0.00    -0.002 A 
ATOM      3  C4  UNL d   1       1.189   0.820   3.748  0.00  0.00     0.004 A 
ATOM      4  C5  UNL d   1       1.384   0.247   2.491  0.00  0.00    -0.004 A 
ATOM      5  C6  UNL d   1       1.507  -1.140   2.360  0.00  0.00    -0.075 A 
ATOM      6  C7  UNL d   1       1.719  -1.772   1.016  0.00  0.00     0.076 C 
ATOM      7  C8  UNL d   1       1.440  -1.943   3.507  0.00  0.00     0.001 A 
ENDROOT
BRANCH   1   8
ATOM      8  C1  UNL d   1       1.175  -2.250   5.999  0.00  0.00     0.053 C 
ATOM      9  C   UNL d   1       2.245  -3.330   5.998  0.00  0.00     0.018 C 
ENDBRANCH   1   8
TORSDOF 1
ENDMDL
