MODEL 1
REMARK minimizedAffinity -2.94461179
REMARK minimizedRMSD -1
REMARK  1 active torsions:
REMARK  status: ('A' for Active; 'I' for Inactive)
REMARK    1  A    between atoms: C1_2  and  C2_3 
ROOT
ATOM      1  C2  UNL d   1      -0.737  -0.114   0.896  0.00  0.00    -0.076 A 
ATOM      2  C3  UNL d   1      -1.478   0.884   1.552  0.00  0.00     0.004 A 
ATOM      3  C4  UNL d   1      -0.869   1.752   2.457  0.00  0.00    -0.003 A 
ATOM      4  C5  UNL d   1       0.491   1.636   2.720  0.00  0.00     0.000 A 
ATOM      5  C6  UNL d   1       1.246   0.664   2.065  0.00  0.00     0.000 A 
ATOM      6  C7  UNL d   1       0.651  -0.209   1.138  0.00  0.00    -0.073 A 
ATOM      7  C8  UNL d   1       1.511  -1.243   0.465  0.00  0.00     0.078 C 
ENDROOT
BRANCH   1   8
ATOM      8  C1  UNL d   1      -1.456  -1.044  -0.055  0.00  0.00     0.053 C 
ATOM      9  C   UNL d   1      -2.952  -0.775  -0.111  0.00  0.00     0.018 C 
ENDBRANCH   1   8
TORSDOF 1
ENDMDL
