MODEL 1
REMARK minimizedAffinity -2.14694762
REMARK minimizedRMSD -1
REMARK  1 active torsions:
REMARK  status: ('A' for Active; 'I' for Inactive)
REMARK    1  A    between atoms: C1_2  and  C2_3 
ROOT
ATOM      1  C2  UNL d   1       1.290  -0.051  -1.528  0.00  0.00    -0.076 A 
ATOM      2  C3  UNL d   1       2.123  -1.009  -0.925  0.00  0.00     0.004 A 
ATOM      3  C4  UNL d   1       2.364  -0.987   0.448  0.00  0.00    -0.003 A 
ATOM      4  C5  UNL d   1       1.776  -0.007   1.239  0.00  0.00     0.000 A 
ATOM      5  C6  UNL d   1       0.932   0.940   0.660  0.00  0.00     0.000 A 
ATOM      6  C7  UNL d   1       0.666   0.923  -0.720  0.00  0.00    -0.073 A 
ATOM      7  C8  UNL d   1      -0.247   1.972  -1.292  0.00  0.00     0.078 C 
ENDROOT
BRANCH   1   8
ATOM      8  C1  UNL d   1       1.087  -0.108  -3.026  0.00  0.00     0.053 C 
ATOM      9  C   UNL d   1       1.694   1.088  -3.742  0.00  0.00     0.018 C 
ENDBRANCH   1   8
TORSDOF 1
ENDMDL
