MODEL 1
REMARK minimizedAffinity -0.427532434
REMARK minimizedRMSD -1
REMARK  1 active torsions:
REMARK  status: ('A' for Active; 'I' for Inactive)
REMARK    1  A    between atoms: C1_2  and  C2_3 
ROOT
ATOM      1  C2  UNL d   1       0.369  -0.195  -1.779  0.00  0.00    -0.076 A 
ATOM      2  C3  UNL d   1       0.055   0.648  -2.860  0.00  0.00     0.004 A 
ATOM      3  C4  UNL d   1       0.975   0.876  -3.882  0.00  0.00    -0.003 A 
ATOM      4  C5  UNL d   1       2.224   0.265  -3.840  0.00  0.00     0.000 A 
ATOM      5  C6  UNL d   1       2.545  -0.587  -2.784  0.00  0.00     0.000 A 
ATOM      6  C7  UNL d   1       1.623  -0.841  -1.755  0.00  0.00    -0.073 A 
ATOM      7  C8  UNL d   1       2.025  -1.764  -0.637  0.00  0.00     0.078 C 
ENDROOT
BRANCH   1   8
ATOM      8  C1  UNL d   1      -0.659  -0.383  -0.687  0.00  0.00     0.053 C 
ATOM      9  C   UNL d   1      -0.314   0.390   0.577  0.00  0.00     0.018 C 
ENDBRANCH   1   8
TORSDOF 1
ENDMDL
