MODEL 1
REMARK minimizedAffinity 2.83847499
REMARK minimizedRMSD -1
REMARK  1 active torsions:
REMARK  status: ('A' for Active; 'I' for Inactive)
REMARK    1  A    between atoms: C1_2  and  C2_3 
ROOT
ATOM      1  C2  UNL d   1      -1.209  -0.296   0.218  0.00  0.00    -0.076 A 
ATOM      2  C3  UNL d   1      -1.520  -0.265   1.589  0.00  0.00     0.004 A 
ATOM      3  C4  UNL d   1      -0.597   0.201   2.524  0.00  0.00    -0.003 A 
ATOM      4  C5  UNL d   1       0.652   0.645   2.103  0.00  0.00     0.000 A 
ATOM      5  C6  UNL d   1       0.971   0.638   0.745  0.00  0.00     0.000 A 
ATOM      6  C7  UNL d   1       0.046   0.186  -0.211  0.00  0.00    -0.073 A 
ATOM      7  C8  UNL d   1       0.445   0.194  -1.662  0.00  0.00     0.078 C 
ENDROOT
BRANCH   1   8
ATOM      8  C1  UNL d   1      -2.239  -0.838  -0.746  0.00  0.00     0.053 C 
ATOM      9  C   UNL d   1      -2.138  -2.345  -0.921  0.00  0.00     0.018 C 
ENDBRANCH   1   8
TORSDOF 1
ENDMDL
