MODEL 1
REMARK minimizedAffinity -2.26664424
REMARK minimizedRMSD -1
REMARK  0 active torsions:
REMARK  status: ('A' for Active; 'I' for Inactive)
ROOT
ATOM      1  C   UNL d   1       1.783   0.896  -3.418  0.00  0.00     0.023 A 
ATOM      2  C1  UNL d   1       1.120   1.482  -4.495  0.00  0.00     0.003 A 
ATOM      3  C2  UNL d   1       0.199   0.740  -5.238  0.00  0.00     0.048 A 
ATOM      4  C3  UNL d   1      -0.055  -0.588  -4.896  0.00  0.00     0.023 A 
ATOM      5  C4  UNL d   1       0.606  -1.178  -3.818  0.00  0.00     0.048 A 
ATOM      6  C5  UNL d   1       1.527  -0.433  -3.079  0.00  0.00     0.003 A 
ATOM      7  I   UNL d   1      -1.425  -1.694  -5.999  0.00  0.00    -0.146 I 
ENDROOT
TORSDOF 0
ENDMDL
