MODEL 1
REMARK minimizedAffinity -2.1975534
REMARK minimizedRMSD -1
REMARK  0 active torsions:
REMARK  status: ('A' for Active; 'I' for Inactive)
ROOT
ATOM      1  C   UNL d   1       1.923   0.356  -2.848  0.00  0.00     0.023 A 
ATOM      2  C1  UNL d   1       0.962  -0.576  -2.457  0.00  0.00     0.003 A 
ATOM      3  C2  UNL d   1      -0.046  -0.956  -3.346  0.00  0.00     0.048 A 
ATOM      4  C3  UNL d   1      -0.085  -0.402  -4.625  0.00  0.00     0.023 A 
ATOM      5  C4  UNL d   1       0.876   0.530  -5.021  0.00  0.00     0.048 A 
ATOM      6  C5  UNL d   1       1.880   0.908  -4.129  0.00  0.00     0.003 A 
ATOM      7  I   UNL d   1      -1.584  -0.967  -5.950  0.00  0.00    -0.146 I 
ENDROOT
TORSDOF 0
ENDMDL
