MODEL 1
REMARK minimizedAffinity -4.16893864
REMARK minimizedRMSD -1
REMARK  0 active torsions:
REMARK  status: ('A' for Active; 'I' for Inactive)
ROOT
ATOM      1  C   UNL d   1      -1.498   0.855   1.827  0.00  0.00     0.023 A 
ATOM      2  C1  UNL d   1      -2.276   0.343   0.789  0.00  0.00     0.003 A 
ATOM      3  C2  UNL d   1      -1.665  -0.177  -0.354  0.00  0.00     0.048 A 
ATOM      4  C3  UNL d   1      -0.274  -0.183  -0.451  0.00  0.00     0.023 A 
ATOM      5  C4  UNL d   1       0.510   0.327   0.586  0.00  0.00     0.048 A 
ATOM      6  C5  UNL d   1      -0.106   0.847   1.726  0.00  0.00     0.003 A 
ATOM      7  I   UNL d   1       0.639  -0.957  -2.150  0.00  0.00    -0.146 I 
ENDROOT
TORSDOF 0
ENDMDL
