MODEL 1
REMARK minimizedAffinity -0.232604057
REMARK minimizedRMSD -1
REMARK  0 active torsions:
REMARK  status: ('A' for Active; 'I' for Inactive)
ROOT
ATOM      1  C   UNL d   1       0.843  -1.069  -1.494  0.00  0.00     0.023 A 
ATOM      2  C1  UNL d   1      -0.548  -0.975  -1.425  0.00  0.00     0.003 A 
ATOM      3  C2  UNL d   1      -1.159  -0.481  -0.271  0.00  0.00     0.048 A 
ATOM      4  C3  UNL d   1      -0.373  -0.081   0.810  0.00  0.00     0.023 A 
ATOM      5  C4  UNL d   1       1.018  -0.172   0.745  0.00  0.00     0.048 A 
ATOM      6  C5  UNL d   1       1.624  -0.668  -0.411  0.00  0.00     0.003 A 
ATOM      7  I   UNL d   1      -1.281   0.656   2.529  0.00  0.00    -0.146 I 
ENDROOT
TORSDOF 0
ENDMDL
