MODEL 1
REMARK minimizedAffinity -0.287881494
REMARK minimizedRMSD -1
REMARK  0 active torsions:
REMARK  status: ('A' for Active; 'I' for Inactive)
ROOT
ATOM      1  C   UNL d   1       1.703  -0.266   3.519  0.00  0.00     0.023 A 
ATOM      2  C1  UNL d   1       0.380   0.014   3.864  0.00  0.00     0.003 A 
ATOM      3  C2  UNL d   1      -0.586   0.163   2.867  0.00  0.00     0.048 A 
ATOM      4  C3  UNL d   1      -0.224   0.029   1.528  0.00  0.00     0.023 A 
ATOM      5  C4  UNL d   1       1.098  -0.253   1.178  0.00  0.00     0.048 A 
ATOM      6  C5  UNL d   1       2.061  -0.400   2.178  0.00  0.00     0.003 A 
ATOM      7  I   UNL d   1      -1.661   0.249   0.042  0.00  0.00    -0.146 I 
ENDROOT
TORSDOF 0
ENDMDL
