MODEL 1
REMARK minimizedAffinity -2.32262039
REMARK minimizedRMSD -1
REMARK  0 active torsions:
REMARK  status: ('A' for Active; 'I' for Inactive)
ROOT
ATOM      1  C   UNL d   1       0.746   0.076   2.410  0.00  0.00     0.023 A 
ATOM      2  C1  UNL d   1      -0.378   0.740   2.900  0.00  0.00     0.003 A 
ATOM      3  C2  UNL d   1      -1.457   1.008   2.055  0.00  0.00     0.048 A 
ATOM      4  C3  UNL d   1      -1.406   0.607   0.721  0.00  0.00     0.023 A 
ATOM      5  C4  UNL d   1      -0.284  -0.059   0.225  0.00  0.00     0.048 A 
ATOM      6  C5  UNL d   1       0.793  -0.324   1.074  0.00  0.00     0.003 A 
ATOM      7  I   UNL d   1      -3.011   1.004  -0.539  0.00  0.00    -0.146 I 
ENDROOT
TORSDOF 0
ENDMDL
