MODEL 1
REMARK minimizedAffinity -2.60057855
REMARK minimizedRMSD -1
REMARK  0 active torsions:
REMARK  status: ('A' for Active; 'I' for Inactive)
ROOT
ATOM      1  C   UNL d   1       1.557   0.360  -4.628  0.00  0.00     0.023 A 
ATOM      2  C1  UNL d   1       2.414   0.655  -3.567  0.00  0.00     0.003 A 
ATOM      3  C2  UNL d   1       1.983   0.481  -2.250  0.00  0.00     0.048 A 
ATOM      4  C3  UNL d   1       0.694   0.011  -2.001  0.00  0.00     0.023 A 
ATOM      5  C4  UNL d   1      -0.167  -0.286  -3.059  0.00  0.00     0.048 A 
ATOM      6  C5  UNL d   1       0.268  -0.110  -4.374  0.00  0.00     0.003 A 
ATOM      7  I   UNL d   1       0.051  -0.250  -0.042  0.00  0.00    -0.146 I 
ENDROOT
TORSDOF 0
ENDMDL
