MODEL 1
REMARK minimizedAffinity -1.76020801
REMARK minimizedRMSD -1
REMARK  0 active torsions:
REMARK  status: ('A' for Active; 'I' for Inactive)
ROOT
ATOM      1  C   UNL d   1      -1.838   0.427   1.659  0.00  0.00     0.023 A 
ATOM      2  C1  UNL d   1      -0.626  -0.255   1.553  0.00  0.00     0.003 A 
ATOM      3  C2  UNL d   1      -0.041  -0.451   0.300  0.00  0.00     0.048 A 
ATOM      4  C3  UNL d   1      -0.672   0.039  -0.843  0.00  0.00     0.023 A 
ATOM      5  C4  UNL d   1      -1.885   0.723  -0.741  0.00  0.00     0.048 A 
ATOM      6  C5  UNL d   1      -2.467   0.916   0.513  0.00  0.00     0.003 A 
ATOM      7  I   UNL d   1       0.197  -0.252  -2.708  0.00  0.00    -0.146 I 
ENDROOT
TORSDOF 0
ENDMDL
