MODEL 1
REMARK minimizedAffinity -4.57228899
REMARK minimizedRMSD -1
REMARK  0 active torsions:
REMARK  status: ('A' for Active; 'I' for Inactive)
ROOT
ATOM      1  C1  BNZ d   1      -2.602  -0.712  -0.586  0.00  0.00     0.000 A 
ATOM      2  C2  BNZ d   1      -2.915  -1.862   0.088  0.00  0.00     0.000 A 
ATOM      3  C3  BNZ d   1      -2.069  -2.371   1.033  0.00  0.00     0.000 A 
ATOM      4  C4  BNZ d   1      -0.895  -1.753   1.274  0.00  0.00     0.000 A 
ATOM      5  C5  BNZ d   1      -0.560  -0.598   0.596  0.00  0.00     0.000 A 
ATOM      6  C6  BNZ d   1      -1.432  -0.067  -0.327  0.00  0.00     0.000 A 
ENDROOT
TORSDOF 0
ENDMDL
