MODEL 1
REMARK minimizedAffinity -0.230540901
REMARK minimizedRMSD -1
REMARK  0 active torsions:
REMARK  status: ('A' for Active; 'I' for Inactive)
ROOT
ATOM      1  C1  BNZ d   1      -1.850  -1.021   1.195  0.00  0.00     0.000 A 
ATOM      2  C2  BNZ d   1      -2.857  -1.766   0.641  0.00  0.00     0.000 A 
ATOM      3  C3  BNZ d   1      -2.998  -1.853  -0.716  0.00  0.00     0.000 A 
ATOM      4  C4  BNZ d   1      -2.158  -1.163  -1.515  0.00  0.00     0.000 A 
ATOM      5  C5  BNZ d   1      -1.144  -0.401  -0.971  0.00  0.00     0.000 A 
ATOM      6  C6  BNZ d   1      -0.981  -0.347   0.394  0.00  0.00     0.000 A 
ENDROOT
TORSDOF 0
ENDMDL
